MODEL 1
REMARK VINA RESULT:     -14.8      0.000      0.000
REMARK SMILES Cc1cccc(OC2(C(=O)NCCCNC(=O)c3ccc(-c4c5nc(c(-c6c(F)c(F)c(F)c(F)c6F)c6ccc([nH]6)c(-c6c(F)c(F)c(F)c(F)c6F)c6nc(c(-c7c(F)c(F)c(F)c(F)c7F)c7ccc4[nH]7)C=C6)C=C5)cc3)CCN(C(=O)c3cnc[nH]c3=O)CC2)c1
REMARK SMILES IDX 13 1 12 2 11 3 9 4 10 5 8 7 81 8 94 9 82 10 93 11 83 12
REMARK SMILES IDX 84 13 85 14 7 15 6 16 1 17 2 18 3 19 95 20 4 21 5 22 86 23
REMARK SMILES IDX 87 24 91 25 88 26 90 27 92 28 89 29 14 31 15 32 16 33 17 35
REMARK SMILES IDX 18 36 19 37 80 38 20 39 79 40 21 41 22 42 23 43 73 44 24 45
REMARK SMILES IDX 78 46 72 47 74 48 25 49 77 50 71 51 70 52 26 54 58 55 38 56
REMARK SMILES IDX 57 57 39 58 42 59 56 60 75 61 40 62 41 63 55 65 76 66 43 67
REMARK SMILES IDX 27 68 28 69 36 70 29 71 30 72 34 73 37 74 31 75 32 76 35 77
REMARK SMILES IDX 33 78 59 79 60 80 68 81 61 82 62 83 66 84 69 85 63 86 64 87
REMARK SMILES IDX 67 88 65 89 44 90 45 91 53 92 46 93 47 94 51 95 54 96 48 97
REMARK SMILES IDX 49 98 52 99 50 100
REMARK H PARENT 11 6 90 30 15 34 74 53 42 64
REMARK Flexibility Score: inf
ROOT
ATOM      1  C   UNL A   1      38.175  21.854  25.617  1.00  0.00     0.042 C 
ENDROOT
BRANCH   1   2
ATOM      2  C   UNL A   1      36.679  21.774  25.295  1.00  0.00     0.118 C 
BRANCH   2   3
ATOM      3  N   UNL A   1      35.831  21.728  26.488  1.00  0.00    -0.353 N 
ATOM      4  C   UNL A   1      34.485  21.837  26.715  1.00  0.00     0.264 C 
ATOM      5  O   UNL A   1      34.154  21.631  27.891  1.00  0.00    -0.270 OA
ATOM      6  H   UNL A   1      36.347  21.587  27.315  1.00  0.00     0.163 HD
BRANCH   4   7
ATOM      7  C   UNL A   1      33.409  22.161  25.616  1.00  0.00     0.190 C 
ATOM      8  C   UNL A   1      31.994  22.020  26.179  1.00  0.00     0.080 C 
ATOM      9  C   UNL A   1      33.638  23.614  25.106  1.00  0.00     0.080 C 
ATOM     10  C   UNL A   1      30.904  22.565  25.278  1.00  0.00     0.124 C 
ATOM     11  C   UNL A   1      32.483  24.087  24.208  1.00  0.00     0.124 C 
ATOM     12  N   UNL A   1      31.230  23.933  24.939  1.00  0.00    -0.338 N 
ATOM     13  C   UNL A   1      30.650  24.960  25.662  1.00  0.00     0.261 C 
ATOM     14  O   UNL A   1      30.242  24.828  26.814  1.00  0.00    -0.269 OA
BRANCH   7  15
ATOM     15  O   UNL A   1      33.760  21.362  24.466  1.00  0.00    -0.477 OA
BRANCH  15  16
ATOM     16  C   UNL A   1      33.637  20.045  24.178  1.00  0.00     0.121 A 
ATOM     17  C   UNL A   1      34.778  16.501  24.976  1.00  0.00     0.044 C 
ATOM     18  C   UNL A   1      34.012  17.642  24.370  1.00  0.00    -0.047 A 
ATOM     19  C   UNL A   1      32.895  17.390  23.573  1.00  0.00     0.003 A 
ATOM     20  C   UNL A   1      34.396  18.972  24.626  1.00  0.00     0.049 A 
ATOM     21  C   UNL A   1      32.163  18.453  23.057  1.00  0.00     0.004 A 
ATOM     22  C   UNL A   1      32.528  19.765  23.371  1.00  0.00     0.046 A 
ENDBRANCH  15  16
ENDBRANCH   7  15
BRANCH  13  23
ATOM     23  C   UNL A   1      30.506  26.239  24.950  1.00  0.00     0.123 A 
ATOM     24  C   UNL A   1      29.582  26.383  23.991  1.00  0.00     0.132 A 
ATOM     25  C   UNL A   1      31.407  27.380  25.200  1.00  0.00     0.263 A 
ATOM     26  N   UNL A   1      29.375  27.529  23.261  1.00  0.00    -0.246 NA
ATOM     27  N   UNL A   1      31.167  28.483  24.432  1.00  0.00    -0.312 N 
ATOM     28  O   UNL A   1      32.320  27.357  26.018  1.00  0.00    -0.269 OA
ATOM     29  C   UNL A   1      30.170  28.516  23.503  1.00  0.00     0.199 A 
ATOM     30  H   UNL A   1      31.731  29.281  24.553  1.00  0.00     0.171 HD
ENDBRANCH  13  23
ENDBRANCH   4   7
ENDBRANCH   2   3
ENDBRANCH   1   2
BRANCH   1  31
ATOM     31  C   UNL A   1      38.638  23.176  26.209  1.00  0.00     0.118 C 
BRANCH  31  32
ATOM     32  N   UNL A   1      40.091  23.345  26.130  1.00  0.00    -0.352 N 
ATOM     33  C   UNL A   1      40.857  24.424  26.541  1.00  0.00     0.251 C 
ATOM     34  H   UNL A   1      40.589  22.593  25.735  1.00  0.00     0.163 HD
ATOM     35  O   UNL A   1      42.074  24.405  26.529  1.00  0.00    -0.269 OA
BRANCH  33  36
ATOM     36  C   UNL A   1      40.123  25.590  27.067  1.00  0.00     0.039 A 
ATOM     37  C   UNL A   1      40.409  26.832  26.496  1.00  0.00     0.014 A 
ATOM     38  C   UNL A   1      39.519  25.474  28.319  1.00  0.00     0.014 A 
ATOM     39  C   UNL A   1      40.318  27.965  27.295  1.00  0.00     0.010 A 
ATOM     40  C   UNL A   1      39.471  26.601  29.125  1.00  0.00     0.010 A 
ATOM     41  C   UNL A   1      39.964  27.823  28.642  1.00  0.00    -0.014 A 
BRANCH  41  42
ATOM     42  C   UNL A   1      40.290  28.851  29.629  1.00  0.00     0.031 A 
ATOM     43  C   UNL A   1      39.295  29.856  30.046  1.00  0.00     0.074 A 
ATOM     44  C   UNL A   1      41.533  28.912  30.163  1.00  0.00     0.049 A 
ATOM     45  N   UNL A   1      39.605  31.054  30.420  1.00  0.00    -0.248 NA
ATOM     46  C   UNL A   1      37.860  29.599  30.051  1.00  0.00     0.031 C 
ATOM     47  C   UNL A   1      41.977  29.769  31.262  1.00  0.00     0.029 A 
ATOM     48  N   UNL A   1      42.725  28.357  29.657  1.00  0.00    -0.354 N 
ATOM     49  C   UNL A   1      38.474  31.637  30.931  1.00  0.00     0.074 A 
ATOM     50  C   UNL A   1      37.402  30.712  30.633  1.00  0.00     0.031 C 
ATOM     51  C   UNL A   1      43.298  29.964  31.148  1.00  0.00     0.029 A 
ATOM     52  C   UNL A   1      43.728  29.322  29.919  1.00  0.00     0.049 A 
ATOM     53  H   UNL A   1      42.837  27.484  29.215  1.00  0.00     0.167 HD
ATOM     54  C   UNL A   1      38.564  32.791  31.648  1.00  0.00     0.037 A 
ATOM     55  C   UNL A   1      44.435  29.914  28.916  1.00  0.00     0.037 A 
ATOM     56  C   UNL A   1      39.930  33.286  31.760  1.00  0.00     0.049 A 
ATOM     57  C   UNL A   1      44.307  31.421  28.844  1.00  0.00     0.074 A 
ATOM     58  C   UNL A   1      40.908  33.221  32.739  1.00  0.00     0.029 A 
ATOM     59  N   UNL A   1      40.567  33.732  30.618  1.00  0.00    -0.354 N 
ATOM     60  N   UNL A   1      43.556  32.136  29.634  1.00  0.00    -0.248 NA
ATOM     61  C   UNL A   1      44.931  32.224  27.790  1.00  0.00     0.031 C 
ATOM     62  C   UNL A   1      42.139  33.651  32.170  1.00  0.00     0.029 A 
ATOM     63  C   UNL A   1      41.907  33.970  30.847  1.00  0.00     0.049 A 
ATOM     64  H   UNL A   1      40.120  33.864  29.750  1.00  0.00     0.167 HD
ATOM     65  C   UNL A   1      43.528  33.427  29.177  1.00  0.00     0.074 A 
ATOM     66  C   UNL A   1      44.408  33.438  28.025  1.00  0.00     0.031 C 
ATOM     67  C   UNL A   1      42.744  34.390  29.740  1.00  0.00     0.037 A 
BRANCH  54  68
ATOM     68  C   UNL A   1      37.402  33.345  32.422  1.00  0.00     0.064 A 
ATOM     69  C   UNL A   1      36.375  34.069  31.784  1.00  0.00     0.173 A 
ATOM     70  C   UNL A   1      37.278  33.215  33.816  1.00  0.00     0.173 A 
ATOM     71  F   UNL A   1      36.337  34.203  30.453  1.00  0.00    -0.203 F 
ATOM     72  C   UNL A   1      35.360  34.704  32.502  1.00  0.00     0.198 A 
ATOM     73  C   UNL A   1      36.294  33.897  34.539  1.00  0.00     0.198 A 
ATOM     74  F   UNL A   1      38.102  32.415  34.508  1.00  0.00    -0.203 F 
ATOM     75  F   UNL A   1      34.411  35.387  31.846  1.00  0.00    -0.200 F 
ATOM     76  C   UNL A   1      35.341  34.649  33.882  1.00  0.00     0.200 A 
ATOM     77  F   UNL A   1      36.286  33.830  35.878  1.00  0.00    -0.200 F 
ATOM     78  F   UNL A   1      34.403  35.311  34.572  1.00  0.00    -0.200 F 
ENDBRANCH  54  68
BRANCH  55  79
ATOM     79  C   UNL A   1      44.652  29.024  27.749  1.00  0.00     0.064 A 
ATOM     80  C   UNL A   1      45.578  27.971  27.870  1.00  0.00     0.173 A 
ATOM     81  C   UNL A   1      43.757  28.982  26.675  1.00  0.00     0.173 A 
ATOM     82  F   UNL A   1      46.453  27.958  28.888  1.00  0.00    -0.203 F 
ATOM     83  C   UNL A   1      45.538  26.871  27.018  1.00  0.00     0.198 A 
ATOM     84  C   UNL A   1      43.732  27.887  25.812  1.00  0.00     0.198 A 
ATOM     85  F   UNL A   1      42.836  29.943  26.521  1.00  0.00    -0.203 F 
ATOM     86  F   UNL A   1      46.352  25.828  27.235  1.00  0.00    -0.200 F 
ATOM     87  C   UNL A   1      44.598  26.820  26.004  1.00  0.00     0.200 A 
ATOM     88  F   UNL A   1      42.808  27.828  24.844  1.00  0.00    -0.200 F 
ATOM     89  F   UNL A   1      44.497  25.724  25.239  1.00  0.00    -0.200 F 
ENDBRANCH  55  79
BRANCH  67  90
ATOM     90  C   UNL A   1      42.707  35.814  29.272  1.00  0.00     0.064 A 
ATOM     91  C   UNL A   1      42.073  36.193  28.078  1.00  0.00     0.173 A 
ATOM     92  C   UNL A   1      43.414  36.827  29.953  1.00  0.00     0.173 A 
ATOM     93  F   UNL A   1      41.424  35.290  27.330  1.00  0.00    -0.203 F 
ATOM     94  C   UNL A   1      42.113  37.511  27.617  1.00  0.00     0.198 A 
ATOM     95  C   UNL A   1      43.494  38.128  29.464  1.00  0.00     0.198 A 
ATOM     96  F   UNL A   1      44.028  36.584  31.121  1.00  0.00    -0.203 F 
ATOM     97  F   UNL A   1      41.455  37.843  26.498  1.00  0.00    -0.200 F 
ATOM     98  C   UNL A   1      42.832  38.474  28.303  1.00  0.00     0.200 A 
ATOM     99  F   UNL A   1      44.211  39.045  30.130  1.00  0.00    -0.200 F 
ATOM    100  F   UNL A   1      42.887  39.732  27.847  1.00  0.00    -0.200 F 
ENDBRANCH  67  90
ENDBRANCH  41  42
ENDBRANCH  33  36
ENDBRANCH  31  32
ENDBRANCH   1  31
TORSDOF 13
ENDMDL
MODEL 2
REMARK VINA RESULT:     -14.5      3.818     10.368
REMARK SMILES Cc1cccc(OC2(C(=O)NCCCNC(=O)c3ccc(-c4c5nc(c(-c6c(F)c(F)c(F)c(F)c6F)c6ccc([nH]6)c(-c6c(F)c(F)c(F)c(F)c6F)c6nc(c(-c7c(F)c(F)c(F)c(F)c7F)c7ccc4[nH]7)C=C6)C=C5)cc3)CCN(C(=O)c3cnc[nH]c3=O)CC2)c1
REMARK SMILES IDX 13 1 12 2 11 3 9 4 10 5 8 7 81 8 94 9 82 10 93 11 83 12
REMARK SMILES IDX 84 13 85 14 7 15 6 16 1 17 2 18 3 19 95 20 4 21 5 22 86 23
REMARK SMILES IDX 87 24 91 25 88 26 90 27 92 28 89 29 14 31 15 32 16 33 17 35
REMARK SMILES IDX 18 36 19 37 80 38 20 39 79 40 21 41 22 42 23 43 73 44 24 45
REMARK SMILES IDX 78 46 72 47 74 48 25 49 77 50 71 51 70 52 26 54 58 55 38 56
REMARK SMILES IDX 57 57 39 58 42 59 56 60 75 61 40 62 41 63 55 65 76 66 43 67
REMARK SMILES IDX 27 68 28 69 36 70 29 71 30 72 34 73 37 74 31 75 32 76 35 77
REMARK SMILES IDX 33 78 59 79 60 80 68 81 61 82 62 83 66 84 69 85 63 86 64 87
REMARK SMILES IDX 67 88 65 89 44 90 45 91 53 92 46 93 47 94 51 95 54 96 48 97
REMARK SMILES IDX 49 98 52 99 50 100
REMARK H PARENT 11 6 90 30 15 34 74 53 42 64
REMARK Flexibility Score: inf
ROOT
ATOM      1  C   UNL A   1      34.144  30.459  26.645  1.00  0.00     0.042 C 
ENDROOT
BRANCH   1   2
ATOM      2  C   UNL A   1      33.294  29.565  25.735  1.00  0.00     0.118 C 
BRANCH   2   3
ATOM      3  N   UNL A   1      33.940  29.259  24.458  1.00  0.00    -0.353 N 
ATOM      4  C   UNL A   1      33.735  28.324  23.478  1.00  0.00     0.264 C 
ATOM      5  O   UNL A   1      34.455  28.475  22.481  1.00  0.00    -0.270 OA
ATOM      6  H   UNL A   1      34.695  29.860  24.260  1.00  0.00     0.163 HD
BRANCH   4   7
ATOM      7  C   UNL A   1      32.674  27.167  23.544  1.00  0.00     0.190 C 
ATOM      8  C   UNL A   1      32.588  26.428  22.207  1.00  0.00     0.080 C 
ATOM      9  C   UNL A   1      33.085  26.177  24.673  1.00  0.00     0.080 C 
ATOM     10  C   UNL A   1      31.793  25.139  22.254  1.00  0.00     0.124 C 
ATOM     11  C   UNL A   1      32.234  24.897  24.641  1.00  0.00     0.124 C 
ATOM     12  N   UNL A   1      32.328  24.308  23.310  1.00  0.00    -0.338 N 
ATOM     13  C   UNL A   1      33.237  23.317  22.989  1.00  0.00     0.261 C 
ATOM     14  O   UNL A   1      33.953  23.355  21.990  1.00  0.00    -0.269 OA
BRANCH   7  15
ATOM     15  O   UNL A   1      31.466  27.761  24.065  1.00  0.00    -0.477 OA
BRANCH  15  16
ATOM     16  C   UNL A   1      30.337  28.228  23.484  1.00  0.00     0.121 A 
ATOM     17  C   UNL A   1      26.529  28.212  23.478  1.00  0.00     0.044 C 
ATOM     18  C   UNL A   1      27.946  28.569  23.133  1.00  0.00    -0.047 A 
ATOM     19  C   UNL A   1      28.211  29.640  22.279  1.00  0.00     0.003 A 
ATOM     20  C   UNL A   1      29.017  27.846  23.691  1.00  0.00     0.049 A 
ATOM     21  C   UNL A   1      29.527  29.994  22.004  1.00  0.00     0.004 A 
ATOM     22  C   UNL A   1      30.574  29.299  22.614  1.00  0.00     0.046 A 
ENDBRANCH  15  16
ENDBRANCH   7  15
BRANCH  13  23
ATOM     23  C   UNL A   1      33.277  22.166  23.904  1.00  0.00     0.123 A 
ATOM     24  C   UNL A   1      32.240  21.320  23.977  1.00  0.00     0.132 A 
ATOM     25  C   UNL A   1      34.406  21.935  24.824  1.00  0.00     0.263 A 
ATOM     26  N   UNL A   1      32.173  20.225  24.806  1.00  0.00    -0.246 NA
ATOM     27  N   UNL A   1      34.276  20.845  25.636  1.00  0.00    -0.312 N 
ATOM     28  O   UNL A   1      35.391  22.663  24.884  1.00  0.00    -0.269 OA
ATOM     29  C   UNL A   1      33.176  20.040  25.596  1.00  0.00     0.199 A 
ATOM     30  H   UNL A   1      34.998  20.633  26.270  1.00  0.00     0.171 HD
ENDBRANCH  13  23
ENDBRANCH   4   7
ENDBRANCH   2   3
ENDBRANCH   1   2
BRANCH   1  31
ATOM     31  C   UNL A   1      34.077  30.121  28.127  1.00  0.00     0.118 C 
BRANCH  31  32
ATOM     32  N   UNL A   1      34.826  31.072  28.952  1.00  0.00    -0.352 N 
ATOM     33  C   UNL A   1      36.142  30.994  29.378  1.00  0.00     0.251 C 
ATOM     34  H   UNL A   1      34.330  31.872  29.239  1.00  0.00     0.163 HD
ATOM     35  O   UNL A   1      36.694  31.905  29.969  1.00  0.00    -0.269 OA
BRANCH  33  36
ATOM     36  C   UNL A   1      36.879  29.768  29.018  1.00  0.00     0.039 A 
ATOM     37  C   UNL A   1      37.305  28.952  30.068  1.00  0.00     0.014 A 
ATOM     38  C   UNL A   1      37.448  29.693  27.747  1.00  0.00     0.014 A 
ATOM     39  C   UNL A   1      38.482  28.230  29.910  1.00  0.00     0.010 A 
ATOM     40  C   UNL A   1      38.644  29.006  27.608  1.00  0.00     0.010 A 
ATOM     41  C   UNL A   1      39.207  28.360  28.719  1.00  0.00    -0.014 A 
BRANCH  41  42
ATOM     42  C   UNL A   1      40.629  28.028  28.652  1.00  0.00     0.031 A 
ATOM     43  C   UNL A   1      41.089  26.733  28.119  1.00  0.00     0.074 A 
ATOM     44  C   UNL A   1      41.555  28.906  29.106  1.00  0.00     0.049 A 
ATOM     45  N   UNL A   1      42.166  26.140  28.518  1.00  0.00    -0.248 NA
ATOM     46  C   UNL A   1      40.355  25.984  27.106  1.00  0.00     0.031 C 
ATOM     47  C   UNL A   1      43.008  28.799  28.972  1.00  0.00     0.029 A 
ATOM     48  N   UNL A   1      41.369  29.984  29.994  1.00  0.00    -0.354 N 
ATOM     49  C   UNL A   1      42.397  25.083  27.675  1.00  0.00     0.074 A 
ATOM     50  C   UNL A   1      41.216  24.994  26.844  1.00  0.00     0.031 C 
ATOM     51  C   UNL A   1      43.582  29.496  29.963  1.00  0.00     0.029 A 
ATOM     52  C   UNL A   1      42.520  29.990  30.820  1.00  0.00     0.049 A 
ATOM     53  H   UNL A   1      40.603  30.601  30.032  1.00  0.00     0.167 HD
ATOM     54  C   UNL A   1      43.602  24.449  27.687  1.00  0.00     0.037 A 
ATOM     55  C   UNL A   1      42.437  29.812  32.169  1.00  0.00     0.037 A 
ATOM     56  C   UNL A   1      44.526  25.004  28.667  1.00  0.00     0.049 A 
ATOM     57  C   UNL A   1      43.193  28.617  32.706  1.00  0.00     0.074 A 
ATOM     58  C   UNL A   1      45.587  25.892  28.606  1.00  0.00     0.029 A 
ATOM     59  N   UNL A   1      44.232  24.858  30.009  1.00  0.00    -0.354 N 
ATOM     60  N   UNL A   1      43.853  27.769  31.968  1.00  0.00    -0.248 NA
ATOM     61  C   UNL A   1      43.160  28.220  34.115  1.00  0.00     0.031 C 
ATOM     62  C   UNL A   1      45.936  26.265  29.934  1.00  0.00     0.029 A 
ATOM     63  C   UNL A   1      45.083  25.607  30.798  1.00  0.00     0.049 A 
ATOM     64  H   UNL A   1      43.507  24.290  30.360  1.00  0.00     0.167 HD
ATOM     65  C   UNL A   1      44.254  26.715  32.746  1.00  0.00     0.074 A 
ATOM     66  C   UNL A   1      43.805  27.043  34.084  1.00  0.00     0.031 C 
ATOM     67  C   UNL A   1      44.881  25.618  32.233  1.00  0.00     0.037 A 
BRANCH  54  68
ATOM     68  C   UNL A   1      43.990  23.447  26.637  1.00  0.00     0.064 A 
ATOM     69  C   UNL A   1      43.462  22.141  26.641  1.00  0.00     0.173 A 
ATOM     70  C   UNL A   1      44.917  23.724  25.618  1.00  0.00     0.173 A 
ATOM     71  F   UNL A   1      42.516  21.771  27.514  1.00  0.00    -0.203 F 
ATOM     72  C   UNL A   1      43.909  21.158  25.756  1.00  0.00     0.198 A 
ATOM     73  C   UNL A   1      45.406  22.727  24.770  1.00  0.00     0.198 A 
ATOM     74  F   UNL A   1      45.363  24.973  25.416  1.00  0.00    -0.203 F 
ATOM     75  F   UNL A   1      43.379  19.928  25.807  1.00  0.00    -0.200 F 
ATOM     76  C   UNL A   1      44.909  21.441  24.846  1.00  0.00     0.200 A 
ATOM     77  F   UNL A   1      46.373  23.018  23.887  1.00  0.00    -0.200 F 
ATOM     78  F   UNL A   1      45.381  20.481  24.040  1.00  0.00    -0.200 F 
ENDBRANCH  54  68
BRANCH  55  79
ATOM     79  C   UNL A   1      41.189  30.361  32.755  1.00  0.00     0.064 A 
ATOM     80  C   UNL A   1      41.040  31.759  32.833  1.00  0.00     0.173 A 
ATOM     81  C   UNL A   1      40.044  29.576  32.923  1.00  0.00     0.173 A 
ATOM     82  F   UNL A   1      42.106  32.559  32.669  1.00  0.00    -0.203 F 
ATOM     83  C   UNL A   1      39.786  32.346  32.963  1.00  0.00     0.198 A 
ATOM     84  C   UNL A   1      38.790  30.168  33.072  1.00  0.00     0.198 A 
ATOM     85  F   UNL A   1      40.117  28.240  32.835  1.00  0.00    -0.203 F 
ATOM     86  F   UNL A   1      39.664  33.681  32.909  1.00  0.00    -0.200 F 
ATOM     87  C   UNL A   1      38.658  31.549  33.058  1.00  0.00     0.200 A 
ATOM     88  F   UNL A   1      37.697  29.397  33.142  1.00  0.00    -0.200 F 
ATOM     89  F   UNL A   1      37.442  32.111  33.093  1.00  0.00    -0.200 F 
ENDBRANCH  55  79
BRANCH  67  90
ATOM     90  C   UNL A   1      45.346  24.460  33.063  1.00  0.00     0.064 A 
ATOM     91  C   UNL A   1      44.524  23.355  33.334  1.00  0.00     0.173 A 
ATOM     92  C   UNL A   1      46.598  24.482  33.714  1.00  0.00     0.173 A 
ATOM     93  F   UNL A   1      43.294  23.271  32.808  1.00  0.00    -0.203 F 
ATOM     94  C   UNL A   1      44.945  22.320  34.172  1.00  0.00     0.198 A 
ATOM     95  C   UNL A   1      46.994  23.472  34.588  1.00  0.00     0.198 A 
ATOM     96  F   UNL A   1      47.477  25.473  33.502  1.00  0.00    -0.203 F 
ATOM     97  F   UNL A   1      44.150  21.258  34.366  1.00  0.00    -0.200 F 
ATOM     98  C   UNL A   1      46.172  22.384  34.807  1.00  0.00     0.200 A 
ATOM     99  F   UNL A   1      48.178  23.559  35.211  1.00  0.00    -0.200 F 
ATOM    100  F   UNL A   1      46.565  21.400  35.627  1.00  0.00    -0.200 F 
ENDBRANCH  67  90
ENDBRANCH  41  42
ENDBRANCH  33  36
ENDBRANCH  31  32
ENDBRANCH   1  31
TORSDOF 13
ENDMDL
MODEL 3
REMARK VINA RESULT:     -14.2      1.443      2.317
REMARK SMILES Cc1cccc(OC2(C(=O)NCCCNC(=O)c3ccc(-c4c5nc(c(-c6c(F)c(F)c(F)c(F)c6F)c6ccc([nH]6)c(-c6c(F)c(F)c(F)c(F)c6F)c6nc(c(-c7c(F)c(F)c(F)c(F)c7F)c7ccc4[nH]7)C=C6)C=C5)cc3)CCN(C(=O)c3cnc[nH]c3=O)CC2)c1
REMARK SMILES IDX 13 1 12 2 11 3 9 4 10 5 8 7 81 8 94 9 82 10 93 11 83 12
REMARK SMILES IDX 84 13 85 14 7 15 6 16 1 17 2 18 3 19 95 20 4 21 5 22 86 23
REMARK SMILES IDX 87 24 91 25 88 26 90 27 92 28 89 29 14 31 15 32 16 33 17 35
REMARK SMILES IDX 18 36 19 37 80 38 20 39 79 40 21 41 22 42 23 43 73 44 24 45
REMARK SMILES IDX 78 46 72 47 74 48 25 49 77 50 71 51 70 52 26 54 58 55 38 56
REMARK SMILES IDX 57 57 39 58 42 59 56 60 75 61 40 62 41 63 55 65 76 66 43 67
REMARK SMILES IDX 27 68 28 69 36 70 29 71 30 72 34 73 37 74 31 75 32 76 35 77
REMARK SMILES IDX 33 78 59 79 60 80 68 81 61 82 62 83 66 84 69 85 63 86 64 87
REMARK SMILES IDX 67 88 65 89 44 90 45 91 53 92 46 93 47 94 51 95 54 96 48 97
REMARK SMILES IDX 49 98 52 99 50 100
REMARK H PARENT 11 6 90 30 15 34 74 53 42 64
REMARK Flexibility Score: inf
ROOT
ATOM      1  C   UNL A   1      38.683  23.107  26.099  1.00  0.00     0.042 C 
ENDROOT
BRANCH   1   2
ATOM      2  C   UNL A   1      37.874  21.947  25.509  1.00  0.00     0.118 C 
BRANCH   2   3
ATOM      3  N   UNL A   1      37.392  22.209  24.152  1.00  0.00    -0.353 N 
ATOM      4  C   UNL A   1      36.244  22.738  23.625  1.00  0.00     0.264 C 
ATOM      5  O   UNL A   1      36.276  22.887  22.395  1.00  0.00    -0.270 OA
ATOM      6  H   UNL A   1      38.041  21.942  23.460  1.00  0.00     0.163 HD
BRANCH   4   7
ATOM      7  C   UNL A   1      34.984  23.167  24.460  1.00  0.00     0.190 C 
ATOM      8  C   UNL A   1      35.302  24.369  25.351  1.00  0.00     0.080 C 
ATOM      9  C   UNL A   1      33.831  23.524  23.477  1.00  0.00     0.080 C 
ATOM     10  C   UNL A   1      34.089  25.016  25.989  1.00  0.00     0.124 C 
ATOM     11  C   UNL A   1      32.648  24.181  24.206  1.00  0.00     0.124 C 
ATOM     12  N   UNL A   1      33.140  25.337  24.946  1.00  0.00    -0.338 N 
ATOM     13  C   UNL A   1      33.112  26.623  24.437  1.00  0.00     0.261 C 
ATOM     14  O   UNL A   1      34.079  27.381  24.465  1.00  0.00    -0.269 OA
BRANCH   7  15
ATOM     15  O   UNL A   1      34.499  21.966  25.097  1.00  0.00    -0.477 OA
BRANCH  15  16
ATOM     16  C   UNL A   1      34.175  20.737  24.635  1.00  0.00     0.121 A 
ATOM     17  C   UNL A   1      35.005  17.021  24.644  1.00  0.00     0.044 C 
ATOM     18  C   UNL A   1      34.290  18.313  24.375  1.00  0.00    -0.047 A 
ATOM     19  C   UNL A   1      33.034  18.306  23.767  1.00  0.00     0.003 A 
ATOM     20  C   UNL A   1      34.865  19.538  24.762  1.00  0.00     0.049 A 
ATOM     21  C   UNL A   1      32.357  19.503  23.567  1.00  0.00     0.004 A 
ATOM     22  C   UNL A   1      32.922  20.702  24.010  1.00  0.00     0.046 A 
ENDBRANCH  15  16
ENDBRANCH   7  15
BRANCH  13  23
ATOM     23  C   UNL A   1      31.822  27.062  23.882  1.00  0.00     0.123 A 
ATOM     24  C   UNL A   1      31.753  27.573  22.645  1.00  0.00     0.132 A 
ATOM     25  C   UNL A   1      30.578  27.032  24.674  1.00  0.00     0.263 A 
ATOM     26  N   UNL A   1      30.602  28.022  22.041  1.00  0.00    -0.246 NA
ATOM     27  N   UNL A   1      29.472  27.507  24.029  1.00  0.00    -0.312 N 
ATOM     28  O   UNL A   1      30.521  26.630  25.831  1.00  0.00    -0.269 OA
ATOM     29  C   UNL A   1      29.525  27.978  22.751  1.00  0.00     0.199 A 
ATOM     30  H   UNL A   1      28.608  27.510  24.502  1.00  0.00     0.171 HD
ENDBRANCH  13  23
ENDBRANCH   4   7
ENDBRANCH   2   3
ENDBRANCH   1   2
BRANCH   1  31
ATOM     31  C   UNL A   1      39.724  22.707  27.134  1.00  0.00     0.118 C 
BRANCH  31  32
ATOM     32  N   UNL A   1      41.049  23.254  26.834  1.00  0.00    -0.352 N 
ATOM     33  C   UNL A   1      41.467  24.575  26.879  1.00  0.00     0.251 C 
ATOM     34  H   UNL A   1      41.732  22.598  26.567  1.00  0.00     0.163 HD
ATOM     35  O   UNL A   1      42.630  24.899  26.718  1.00  0.00    -0.269 OA
BRANCH  33  36
ATOM     36  C   UNL A   1      40.439  25.580  27.207  1.00  0.00     0.039 A 
ATOM     37  C   UNL A   1      40.528  26.814  26.559  1.00  0.00     0.014 A 
ATOM     38  C   UNL A   1      39.712  25.415  28.386  1.00  0.00     0.014 A 
ATOM     39  C   UNL A   1      40.093  27.949  27.233  1.00  0.00     0.010 A 
ATOM     40  C   UNL A   1      39.319  26.554  29.072  1.00  0.00     0.010 A 
ATOM     41  C   UNL A   1      39.601  27.820  28.537  1.00  0.00    -0.014 A 
BRANCH  41  42
ATOM     42  C   UNL A   1      39.567  28.957  29.455  1.00  0.00     0.031 A 
ATOM     43  C   UNL A   1      38.550  30.018  29.325  1.00  0.00     0.074 A 
ATOM     44  C   UNL A   1      40.494  29.069  30.436  1.00  0.00     0.049 A 
ATOM     45  N   UNL A   1      38.757  31.248  29.661  1.00  0.00    -0.248 NA
ATOM     46  C   UNL A   1      37.220  29.779  28.777  1.00  0.00     0.031 C 
ATOM     47  C   UNL A   1      40.512  30.049  31.522  1.00  0.00     0.029 A 
ATOM     48  N   UNL A   1      41.753  28.442  30.517  1.00  0.00    -0.354 N 
ATOM     49  C   UNL A   1      37.553  31.903  29.606  1.00  0.00     0.074 A 
ATOM     50  C   UNL A   1      36.635  30.962  29.001  1.00  0.00     0.031 C 
ATOM     51  C   UNL A   1      41.779  30.213  31.930  1.00  0.00     0.029 A 
ATOM     52  C   UNL A   1      42.624  29.420  31.057  1.00  0.00     0.049 A 
ATOM     53  H   UNL A   1      41.980  27.520  30.255  1.00  0.00     0.167 HD
ATOM     54  C   UNL A   1      37.418  33.136  30.169  1.00  0.00     0.037 A 
ATOM     55  C   UNL A   1      43.707  29.876  30.367  1.00  0.00     0.037 A 
ATOM     56  C   UNL A   1      38.653  33.624  30.769  1.00  0.00     0.049 A 
ATOM     57  C   UNL A   1      43.710  31.364  30.088  1.00  0.00     0.074 A 
ATOM     58  C   UNL A   1      39.153  33.668  32.061  1.00  0.00     0.029 A 
ATOM     59  N   UNL A   1      39.719  33.919  29.941  1.00  0.00    -0.354 N 
ATOM     60  N   UNL A   1      42.750  32.179  30.426  1.00  0.00    -0.248 NA
ATOM     61  C   UNL A   1      44.749  32.025  29.296  1.00  0.00     0.031 C 
ATOM     62  C   UNL A   1      40.532  34.011  31.995  1.00  0.00     0.029 A 
ATOM     63  C   UNL A   1      40.868  34.168  30.665  1.00  0.00     0.049 A 
ATOM     64  H   UNL A   1      39.665  33.949  28.958  1.00  0.00     0.167 HD
ATOM     65  C   UNL A   1      42.985  33.405  29.861  1.00  0.00     0.074 A 
ATOM     66  C   UNL A   1      44.250  33.264  29.168  1.00  0.00     0.031 C 
ATOM     67  C   UNL A   1      42.101  34.439  29.952  1.00  0.00     0.037 A 
BRANCH  54  68
ATOM     68  C   UNL A   1      36.080  33.794  30.344  1.00  0.00     0.064 A 
ATOM     69  C   UNL A   1      35.335  34.244  29.236  1.00  0.00     0.173 A 
ATOM     70  C   UNL A   1      35.503  34.035  31.603  1.00  0.00     0.173 A 
ATOM     71  F   UNL A   1      35.739  34.012  27.981  1.00  0.00    -0.203 F 
ATOM     72  C   UNL A   1      34.155  34.975  29.384  1.00  0.00     0.198 A 
ATOM     73  C   UNL A   1      34.352  34.815  31.753  1.00  0.00     0.198 A 
ATOM     74  F   UNL A   1      36.036  33.512  32.716  1.00  0.00    -0.203 F 
ATOM     75  F   UNL A   1      33.489  35.388  28.296  1.00  0.00    -0.200 F 
ATOM     76  C   UNL A   1      33.684  35.293  30.643  1.00  0.00     0.200 A 
ATOM     77  F   UNL A   1      33.904  35.110  32.981  1.00  0.00    -0.200 F 
ATOM     78  F   UNL A   1      32.586  36.048  30.784  1.00  0.00    -0.200 F 
ENDBRANCH  54  68
BRANCH  55  79
ATOM     79  C   UNL A   1      44.318  28.847  29.490  1.00  0.00     0.064 A 
ATOM     80  C   UNL A   1      43.939  28.808  28.135  1.00  0.00     0.173 A 
ATOM     81  C   UNL A   1      45.470  28.147  29.863  1.00  0.00     0.173 A 
ATOM     82  F   UNL A   1      42.847  29.470  27.722  1.00  0.00    -0.203 F 
ATOM     83  C   UNL A   1      44.738  28.188  27.179  1.00  0.00     0.198 A 
ATOM     84  C   UNL A   1      46.258  27.511  28.904  1.00  0.00     0.198 A 
ATOM     85  F   UNL A   1      45.895  28.167  31.134  1.00  0.00    -0.203 F 
ATOM     86  F   UNL A   1      44.415  28.274  25.880  1.00  0.00    -0.200 F 
ATOM     87  C   UNL A   1      45.910  27.560  27.562  1.00  0.00     0.200 A 
ATOM     88  F   UNL A   1      47.404  26.923  29.274  1.00  0.00    -0.200 F 
ATOM     89  F   UNL A   1      46.727  27.041  26.635  1.00  0.00    -0.200 F 
ENDBRANCH  55  79
BRANCH  67  90
ATOM     90  C   UNL A   1      42.339  35.795  29.359  1.00  0.00     0.064 A 
ATOM     91  C   UNL A   1      41.793  36.179  28.124  1.00  0.00     0.173 A 
ATOM     92  C   UNL A   1      43.228  36.711  29.960  1.00  0.00     0.173 A 
ATOM     93  F   UNL A   1      40.982  35.353  27.447  1.00  0.00    -0.203 F 
ATOM     94  C   UNL A   1      42.087  37.417  27.549  1.00  0.00     0.198 A 
ATOM     95  C   UNL A   1      43.557  37.923  29.360  1.00  0.00     0.198 A 
ATOM     96  F   UNL A   1      43.782  36.461  31.156  1.00  0.00    -0.203 F 
ATOM     97  F   UNL A   1      41.506  37.767  26.392  1.00  0.00    -0.200 F 
ATOM     98  C   UNL A   1      42.976  38.283  28.160  1.00  0.00     0.200 A 
ATOM     99  F   UNL A   1      44.437  38.742  29.955  1.00  0.00    -0.200 F 
ATOM    100  F   UNL A   1      43.274  39.460  27.595  1.00  0.00    -0.200 F 
ENDBRANCH  67  90
ENDBRANCH  41  42
ENDBRANCH  33  36
ENDBRANCH  31  32
ENDBRANCH   1  31
TORSDOF 13
ENDMDL
