MODEL 1
REMARK VINA RESULT:     -11.0      0.000      0.000
REMARK SMILES O=C(CSc1ccnc(C(=O)NCCCNC(=O)c2ccc(-c3c4nc(c(-c5c(F)c(F)c(F)c(F)c5F)c5ccc([nH]5)c(-c5c(F)c(F)c(F)c(F)c5F)c5nc(c(-c6c(F)c(F)c(F)c(F)c6F)c6ccc3[nH]6)C=C5)C=C4)cc2)c1)NNc1ccccn1
REMARK SMILES IDX 10 1 11 2 12 3 9 5 5 6 6 7 82 8 7 9 8 10 4 11 3 12 2 13 1 14
REMARK SMILES IDX 83 15 84 17 85 19 86 20 90 21 87 22 89 23 88 24 13 25 14 26
REMARK SMILES IDX 15 27 16 28 17 29 18 31 19 32 20 33 81 34 21 35 80 36 22 37
REMARK SMILES IDX 23 38 24 39 74 40 25 41 79 42 73 43 75 44 26 45 78 46 72 47
REMARK SMILES IDX 71 48 27 50 59 51 39 52 58 53 40 54 43 55 57 56 76 57 41 58
REMARK SMILES IDX 42 59 56 61 77 62 44 63 28 64 29 65 37 66 30 67 31 68 35 69
REMARK SMILES IDX 38 70 32 71 33 72 36 73 34 74 60 75 61 76 69 77 62 78 63 79
REMARK SMILES IDX 67 80 70 81 64 82 65 83 68 84 66 85 45 86 46 87 54 88 47 89
REMARK SMILES IDX 48 90 52 91 55 92 49 93 50 94 53 95 51 96
REMARK H PARENT 12 4 83 16 84 18 16 30 75 49 43 60
REMARK Flexibility Score: inf
ROOT
ATOM      1  C   UNL A   1      33.055  36.031  29.231  1.00  0.00     0.269 C 
ATOM      2  O   UNL A   1      31.993  36.449  28.764  1.00  0.00    -0.268 OA
ATOM      3  N   UNL A   1      33.899  35.419  28.331  1.00  0.00    -0.351 N 
ATOM      4  H   UNL A   1      33.539  35.392  27.415  1.00  0.00     0.163 HD
ENDROOT
BRANCH   1   5
ATOM      5  C   UNL A   1      33.371  36.240  30.689  1.00  0.00     0.129 A 
ATOM      6  C   UNL A   1      34.095  35.559  32.872  1.00  0.00     0.012 A 
ATOM      7  C   UNL A   1      34.027  36.884  33.287  1.00  0.00     0.035 A 
ATOM      8  C   UNL A   1      33.728  35.229  31.567  1.00  0.00     0.049 A 
ATOM      9  C   UNL A   1      33.592  37.825  32.374  1.00  0.00     0.113 A 
ATOM     10  N   UNL A   1      33.284  37.535  31.095  1.00  0.00    -0.251 NA
BRANCH   6  11
ATOM     11  S   UNL A   1      34.771  34.273  33.913  1.00  0.00    -0.116 SA
BRANCH  11  12
ATOM     12  C   UNL A   1      36.229  33.772  32.934  1.00  0.00     0.176 C 
BRANCH  12  13
ATOM     13  C   UNL A   1      36.274  32.275  32.704  1.00  0.00     0.248 C 
ATOM     14  O   UNL A   1      35.490  31.709  31.945  1.00  0.00    -0.272 OA
ATOM     15  N   UNL A   1      37.303  31.633  33.368  1.00  0.00    -0.268 N 
ATOM     16  H   UNL A   1      37.953  32.145  33.903  1.00  0.00     0.191 HD
BRANCH  15  17
ATOM     17  N   UNL A   1      37.402  30.255  33.261  1.00  0.00    -0.282 N 
ATOM     18  H   UNL A   1      36.596  29.703  33.139  1.00  0.00     0.190 HD
BRANCH  17  19
ATOM     19  C   UNL A   1      38.662  29.662  33.330  1.00  0.00     0.144 A 
ATOM     20  C   UNL A   1      38.932  28.419  32.756  1.00  0.00     0.048 A 
ATOM     21  N   UNL A   1      39.615  30.362  33.978  1.00  0.00    -0.238 NA
ATOM     22  C   UNL A   1      40.207  27.870  32.877  1.00  0.00     0.005 A 
ATOM     23  C   UNL A   1      40.843  29.809  34.088  1.00  0.00     0.113 A 
ATOM     24  C   UNL A   1      41.183  28.576  33.564  1.00  0.00     0.020 A 
ENDBRANCH  17  19
ENDBRANCH  15  17
ENDBRANCH  12  13
ENDBRANCH  11  12
ENDBRANCH   6  11
ENDBRANCH   1   5
BRANCH   3  25
ATOM     25  C   UNL A   1      35.207  34.803  28.450  1.00  0.00     0.118 C 
BRANCH  25  26
ATOM     26  C   UNL A   1      35.165  33.340  28.005  1.00  0.00     0.042 C 
BRANCH  26  27
ATOM     27  C   UNL A   1      34.412  32.436  28.980  1.00  0.00     0.118 C 
BRANCH  27  28
ATOM     28  N   UNL A   1      33.898  31.246  28.320  1.00  0.00    -0.352 N 
ATOM     29  C   UNL A   1      34.551  30.136  27.850  1.00  0.00     0.251 C 
ATOM     30  H   UNL A   1      32.922  31.236  28.189  1.00  0.00     0.163 HD
ATOM     31  O   UNL A   1      33.952  29.361  27.111  1.00  0.00    -0.269 OA
BRANCH  29  32
ATOM     32  C   UNL A   1      35.956  29.853  28.220  1.00  0.00     0.039 A 
ATOM     33  C   UNL A   1      36.947  30.033  27.248  1.00  0.00     0.014 A 
ATOM     34  C   UNL A   1      36.298  29.326  29.469  1.00  0.00     0.014 A 
ATOM     35  C   UNL A   1      38.274  29.708  27.532  1.00  0.00     0.010 A 
ATOM     36  C   UNL A   1      37.633  29.064  29.774  1.00  0.00     0.010 A 
ATOM     37  C   UNL A   1      38.631  29.232  28.803  1.00  0.00    -0.014 A 
BRANCH  37  38
ATOM     38  C   UNL A   1      40.038  28.869  29.113  1.00  0.00     0.031 A 
ATOM     39  C   UNL A   1      40.906  29.815  29.900  1.00  0.00     0.074 A 
ATOM     40  C   UNL A   1      40.545  27.709  28.655  1.00  0.00     0.049 A 
ATOM     41  N   UNL A   1      42.166  29.698  30.236  1.00  0.00    -0.248 NA
ATOM     42  C   UNL A   1      40.283  31.071  30.345  1.00  0.00     0.031 C 
ATOM     43  C   UNL A   1      39.816  26.729  27.848  1.00  0.00     0.029 A 
ATOM     44  N   UNL A   1      41.794  27.160  28.799  1.00  0.00    -0.354 N 
ATOM     45  C   UNL A   1      42.491  30.871  30.905  1.00  0.00     0.074 A 
ATOM     46  C   UNL A   1      41.308  31.705  30.894  1.00  0.00     0.031 C 
ATOM     47  C   UNL A   1      40.623  25.688  27.588  1.00  0.00     0.029 A 
ATOM     48  C   UNL A   1      41.931  25.939  28.186  1.00  0.00     0.049 A 
ATOM     49  H   UNL A   1      42.522  27.600  29.294  1.00  0.00     0.167 HD
ATOM     50  C   UNL A   1      43.662  31.214  31.492  1.00  0.00     0.037 A 
ATOM     51  C   UNL A   1      42.994  25.116  28.116  1.00  0.00     0.037 A 
ATOM     52  C   UNL A   1      44.823  30.364  31.541  1.00  0.00     0.049 A 
ATOM     53  C   UNL A   1      44.272  25.508  28.806  1.00  0.00     0.074 A 
ATOM     54  C   UNL A   1      46.035  30.591  32.169  1.00  0.00     0.029 A 
ATOM     55  N   UNL A   1      44.912  29.118  30.938  1.00  0.00    -0.354 N 
ATOM     56  N   UNL A   1      44.545  26.589  29.494  1.00  0.00    -0.248 NA
ATOM     57  C   UNL A   1      45.387  24.555  28.719  1.00  0.00     0.031 C 
ATOM     58  C   UNL A   1      46.870  29.496  31.918  1.00  0.00     0.029 A 
ATOM     59  C   UNL A   1      46.162  28.569  31.171  1.00  0.00     0.049 A 
ATOM     60  H   UNL A   1      44.193  28.687  30.422  1.00  0.00     0.167 HD
ATOM     61  C   UNL A   1      45.845  26.431  29.953  1.00  0.00     0.074 A 
ATOM     62  C   UNL A   1      46.304  25.145  29.474  1.00  0.00     0.031 C 
ATOM     63  C   UNL A   1      46.593  27.277  30.705  1.00  0.00     0.037 A 
BRANCH  50  64
ATOM     64  C   UNL A   1      43.750  32.568  32.135  1.00  0.00     0.064 A 
ATOM     65  C   UNL A   1      43.920  33.736  31.375  1.00  0.00     0.173 A 
ATOM     66  C   UNL A   1      43.623  32.704  33.526  1.00  0.00     0.173 A 
ATOM     67  F   UNL A   1      44.058  33.659  30.043  1.00  0.00    -0.203 F 
ATOM     68  C   UNL A   1      43.988  34.985  31.986  1.00  0.00     0.198 A 
ATOM     69  C   UNL A   1      43.662  33.958  34.130  1.00  0.00     0.198 A 
ATOM     70  F   UNL A   1      43.452  31.621  34.299  1.00  0.00    -0.203 F 
ATOM     71  F   UNL A   1      44.196  36.081  31.244  1.00  0.00    -0.200 F 
ATOM     72  C   UNL A   1      43.852  35.096  33.361  1.00  0.00     0.200 A 
ATOM     73  F   UNL A   1      43.518  34.065  35.459  1.00  0.00    -0.200 F 
ATOM     74  F   UNL A   1      43.908  36.301  33.947  1.00  0.00    -0.200 F 
ENDBRANCH  50  64
BRANCH  51  75
ATOM     75  C   UNL A   1      42.884  23.814  27.407  1.00  0.00     0.064 A 
ATOM     76  C   UNL A   1      43.260  23.698  26.061  1.00  0.00     0.173 A 
ATOM     77  C   UNL A   1      42.389  22.671  28.048  1.00  0.00     0.173 A 
ATOM     78  F   UNL A   1      43.720  24.771  25.401  1.00  0.00    -0.203 F 
ATOM     79  C   UNL A   1      43.122  22.494  25.376  1.00  0.00     0.198 A 
ATOM     80  C   UNL A   1      42.277  21.459  27.370  1.00  0.00     0.198 A 
ATOM     81  F   UNL A   1      42.021  22.728  29.337  1.00  0.00    -0.203 F 
ATOM     82  F   UNL A   1      43.444  22.423  24.078  1.00  0.00    -0.200 F 
ATOM     83  C   UNL A   1      42.634  21.373  26.033  1.00  0.00     0.200 A 
ATOM     84  F   UNL A   1      41.818  20.375  28.010  1.00  0.00    -0.200 F 
ATOM     85  F   UNL A   1      42.502  20.214  25.374  1.00  0.00    -0.200 F 
ENDBRANCH  51  75
BRANCH  63  86
ATOM     86  C   UNL A   1      47.963  26.809  31.100  1.00  0.00     0.064 A 
ATOM     87  C   UNL A   1      48.173  26.014  32.235  1.00  0.00     0.173 A 
ATOM     88  C   UNL A   1      49.078  27.146  30.316  1.00  0.00     0.173 A 
ATOM     89  F   UNL A   1      47.142  25.679  33.025  1.00  0.00    -0.203 F 
ATOM     90  C   UNL A   1      49.454  25.601  32.591  1.00  0.00     0.198 A 
ATOM     91  C   UNL A   1      50.352  26.707  30.659  1.00  0.00     0.198 A 
ATOM     92  F   UNL A   1      48.928  27.899  29.216  1.00  0.00    -0.203 F 
ATOM     93  F   UNL A   1      49.639  24.888  33.711  1.00  0.00    -0.200 F 
ATOM     94  C   UNL A   1      50.542  25.943  31.800  1.00  0.00     0.200 A 
ATOM     95  F   UNL A   1      51.401  27.028  29.887  1.00  0.00    -0.200 F 
ATOM     96  F   UNL A   1      51.773  25.544  32.145  1.00  0.00    -0.200 F 
ENDBRANCH  63  86
ENDBRANCH  37  38
ENDBRANCH  29  32
ENDBRANCH  27  28
ENDBRANCH  26  27
ENDBRANCH  25  26
ENDBRANCH   3  25
TORSDOF 15
ENDMDL
MODEL 2
REMARK VINA RESULT:     -10.6      5.215      8.134
REMARK SMILES O=C(CSc1ccnc(C(=O)NCCCNC(=O)c2ccc(-c3c4nc(c(-c5c(F)c(F)c(F)c(F)c5F)c5ccc([nH]5)c(-c5c(F)c(F)c(F)c(F)c5F)c5nc(c(-c6c(F)c(F)c(F)c(F)c6F)c6ccc3[nH]6)C=C5)C=C4)cc2)c1)NNc1ccccn1
REMARK SMILES IDX 10 1 11 2 12 3 9 5 5 6 6 7 82 8 7 9 8 10 4 11 3 12 2 13 1 14
REMARK SMILES IDX 83 15 84 17 85 19 86 20 90 21 87 22 89 23 88 24 13 25 14 26
REMARK SMILES IDX 15 27 16 28 17 29 18 31 19 32 20 33 81 34 21 35 80 36 22 37
REMARK SMILES IDX 23 38 24 39 74 40 25 41 79 42 73 43 75 44 26 45 78 46 72 47
REMARK SMILES IDX 71 48 27 50 59 51 39 52 58 53 40 54 43 55 57 56 76 57 41 58
REMARK SMILES IDX 42 59 56 61 77 62 44 63 28 64 29 65 37 66 30 67 31 68 35 69
REMARK SMILES IDX 38 70 32 71 33 72 36 73 34 74 60 75 61 76 69 77 62 78 63 79
REMARK SMILES IDX 67 80 70 81 64 82 65 83 68 84 66 85 45 86 46 87 54 88 47 89
REMARK SMILES IDX 48 90 52 91 55 92 49 93 50 94 53 95 51 96
REMARK H PARENT 12 4 83 16 84 18 16 30 75 49 43 60
REMARK Flexibility Score: inf
ROOT
ATOM      1  C   UNL A   1      30.165  29.328  23.339  1.00  0.00     0.269 C 
ATOM      2  O   UNL A   1      29.370  29.652  22.453  1.00  0.00    -0.268 OA
ATOM      3  N   UNL A   1      30.485  30.319  24.241  1.00  0.00    -0.351 N 
ATOM      4  H   UNL A   1      30.032  31.174  24.057  1.00  0.00     0.163 HD
ENDROOT
BRANCH   1   5
ATOM      5  C   UNL A   1      30.685  27.915  23.405  1.00  0.00     0.129 A 
ATOM      6  C   UNL A   1      31.183  25.835  24.490  1.00  0.00     0.012 A 
ATOM      7  C   UNL A   1      31.555  25.305  23.260  1.00  0.00     0.035 A 
ATOM      8  C   UNL A   1      30.778  27.168  24.569  1.00  0.00     0.049 A 
ATOM      9  C   UNL A   1      31.505  26.135  22.157  1.00  0.00     0.113 A 
ATOM     10  N   UNL A   1      31.066  27.408  22.203  1.00  0.00    -0.251 NA
BRANCH   6  11
ATOM     11  S   UNL A   1      31.073  24.828  25.962  1.00  0.00    -0.116 SA
BRANCH  11  12
ATOM     12  C   UNL A   1      31.068  23.155  25.232  1.00  0.00     0.176 C 
BRANCH  12  13
ATOM     13  C   UNL A   1      31.976  22.202  25.982  1.00  0.00     0.248 C 
ATOM     14  O   UNL A   1      32.544  22.526  27.023  1.00  0.00    -0.272 OA
ATOM     15  N   UNL A   1      32.052  20.939  25.425  1.00  0.00    -0.268 N 
ATOM     16  H   UNL A   1      31.517  20.705  24.632  1.00  0.00     0.191 HD
BRANCH  15  17
ATOM     17  N   UNL A   1      32.896  20.007  26.008  1.00  0.00    -0.282 N 
ATOM     18  H   UNL A   1      33.338  20.200  26.867  1.00  0.00     0.190 HD
BRANCH  17  19
ATOM     19  C   UNL A   1      33.109  18.791  25.360  1.00  0.00     0.144 A 
ATOM     20  C   UNL A   1      33.991  18.666  24.286  1.00  0.00     0.048 A 
ATOM     21  N   UNL A   1      32.418  17.735  25.832  1.00  0.00    -0.238 NA
ATOM     22  C   UNL A   1      34.145  17.428  23.666  1.00  0.00     0.005 A 
ATOM     23  C   UNL A   1      32.578  16.545  25.213  1.00  0.00     0.113 A 
ATOM     24  C   UNL A   1      33.417  16.343  24.133  1.00  0.00     0.020 A 
ENDBRANCH  17  19
ENDBRANCH  15  17
ENDBRANCH  12  13
ENDBRANCH  11  12
ENDBRANCH   6  11
ENDBRANCH   1   5
BRANCH   3  25
ATOM     25  C   UNL A   1      31.353  30.368  25.402  1.00  0.00     0.118 C 
BRANCH  25  26
ATOM     26  C   UNL A   1      31.203  31.700  26.140  1.00  0.00     0.042 C 
BRANCH  26  27
ATOM     27  C   UNL A   1      32.465  32.112  26.898  1.00  0.00     0.118 C 
BRANCH  27  28
ATOM     28  N   UNL A   1      32.445  33.525  27.245  1.00  0.00    -0.352 N 
ATOM     29  C   UNL A   1      33.118  34.211  28.222  1.00  0.00     0.251 C 
ATOM     30  H   UNL A   1      31.851  34.077  26.687  1.00  0.00     0.163 HD
ATOM     31  O   UNL A   1      32.768  35.356  28.494  1.00  0.00    -0.269 OA
BRANCH  29  32
ATOM     32  C   UNL A   1      34.256  33.603  28.948  1.00  0.00     0.039 A 
ATOM     33  C   UNL A   1      35.524  34.175  28.791  1.00  0.00     0.014 A 
ATOM     34  C   UNL A   1      34.111  32.433  29.698  1.00  0.00     0.014 A 
ATOM     35  C   UNL A   1      36.636  33.589  29.399  1.00  0.00     0.010 A 
ATOM     36  C   UNL A   1      35.211  31.886  30.359  1.00  0.00     0.010 A 
ATOM     37  C   UNL A   1      36.487  32.446  30.199  1.00  0.00    -0.014 A 
BRANCH  37  38
ATOM     38  C   UNL A   1      37.664  31.806  30.840  1.00  0.00     0.031 A 
ATOM     39  C   UNL A   1      38.082  32.211  32.229  1.00  0.00     0.074 A 
ATOM     40  C   UNL A   1      38.380  30.891  30.159  1.00  0.00     0.049 A 
ATOM     41  N   UNL A   1      39.100  31.800  32.941  1.00  0.00    -0.248 NA
ATOM     42  C   UNL A   1      37.260  33.232  32.896  1.00  0.00     0.031 C 
ATOM     43  C   UNL A   1      38.100  30.447  28.793  1.00  0.00     0.029 A 
ATOM     44  N   UNL A   1      39.492  30.174  30.522  1.00  0.00    -0.354 N 
ATOM     45  C   UNL A   1      39.056  32.529  34.122  1.00  0.00     0.074 A 
ATOM     46  C   UNL A   1      37.935  33.436  34.017  1.00  0.00     0.031 C 
ATOM     47  C   UNL A   1      39.001  29.515  28.442  1.00  0.00     0.029 A 
ATOM     48  C   UNL A   1      39.937  29.318  29.545  1.00  0.00     0.049 A 
ATOM     49  H   UNL A   1      39.929  30.265  31.400  1.00  0.00     0.167 HD
ATOM     50  C   UNL A   1      39.866  32.437  35.205  1.00  0.00     0.037 A 
ATOM     51  C   UNL A   1      40.981  28.469  29.543  1.00  0.00     0.037 A 
ATOM     52  C   UNL A   1      40.953  31.502  35.325  1.00  0.00     0.049 A 
ATOM     53  C   UNL A   1      41.844  28.364  30.771  1.00  0.00     0.074 A 
ATOM     54  C   UNL A   1      41.791  31.282  36.405  1.00  0.00     0.029 A 
ATOM     55  N   UNL A   1      41.351  30.624  34.327  1.00  0.00    -0.354 N 
ATOM     56  N   UNL A   1      41.750  29.009  31.908  1.00  0.00    -0.248 NA
ATOM     57  C   UNL A   1      42.951  27.399  30.719  1.00  0.00     0.031 C 
ATOM     58  C   UNL A   1      42.717  30.295  36.049  1.00  0.00     0.029 A 
ATOM     59  C   UNL A   1      42.429  29.870  34.762  1.00  0.00     0.049 A 
ATOM     60  H   UNL A   1      40.930  30.548  33.440  1.00  0.00     0.167 HD
ATOM     61  C   UNL A   1      42.758  28.505  32.717  1.00  0.00     0.074 A 
ATOM     62  C   UNL A   1      43.446  27.491  31.945  1.00  0.00     0.031 C 
ATOM     63  C   UNL A   1      43.086  28.849  33.988  1.00  0.00     0.037 A 
BRANCH  50  64
ATOM     64  C   UNL A   1      39.607  33.370  36.351  1.00  0.00     0.064 A 
ATOM     65  C   UNL A   1      38.763  33.015  37.415  1.00  0.00     0.173 A 
ATOM     66  C   UNL A   1      40.241  34.620  36.407  1.00  0.00     0.173 A 
ATOM     67  F   UNL A   1      38.124  31.835  37.404  1.00  0.00    -0.203 F 
ATOM     68  C   UNL A   1      38.542  33.888  38.478  1.00  0.00     0.198 A 
ATOM     69  C   UNL A   1      40.040  35.479  37.486  1.00  0.00     0.198 A 
ATOM     70  F   UNL A   1      41.062  35.008  35.420  1.00  0.00    -0.203 F 
ATOM     71  F   UNL A   1      37.698  33.545  39.460  1.00  0.00    -0.200 F 
ATOM     72  C   UNL A   1      39.186  35.115  38.516  1.00  0.00     0.200 A 
ATOM     73  F   UNL A   1      40.673  36.660  37.527  1.00  0.00    -0.200 F 
ATOM     74  F   UNL A   1      38.980  35.950  39.544  1.00  0.00    -0.200 F 
ENDBRANCH  50  64
BRANCH  51  75
ATOM     75  C   UNL A   1      41.245  27.614  28.357  1.00  0.00     0.064 A 
ATOM     76  C   UNL A   1      42.132  28.033  27.355  1.00  0.00     0.173 A 
ATOM     77  C   UNL A   1      40.608  26.376  28.191  1.00  0.00     0.173 A 
ATOM     78  F   UNL A   1      42.749  29.218  27.461  1.00  0.00    -0.203 F 
ATOM     79  C   UNL A   1      42.354  27.257  26.220  1.00  0.00     0.198 A 
ATOM     80  C   UNL A   1      40.851  25.588  27.067  1.00  0.00     0.198 A 
ATOM     81  F   UNL A   1      39.755  25.928  29.124  1.00  0.00    -0.203 F 
ATOM     82  F   UNL A   1      43.170  27.702  25.255  1.00  0.00    -0.200 F 
ATOM     83  C   UNL A   1      41.716  26.032  26.079  1.00  0.00     0.200 A 
ATOM     84  F   UNL A   1      40.245  24.401  26.941  1.00  0.00    -0.200 F 
ATOM     85  F   UNL A   1      41.931  25.286  24.987  1.00  0.00    -0.200 F 
ENDBRANCH  51  75
BRANCH  63  86
ATOM     86  C   UNL A   1      44.201  28.084  34.637  1.00  0.00     0.064 A 
ATOM     87  C   UNL A   1      45.530  28.527  34.582  1.00  0.00     0.173 A 
ATOM     88  C   UNL A   1      43.929  26.901  35.342  1.00  0.00     0.173 A 
ATOM     89  F   UNL A   1      45.843  29.643  33.906  1.00  0.00    -0.203 F 
ATOM     90  C   UNL A   1      46.552  27.795  35.181  1.00  0.00     0.198 A 
ATOM     91  C   UNL A   1      44.949  26.189  35.964  1.00  0.00     0.198 A 
ATOM     92  F   UNL A   1      42.673  26.440  35.429  1.00  0.00    -0.203 F 
ATOM     93  F   UNL A   1      47.823  28.207  35.068  1.00  0.00    -0.200 F 
ATOM     94  C   UNL A   1      46.261  26.630  35.875  1.00  0.00     0.200 A 
ATOM     95  F   UNL A   1      44.665  25.069  36.644  1.00  0.00    -0.200 F 
ATOM     96  F   UNL A   1      47.246  25.928  36.451  1.00  0.00    -0.200 F 
ENDBRANCH  63  86
ENDBRANCH  37  38
ENDBRANCH  29  32
ENDBRANCH  27  28
ENDBRANCH  26  27
ENDBRANCH  25  26
ENDBRANCH   3  25
TORSDOF 15
ENDMDL
MODEL 3
REMARK VINA RESULT:     -10.5      4.903     10.414
REMARK SMILES O=C(CSc1ccnc(C(=O)NCCCNC(=O)c2ccc(-c3c4nc(c(-c5c(F)c(F)c(F)c(F)c5F)c5ccc([nH]5)c(-c5c(F)c(F)c(F)c(F)c5F)c5nc(c(-c6c(F)c(F)c(F)c(F)c6F)c6ccc3[nH]6)C=C5)C=C4)cc2)c1)NNc1ccccn1
REMARK SMILES IDX 10 1 11 2 12 3 9 5 5 6 6 7 82 8 7 9 8 10 4 11 3 12 2 13 1 14
REMARK SMILES IDX 83 15 84 17 85 19 86 20 90 21 87 22 89 23 88 24 13 25 14 26
REMARK SMILES IDX 15 27 16 28 17 29 18 31 19 32 20 33 81 34 21 35 80 36 22 37
REMARK SMILES IDX 23 38 24 39 74 40 25 41 79 42 73 43 75 44 26 45 78 46 72 47
REMARK SMILES IDX 71 48 27 50 59 51 39 52 58 53 40 54 43 55 57 56 76 57 41 58
REMARK SMILES IDX 42 59 56 61 77 62 44 63 28 64 29 65 37 66 30 67 31 68 35 69
REMARK SMILES IDX 38 70 32 71 33 72 36 73 34 74 60 75 61 76 69 77 62 78 63 79
REMARK SMILES IDX 67 80 70 81 64 82 65 83 68 84 66 85 45 86 46 87 54 88 47 89
REMARK SMILES IDX 48 90 52 91 55 92 49 93 50 94 53 95 51 96
REMARK H PARENT 12 4 83 16 84 18 16 30 75 49 43 60
REMARK Flexibility Score: inf
ROOT
ATOM      1  C   UNL A   1      32.864  23.152  26.787  1.00  0.00     0.269 C 
ATOM      2  O   UNL A   1      32.693  22.643  27.897  1.00  0.00    -0.268 OA
ATOM      3  N   UNL A   1      33.652  22.431  25.917  1.00  0.00    -0.351 N 
ATOM      4  H   UNL A   1      33.985  21.587  26.302  1.00  0.00     0.163 HD
ENDROOT
BRANCH   1   5
ATOM      5  C   UNL A   1      32.195  24.459  26.446  1.00  0.00     0.129 A 
ATOM      6  C   UNL A   1      32.142  26.746  25.726  1.00  0.00     0.012 A 
ATOM      7  C   UNL A   1      30.753  26.696  25.736  1.00  0.00     0.035 A 
ATOM      8  C   UNL A   1      32.872  25.624  26.121  1.00  0.00     0.049 A 
ATOM      9  C   UNL A   1      30.152  25.522  26.142  1.00  0.00     0.113 A 
ATOM     10  N   UNL A   1      30.837  24.411  26.476  1.00  0.00    -0.251 NA
BRANCH   6  11
ATOM     11  S   UNL A   1      33.036  28.157  25.091  1.00  0.00    -0.116 SA
BRANCH  11  12
ATOM     12  C   UNL A   1      33.211  27.690  23.335  1.00  0.00     0.176 C 
BRANCH  12  13
ATOM     13  C   UNL A   1      31.985  28.054  22.523  1.00  0.00     0.248 C 
ATOM     14  O   UNL A   1      31.232  27.199  22.060  1.00  0.00    -0.272 OA
ATOM     15  N   UNL A   1      31.766  29.414  22.411  1.00  0.00    -0.268 N 
ATOM     16  H   UNL A   1      32.357  30.059  22.865  1.00  0.00     0.191 HD
BRANCH  15  17
ATOM     17  N   UNL A   1      30.697  29.852  21.645  1.00  0.00    -0.282 N 
ATOM     18  H   UNL A   1      30.752  29.855  20.663  1.00  0.00     0.190 HD
BRANCH  17  19
ATOM     19  C   UNL A   1      29.541  30.289  22.291  1.00  0.00     0.144 A 
ATOM     20  C   UNL A   1      28.532  29.409  22.686  1.00  0.00     0.048 A 
ATOM     21  N   UNL A   1      29.451  31.614  22.519  1.00  0.00    -0.238 NA
ATOM     22  C   UNL A   1      27.391  29.910  23.308  1.00  0.00     0.005 A 
ATOM     23  C   UNL A   1      28.333  32.079  23.119  1.00  0.00     0.113 A 
ATOM     24  C   UNL A   1      27.283  31.276  23.524  1.00  0.00     0.020 A 
ENDBRANCH  17  19
ENDBRANCH  15  17
ENDBRANCH  12  13
ENDBRANCH  11  12
ENDBRANCH   6  11
ENDBRANCH   1   5
BRANCH   3  25
ATOM     25  C   UNL A   1      34.097  22.654  24.555  1.00  0.00     0.118 C 
BRANCH  25  26
ATOM     26  C   UNL A   1      35.616  22.504  24.444  1.00  0.00     0.042 C 
BRANCH  26  27
ATOM     27  C   UNL A   1      36.322  22.526  25.800  1.00  0.00     0.118 C 
BRANCH  27  28
ATOM     28  N   UNL A   1      37.330  21.481  25.895  1.00  0.00    -0.352 N 
ATOM     29  C   UNL A   1      38.681  21.565  26.111  1.00  0.00     0.251 C 
ATOM     30  H   UNL A   1      36.986  20.566  25.787  1.00  0.00     0.163 HD
ATOM     31  O   UNL A   1      39.379  20.574  25.913  1.00  0.00    -0.269 OA
BRANCH  29  32
ATOM     32  C   UNL A   1      39.312  22.819  26.581  1.00  0.00     0.039 A 
ATOM     33  C   UNL A   1      38.884  24.028  26.019  1.00  0.00     0.014 A 
ATOM     34  C   UNL A   1      40.375  22.815  27.489  1.00  0.00     0.014 A 
ATOM     35  C   UNL A   1      39.502  25.226  26.380  1.00  0.00     0.010 A 
ATOM     36  C   UNL A   1      40.948  24.019  27.898  1.00  0.00     0.010 A 
ATOM     37  C   UNL A   1      40.532  25.234  27.333  1.00  0.00    -0.014 A 
BRANCH  37  38
ATOM     38  C   UNL A   1      41.207  26.500  27.715  1.00  0.00     0.031 A 
ATOM     39  C   UNL A   1      42.640  26.742  27.322  1.00  0.00     0.074 A 
ATOM     40  C   UNL A   1      40.545  27.414  28.449  1.00  0.00     0.049 A 
ATOM     41  N   UNL A   1      43.414  27.762  27.595  1.00  0.00    -0.248 NA
ATOM     42  C   UNL A   1      43.299  25.685  26.539  1.00  0.00     0.031 C 
ATOM     43  C   UNL A   1      39.168  27.277  28.926  1.00  0.00     0.029 A 
ATOM     44  N   UNL A   1      40.942  28.638  28.926  1.00  0.00    -0.354 N 
ATOM     45  C   UNL A   1      44.652  27.457  27.044  1.00  0.00     0.074 A 
ATOM     46  C   UNL A   1      44.540  26.141  26.454  1.00  0.00     0.031 C 
ATOM     47  C   UNL A   1      38.827  28.383  29.607  1.00  0.00     0.029 A 
ATOM     48  C   UNL A   1      39.968  29.293  29.638  1.00  0.00     0.049 A 
ATOM     49  H   UNL A   1      41.841  29.010  28.773  1.00  0.00     0.167 HD
ATOM     50  C   UNL A   1      45.775  28.215  27.015  1.00  0.00     0.037 A 
ATOM     51  C   UNL A   1      39.995  30.494  30.245  1.00  0.00     0.037 A 
ATOM     52  C   UNL A   1      45.871  29.542  27.563  1.00  0.00     0.049 A 
ATOM     53  C   UNL A   1      41.245  31.328  30.168  1.00  0.00     0.074 A 
ATOM     54  C   UNL A   1      46.941  30.419  27.526  1.00  0.00     0.029 A 
ATOM     55  N   UNL A   1      44.850  30.188  28.246  1.00  0.00    -0.354 N 
ATOM     56  N   UNL A   1      42.387  31.058  29.584  1.00  0.00    -0.248 NA
ATOM     57  C   UNL A   1      41.203  32.641  30.825  1.00  0.00     0.031 C 
ATOM     58  C   UNL A   1      46.580  31.581  28.216  1.00  0.00     0.029 A 
ATOM     59  C   UNL A   1      45.270  31.446  28.645  1.00  0.00     0.049 A 
ATOM     60  H   UNL A   1      43.959  29.808  28.421  1.00  0.00     0.167 HD
ATOM     61  C   UNL A   1      43.184  32.178  29.770  1.00  0.00     0.074 A 
ATOM     62  C   UNL A   1      42.392  33.136  30.512  1.00  0.00     0.031 C 
ATOM     63  C   UNL A   1      44.460  32.395  29.363  1.00  0.00     0.037 A 
BRANCH  50  64
ATOM     64  C   UNL A   1      46.995  27.629  26.366  1.00  0.00     0.064 A 
ATOM     65  C   UNL A   1      47.303  27.872  25.019  1.00  0.00     0.173 A 
ATOM     66  C   UNL A   1      47.889  26.845  27.111  1.00  0.00     0.173 A 
ATOM     67  F   UNL A   1      46.475  28.606  24.260  1.00  0.00    -0.203 F 
ATOM     68  C   UNL A   1      48.446  27.331  24.435  1.00  0.00     0.198 A 
ATOM     69  C   UNL A   1      49.046  26.329  26.531  1.00  0.00     0.198 A 
ATOM     70  F   UNL A   1      47.646  26.586  28.405  1.00  0.00    -0.203 F 
ATOM     71  F   UNL A   1      48.695  27.541  23.136  1.00  0.00    -0.200 F 
ATOM     72  C   UNL A   1      49.319  26.566  25.193  1.00  0.00     0.200 A 
ATOM     73  F   UNL A   1      49.896  25.600  27.269  1.00  0.00    -0.200 F 
ATOM     74  F   UNL A   1      50.423  26.053  24.632  1.00  0.00    -0.200 F 
ENDBRANCH  50  64
BRANCH  51  75
ATOM     75  C   UNL A   1      38.784  31.006  30.939  1.00  0.00     0.064 A 
ATOM     76  C   UNL A   1      38.642  30.867  32.327  1.00  0.00     0.173 A 
ATOM     77  C   UNL A   1      37.744  31.626  30.234  1.00  0.00     0.173 A 
ATOM     78  F   UNL A   1      39.603  30.262  33.040  1.00  0.00    -0.203 F 
ATOM     79  C   UNL A   1      37.493  31.306  32.980  1.00  0.00     0.198 A 
ATOM     80  C   UNL A   1      36.606  32.089  30.892  1.00  0.00     0.198 A 
ATOM     81  F   UNL A   1      37.834  31.788  28.905  1.00  0.00    -0.203 F 
ATOM     82  F   UNL A   1      37.362  31.117  34.300  1.00  0.00    -0.200 F 
ATOM     83  C   UNL A   1      36.478  31.921  32.263  1.00  0.00     0.200 A 
ATOM     84  F   UNL A   1      35.634  32.695  30.199  1.00  0.00    -0.200 F 
ATOM     85  F   UNL A   1      35.373  32.344  32.892  1.00  0.00    -0.200 F 
ENDBRANCH  51  75
BRANCH  63  86
ATOM     86  C   UNL A   1      45.053  33.740  29.663  1.00  0.00     0.064 A 
ATOM     87  C   UNL A   1      45.720  34.000  30.868  1.00  0.00     0.173 A 
ATOM     88  C   UNL A   1      44.970  34.775  28.719  1.00  0.00     0.173 A 
ATOM     89  F   UNL A   1      45.812  33.048  31.809  1.00  0.00    -0.203 F 
ATOM     90  C   UNL A   1      46.253  35.259  31.132  1.00  0.00     0.198 A 
ATOM     91  C   UNL A   1      45.529  36.023  28.975  1.00  0.00     0.198 A 
ATOM     92  F   UNL A   1      44.348  34.574  27.548  1.00  0.00    -0.203 F 
ATOM     93  F   UNL A   1      46.838  35.502  32.314  1.00  0.00    -0.200 F 
ATOM     94  C   UNL A   1      46.162  36.268  30.184  1.00  0.00     0.200 A 
ATOM     95  F   UNL A   1      45.451  36.993  28.053  1.00  0.00    -0.200 F 
ATOM     96  F   UNL A   1      46.676  37.478  30.440  1.00  0.00    -0.200 F 
ENDBRANCH  63  86
ENDBRANCH  37  38
ENDBRANCH  29  32
ENDBRANCH  27  28
ENDBRANCH  26  27
ENDBRANCH  25  26
ENDBRANCH   3  25
TORSDOF 15
ENDMDL
