MODEL 1
REMARK VINA RESULT:     -12.5      0.000      0.000
REMARK SMILES CSc1ccc([C@H]2[NH2+][C@@H](C(=O)NCCCNC(=O)c3ccc(-c4c5nc(c(-c6c(F)c(F)c(F)c(F)c6F)c6ccc([nH]6)c(-c6c(F)c(F)c(F)c(F)c6F)c6nc(c(-c7c(F)c(F)c(F)c(F)c7F)c7ccc4[nH]7)C=C6)C=C5)cc3)C(C)(C)S2)cc1
REMARK SMILES IDX 14 1 13 2 12 3 10 4 11 5 9 7 7 8 8 9 85 10 82 13 83 14 84 15
REMARK SMILES IDX 6 16 3 17 4 18 87 19 5 20 86 21 2 22 1 23 15 24 16 25 17 26
REMARK SMILES IDX 18 28 19 29 20 30 81 31 21 32 80 33 22 34 23 35 24 36 74 37
REMARK SMILES IDX 25 38 79 39 73 40 75 41 26 42 78 43 72 44 71 45 27 47 59 48
REMARK SMILES IDX 39 49 58 50 40 51 43 52 57 53 76 54 41 55 42 56 56 58 77 59
REMARK SMILES IDX 44 60 28 61 29 62 37 63 30 64 31 65 35 66 38 67 32 68 33 69
REMARK SMILES IDX 36 70 34 71 60 72 61 73 69 74 62 75 63 76 67 77 70 78 64 79
REMARK SMILES IDX 65 80 68 81 66 82 45 83 46 84 54 85 47 86 48 87 52 88 55 89
REMARK SMILES IDX 49 90 50 91 53 92 51 93
REMARK H PARENT 12 6 8 11 8 12 16 27 75 46 43 57
REMARK Flexibility Score: inf
ROOT
ATOM      1  C   UNL A   1      31.779  28.607  26.419  1.00  0.00     0.042 C 
ENDROOT
BRANCH   1   2
ATOM      2  C   UNL A   1      31.522  27.330  25.623  1.00  0.00     0.118 C 
BRANCH   2   3
ATOM      3  N   UNL A   1      31.435  26.159  26.483  1.00  0.00    -0.351 N 
ATOM      4  C   UNL A   1      31.664  24.830  26.324  1.00  0.00     0.279 C 
ATOM      5  O   UNL A   1      31.359  24.123  27.294  1.00  0.00    -0.268 OA
ATOM      6  H   UNL A   1      31.139  26.383  27.395  1.00  0.00     0.163 HD
BRANCH   4   7
ATOM      7  C   UNL A   1      32.207  24.158  25.051  1.00  0.00     0.289 C 
ATOM      8  C   UNL A   1      32.619  22.227  23.782  1.00  0.00     0.274 C 
ATOM      9  N   UNL A   1      32.031  22.686  25.044  1.00  0.00    -0.320 N 
ATOM     10  S   UNL A   1      34.129  23.196  23.505  1.00  0.00    -0.081 SA
ATOM     11  H   UNL A   1      32.516  22.266  25.838  1.00  0.00     0.348 HD
ATOM     12  H   UNL A   1      31.049  22.421  25.123  1.00  0.00     0.348 HD
ATOM     13  C   UNL A   1      33.648  24.546  24.655  1.00  0.00     0.077 C 
ATOM     14  C   UNL A   1      34.677  24.572  25.782  1.00  0.00     0.030 C 
ATOM     15  C   UNL A   1      33.681  25.882  23.905  1.00  0.00     0.030 C 
BRANCH   8  16
ATOM     16  C   UNL A   1      32.847  20.728  23.796  1.00  0.00     0.020 A 
ATOM     17  C   UNL A   1      33.365  17.950  23.830  1.00  0.00     0.007 A 
ATOM     18  C   UNL A   1      34.062  18.809  24.683  1.00  0.00     0.015 A 
ATOM     19  C   UNL A   1      32.409  18.478  22.961  1.00  0.00     0.015 A 
ATOM     20  C   UNL A   1      33.810  20.183  24.661  1.00  0.00     0.012 A 
ATOM     21  C   UNL A   1      32.155  19.853  22.940  1.00  0.00     0.012 A 
BRANCH  17  22
ATOM     22  S   UNL A   1      33.637  16.190  23.882  1.00  0.00    -0.130 SA
ATOM     23  C   UNL A   1      34.947  16.127  25.132  1.00  0.00     0.091 C 
ENDBRANCH  17  22
ENDBRANCH   8  16
ENDBRANCH   4   7
ENDBRANCH   2   3
ENDBRANCH   1   2
BRANCH   1  24
ATOM     24  C   UNL A   1      32.895  29.474  25.859  1.00  0.00     0.118 C 
BRANCH  24  25
ATOM     25  N   UNL A   1      32.682  30.884  26.134  1.00  0.00    -0.352 N 
ATOM     26  C   UNL A   1      33.277  31.704  27.063  1.00  0.00     0.251 C 
ATOM     27  H   UNL A   1      32.006  31.321  25.568  1.00  0.00     0.163 HD
ATOM     28  O   UNL A   1      32.791  32.807  27.291  1.00  0.00    -0.269 OA
BRANCH  26  29
ATOM     29  C   UNL A   1      34.486  31.270  27.805  1.00  0.00     0.039 A 
ATOM     30  C   UNL A   1      35.537  32.179  27.963  1.00  0.00     0.014 A 
ATOM     31  C   UNL A   1      34.624  29.966  28.288  1.00  0.00     0.014 A 
ATOM     32  C   UNL A   1      36.699  31.796  28.639  1.00  0.00     0.010 A 
ATOM     33  C   UNL A   1      35.745  29.611  29.039  1.00  0.00     0.010 A 
ATOM     34  C   UNL A   1      36.805  30.514  29.203  1.00  0.00    -0.014 A 
BRANCH  34  35
ATOM     35  C   UNL A   1      38.036  30.088  29.919  1.00  0.00     0.031 A 
ATOM     36  C   UNL A   1      38.305  30.582  31.317  1.00  0.00     0.074 A 
ATOM     37  C   UNL A   1      38.930  29.289  29.306  1.00  0.00     0.049 A 
ATOM     38  N   UNL A   1      39.343  30.368  32.087  1.00  0.00    -0.248 NA
ATOM     39  C   UNL A   1      37.286  31.455  31.919  1.00  0.00     0.031 C 
ATOM     40  C   UNL A   1      38.810  28.774  27.942  1.00  0.00     0.029 A 
ATOM     41  N   UNL A   1      40.120  28.769  29.752  1.00  0.00    -0.354 N 
ATOM     42  C   UNL A   1      39.106  31.088  33.251  1.00  0.00     0.074 A 
ATOM     43  C   UNL A   1      37.856  31.790  33.067  1.00  0.00     0.031 C 
ATOM     44  C   UNL A   1      39.867  27.989  27.672  1.00  0.00     0.029 A 
ATOM     45  C   UNL A   1      40.753  27.972  28.832  1.00  0.00     0.049 A 
ATOM     46  H   UNL A   1      40.485  28.952  30.648  1.00  0.00     0.167 HD
ATOM     47  C   UNL A   1      39.848  31.139  34.383  1.00  0.00     0.037 A 
ATOM     48  C   UNL A   1      41.918  27.299  28.915  1.00  0.00     0.037 A 
ATOM     49  C   UNL A   1      41.073  30.410  34.585  1.00  0.00     0.049 A 
ATOM     50  C   UNL A   1      42.717  27.364  30.189  1.00  0.00     0.074 A 
ATOM     51  C   UNL A   1      41.874  30.363  35.712  1.00  0.00     0.029 A 
ATOM     52  N   UNL A   1      41.667  29.593  33.636  1.00  0.00    -0.354 N 
ATOM     53  N   UNL A   1      42.455  28.009  31.299  1.00  0.00    -0.248 NA
ATOM     54  C   UNL A   1      43.972  26.599  30.222  1.00  0.00     0.031 C 
ATOM     55  C   UNL A   1      42.969  29.539  35.435  1.00  0.00     0.029 A 
ATOM     56  C   UNL A   1      42.830  29.043  34.150  1.00  0.00     0.049 A 
ATOM     57  H   UNL A   1      41.316  29.429  32.731  1.00  0.00     0.167 HD
ATOM     58  C   UNL A   1      43.492  27.706  32.170  1.00  0.00     0.074 A 
ATOM     59  C   UNL A   1      44.381  26.806  31.465  1.00  0.00     0.031 C 
ATOM     60  C   UNL A   1      43.692  28.136  33.440  1.00  0.00     0.037 A 
BRANCH  47  61
ATOM     61  C   UNL A   1      39.343  31.998  35.505  1.00  0.00     0.064 A 
ATOM     62  C   UNL A   1      38.485  31.486  36.489  1.00  0.00     0.173 A 
ATOM     63  C   UNL A   1      39.751  33.335  35.621  1.00  0.00     0.173 A 
ATOM     64  F   UNL A   1      38.054  30.218  36.416  1.00  0.00    -0.203 F 
ATOM     65  C   UNL A   1      38.035  32.288  37.535  1.00  0.00     0.198 A 
ATOM     66  C   UNL A   1      39.321  34.126  36.683  1.00  0.00     0.198 A 
ATOM     67  F   UNL A   1      40.575  33.873  34.709  1.00  0.00    -0.203 F 
ATOM     68  F   UNL A   1      37.180  31.788  38.440  1.00  0.00    -0.200 F 
ATOM     69  C   UNL A   1      38.459  33.604  37.636  1.00  0.00     0.200 A 
ATOM     70  F   UNL A   1      39.741  35.395  36.785  1.00  0.00    -0.200 F 
ATOM     71  F   UNL A   1      38.032  34.371  38.647  1.00  0.00    -0.200 F 
ENDBRANCH  47  61
BRANCH  48  72
ATOM     72  C   UNL A   1      42.385  26.473  27.773  1.00  0.00     0.064 A 
ATOM     73  C   UNL A   1      43.307  26.984  26.849  1.00  0.00     0.173 A 
ATOM     74  C   UNL A   1      41.910  25.170  27.568  1.00  0.00     0.173 A 
ATOM     75  F   UNL A   1      43.773  28.234  26.991  1.00  0.00    -0.203 F 
ATOM     76  C   UNL A   1      43.718  26.233  25.750  1.00  0.00     0.198 A 
ATOM     77  C   UNL A   1      42.341  24.409  26.483  1.00  0.00     0.198 A 
ATOM     78  F   UNL A   1      41.030  24.633  28.425  1.00  0.00    -0.203 F 
ATOM     79  F   UNL A   1      44.563  26.765  24.856  1.00  0.00    -0.200 F 
ATOM     80  C   UNL A   1      43.237  24.945  25.570  1.00  0.00     0.200 A 
ATOM     81  F   UNL A   1      41.885  23.161  26.318  1.00  0.00    -0.200 F 
ATOM     82  F   UNL A   1      43.631  24.223  24.512  1.00  0.00    -0.200 F 
ENDBRANCH  48  72
BRANCH  60  83
ATOM     83  C   UNL A   1      44.896  27.605  34.161  1.00  0.00     0.064 A 
ATOM     84  C   UNL A   1      46.115  28.296  34.161  1.00  0.00     0.173 A 
ATOM     85  C   UNL A   1      44.815  26.408  34.888  1.00  0.00     0.173 A 
ATOM     86  F   UNL A   1      46.245  29.437  33.467  1.00  0.00    -0.203 F 
ATOM     87  C   UNL A   1      47.221  27.794  34.841  1.00  0.00     0.198 A 
ATOM     88  C   UNL A   1      45.915  25.923  35.590  1.00  0.00     0.198 A 
ATOM     89  F   UNL A   1      43.667  25.714  34.924  1.00  0.00    -0.203 F 
ATOM     90  F   UNL A   1      48.390  28.446  34.791  1.00  0.00    -0.200 F 
ATOM     91  C   UNL A   1      47.118  26.611  35.560  1.00  0.00     0.200 A 
ATOM     92  F   UNL A   1      45.812  24.786  36.292  1.00  0.00    -0.200 F 
ATOM     93  F   UNL A   1      48.183  26.132  36.218  1.00  0.00    -0.200 F 
ENDBRANCH  60  83
ENDBRANCH  34  35
ENDBRANCH  26  29
ENDBRANCH  24  25
ENDBRANCH   1  24
TORSDOF 12
ENDMDL
MODEL 2
REMARK VINA RESULT:     -12.5      6.299     14.106
REMARK SMILES CSc1ccc([C@H]2[NH2+][C@@H](C(=O)NCCCNC(=O)c3ccc(-c4c5nc(c(-c6c(F)c(F)c(F)c(F)c6F)c6ccc([nH]6)c(-c6c(F)c(F)c(F)c(F)c6F)c6nc(c(-c7c(F)c(F)c(F)c(F)c7F)c7ccc4[nH]7)C=C6)C=C5)cc3)C(C)(C)S2)cc1
REMARK SMILES IDX 14 1 13 2 12 3 10 4 11 5 9 7 7 8 8 9 85 10 82 13 83 14 84 15
REMARK SMILES IDX 6 16 3 17 4 18 87 19 5 20 86 21 2 22 1 23 15 24 16 25 17 26
REMARK SMILES IDX 18 28 19 29 20 30 81 31 21 32 80 33 22 34 23 35 24 36 74 37
REMARK SMILES IDX 25 38 79 39 73 40 75 41 26 42 78 43 72 44 71 45 27 47 59 48
REMARK SMILES IDX 39 49 58 50 40 51 43 52 57 53 76 54 41 55 42 56 56 58 77 59
REMARK SMILES IDX 44 60 28 61 29 62 37 63 30 64 31 65 35 66 38 67 32 68 33 69
REMARK SMILES IDX 36 70 34 71 60 72 61 73 69 74 62 75 63 76 67 77 70 78 64 79
REMARK SMILES IDX 65 80 68 81 66 82 45 83 46 84 54 85 47 86 48 87 52 88 55 89
REMARK SMILES IDX 49 90 50 91 53 92 51 93
REMARK H PARENT 12 6 8 11 8 12 16 27 75 46 43 57
REMARK Flexibility Score: inf
ROOT
ATOM      1  C   UNL A   1      48.927  22.549  34.422  1.00  0.00     0.042 C 
ENDROOT
BRANCH   1   2
ATOM      2  C   UNL A   1      48.510  21.086  34.546  1.00  0.00     0.118 C 
BRANCH   2   3
ATOM      3  N   UNL A   1      47.065  20.935  34.622  1.00  0.00    -0.351 N 
ATOM      4  C   UNL A   1      46.204  20.341  35.487  1.00  0.00     0.279 C 
ATOM      5  O   UNL A   1      45.018  20.338  35.132  1.00  0.00    -0.268 OA
ATOM      6  H   UNL A   1      46.601  21.365  33.867  1.00  0.00     0.163 HD
BRANCH   4   7
ATOM      7  C   UNL A   1      46.591  19.649  36.806  1.00  0.00     0.289 C 
ATOM      8  C   UNL A   1      46.132  18.096  38.504  1.00  0.00     0.274 C 
ATOM      9  N   UNL A   1      45.614  18.621  37.238  1.00  0.00    -0.320 N 
ATOM     10  S   UNL A   1      46.796  19.502  39.442  1.00  0.00    -0.081 SA
ATOM     11  H   UNL A   1      44.693  19.040  37.375  1.00  0.00     0.348 HD
ATOM     12  H   UNL A   1      45.504  17.886  36.539  1.00  0.00     0.348 HD
ATOM     13  C   UNL A   1      46.953  20.594  37.973  1.00  0.00     0.077 C 
ATOM     14  C   UNL A   1      46.027  21.787  38.191  1.00  0.00     0.030 C 
ATOM     15  C   UNL A   1      48.400  21.087  37.863  1.00  0.00     0.030 C 
BRANCH   8  16
ATOM     16  C   UNL A   1      45.070  17.310  39.248  1.00  0.00     0.020 A 
ATOM     17  C   UNL A   1      43.155  15.825  40.704  1.00  0.00     0.007 A 
ATOM     18  C   UNL A   1      44.072  16.640  41.370  1.00  0.00     0.015 A 
ATOM     19  C   UNL A   1      43.194  15.752  39.310  1.00  0.00     0.015 A 
ATOM     20  C   UNL A   1      45.024  17.369  40.652  1.00  0.00     0.012 A 
ATOM     21  C   UNL A   1      44.144  16.483  38.589  1.00  0.00     0.012 A 
BRANCH  17  22
ATOM     22  S   UNL A   1      41.904  14.930  41.602  1.00  0.00    -0.130 SA
ATOM     23  C   UNL A   1      41.525  13.644  40.383  1.00  0.00     0.091 C 
ENDBRANCH  17  22
ENDBRANCH   8  16
ENDBRANCH   4   7
ENDBRANCH   2   3
ENDBRANCH   1   2
BRANCH   1  24
ATOM     24  C   UNL A   1      47.807  23.539  34.698  1.00  0.00     0.118 C 
BRANCH  24  25
ATOM     25  N   UNL A   1      47.920  24.140  36.016  1.00  0.00    -0.352 N 
ATOM     26  C   UNL A   1      47.350  25.286  36.517  1.00  0.00     0.251 C 
ATOM     27  H   UNL A   1      48.495  23.652  36.648  1.00  0.00     0.163 HD
ATOM     28  O   UNL A   1      47.757  25.744  37.580  1.00  0.00    -0.269 OA
BRANCH  26  29
ATOM     29  C   UNL A   1      46.264  25.985  35.788  1.00  0.00     0.039 A 
ATOM     30  C   UNL A   1      44.975  25.444  35.826  1.00  0.00     0.014 A 
ATOM     31  C   UNL A   1      46.511  27.123  35.017  1.00  0.00     0.014 A 
ATOM     32  C   UNL A   1      43.934  26.066  35.132  1.00  0.00     0.010 A 
ATOM     33  C   UNL A   1      45.456  27.794  34.398  1.00  0.00     0.010 A 
ATOM     34  C   UNL A   1      44.159  27.260  34.429  1.00  0.00    -0.014 A 
BRANCH  34  35
ATOM     35  C   UNL A   1      43.065  27.931  33.680  1.00  0.00     0.031 A 
ATOM     36  C   UNL A   1      42.863  27.639  32.215  1.00  0.00     0.074 A 
ATOM     37  C   UNL A   1      42.274  28.828  34.300  1.00  0.00     0.049 A 
ATOM     38  N   UNL A   1      42.001  28.158  31.377  1.00  0.00    -0.248 NA
ATOM     39  C   UNL A   1      43.768  26.651  31.606  1.00  0.00     0.031 C 
ATOM     40  C   UNL A   1      42.389  29.231  35.702  1.00  0.00     0.029 A 
ATOM     41  N   UNL A   1      41.215  29.564  33.829  1.00  0.00    -0.354 N 
ATOM     42  C   UNL A   1      42.270  27.573  30.146  1.00  0.00     0.074 A 
ATOM     43  C   UNL A   1      43.410  26.702  30.332  1.00  0.00     0.031 C 
ATOM     44  C   UNL A   1      41.421  30.119  35.985  1.00  0.00     0.029 A 
ATOM     45  C   UNL A   1      40.640  30.371  34.779  1.00  0.00     0.049 A 
ATOM     46  H   UNL A   1      40.900  29.519  32.897  1.00  0.00     0.167 HD
ATOM     47  C   UNL A   1      41.612  27.725  28.972  1.00  0.00     0.037 A 
ATOM     48  C   UNL A   1      39.595  31.218  34.687  1.00  0.00     0.037 A 
ATOM     49  C   UNL A   1      40.454  28.560  28.793  1.00  0.00     0.049 A 
ATOM     50  C   UNL A   1      38.875  31.359  33.373  1.00  0.00     0.074 A 
ATOM     51  C   UNL A   1      39.692  28.746  27.653  1.00  0.00     0.029 A 
ATOM     52  N   UNL A   1      39.887  29.342  29.787  1.00  0.00    -0.354 N 
ATOM     53  N   UNL A   1      39.110  30.762  32.230  1.00  0.00    -0.248 NA
ATOM     54  C   UNL A   1      37.736  32.289  33.340  1.00  0.00     0.031 C 
ATOM     55  C   UNL A   1      38.678  29.664  27.950  1.00  0.00     0.029 A 
ATOM     56  C   UNL A   1      38.787  30.019  29.284  1.00  0.00     0.049 A 
ATOM     57  H   UNL A   1      40.217  29.407  30.712  1.00  0.00     0.167 HD
ATOM     58  C   UNL A   1      38.136  31.218  31.354  1.00  0.00     0.074 A 
ATOM     59  C   UNL A   1      37.296  32.131  32.100  1.00  0.00     0.031 C 
ATOM     60  C   UNL A   1      37.953  30.910  30.046  1.00  0.00     0.037 A 
BRANCH  47  61
ATOM     61  C   UNL A   1      42.117  26.952  27.789  1.00  0.00     0.064 A 
ATOM     62  C   UNL A   1      43.086  27.485  26.926  1.00  0.00     0.173 A 
ATOM     63  C   UNL A   1      41.659  25.650  27.537  1.00  0.00     0.173 A 
ATOM     64  F   UNL A   1      43.546  28.731  27.116  1.00  0.00    -0.203 F 
ATOM     65  C   UNL A   1      43.560  26.753  25.841  1.00  0.00     0.198 A 
ATOM     66  C   UNL A   1      42.155  24.910  26.467  1.00  0.00     0.198 A 
ATOM     67  F   UNL A   1      40.736  25.091  28.334  1.00  0.00    -0.203 F 
ATOM     68  F   UNL A   1      44.453  27.300  25.005  1.00  0.00    -0.200 F 
ATOM     69  C   UNL A   1      43.100  25.464  25.616  1.00  0.00     0.200 A 
ATOM     70  F   UNL A   1      41.718  23.661  26.257  1.00  0.00    -0.200 F 
ATOM     71  F   UNL A   1      43.564  24.758  24.576  1.00  0.00    -0.200 F 
ENDBRANCH  47  61
BRANCH  48  72
ATOM     72  C   UNL A   1      39.140  31.974  35.882  1.00  0.00     0.064 A 
ATOM     73  C   UNL A   1      38.240  31.403  36.791  1.00  0.00     0.173 A 
ATOM     74  C   UNL A   1      39.577  33.283  36.130  1.00  0.00     0.173 A 
ATOM     75  F   UNL A   1      37.777  30.161  36.583  1.00  0.00    -0.203 F 
ATOM     76  C   UNL A   1      37.774  32.120  37.891  1.00  0.00     0.198 A 
ATOM     77  C   UNL A   1      39.132  33.990  37.244  1.00  0.00     0.198 A 
ATOM     78  F   UNL A   1      40.442  33.873  35.292  1.00  0.00    -0.203 F 
ATOM     79  F   UNL A   1      36.876  31.567  38.717  1.00  0.00    -0.200 F 
ATOM     80  C   UNL A   1      38.223  33.412  38.118  1.00  0.00     0.200 A 
ATOM     81  F   UNL A   1      39.577  35.234  37.468  1.00  0.00    -0.200 F 
ATOM     82  F   UNL A   1      37.775  34.102  39.175  1.00  0.00    -0.200 F 
ENDBRANCH  48  72
BRANCH  60  83
ATOM     83  C   UNL A   1      36.779  31.534  29.353  1.00  0.00     0.064 A 
ATOM     84  C   UNL A   1      36.769  32.890  29.003  1.00  0.00     0.173 A 
ATOM     85  C   UNL A   1      35.665  30.754  29.005  1.00  0.00     0.173 A 
ATOM     86  F   UNL A   1      37.804  33.680  29.328  1.00  0.00    -0.203 F 
ATOM     87  C   UNL A   1      35.674  33.453  28.352  1.00  0.00     0.198 A 
ATOM     88  C   UNL A   1      34.584  31.313  28.331  1.00  0.00     0.198 A 
ATOM     89  F   UNL A   1      35.631  29.448  29.313  1.00  0.00    -0.203 F 
ATOM     90  F   UNL A   1      35.665  34.762  28.068  1.00  0.00    -0.200 F 
ATOM     91  C   UNL A   1      34.585  32.662  28.012  1.00  0.00     0.200 A 
ATOM     92  F   UNL A   1      33.537  30.547  27.994  1.00  0.00    -0.200 F 
ATOM     93  F   UNL A   1      33.534  33.205  27.383  1.00  0.00    -0.200 F 
ENDBRANCH  60  83
ENDBRANCH  34  35
ENDBRANCH  26  29
ENDBRANCH  24  25
ENDBRANCH   1  24
TORSDOF 12
ENDMDL
MODEL 3
REMARK VINA RESULT:     -12.4      1.077      1.889
REMARK SMILES CSc1ccc([C@H]2[NH2+][C@@H](C(=O)NCCCNC(=O)c3ccc(-c4c5nc(c(-c6c(F)c(F)c(F)c(F)c6F)c6ccc([nH]6)c(-c6c(F)c(F)c(F)c(F)c6F)c6nc(c(-c7c(F)c(F)c(F)c(F)c7F)c7ccc4[nH]7)C=C6)C=C5)cc3)C(C)(C)S2)cc1
REMARK SMILES IDX 14 1 13 2 12 3 10 4 11 5 9 7 7 8 8 9 85 10 82 13 83 14 84 15
REMARK SMILES IDX 6 16 3 17 4 18 87 19 5 20 86 21 2 22 1 23 15 24 16 25 17 26
REMARK SMILES IDX 18 28 19 29 20 30 81 31 21 32 80 33 22 34 23 35 24 36 74 37
REMARK SMILES IDX 25 38 79 39 73 40 75 41 26 42 78 43 72 44 71 45 27 47 59 48
REMARK SMILES IDX 39 49 58 50 40 51 43 52 57 53 76 54 41 55 42 56 56 58 77 59
REMARK SMILES IDX 44 60 28 61 29 62 37 63 30 64 31 65 35 66 38 67 32 68 33 69
REMARK SMILES IDX 36 70 34 71 60 72 61 73 69 74 62 75 63 76 67 77 70 78 64 79
REMARK SMILES IDX 65 80 68 81 66 82 45 83 46 84 54 85 47 86 48 87 52 88 55 89
REMARK SMILES IDX 49 90 50 91 53 92 51 93
REMARK H PARENT 12 6 8 11 8 12 16 27 75 46 43 57
REMARK Flexibility Score: inf
ROOT
ATOM      1  C   UNL A   1      32.899  28.871  24.275  1.00  0.00     0.042 C 
ENDROOT
BRANCH   1   2
ATOM      2  C   UNL A   1      34.020  27.909  23.893  1.00  0.00     0.118 C 
BRANCH   2   3
ATOM      3  N   UNL A   1      33.643  27.042  22.786  1.00  0.00    -0.351 N 
ATOM      4  C   UNL A   1      33.280  25.739  22.666  1.00  0.00     0.279 C 
ATOM      5  O   UNL A   1      33.139  25.337  21.503  1.00  0.00    -0.268 OA
ATOM      6  H   UNL A   1      33.654  27.511  21.920  1.00  0.00     0.163 HD
BRANCH   4   7
ATOM      7  C   UNL A   1      33.089  24.749  23.827  1.00  0.00     0.289 C 
ATOM      8  C   UNL A   1      33.327  22.595  24.730  1.00  0.00     0.274 C 
ATOM      9  N   UNL A   1      33.614  23.393  23.535  1.00  0.00    -0.320 N 
ATOM     10  S   UNL A   1      31.677  23.076  25.317  1.00  0.00    -0.081 SA
ATOM     11  H   UNL A   1      33.145  22.997  22.720  1.00  0.00     0.348 HD
ATOM     12  H   UNL A   1      34.612  23.412  23.323  1.00  0.00     0.348 HD
ATOM     13  C   UNL A   1      31.662  24.675  24.412  1.00  0.00     0.077 C 
ATOM     14  C   UNL A   1      30.517  24.616  23.403  1.00  0.00     0.030 C 
ATOM     15  C   UNL A   1      31.405  25.813  25.405  1.00  0.00     0.030 C 
BRANCH   8  16
ATOM     16  C   UNL A   1      33.469  21.113  24.448  1.00  0.00     0.020 A 
ATOM     17  C   UNL A   1      33.640  18.338  23.941  1.00  0.00     0.007 A 
ATOM     18  C   UNL A   1      32.532  19.068  23.506  1.00  0.00     0.015 A 
ATOM     19  C   UNL A   1      34.663  18.993  24.627  1.00  0.00     0.015 A 
ATOM     20  C   UNL A   1      32.444  20.439  23.763  1.00  0.00     0.012 A 
ATOM     21  C   UNL A   1      34.577  20.366  24.883  1.00  0.00     0.012 A 
BRANCH  17  22
ATOM     22  S   UNL A   1      33.792  16.600  23.576  1.00  0.00    -0.130 SA
ATOM     23  C   UNL A   1      34.778  16.081  25.004  1.00  0.00     0.091 C 
ENDBRANCH  17  22
ENDBRANCH   8  16
ENDBRANCH   4   7
ENDBRANCH   2   3
ENDBRANCH   1   2
BRANCH   1  24
ATOM     24  C   UNL A   1      32.822  29.177  25.762  1.00  0.00     0.118 C 
BRANCH  24  25
ATOM     25  N   UNL A   1      32.578  30.586  26.019  1.00  0.00    -0.352 N 
ATOM     26  C   UNL A   1      33.175  31.437  26.918  1.00  0.00     0.251 C 
ATOM     27  H   UNL A   1      31.877  30.995  25.462  1.00  0.00     0.163 HD
ATOM     28  O   UNL A   1      32.665  32.530  27.140  1.00  0.00    -0.269 OA
BRANCH  26  29
ATOM     29  C   UNL A   1      34.413  31.049  27.636  1.00  0.00     0.039 A 
ATOM     30  C   UNL A   1      34.563  29.720  28.043  1.00  0.00     0.014 A 
ATOM     31  C   UNL A   1      35.394  31.986  27.969  1.00  0.00     0.014 A 
ATOM     32  C   UNL A   1      35.709  29.326  28.741  1.00  0.00     0.010 A 
ATOM     33  C   UNL A   1      36.576  31.577  28.586  1.00  0.00     0.010 A 
ATOM     34  C   UNL A   1      36.737  30.246  28.999  1.00  0.00    -0.014 A 
BRANCH  34  35
ATOM     35  C   UNL A   1      37.959  29.846  29.746  1.00  0.00     0.031 A 
ATOM     36  C   UNL A   1      38.201  30.375  31.136  1.00  0.00     0.074 A 
ATOM     37  C   UNL A   1      38.868  29.038  29.167  1.00  0.00     0.049 A 
ATOM     38  N   UNL A   1      39.226  30.186  31.928  1.00  0.00    -0.248 NA
ATOM     39  C   UNL A   1      37.166  31.255  31.700  1.00  0.00     0.031 C 
ATOM     40  C   UNL A   1      38.774  28.490  27.814  1.00  0.00     0.029 A 
ATOM     41  N   UNL A   1      40.053  28.537  29.646  1.00  0.00    -0.354 N 
ATOM     42  C   UNL A   1      38.965  30.932  33.071  1.00  0.00     0.074 A 
ATOM     43  C   UNL A   1      37.714  31.621  32.848  1.00  0.00     0.031 C 
ATOM     44  C   UNL A   1      39.840  27.706  27.582  1.00  0.00     0.029 A 
ATOM     45  C   UNL A   1      40.707  27.722  28.756  1.00  0.00     0.049 A 
ATOM     46  H   UNL A   1      40.402  28.744  30.544  1.00  0.00     0.167 HD
ATOM     47  C   UNL A   1      39.688  31.015  34.213  1.00  0.00     0.037 A 
ATOM     48  C   UNL A   1      41.874  27.059  28.875  1.00  0.00     0.037 A 
ATOM     49  C   UNL A   1      40.913  30.300  34.453  1.00  0.00     0.049 A 
ATOM     50  C   UNL A   1      42.651  27.161  30.160  1.00  0.00     0.074 A 
ATOM     51  C   UNL A   1      41.696  30.286  35.594  1.00  0.00     0.029 A 
ATOM     52  N   UNL A   1      41.529  29.465  33.534  1.00  0.00    -0.354 N 
ATOM     53  N   UNL A   1      42.367  27.831  31.250  1.00  0.00    -0.248 NA
ATOM     54  C   UNL A   1      43.910  26.405  30.233  1.00  0.00     0.031 C 
ATOM     55  C   UNL A   1      42.801  29.462  35.356  1.00  0.00     0.029 A 
ATOM     56  C   UNL A   1      42.687  28.935  34.081  1.00  0.00     0.049 A 
ATOM     57  H   UNL A   1      41.194  29.277  32.627  1.00  0.00     0.167 HD
ATOM     58  C   UNL A   1      43.390  27.555  32.145  1.00  0.00     0.074 A 
ATOM     59  C   UNL A   1      44.297  26.645  31.477  1.00  0.00     0.031 C 
ATOM     60  C   UNL A   1      43.566  28.017  33.407  1.00  0.00     0.037 A 
BRANCH  47  61
ATOM     61  C   UNL A   1      39.158  31.898  35.305  1.00  0.00     0.064 A 
ATOM     62  C   UNL A   1      38.380  31.380  36.351  1.00  0.00     0.173 A 
ATOM     63  C   UNL A   1      39.464  33.267  35.330  1.00  0.00     0.173 A 
ATOM     64  F   UNL A   1      38.048  30.081  36.366  1.00  0.00    -0.203 F 
ATOM     65  C   UNL A   1      37.907  32.205  37.368  1.00  0.00     0.198 A 
ATOM     66  C   UNL A   1      39.013  34.083  36.363  1.00  0.00     0.198 A 
ATOM     67  F   UNL A   1      40.209  33.811  34.356  1.00  0.00    -0.203 F 
ATOM     68  F   UNL A   1      37.129  31.696  38.334  1.00  0.00    -0.200 F 
ATOM     69  C   UNL A   1      38.230  33.554  37.378  1.00  0.00     0.200 A 
ATOM     70  F   UNL A   1      39.335  35.385  36.377  1.00  0.00    -0.200 F 
ATOM     71  F   UNL A   1      37.781  34.344  38.362  1.00  0.00    -0.200 F 
ENDBRANCH  47  61
BRANCH  48  72
ATOM     72  C   UNL A   1      42.366  26.209  27.761  1.00  0.00     0.064 A 
ATOM     73  C   UNL A   1      43.320  26.696  26.856  1.00  0.00     0.173 A 
ATOM     74  C   UNL A   1      41.884  24.907  27.564  1.00  0.00     0.173 A 
ATOM     75  F   UNL A   1      43.794  27.943  26.991  1.00  0.00    -0.203 F 
ATOM     76  C   UNL A   1      43.755  25.922  25.782  1.00  0.00     0.198 A 
ATOM     77  C   UNL A   1      42.339  24.124  26.506  1.00  0.00     0.198 A 
ATOM     78  F   UNL A   1      40.974  24.394  28.405  1.00  0.00    -0.203 F 
ATOM     79  F   UNL A   1      44.630  26.430  24.905  1.00  0.00    -0.200 F 
ATOM     80  C   UNL A   1      43.266  24.635  25.610  1.00  0.00     0.200 A 
ATOM     81  F   UNL A   1      41.874  22.878  26.349  1.00  0.00    -0.200 F 
ATOM     82  F   UNL A   1      43.684  23.892  24.577  1.00  0.00    -0.200 F 
ENDBRANCH  48  72
BRANCH  60  83
ATOM     83  C   UNL A   1      44.761  27.512  34.161  1.00  0.00     0.064 A 
ATOM     84  C   UNL A   1      44.707  26.336  34.921  1.00  0.00     0.173 A 
ATOM     85  C   UNL A   1      45.983  28.198  34.093  1.00  0.00     0.173 A 
ATOM     86  F   UNL A   1      43.556  25.654  35.028  1.00  0.00    -0.203 F 
ATOM     87  C   UNL A   1      45.826  25.876  35.608  1.00  0.00     0.198 A 
ATOM     88  C   UNL A   1      47.108  27.721  34.759  1.00  0.00     0.198 A 
ATOM     89  F   UNL A   1      46.087  29.325  33.373  1.00  0.00    -0.203 F 
ATOM     90  F   UNL A   1      45.741  24.775  36.366  1.00  0.00    -0.200 F 
ATOM     91  C   UNL A   1      47.028  26.566  35.521  1.00  0.00     0.200 A 
ATOM     92  F   UNL A   1      48.270  28.383  34.667  1.00  0.00    -0.200 F 
ATOM     93  F   UNL A   1      48.106  26.120  36.182  1.00  0.00    -0.200 F 
ENDBRANCH  60  83
ENDBRANCH  34  35
ENDBRANCH  26  29
ENDBRANCH  24  25
ENDBRANCH   1  24
TORSDOF 12
ENDMDL
