MODEL 1
REMARK VINA RESULT:     -10.9      0.000      0.000
REMARK SMILES O=C(CN(CC(F)(F)F)C(=O)CC[C@H]1CCC[NH2+]C1)NCCCNC(=O)c1ccc(-c2c3nc(c(-c4c(F)c(F)c(F)c(F)c4F)c4ccc([nH]4)c(-c4c(F)c(F)c(F)c(F)c4F)c4nc(c(-c5c(F)c(F)c(F)c(F)c5F)c5ccc2[nH]5)C=C4)C=C3)cc1
REMARK SMILES IDX 1 1 2 2 20 3 3 5 4 6 5 7 6 8 7 9 8 10 9 11 10 12 11 13 12 14
REMARK SMILES IDX 13 15 14 16 15 17 19 18 16 19 18 20 17 21 21 24 22 25 23 26
REMARK SMILES IDX 24 27 25 28 26 30 27 31 28 32 89 33 29 34 88 35 30 36 31 37
REMARK SMILES IDX 32 38 82 39 33 40 87 41 81 42 83 43 34 44 86 45 80 46 79 47
REMARK SMILES IDX 35 49 67 50 47 51 66 52 48 53 51 54 65 55 84 56 49 57 50 58
REMARK SMILES IDX 64 60 85 61 52 62 36 63 37 64 45 65 38 66 39 67 43 68 46 69
REMARK SMILES IDX 40 70 41 71 44 72 42 73 68 74 69 75 77 76 70 77 71 78 75 79
REMARK SMILES IDX 78 80 72 81 73 82 76 83 74 84 53 85 54 86 62 87 55 88 56 89
REMARK SMILES IDX 60 90 63 91 57 92 58 93 61 94 59 95
REMARK H PARENT 20 4 18 22 18 23 24 29 83 48 51 59
REMARK Flexibility Score: inf
ROOT
ATOM      1  O   UNL A   1      33.481  28.777  25.128  1.00  0.00    -0.273 OA
ATOM      2  C   UNL A   1      32.562  28.463  25.885  1.00  0.00     0.239 C 
ATOM      3  N   UNL A   1      31.422  29.232  26.017  1.00  0.00    -0.354 N 
ATOM      4  H   UNL A   1      30.619  28.835  26.424  1.00  0.00     0.163 HD
ENDROOT
BRANCH   2   5
ATOM      5  C   UNL A   1      32.584  27.126  26.661  1.00  0.00     0.219 C 
BRANCH   5   6
ATOM      6  N   UNL A   1      32.174  25.916  25.921  1.00  0.00    -0.324 N 
BRANCH   6   7
ATOM      7  C   UNL A   1      33.147  24.795  25.896  1.00  0.00     0.235 C 
BRANCH   7   8
ATOM      8  C   UNL A   1      34.321  24.865  24.915  1.00  0.00     0.406 C 
ATOM      9  F   UNL A   1      34.308  25.995  24.181  1.00  0.00    -0.169 F 
ATOM     10  F   UNL A   1      35.488  24.855  25.606  1.00  0.00    -0.169 F 
ATOM     11  F   UNL A   1      34.336  23.814  24.071  1.00  0.00    -0.169 F 
ENDBRANCH   7   8
ENDBRANCH   6   7
BRANCH   6  12
ATOM     12  C   UNL A   1      30.831  25.850  25.562  1.00  0.00     0.223 C 
ATOM     13  O   UNL A   1      29.950  25.927  26.423  1.00  0.00    -0.275 OA
BRANCH  12  14
ATOM     14  C   UNL A   1      30.405  25.774  24.103  1.00  0.00     0.101 C 
BRANCH  14  15
ATOM     15  C   UNL A   1      31.296  26.599  23.160  1.00  0.00     0.019 C 
BRANCH  15  16
ATOM     16  C   UNL A   1      30.549  27.768  22.507  1.00  0.00     0.045 C 
ATOM     17  C   UNL A   1      29.246  28.111  23.255  1.00  0.00     0.015 C 
ATOM     18  C   UNL A   1      31.385  29.042  22.363  1.00  0.00     0.264 C 
ATOM     19  C   UNL A   1      28.480  29.193  22.503  1.00  0.00     0.062 C 
ATOM     20  N   UNL A   1      30.629  30.000  21.546  1.00  0.00    -0.346 N 
ATOM     21  C   UNL A   1      29.371  30.392  22.189  1.00  0.00     0.260 C 
ATOM     22  H   UNL A   1      31.199  30.834  21.401  1.00  0.00     0.346 HD
ATOM     23  H   UNL A   1      30.404  29.551  20.658  1.00  0.00     0.346 HD
ENDBRANCH  15  16
ENDBRANCH  14  15
ENDBRANCH  12  14
ENDBRANCH   6  12
ENDBRANCH   5   6
ENDBRANCH   2   5
BRANCH   3  24
ATOM     24  C   UNL A   1      31.384  30.612  25.570  1.00  0.00     0.117 C 
BRANCH  24  25
ATOM     25  C   UNL A   1      31.377  31.639  26.698  1.00  0.00     0.042 C 
BRANCH  25  26
ATOM     26  C   UNL A   1      32.681  32.414  26.870  1.00  0.00     0.118 C 
BRANCH  26  27
ATOM     27  N   UNL A   1      32.502  33.720  27.490  1.00  0.00    -0.352 N 
ATOM     28  C   UNL A   1      33.187  34.356  28.495  1.00  0.00     0.251 C 
ATOM     29  H   UNL A   1      31.753  34.241  27.121  1.00  0.00     0.163 HD
ATOM     30  O   UNL A   1      32.767  35.436  28.903  1.00  0.00    -0.269 OA
BRANCH  28  31
ATOM     31  C   UNL A   1      34.404  33.774  29.116  1.00  0.00     0.039 A 
ATOM     32  C   UNL A   1      34.238  32.734  30.038  1.00  0.00     0.014 A 
ATOM     33  C   UNL A   1      35.686  34.267  28.868  1.00  0.00     0.014 A 
ATOM     34  C   UNL A   1      35.348  32.164  30.668  1.00  0.00     0.010 A 
ATOM     35  C   UNL A   1      36.803  33.651  29.441  1.00  0.00     0.010 A 
ATOM     36  C   UNL A   1      36.647  32.596  30.354  1.00  0.00    -0.014 A 
BRANCH  36  37
ATOM     37  C   UNL A   1      37.833  31.942  30.970  1.00  0.00     0.031 A 
ATOM     38  C   UNL A   1      38.282  32.304  32.360  1.00  0.00     0.074 A 
ATOM     39  C   UNL A   1      38.531  31.032  30.262  1.00  0.00     0.049 A 
ATOM     40  N   UNL A   1      39.285  31.828  33.058  1.00  0.00    -0.248 NA
ATOM     41  C   UNL A   1      37.521  33.355  33.051  1.00  0.00     0.031 C 
ATOM     42  C   UNL A   1      38.240  30.630  28.885  1.00  0.00     0.029 A 
ATOM     43  N   UNL A   1      39.629  30.279  30.601  1.00  0.00    -0.354 N 
ATOM     44  C   UNL A   1      39.280  32.525  34.259  1.00  0.00     0.074 A 
ATOM     45  C   UNL A   1      38.208  33.494  34.177  1.00  0.00     0.031 C 
ATOM     46  C   UNL A   1      39.114  29.685  28.508  1.00  0.00     0.029 A 
ATOM     47  C   UNL A   1      40.046  29.432  29.603  1.00  0.00     0.049 A 
ATOM     48  H   UNL A   1      40.076  30.342  31.477  1.00  0.00     0.167 HD
ATOM     49  C   UNL A   1      40.078  32.358  35.342  1.00  0.00     0.037 A 
ATOM     50  C   UNL A   1      41.059  28.547  29.575  1.00  0.00     0.037 A 
ATOM     51  C   UNL A   1      41.133  31.380  35.435  1.00  0.00     0.049 A 
ATOM     52  C   UNL A   1      41.919  28.368  30.796  1.00  0.00     0.074 A 
ATOM     53  C   UNL A   1      41.957  31.098  36.511  1.00  0.00     0.029 A 
ATOM     54  N   UNL A   1      41.511  30.526  34.410  1.00  0.00    -0.354 N 
ATOM     55  N   UNL A   1      41.852  28.980  31.953  1.00  0.00    -0.248 NA
ATOM     56  C   UNL A   1      42.987  27.362  30.710  1.00  0.00     0.031 C 
ATOM     57  C   UNL A   1      42.861  30.103  36.124  1.00  0.00     0.029 A 
ATOM     58  C   UNL A   1      42.567  29.728  34.823  1.00  0.00     0.049 A 
ATOM     59  H   UNL A   1      41.090  30.490  33.520  1.00  0.00     0.167 HD
ATOM     60  C   UNL A   1      42.848  28.415  32.741  1.00  0.00     0.074 A 
ATOM     61  C   UNL A   1      43.490  27.398  31.936  1.00  0.00     0.031 C 
ATOM     62  C   UNL A   1      43.198  28.715  34.015  1.00  0.00     0.037 A 
BRANCH  49  63
ATOM     63  C   UNL A   1      39.840  33.252  36.525  1.00  0.00     0.064 A 
ATOM     64  C   UNL A   1      40.541  34.458  36.689  1.00  0.00     0.173 A 
ATOM     65  C   UNL A   1      38.869  32.925  37.484  1.00  0.00     0.173 A 
ATOM     66  F   UNL A   1      41.486  34.813  35.806  1.00  0.00    -0.203 F 
ATOM     67  C   UNL A   1      40.301  35.284  37.783  1.00  0.00     0.198 A 
ATOM     68  C   UNL A   1      38.611  33.769  38.561  1.00  0.00     0.198 A 
ATOM     69  F   UNL A   1      38.163  31.790  37.373  1.00  0.00    -0.203 F 
ATOM     70  F   UNL A   1      41.019  36.405  37.944  1.00  0.00    -0.200 F 
ATOM     71  C   UNL A   1      39.332  34.943  38.714  1.00  0.00     0.200 A 
ATOM     72  F   UNL A   1      37.664  33.446  39.453  1.00  0.00    -0.200 F 
ATOM     73  F   UNL A   1      39.098  35.744  39.763  1.00  0.00    -0.200 F 
ENDBRANCH  49  63
BRANCH  50  74
ATOM     74  C   UNL A   1      41.293  27.727  28.357  1.00  0.00     0.064 A 
ATOM     75  C   UNL A   1      40.632  26.504  28.177  1.00  0.00     0.173 A 
ATOM     76  C   UNL A   1      42.181  28.143  27.356  1.00  0.00     0.173 A 
ATOM     77  F   UNL A   1      39.789  26.053  29.117  1.00  0.00    -0.203 F 
ATOM     78  C   UNL A   1      40.870  25.716  27.052  1.00  0.00     0.198 A 
ATOM     79  C   UNL A   1      42.396  27.369  26.218  1.00  0.00     0.198 A 
ATOM     80  F   UNL A   1      42.835  29.308  27.479  1.00  0.00    -0.203 F 
ATOM     81  F   UNL A   1      40.262  24.529  26.929  1.00  0.00    -0.200 F 
ATOM     82  C   UNL A   1      41.747  26.152  26.071  1.00  0.00     0.200 A 
ATOM     83  F   UNL A   1      43.235  27.799  25.265  1.00  0.00    -0.200 F 
ATOM     84  F   UNL A   1      41.973  25.396  24.989  1.00  0.00    -0.200 F 
ENDBRANCH  50  74
BRANCH  62  85
ATOM     85  C   UNL A   1      44.307  27.908  34.628  1.00  0.00     0.064 A 
ATOM     86  C   UNL A   1      45.645  28.325  34.564  1.00  0.00     0.173 A 
ATOM     87  C   UNL A   1      44.024  26.708  35.297  1.00  0.00     0.173 A 
ATOM     88  F   UNL A   1      45.969  29.458  33.923  1.00  0.00    -0.203 F 
ATOM     89  C   UNL A   1      46.663  27.550  35.114  1.00  0.00     0.198 A 
ATOM     90  C   UNL A   1      45.041  25.952  35.874  1.00  0.00     0.198 A 
ATOM     91  F   UNL A   1      42.761  26.268  35.394  1.00  0.00    -0.203 F 
ATOM     92  F   UNL A   1      47.940  27.938  34.989  1.00  0.00    -0.200 F 
ATOM     93  C   UNL A   1      46.360  26.367  35.773  1.00  0.00     0.200 A 
ATOM     94  F   UNL A   1      44.746  24.816  36.521  1.00  0.00    -0.200 F 
ATOM     95  F   UNL A   1      47.342  25.623  36.300  1.00  0.00    -0.200 F 
ENDBRANCH  62  85
ENDBRANCH  36  37
ENDBRANCH  28  31
ENDBRANCH  26  27
ENDBRANCH  25  26
ENDBRANCH  24  25
ENDBRANCH   3  24
TORSDOF 17
ENDMDL
MODEL 2
REMARK VINA RESULT:     -10.7      2.642      4.227
REMARK SMILES O=C(CN(CC(F)(F)F)C(=O)CC[C@H]1CCC[NH2+]C1)NCCCNC(=O)c1ccc(-c2c3nc(c(-c4c(F)c(F)c(F)c(F)c4F)c4ccc([nH]4)c(-c4c(F)c(F)c(F)c(F)c4F)c4nc(c(-c5c(F)c(F)c(F)c(F)c5F)c5ccc2[nH]5)C=C4)C=C3)cc1
REMARK SMILES IDX 1 1 2 2 20 3 3 5 4 6 5 7 6 8 7 9 8 10 9 11 10 12 11 13 12 14
REMARK SMILES IDX 13 15 14 16 15 17 19 18 16 19 18 20 17 21 21 24 22 25 23 26
REMARK SMILES IDX 24 27 25 28 26 30 27 31 28 32 89 33 29 34 88 35 30 36 31 37
REMARK SMILES IDX 32 38 82 39 33 40 87 41 81 42 83 43 34 44 86 45 80 46 79 47
REMARK SMILES IDX 35 49 67 50 47 51 66 52 48 53 51 54 65 55 84 56 49 57 50 58
REMARK SMILES IDX 64 60 85 61 52 62 36 63 37 64 45 65 38 66 39 67 43 68 46 69
REMARK SMILES IDX 40 70 41 71 44 72 42 73 68 74 69 75 77 76 70 77 71 78 75 79
REMARK SMILES IDX 78 80 72 81 73 82 76 83 74 84 53 85 54 86 62 87 55 88 56 89
REMARK SMILES IDX 60 90 63 91 57 92 58 93 61 94 59 95
REMARK H PARENT 20 4 18 22 18 23 24 29 83 48 51 59
REMARK Flexibility Score: inf
ROOT
ATOM      1  O   UNL A   1      30.568  24.787  26.709  1.00  0.00    -0.273 OA
ATOM      2  C   UNL A   1      31.736  25.053  26.427  1.00  0.00     0.239 C 
ATOM      3  N   UNL A   1      32.217  26.348  26.428  1.00  0.00    -0.354 N 
ATOM      4  H   UNL A   1      33.189  26.500  26.447  1.00  0.00     0.163 HD
ENDROOT
BRANCH   2   5
ATOM      5  C   UNL A   1      32.768  23.935  26.153  1.00  0.00     0.219 C 
BRANCH   5   6
ATOM      6  N   UNL A   1      32.955  23.526  24.747  1.00  0.00    -0.324 N 
BRANCH   6   7
ATOM      7  C   UNL A   1      34.217  23.959  24.095  1.00  0.00     0.235 C 
BRANCH   7   8
ATOM      8  C   UNL A   1      35.449  23.058  24.214  1.00  0.00     0.406 C 
ATOM      9  F   UNL A   1      35.175  21.893  24.835  1.00  0.00    -0.169 F 
ATOM     10  F   UNL A   1      35.903  22.748  22.974  1.00  0.00    -0.169 F 
ATOM     11  F   UNL A   1      36.454  23.664  24.877  1.00  0.00    -0.169 F 
ENDBRANCH   7   8
ENDBRANCH   6   7
BRANCH   6  12
ATOM     12  C   UNL A   1      32.070  22.563  24.272  1.00  0.00     0.223 C 
ATOM     13  O   UNL A   1      31.275  22.837  23.367  1.00  0.00    -0.275 OA
BRANCH  12  14
ATOM     14  C   UNL A   1      32.110  21.130  24.783  1.00  0.00     0.101 C 
BRANCH  14  15
ATOM     15  C   UNL A   1      32.577  20.116  23.726  1.00  0.00     0.019 C 
BRANCH  15  16
ATOM     16  C   UNL A   1      32.620  18.678  24.257  1.00  0.00     0.045 C 
ATOM     17  C   UNL A   1      33.504  17.767  23.384  1.00  0.00     0.015 C 
ATOM     18  C   UNL A   1      33.080  18.563  25.713  1.00  0.00     0.264 C 
ATOM     19  C   UNL A   1      33.420  16.327  23.878  1.00  0.00     0.062 C 
ATOM     20  N   UNL A   1      32.878  17.176  26.152  1.00  0.00    -0.346 N 
ATOM     21  C   UNL A   1      33.692  16.235  25.377  1.00  0.00     0.260 C 
ATOM     22  H   UNL A   1      33.133  17.101  27.137  1.00  0.00     0.346 HD
ATOM     23  H   UNL A   1      31.897  16.939  26.008  1.00  0.00     0.346 HD
ENDBRANCH  15  16
ENDBRANCH  14  15
ENDBRANCH  12  14
ENDBRANCH   6  12
ENDBRANCH   5   6
ENDBRANCH   2   5
BRANCH   3  24
ATOM     24  C   UNL A   1      31.321  27.488  26.400  1.00  0.00     0.117 C 
BRANCH  24  25
ATOM     25  C   UNL A   1      31.577  28.463  25.254  1.00  0.00     0.042 C 
BRANCH  25  26
ATOM     26  C   UNL A   1      32.801  29.358  25.432  1.00  0.00     0.118 C 
BRANCH  26  27
ATOM     27  N   UNL A   1      32.480  30.682  25.948  1.00  0.00    -0.352 N 
ATOM     28  C   UNL A   1      33.068  31.449  26.923  1.00  0.00     0.251 C 
ATOM     29  H   UNL A   1      31.699  31.102  25.521  1.00  0.00     0.163 HD
ATOM     30  O   UNL A   1      32.537  32.511  27.238  1.00  0.00    -0.269 OA
BRANCH  28  31
ATOM     31  C   UNL A   1      34.312  31.031  27.618  1.00  0.00     0.039 A 
ATOM     32  C   UNL A   1      35.250  32.019  27.938  1.00  0.00     0.014 A 
ATOM     33  C   UNL A   1      34.606  29.695  27.898  1.00  0.00     0.014 A 
ATOM     34  C   UNL A   1      36.447  31.678  28.575  1.00  0.00     0.010 A 
ATOM     35  C   UNL A   1      35.769  29.361  28.598  1.00  0.00     0.010 A 
ATOM     36  C   UNL A   1      36.707  30.347  28.939  1.00  0.00    -0.014 A 
BRANCH  36  37
ATOM     37  C   UNL A   1      37.948  29.994  29.680  1.00  0.00     0.031 A 
ATOM     38  C   UNL A   1      38.200  30.520  31.067  1.00  0.00     0.074 A 
ATOM     39  C   UNL A   1      38.874  29.213  29.087  1.00  0.00     0.049 A 
ATOM     40  N   UNL A   1      39.219  30.306  31.863  1.00  0.00    -0.248 NA
ATOM     41  C   UNL A   1      37.185  31.424  31.628  1.00  0.00     0.031 C 
ATOM     42  C   UNL A   1      38.784  28.683  27.726  1.00  0.00     0.029 A 
ATOM     43  N   UNL A   1      40.072  28.729  29.553  1.00  0.00    -0.354 N 
ATOM     44  C   UNL A   1      38.974  31.053  33.009  1.00  0.00     0.074 A 
ATOM     45  C   UNL A   1      37.735  31.767  32.785  1.00  0.00     0.031 C 
ATOM     46  C   UNL A   1      39.862  27.924  27.478  1.00  0.00     0.029 A 
ATOM     47  C   UNL A   1      40.734  27.934  28.649  1.00  0.00     0.049 A 
ATOM     48  H   UNL A   1      40.424  28.934  30.450  1.00  0.00     0.167 HD
ATOM     49  C   UNL A   1      39.699  31.119  34.152  1.00  0.00     0.037 A 
ATOM     50  C   UNL A   1      41.907  27.283  28.752  1.00  0.00     0.037 A 
ATOM     51  C   UNL A   1      40.921  30.391  34.386  1.00  0.00     0.049 A 
ATOM     52  C   UNL A   1      42.683  27.358  30.039  1.00  0.00     0.074 A 
ATOM     53  C   UNL A   1      41.696  30.351  35.533  1.00  0.00     0.029 A 
ATOM     54  N   UNL A   1      41.548  29.580  33.452  1.00  0.00    -0.354 N 
ATOM     55  N   UNL A   1      42.398  28.005  31.142  1.00  0.00    -0.248 NA
ATOM     56  C   UNL A   1      43.939  26.596  30.097  1.00  0.00     0.031 C 
ATOM     57  C   UNL A   1      42.814  29.548  35.279  1.00  0.00     0.029 A 
ATOM     58  C   UNL A   1      42.710  29.047  33.992  1.00  0.00     0.049 A 
ATOM     59  H   UNL A   1      41.218  29.406  32.541  1.00  0.00     0.167 HD
ATOM     60  C   UNL A   1      43.422  27.709  32.033  1.00  0.00     0.074 A 
ATOM     61  C   UNL A   1      44.323  26.806  31.348  1.00  0.00     0.031 C 
ATOM     62  C   UNL A   1      43.599  28.147  33.303  1.00  0.00     0.037 A 
BRANCH  49  63
ATOM     63  C   UNL A   1      39.186  32.007  35.249  1.00  0.00     0.064 A 
ATOM     64  C   UNL A   1      38.396  31.503  36.294  1.00  0.00     0.173 A 
ATOM     65  C   UNL A   1      39.522  33.370  35.282  1.00  0.00     0.173 A 
ATOM     66  F   UNL A   1      38.038  30.210  36.306  1.00  0.00    -0.203 F 
ATOM     67  C   UNL A   1      37.937  32.334  37.313  1.00  0.00     0.198 A 
ATOM     68  C   UNL A   1      39.087  34.191  36.319  1.00  0.00     0.198 A 
ATOM     69  F   UNL A   1      40.281  33.903  34.313  1.00  0.00    -0.203 F 
ATOM     70  F   UNL A   1      37.144  31.839  38.273  1.00  0.00    -0.200 F 
ATOM     71  C   UNL A   1      38.289  33.675  37.329  1.00  0.00     0.200 A 
ATOM     72  F   UNL A   1      39.439  35.484  36.340  1.00  0.00    -0.200 F 
ATOM     73  F   UNL A   1      37.853  34.472  38.314  1.00  0.00    -0.200 F 
ENDBRANCH  49  63
BRANCH  50  74
ATOM     74  C   UNL A   1      42.402  26.463  27.614  1.00  0.00     0.064 A 
ATOM     75  C   UNL A   1      41.938  25.156  27.415  1.00  0.00     0.173 A 
ATOM     76  C   UNL A   1      43.350  26.965  26.713  1.00  0.00     0.173 A 
ATOM     77  F   UNL A   1      41.046  24.625  28.265  1.00  0.00    -0.203 F 
ATOM     78  C   UNL A   1      42.420  24.372  26.368  1.00  0.00     0.198 A 
ATOM     79  C   UNL A   1      43.811  26.191  25.650  1.00  0.00     0.198 A 
ATOM     80  F   UNL A   1      43.824  28.211  26.858  1.00  0.00    -0.203 F 
ATOM     81  F   UNL A   1      41.996  23.110  26.230  1.00  0.00    -0.200 F 
ATOM     82  C   UNL A   1      43.352  24.893  25.484  1.00  0.00     0.200 A 
ATOM     83  F   UNL A   1      44.702  26.701  24.788  1.00  0.00    -0.200 F 
ATOM     84  F   UNL A   1      43.814  24.140  24.476  1.00  0.00    -0.200 F 
ENDBRANCH  50  74
BRANCH  62  85
ATOM     85  C   UNL A   1      44.797  27.627  34.046  1.00  0.00     0.064 A 
ATOM     86  C   UNL A   1      46.032  28.291  34.010  1.00  0.00     0.173 A 
ATOM     87  C   UNL A   1      44.703  26.454  34.811  1.00  0.00     0.173 A 
ATOM     88  F   UNL A   1      46.177  29.409  33.282  1.00  0.00    -0.203 F 
ATOM     89  C   UNL A   1      47.139  27.780  34.683  1.00  0.00     0.198 A 
ATOM     90  C   UNL A   1      45.804  25.964  35.508  1.00  0.00     0.198 A 
ATOM     91  F   UNL A   1      43.543  25.784  34.884  1.00  0.00    -0.203 F 
ATOM     92  F   UNL A   1      48.324  28.399  34.586  1.00  0.00    -0.200 F 
ATOM     93  C   UNL A   1      47.023  26.620  35.435  1.00  0.00     0.200 A 
ATOM     94  F   UNL A   1      45.687  24.850  36.244  1.00  0.00    -0.200 F 
ATOM     95  F   UNL A   1      48.091  26.130  36.080  1.00  0.00    -0.200 F 
ENDBRANCH  62  85
ENDBRANCH  36  37
ENDBRANCH  28  31
ENDBRANCH  26  27
ENDBRANCH  25  26
ENDBRANCH  24  25
ENDBRANCH   3  24
TORSDOF 17
ENDMDL
MODEL 3
REMARK VINA RESULT:     -10.7      5.220     10.630
REMARK SMILES O=C(CN(CC(F)(F)F)C(=O)CC[C@H]1CCC[NH2+]C1)NCCCNC(=O)c1ccc(-c2c3nc(c(-c4c(F)c(F)c(F)c(F)c4F)c4ccc([nH]4)c(-c4c(F)c(F)c(F)c(F)c4F)c4nc(c(-c5c(F)c(F)c(F)c(F)c5F)c5ccc2[nH]5)C=C4)C=C3)cc1
REMARK SMILES IDX 1 1 2 2 20 3 3 5 4 6 5 7 6 8 7 9 8 10 9 11 10 12 11 13 12 14
REMARK SMILES IDX 13 15 14 16 15 17 19 18 16 19 18 20 17 21 21 24 22 25 23 26
REMARK SMILES IDX 24 27 25 28 26 30 27 31 28 32 89 33 29 34 88 35 30 36 31 37
REMARK SMILES IDX 32 38 82 39 33 40 87 41 81 42 83 43 34 44 86 45 80 46 79 47
REMARK SMILES IDX 35 49 67 50 47 51 66 52 48 53 51 54 65 55 84 56 49 57 50 58
REMARK SMILES IDX 64 60 85 61 52 62 36 63 37 64 45 65 38 66 39 67 43 68 46 69
REMARK SMILES IDX 40 70 41 71 44 72 42 73 68 74 69 75 77 76 70 77 71 78 75 79
REMARK SMILES IDX 78 80 72 81 73 82 76 83 74 84 53 85 54 86 62 87 55 88 56 89
REMARK SMILES IDX 60 90 63 91 57 92 58 93 61 94 59 95
REMARK H PARENT 20 4 18 22 18 23 24 29 83 48 51 59
REMARK Flexibility Score: inf
ROOT
ATOM      1  O   UNL A   1      36.297  23.425  25.928  1.00  0.00    -0.273 OA
ATOM      2  C   UNL A   1      35.623  22.406  26.079  1.00  0.00     0.239 C 
ATOM      3  N   UNL A   1      36.040  21.173  25.615  1.00  0.00    -0.354 N 
ATOM      4  H   UNL A   1      35.613  20.358  25.966  1.00  0.00     0.163 HD
ENDROOT
BRANCH   2   5
ATOM      5  C   UNL A   1      34.309  22.427  26.892  1.00  0.00     0.219 C 
BRANCH   5   6
ATOM      6  N   UNL A   1      33.055  22.610  26.134  1.00  0.00    -0.324 N 
BRANCH   6   7
ATOM      7  C   UNL A   1      32.562  21.430  25.379  1.00  0.00     0.235 C 
BRANCH   7   8
ATOM      8  C   UNL A   1      32.673  21.438  23.852  1.00  0.00     0.406 C 
ATOM      9  F   UNL A   1      33.751  22.123  23.420  1.00  0.00    -0.169 F 
ATOM     10  F   UNL A   1      32.808  20.165  23.403  1.00  0.00    -0.169 F 
ATOM     11  F   UNL A   1      31.577  21.963  23.270  1.00  0.00    -0.169 F 
ENDBRANCH   7   8
ENDBRANCH   6   7
BRANCH   6  12
ATOM     12  C   UNL A   1      32.334  23.765  26.421  1.00  0.00     0.223 C 
ATOM     13  O   UNL A   1      31.674  23.847  27.461  1.00  0.00    -0.275 OA
BRANCH  12  14
ATOM     14  C   UNL A   1      32.407  24.987  25.518  1.00  0.00     0.101 C 
BRANCH  14  15
ATOM     15  C   UNL A   1      33.655  25.853  25.757  1.00  0.00     0.019 C 
BRANCH  15  16
ATOM     16  C   UNL A   1      33.338  27.172  26.470  1.00  0.00     0.045 C 
ATOM     17  C   UNL A   1      33.873  28.391  25.694  1.00  0.00     0.015 C 
ATOM     18  C   UNL A   1      31.850  27.386  26.759  1.00  0.00     0.264 C 
ATOM     19  C   UNL A   1      33.643  29.666  26.497  1.00  0.00     0.062 C 
ATOM     20  N   UNL A   1      31.713  28.570  27.617  1.00  0.00    -0.346 N 
ATOM     21  C   UNL A   1      32.191  29.785  26.951  1.00  0.00     0.260 C 
ATOM     22  H   UNL A   1      30.728  28.691  27.858  1.00  0.00     0.346 HD
ATOM     23  H   UNL A   1      32.279  28.423  28.453  1.00  0.00     0.346 HD
ENDBRANCH  15  16
ENDBRANCH  14  15
ENDBRANCH  12  14
ENDBRANCH   6  12
ENDBRANCH   5   6
ENDBRANCH   2   5
BRANCH   3  24
ATOM     24  C   UNL A   1      37.092  21.052  24.624  1.00  0.00     0.117 C 
BRANCH  24  25
ATOM     25  C   UNL A   1      38.014  19.853  24.827  1.00  0.00     0.042 C 
BRANCH  25  26
ATOM     26  C   UNL A   1      38.932  19.945  26.043  1.00  0.00     0.118 C 
BRANCH  26  27
ATOM     27  N   UNL A   1      40.134  19.131  25.925  1.00  0.00    -0.352 N 
ATOM     28  C   UNL A   1      41.465  19.448  26.028  1.00  0.00     0.251 C 
ATOM     29  H   UNL A   1      39.959  18.180  25.736  1.00  0.00     0.163 HD
ATOM     30  O   UNL A   1      42.298  18.577  25.789  1.00  0.00    -0.269 OA
BRANCH  28  31
ATOM     31  C   UNL A   1      41.929  20.808  26.401  1.00  0.00     0.039 A 
ATOM     32  C   UNL A   1      42.074  21.755  25.380  1.00  0.00     0.014 A 
ATOM     33  C   UNL A   1      42.289  21.151  27.705  1.00  0.00     0.014 A 
ATOM     34  C   UNL A   1      42.528  23.045  25.672  1.00  0.00     0.010 A 
ATOM     35  C   UNL A   1      42.673  22.461  28.010  1.00  0.00     0.010 A 
ATOM     36  C   UNL A   1      42.804  23.422  26.996  1.00  0.00    -0.014 A 
BRANCH  36  37
ATOM     37  C   UNL A   1      43.219  24.814  27.317  1.00  0.00     0.031 A 
ATOM     38  C   UNL A   1      44.621  25.288  27.043  1.00  0.00     0.074 A 
ATOM     39  C   UNL A   1      42.333  25.655  27.886  1.00  0.00     0.049 A 
ATOM     40  N   UNL A   1      45.152  26.469  27.248  1.00  0.00    -0.248 NA
ATOM     41  C   UNL A   1      45.558  24.301  26.487  1.00  0.00     0.031 C 
ATOM     42  C   UNL A   1      40.960  25.310  28.258  1.00  0.00     0.029 A 
ATOM     43  N   UNL A   1      42.453  26.974  28.253  1.00  0.00    -0.354 N 
ATOM     44  C   UNL A   1      46.481  26.363  26.857  1.00  0.00     0.074 A 
ATOM     45  C   UNL A   1      46.690  24.989  26.452  1.00  0.00     0.031 C 
ATOM     46  C   UNL A   1      40.357  26.393  28.770  1.00  0.00     0.029 A 
ATOM     47  C   UNL A   1      41.305  27.503  28.790  1.00  0.00     0.049 A 
ATOM     48  H   UNL A   1      43.285  27.490  28.143  1.00  0.00     0.167 HD
ATOM     49  C   UNL A   1      47.434  27.326  26.815  1.00  0.00     0.037 A 
ATOM     50  C   UNL A   1      41.042  28.744  29.241  1.00  0.00     0.037 A 
ATOM     51  C   UNL A   1      47.222  28.700  27.198  1.00  0.00     0.049 A 
ATOM     52  C   UNL A   1      42.111  29.799  29.167  1.00  0.00     0.074 A 
ATOM     53  C   UNL A   1      48.111  29.760  27.136  1.00  0.00     0.029 A 
ATOM     54  N   UNL A   1      46.038  29.202  27.717  1.00  0.00    -0.354 N 
ATOM     55  N   UNL A   1      43.340  29.704  28.721  1.00  0.00    -0.248 NA
ATOM     56  C   UNL A   1      41.749  31.141  29.646  1.00  0.00     0.031 C 
ATOM     57  C   UNL A   1      47.478  30.895  27.657  1.00  0.00     0.029 A 
ATOM     58  C   UNL A   1      46.178  30.554  27.995  1.00  0.00     0.049 A 
ATOM     59  H   UNL A   1      45.218  28.677  27.865  1.00  0.00     0.167 HD
ATOM     60  C   UNL A   1      43.888  30.975  28.840  1.00  0.00     0.074 A 
ATOM     61  C   UNL A   1      42.851  31.828  29.380  1.00  0.00     0.031 C 
ATOM     62  C   UNL A   1      45.139  31.396  28.530  1.00  0.00     0.037 A 
BRANCH  49  63
ATOM     63  C   UNL A   1      48.800  26.932  26.331  1.00  0.00     0.064 A 
ATOM     64  C   UNL A   1      49.764  26.402  27.203  1.00  0.00     0.173 A 
ATOM     65  C   UNL A   1      49.136  27.043  24.973  1.00  0.00     0.173 A 
ATOM     66  F   UNL A   1      49.497  26.282  28.512  1.00  0.00    -0.203 F 
ATOM     67  C   UNL A   1      51.022  26.027  26.739  1.00  0.00     0.198 A 
ATOM     68  C   UNL A   1      50.385  26.639  24.508  1.00  0.00     0.198 A 
ATOM     69  F   UNL A   1      48.251  27.535  24.094  1.00  0.00    -0.203 F 
ATOM     70  F   UNL A   1      51.942  25.570  27.600  1.00  0.00    -0.200 F 
ATOM     71  C   UNL A   1      51.330  26.139  25.391  1.00  0.00     0.200 A 
ATOM     72  F   UNL A   1      50.676  26.735  23.204  1.00  0.00    -0.200 F 
ATOM     73  F   UNL A   1      52.539  25.771  24.947  1.00  0.00    -0.200 F 
ENDBRANCH  49  63
BRANCH  50  74
ATOM     74  C   UNL A   1      39.690  29.070  29.768  1.00  0.00     0.064 A 
ATOM     75  C   UNL A   1      39.391  28.907  31.128  1.00  0.00     0.173 A 
ATOM     76  C   UNL A   1      38.673  29.541  28.927  1.00  0.00     0.173 A 
ATOM     77  F   UNL A   1      40.326  28.438  31.968  1.00  0.00    -0.203 F 
ATOM     78  C   UNL A   1      38.118  29.182  31.623  1.00  0.00     0.198 A 
ATOM     79  C   UNL A   1      37.409  29.843  29.428  1.00  0.00     0.198 A 
ATOM     80  F   UNL A   1      38.910  29.717  27.619  1.00  0.00    -0.203 F 
ATOM     81  F   UNL A   1      37.845  28.972  32.917  1.00  0.00    -0.200 F 
ATOM     82  C   UNL A   1      37.130  29.655  30.773  1.00  0.00     0.200 A 
ATOM     83  F   UNL A   1      36.459  30.312  28.606  1.00  0.00    -0.200 F 
ATOM     84  F   UNL A   1      35.906  29.921  31.249  1.00  0.00    -0.200 F 
ENDBRANCH  50  74
BRANCH  62  85
ATOM     85  C   UNL A   1      45.442  32.852  28.737  1.00  0.00     0.064 A 
ATOM     86  C   UNL A   1      45.167  33.810  27.750  1.00  0.00     0.173 A 
ATOM     87  C   UNL A   1      46.006  33.295  29.943  1.00  0.00     0.173 A 
ATOM     88  F   UNL A   1      44.641  33.436  26.573  1.00  0.00    -0.203 F 
ATOM     89  C   UNL A   1      45.481  35.152  27.948  1.00  0.00     0.198 A 
ATOM     90  C   UNL A   1      46.289  34.642  30.150  1.00  0.00     0.198 A 
ATOM     91  F   UNL A   1      46.282  32.421  30.923  1.00  0.00    -0.203 F 
ATOM     92  F   UNL A   1      45.264  36.041  26.968  1.00  0.00    -0.200 F 
ATOM     93  C   UNL A   1      46.036  35.568  29.149  1.00  0.00     0.200 A 
ATOM     94  F   UNL A   1      46.814  35.044  31.315  1.00  0.00    -0.200 F 
ATOM     95  F   UNL A   1      46.339  36.860  29.337  1.00  0.00    -0.200 F 
ENDBRANCH  62  85
ENDBRANCH  36  37
ENDBRANCH  28  31
ENDBRANCH  26  27
ENDBRANCH  25  26
ENDBRANCH  24  25
ENDBRANCH   3  24
TORSDOF 17
ENDMDL
