MODEL 1
REMARK VINA RESULT:     -11.9      0.000      0.000
REMARK SMILES O=C(NCCCNC(=O)[C@@H]1CCC[N@@H+](Cc2cccc3ccccc23)C1)c1ccc(-c2c3nc(c(-c4c(F)c(F)c(F)c(F)c4F)c4ccc([nH]4)c(-c4c(F)c(F)c(F)c(F)c4F)c4nc(c(-c5c(F)c(F)c(F)c(F)c5F)c5ccc2[nH]5)C=C4)C=C3)cc1
REMARK SMILES IDX 5 1 4 2 3 3 1 4 2 5 27 7 28 8 89 9 29 10 88 11 30 12 31 13
REMARK SMILES IDX 32 14 82 15 33 16 87 17 81 18 83 19 34 20 86 21 80 22 79 23
REMARK SMILES IDX 35 25 67 26 47 27 66 28 48 29 51 30 65 31 84 32 49 33 50 34
REMARK SMILES IDX 64 36 85 37 52 38 36 39 37 40 45 41 38 42 39 43 43 44 46 45
REMARK SMILES IDX 40 46 41 47 44 48 42 49 68 50 69 51 77 52 70 53 71 54 75 55
REMARK SMILES IDX 78 56 72 57 73 58 76 59 74 60 53 61 54 62 62 63 55 64 56 65
REMARK SMILES IDX 60 66 63 67 57 68 58 69 61 70 59 71 6 72 7 73 8 74 9 76
REMARK SMILES IDX 10 77 11 78 26 79 12 80 14 81 13 82 15 84 16 85 17 86 25 87
REMARK SMILES IDX 18 88 20 89 24 90 19 91 21 92 23 93 22 94
REMARK H PARENT 3 6 83 24 51 35 7 75 14 83
REMARK Flexibility Score: inf
ROOT
ATOM      1  C   UNL A   1      34.659  33.603  28.101  1.00  0.00     0.042 C 
ENDROOT
BRANCH   1   2
ATOM      2  C   UNL A   1      34.838  32.395  29.004  1.00  0.00     0.118 C 
BRANCH   2   3
ATOM      3  N   UNL A   1      34.259  31.181  28.445  1.00  0.00    -0.352 N 
ATOM      4  O   UNL A   1      34.200  29.165  27.445  1.00  0.00    -0.269 OA
ATOM      5  C   UNL A   1      34.849  29.999  28.061  1.00  0.00     0.251 C 
ATOM      6  H   UNL A   1      33.282  31.210  28.323  1.00  0.00     0.163 HD
BRANCH   5   7
ATOM      7  C   UNL A   1      36.278  29.744  28.359  1.00  0.00     0.039 A 
ATOM      8  C   UNL A   1      37.270  30.035  27.425  1.00  0.00     0.014 A 
ATOM      9  C   UNL A   1      36.634  29.223  29.608  1.00  0.00     0.014 A 
ATOM     10  C   UNL A   1      38.574  29.617  27.646  1.00  0.00     0.010 A 
ATOM     11  C   UNL A   1      37.974  28.928  29.883  1.00  0.00     0.010 A 
ATOM     12  C   UNL A   1      38.950  29.083  28.887  1.00  0.00    -0.014 A 
BRANCH  12  13
ATOM     13  C   UNL A   1      40.380  28.763  29.127  1.00  0.00     0.031 A 
ATOM     14  C   UNL A   1      41.253  29.658  29.962  1.00  0.00     0.074 A 
ATOM     15  C   UNL A   1      40.877  27.619  28.618  1.00  0.00     0.049 A 
ATOM     16  N   UNL A   1      42.513  29.509  30.288  1.00  0.00    -0.248 NA
ATOM     17  C   UNL A   1      40.641  30.885  30.489  1.00  0.00     0.031 C 
ATOM     18  C   UNL A   1      40.126  26.675  27.786  1.00  0.00     0.029 A 
ATOM     19  N   UNL A   1      42.112  27.037  28.744  1.00  0.00    -0.354 N 
ATOM     20  C   UNL A   1      42.851  30.633  31.030  1.00  0.00     0.074 A 
ATOM     21  C   UNL A   1      41.670  31.467  31.089  1.00  0.00     0.031 C 
ATOM     22  C   UNL A   1      40.889  25.602  27.538  1.00  0.00     0.029 A 
ATOM     23  C   UNL A   1      42.206  25.817  28.122  1.00  0.00     0.049 A 
ATOM     24  H   UNL A   1      42.858  27.454  29.233  1.00  0.00     0.167 HD
ATOM     25  C   UNL A   1      44.038  30.935  31.611  1.00  0.00     0.037 A 
ATOM     26  C   UNL A   1      43.244  24.968  28.018  1.00  0.00     0.037 A 
ATOM     27  C   UNL A   1      45.202  30.086  31.567  1.00  0.00     0.049 A 
ATOM     28  C   UNL A   1      44.550  25.335  28.657  1.00  0.00     0.074 A 
ATOM     29  C   UNL A   1      46.439  30.283  32.157  1.00  0.00     0.029 A 
ATOM     30  N   UNL A   1      45.273  28.877  30.889  1.00  0.00    -0.354 N 
ATOM     31  N   UNL A   1      44.850  26.391  29.374  1.00  0.00    -0.248 NA
ATOM     32  C   UNL A   1      45.664  24.399  28.463  1.00  0.00     0.031 C 
ATOM     33  C   UNL A   1      47.271  29.217  31.798  1.00  0.00     0.029 A 
ATOM     34  C   UNL A   1      46.540  28.329  31.026  1.00  0.00     0.049 A 
ATOM     35  H   UNL A   1      44.533  28.468  30.385  1.00  0.00     0.167 HD
ATOM     36  C   UNL A   1      46.181  26.242  29.729  1.00  0.00     0.074 A 
ATOM     37  C   UNL A   1      46.625  24.982  29.165  1.00  0.00     0.031 C 
ATOM     38  C   UNL A   1      46.966  27.076  30.455  1.00  0.00     0.037 A 
BRANCH  25  39
ATOM     39  C   UNL A   1      44.147  32.255  32.322  1.00  0.00     0.064 A 
ATOM     40  C   UNL A   1      43.954  32.370  33.706  1.00  0.00     0.173 A 
ATOM     41  C   UNL A   1      44.476  33.418  31.608  1.00  0.00     0.173 A 
ATOM     42  F   UNL A   1      43.627  31.293  34.435  1.00  0.00    -0.203 F 
ATOM     43  C   UNL A   1      44.054  33.605  34.344  1.00  0.00     0.198 A 
ATOM     44  C   UNL A   1      44.603  34.646  32.253  1.00  0.00     0.198 A 
ATOM     45  F   UNL A   1      44.678  33.364  30.283  1.00  0.00    -0.203 F 
ATOM     46  F   UNL A   1      43.814  33.699  35.660  1.00  0.00    -0.200 F 
ATOM     47  C   UNL A   1      44.384  34.740  33.619  1.00  0.00     0.200 A 
ATOM     48  F   UNL A   1      44.933  35.739  31.551  1.00  0.00    -0.200 F 
ATOM     49  F   UNL A   1      44.481  35.927  34.234  1.00  0.00    -0.200 F 
ENDBRANCH  25  39
BRANCH  26  50
ATOM     50  C   UNL A   1      43.073  23.691  27.279  1.00  0.00     0.064 A 
ATOM     51  C   UNL A   1      43.496  23.568  25.949  1.00  0.00     0.173 A 
ATOM     52  C   UNL A   1      42.527  22.557  27.900  1.00  0.00     0.173 A 
ATOM     53  F   UNL A   1      44.010  24.628  25.309  1.00  0.00    -0.203 F 
ATOM     54  C   UNL A   1      43.374  22.359  25.266  1.00  0.00     0.198 A 
ATOM     55  C   UNL A   1      42.433  21.343  27.226  1.00  0.00     0.198 A 
ATOM     56  F   UNL A   1      42.115  22.623  29.175  1.00  0.00    -0.203 F 
ATOM     57  F   UNL A   1      43.761  22.275  23.987  1.00  0.00    -0.200 F 
ATOM     58  C   UNL A   1      42.852  21.246  25.908  1.00  0.00     0.200 A 
ATOM     59  F   UNL A   1      41.947  20.266  27.856  1.00  0.00    -0.200 F 
ATOM     60  F   UNL A   1      42.753  20.080  25.256  1.00  0.00    -0.200 F 
ENDBRANCH  26  50
BRANCH  38  61
ATOM     61  C   UNL A   1      48.378  26.636  30.700  1.00  0.00     0.064 A 
ATOM     62  C   UNL A   1      49.427  27.029  29.857  1.00  0.00     0.173 A 
ATOM     63  C   UNL A   1      48.686  25.825  31.803  1.00  0.00     0.173 A 
ATOM     64  F   UNL A   1      49.179  27.788  28.779  1.00  0.00    -0.203 F 
ATOM     65  C   UNL A   1      50.732  26.606  30.096  1.00  0.00     0.198 A 
ATOM     66  C   UNL A   1      49.996  25.428  32.054  1.00  0.00     0.198 A 
ATOM     67  F   UNL A   1      47.718  25.425  32.640  1.00  0.00    -0.203 F 
ATOM     68  F   UNL A   1      51.712  26.952  29.249  1.00  0.00    -0.200 F 
ATOM     69  C   UNL A   1      51.016  25.812  31.196  1.00  0.00     0.200 A 
ATOM     70  F   UNL A   1      50.271  24.668  33.123  1.00  0.00    -0.200 F 
ATOM     71  F   UNL A   1      52.273  25.407  31.425  1.00  0.00    -0.200 F 
ENDBRANCH  38  61
ENDBRANCH  12  13
ENDBRANCH   5   7
ENDBRANCH   2   3
ENDBRANCH   1   2
BRANCH   1  72
ATOM     72  C   UNL A   1      33.277  34.225  28.177  1.00  0.00     0.117 C 
BRANCH  72  73
ATOM     73  N   UNL A   1      33.320  35.617  28.581  1.00  0.00    -0.356 N 
ATOM     74  C   UNL A   1      33.171  36.263  29.761  1.00  0.00     0.228 C 
ATOM     75  H   UNL A   1      33.496  36.228  27.830  1.00  0.00     0.163 HD
ATOM     76  O   UNL A   1      33.326  37.490  29.689  1.00  0.00    -0.275 OA
BRANCH  74  77
ATOM     77  C   UNL A   1      32.725  35.613  31.078  1.00  0.00     0.133 C 
ATOM     78  C   UNL A   1      32.641  36.694  32.178  1.00  0.00     0.025 C 
ATOM     79  C   UNL A   1      33.585  34.499  31.663  1.00  0.00     0.276 C 
ATOM     80  C   UNL A   1      34.046  37.143  32.613  1.00  0.00     0.062 C 
ATOM     81  N   UNL A   1      34.958  34.961  31.854  1.00  0.00    -0.331 N 
ATOM     82  C   UNL A   1      34.993  35.969  32.921  1.00  0.00     0.262 C 
ATOM     83  H   UNL A   1      35.263  35.414  30.992  1.00  0.00     0.348 HD
BRANCH  81  84
ATOM     84  C   UNL A   1      35.946  33.877  32.001  1.00  0.00     0.299 C 
BRANCH  84  85
ATOM     85  C   UNL A   1      37.361  34.184  31.543  1.00  0.00     0.014 A 
ATOM     86  C   UNL A   1      37.599  34.238  30.154  1.00  0.00     0.010 A 
ATOM     87  C   UNL A   1      38.447  34.378  32.443  1.00  0.00    -0.010 A 
ATOM     88  C   UNL A   1      38.884  34.353  29.645  1.00  0.00     0.001 A 
ATOM     89  C   UNL A   1      39.755  34.498  31.904  1.00  0.00    -0.018 A 
ATOM     90  C   UNL A   1      38.312  34.478  33.848  1.00  0.00     0.009 A 
ATOM     91  C   UNL A   1      39.958  34.456  30.518  1.00  0.00     0.009 A 
ATOM     92  C   UNL A   1      40.856  34.671  32.758  1.00  0.00     0.009 A 
ATOM     93  C   UNL A   1      39.415  34.685  34.682  1.00  0.00     0.001 A 
ATOM     94  C   UNL A   1      40.687  34.771  34.137  1.00  0.00     0.001 A 
ENDBRANCH  84  85
ENDBRANCH  81  84
ENDBRANCH  74  77
ENDBRANCH  72  73
ENDBRANCH   1  72
TORSDOF 12
ENDMDL
MODEL 2
REMARK VINA RESULT:     -11.7      4.526      8.204
REMARK SMILES O=C(NCCCNC(=O)[C@@H]1CCC[N@@H+](Cc2cccc3ccccc23)C1)c1ccc(-c2c3nc(c(-c4c(F)c(F)c(F)c(F)c4F)c4ccc([nH]4)c(-c4c(F)c(F)c(F)c(F)c4F)c4nc(c(-c5c(F)c(F)c(F)c(F)c5F)c5ccc2[nH]5)C=C4)C=C3)cc1
REMARK SMILES IDX 5 1 4 2 3 3 1 4 2 5 27 7 28 8 89 9 29 10 88 11 30 12 31 13
REMARK SMILES IDX 32 14 82 15 33 16 87 17 81 18 83 19 34 20 86 21 80 22 79 23
REMARK SMILES IDX 35 25 67 26 47 27 66 28 48 29 51 30 65 31 84 32 49 33 50 34
REMARK SMILES IDX 64 36 85 37 52 38 36 39 37 40 45 41 38 42 39 43 43 44 46 45
REMARK SMILES IDX 40 46 41 47 44 48 42 49 68 50 69 51 77 52 70 53 71 54 75 55
REMARK SMILES IDX 78 56 72 57 73 58 76 59 74 60 53 61 54 62 62 63 55 64 56 65
REMARK SMILES IDX 60 66 63 67 57 68 58 69 61 70 59 71 6 72 7 73 8 74 9 76
REMARK SMILES IDX 10 77 11 78 26 79 12 80 14 81 13 82 15 84 16 85 17 86 25 87
REMARK SMILES IDX 18 88 20 89 24 90 19 91 21 92 23 93 22 94
REMARK H PARENT 3 6 83 24 51 35 7 75 14 83
REMARK Flexibility Score: inf
ROOT
ATOM      1  C   UNL A   1      31.028  31.952  26.539  1.00  0.00     0.042 C 
ENDROOT
BRANCH   1   2
ATOM      2  C   UNL A   1      32.395  32.524  26.868  1.00  0.00     0.118 C 
BRANCH   2   3
ATOM      3  N   UNL A   1      32.328  33.880  27.397  1.00  0.00    -0.352 N 
ATOM      4  O   UNL A   1      32.730  35.598  28.795  1.00  0.00    -0.269 OA
ATOM      5  C   UNL A   1      33.070  34.501  28.376  1.00  0.00     0.251 C 
ATOM      6  H   UNL A   1      31.637  34.448  26.985  1.00  0.00     0.163 HD
BRANCH   5   7
ATOM      7  C   UNL A   1      34.260  33.831  28.950  1.00  0.00     0.039 A 
ATOM      8  C   UNL A   1      34.138  32.658  29.691  1.00  0.00     0.014 A 
ATOM      9  C   UNL A   1      35.529  34.377  28.723  1.00  0.00     0.014 A 
ATOM     10  C   UNL A   1      35.234  32.153  30.376  1.00  0.00     0.010 A 
ATOM     11  C   UNL A   1      36.656  33.785  29.303  1.00  0.00     0.010 A 
ATOM     12  C   UNL A   1      36.512  32.692  30.170  1.00  0.00    -0.014 A 
BRANCH  12  13
ATOM     13  C   UNL A   1      37.678  32.045  30.825  1.00  0.00     0.031 A 
ATOM     14  C   UNL A   1      38.062  32.373  32.240  1.00  0.00     0.074 A 
ATOM     15  C   UNL A   1      38.367  31.115  30.136  1.00  0.00     0.049 A 
ATOM     16  N   UNL A   1      39.035  31.880  32.965  1.00  0.00    -0.248 NA
ATOM     17  C   UNL A   1      37.261  33.394  32.931  1.00  0.00     0.031 C 
ATOM     18  C   UNL A   1      38.091  30.719  28.753  1.00  0.00     0.029 A 
ATOM     19  N   UNL A   1      39.415  30.312  30.506  1.00  0.00    -0.354 N 
ATOM     20  C   UNL A   1      38.982  32.549  34.181  1.00  0.00     0.074 A 
ATOM     21  C   UNL A   1      37.894  33.499  34.090  1.00  0.00     0.031 C 
ATOM     22  C   UNL A   1      38.897  29.703  28.415  1.00  0.00     0.029 A 
ATOM     23  C   UNL A   1      39.798  29.429  29.526  1.00  0.00     0.049 A 
ATOM     24  H   UNL A   1      39.850  30.363  31.388  1.00  0.00     0.167 HD
ATOM     25  C   UNL A   1      39.769  32.380  35.273  1.00  0.00     0.037 A 
ATOM     26  C   UNL A   1      40.779  28.510  29.515  1.00  0.00     0.037 A 
ATOM     27  C   UNL A   1      40.835  31.414  35.362  1.00  0.00     0.049 A 
ATOM     28  C   UNL A   1      41.644  28.355  30.730  1.00  0.00     0.074 A 
ATOM     29  C   UNL A   1      41.662  31.137  36.436  1.00  0.00     0.029 A 
ATOM     30  N   UNL A   1      41.223  30.568  34.332  1.00  0.00    -0.354 N 
ATOM     31  N   UNL A   1      41.570  28.979  31.880  1.00  0.00    -0.248 NA
ATOM     32  C   UNL A   1      42.735  27.377  30.641  1.00  0.00     0.031 C 
ATOM     33  C   UNL A   1      42.580  30.157  36.042  1.00  0.00     0.029 A 
ATOM     34  C   UNL A   1      42.293  29.785  34.739  1.00  0.00     0.049 A 
ATOM     35  H   UNL A   1      40.800  30.528  33.444  1.00  0.00     0.167 HD
ATOM     36  C   UNL A   1      42.593  28.462  32.659  1.00  0.00     0.074 A 
ATOM     37  C   UNL A   1      43.262  27.458  31.855  1.00  0.00     0.031 C 
ATOM     38  C   UNL A   1      42.949  28.793  33.925  1.00  0.00     0.037 A 
BRANCH  25  39
ATOM     39  C   UNL A   1      39.524  33.281  36.451  1.00  0.00     0.064 A 
ATOM     40  C   UNL A   1      38.666  32.915  37.498  1.00  0.00     0.173 A 
ATOM     41  C   UNL A   1      40.181  34.518  36.544  1.00  0.00     0.173 A 
ATOM     42  F   UNL A   1      38.005  31.749  37.455  1.00  0.00    -0.203 F 
ATOM     43  C   UNL A   1      38.450  33.768  38.579  1.00  0.00     0.198 A 
ATOM     44  C   UNL A   1      39.984  35.356  37.639  1.00  0.00     0.198 A 
ATOM     45  F   UNL A   1      41.017  34.914  35.573  1.00  0.00    -0.203 F 
ATOM     46  F   UNL A   1      37.585  33.420  39.543  1.00  0.00    -0.200 F 
ATOM     47  C   UNL A   1      39.112  34.984  38.651  1.00  0.00     0.200 A 
ATOM     48  F   UNL A   1      40.634  36.525  37.712  1.00  0.00    -0.200 F 
ATOM     49  F   UNL A   1      38.903  35.803  39.691  1.00  0.00    -0.200 F 
ENDBRANCH  25  39
BRANCH  26  50
ATOM     50  C   UNL A   1      40.981  27.670  28.306  1.00  0.00     0.064 A 
ATOM     51  C   UNL A   1      41.836  28.086  27.277  1.00  0.00     0.173 A 
ATOM     52  C   UNL A   1      40.361  26.418  28.177  1.00  0.00     0.173 A 
ATOM     53  F   UNL A   1      42.438  29.282  27.348  1.00  0.00    -0.203 F 
ATOM     54  C   UNL A   1      42.058  27.282  26.161  1.00  0.00     0.198 A 
ATOM     55  C   UNL A   1      40.608  25.604  27.076  1.00  0.00     0.198 A 
ATOM     56  F   UNL A   1      39.540  25.973  29.140  1.00  0.00    -0.203 F 
ATOM     57  F   UNL A   1      42.859  27.714  25.178  1.00  0.00    -0.200 F 
ATOM     58  C   UNL A   1      41.452  26.038  26.066  1.00  0.00     0.200 A 
ATOM     59  F   UNL A   1      40.035  24.395  26.998  1.00  0.00    -0.200 F 
ATOM     60  F   UNL A   1      41.682  25.258  25.001  1.00  0.00    -0.200 F 
ENDBRANCH  26  50
BRANCH  38  61
ATOM     61  C   UNL A   1      44.098  28.040  34.524  1.00  0.00     0.064 A 
ATOM     62  C   UNL A   1      45.414  28.521  34.447  1.00  0.00     0.173 A 
ATOM     63  C   UNL A   1      43.878  26.830  35.200  1.00  0.00     0.173 A 
ATOM     64  F   UNL A   1      45.677  29.663  33.794  1.00  0.00    -0.203 F 
ATOM     65  C   UNL A   1      46.470  27.805  35.004  1.00  0.00     0.198 A 
ATOM     66  C   UNL A   1      44.933  26.132  35.779  1.00  0.00     0.198 A 
ATOM     67  F   UNL A   1      42.638  26.329  35.304  1.00  0.00    -0.203 F 
ATOM     68  F   UNL A   1      47.725  28.258  34.874  1.00  0.00    -0.200 F 
ATOM     69  C   UNL A   1      46.228  26.616  35.675  1.00  0.00     0.200 A 
ATOM     70  F   UNL A   1      44.697  24.988  36.436  1.00  0.00    -0.200 F 
ATOM     71  F   UNL A   1      47.247  25.930  36.211  1.00  0.00    -0.200 F 
ENDBRANCH  38  61
ENDBRANCH  12  13
ENDBRANCH   5   7
ENDBRANCH   2   3
ENDBRANCH   1   2
BRANCH   1  72
ATOM     72  C   UNL A   1      31.027  31.016  25.345  1.00  0.00     0.117 C 
BRANCH  72  73
ATOM     73  N   UNL A   1      32.089  30.031  25.415  1.00  0.00    -0.356 N 
ATOM     74  C   UNL A   1      32.479  29.004  24.625  1.00  0.00     0.228 C 
ATOM     75  H   UNL A   1      32.651  30.131  26.217  1.00  0.00     0.163 HD
ATOM     76  O   UNL A   1      33.489  28.410  25.027  1.00  0.00    -0.275 OA
BRANCH  74  77
ATOM     77  C   UNL A   1      31.711  28.487  23.400  1.00  0.00     0.133 C 
ATOM     78  C   UNL A   1      30.301  28.032  23.836  1.00  0.00     0.025 C 
ATOM     79  C   UNL A   1      32.297  27.316  22.620  1.00  0.00     0.276 C 
ATOM     80  C   UNL A   1      30.372  26.717  24.629  1.00  0.00     0.062 C 
ATOM     81  N   UNL A   1      32.518  26.174  23.504  1.00  0.00    -0.331 N 
ATOM     82  C   UNL A   1      31.225  25.634  23.942  1.00  0.00     0.262 C 
ATOM     83  H   UNL A   1      33.012  26.506  24.333  1.00  0.00     0.348 HD
BRANCH  81  84
ATOM     84  C   UNL A   1      33.453  25.168  22.968  1.00  0.00     0.299 C 
BRANCH  84  85
ATOM     85  C   UNL A   1      33.946  24.115  23.946  1.00  0.00     0.014 A 
ATOM     86  C   UNL A   1      34.879  24.519  24.923  1.00  0.00     0.010 A 
ATOM     87  C   UNL A   1      33.542  22.751  23.892  1.00  0.00    -0.010 A 
ATOM     88  C   UNL A   1      35.503  23.598  25.751  1.00  0.00     0.001 A 
ATOM     89  C   UNL A   1      34.187  21.822  24.750  1.00  0.00    -0.018 A 
ATOM     90  C   UNL A   1      32.520  22.253  23.048  1.00  0.00     0.009 A 
ATOM     91  C   UNL A   1      35.176  22.253  25.645  1.00  0.00     0.009 A 
ATOM     92  C   UNL A   1      33.832  20.465  24.715  1.00  0.00     0.009 A 
ATOM     93  C   UNL A   1      32.154  20.904  23.051  1.00  0.00     0.001 A 
ATOM     94  C   UNL A   1      32.818  20.009  23.876  1.00  0.00     0.001 A 
ENDBRANCH  84  85
ENDBRANCH  81  84
ENDBRANCH  74  77
ENDBRANCH  72  73
ENDBRANCH   1  72
TORSDOF 12
ENDMDL
MODEL 3
REMARK VINA RESULT:     -11.7      4.307      8.149
REMARK SMILES O=C(NCCCNC(=O)[C@@H]1CCC[N@@H+](Cc2cccc3ccccc23)C1)c1ccc(-c2c3nc(c(-c4c(F)c(F)c(F)c(F)c4F)c4ccc([nH]4)c(-c4c(F)c(F)c(F)c(F)c4F)c4nc(c(-c5c(F)c(F)c(F)c(F)c5F)c5ccc2[nH]5)C=C4)C=C3)cc1
REMARK SMILES IDX 5 1 4 2 3 3 1 4 2 5 27 7 28 8 89 9 29 10 88 11 30 12 31 13
REMARK SMILES IDX 32 14 82 15 33 16 87 17 81 18 83 19 34 20 86 21 80 22 79 23
REMARK SMILES IDX 35 25 67 26 47 27 66 28 48 29 51 30 65 31 84 32 49 33 50 34
REMARK SMILES IDX 64 36 85 37 52 38 36 39 37 40 45 41 38 42 39 43 43 44 46 45
REMARK SMILES IDX 40 46 41 47 44 48 42 49 68 50 69 51 77 52 70 53 71 54 75 55
REMARK SMILES IDX 78 56 72 57 73 58 76 59 74 60 53 61 54 62 62 63 55 64 56 65
REMARK SMILES IDX 60 66 63 67 57 68 58 69 61 70 59 71 6 72 7 73 8 74 9 76
REMARK SMILES IDX 10 77 11 78 26 79 12 80 14 81 13 82 15 84 16 85 17 86 25 87
REMARK SMILES IDX 18 88 20 89 24 90 19 91 21 92 23 93 22 94
REMARK H PARENT 3 6 83 24 51 35 7 75 14 83
REMARK Flexibility Score: inf
ROOT
ATOM      1  C   UNL A   1      31.394  32.269  26.501  1.00  0.00     0.042 C 
ENDROOT
BRANCH   1   2
ATOM      2  C   UNL A   1      32.662  32.848  27.102  1.00  0.00     0.118 C 
BRANCH   2   3
ATOM      3  N   UNL A   1      32.475  34.194  27.626  1.00  0.00    -0.352 N 
ATOM      4  O   UNL A   1      32.653  35.918  29.063  1.00  0.00    -0.269 OA
ATOM      5  C   UNL A   1      33.087  34.842  28.675  1.00  0.00     0.251 C 
ATOM      6  H   UNL A   1      31.800  34.730  27.150  1.00  0.00     0.163 HD
BRANCH   5   7
ATOM      7  C   UNL A   1      34.248  34.229  29.360  1.00  0.00     0.039 A 
ATOM      8  C   UNL A   1      35.552  34.548  28.989  1.00  0.00     0.014 A 
ATOM      9  C   UNL A   1      34.027  33.332  30.411  1.00  0.00     0.014 A 
ATOM     10  C   UNL A   1      36.617  33.826  29.510  1.00  0.00     0.010 A 
ATOM     11  C   UNL A   1      35.113  32.705  31.031  1.00  0.00     0.010 A 
ATOM     12  C   UNL A   1      36.416  32.915  30.556  1.00  0.00    -0.014 A 
BRANCH  12  13
ATOM     13  C   UNL A   1      37.596  32.254  31.170  1.00  0.00     0.031 A 
ATOM     14  C   UNL A   1      38.030  32.575  32.573  1.00  0.00     0.074 A 
ATOM     15  C   UNL A   1      38.252  31.318  30.458  1.00  0.00     0.049 A 
ATOM     16  N   UNL A   1      39.022  32.070  33.264  1.00  0.00    -0.248 NA
ATOM     17  C   UNL A   1      37.264  33.602  33.292  1.00  0.00     0.031 C 
ATOM     18  C   UNL A   1      37.925  30.928  29.083  1.00  0.00     0.029 A 
ATOM     19  N   UNL A   1      39.302  30.502  30.791  1.00  0.00    -0.354 N 
ATOM     20  C   UNL A   1      39.017  32.737  34.482  1.00  0.00     0.074 A 
ATOM     21  C   UNL A   1      37.937  33.699  34.429  1.00  0.00     0.031 C 
ATOM     22  C   UNL A   1      38.708  29.904  28.717  1.00  0.00     0.029 A 
ATOM     23  C   UNL A   1      39.643  29.618  29.797  1.00  0.00     0.049 A 
ATOM     24  H   UNL A   1      39.767  30.547  31.658  1.00  0.00     0.167 HD
ATOM     25  C   UNL A   1      39.837  32.556  35.547  1.00  0.00     0.037 A 
ATOM     26  C   UNL A   1      40.613  28.688  29.751  1.00  0.00     0.037 A 
ATOM     27  C   UNL A   1      40.895  31.578  35.599  1.00  0.00     0.049 A 
ATOM     28  C   UNL A   1      41.516  28.521  30.937  1.00  0.00     0.074 A 
ATOM     29  C   UNL A   1      41.754  31.289  36.645  1.00  0.00     0.029 A 
ATOM     30  N   UNL A   1      41.239  30.730  34.555  1.00  0.00    -0.354 N 
ATOM     31  N   UNL A   1      41.487  29.143  32.090  1.00  0.00    -0.248 NA
ATOM     32  C   UNL A   1      42.593  27.531  30.810  1.00  0.00     0.031 C 
ATOM     33  C   UNL A   1      42.648  30.300  36.218  1.00  0.00     0.029 A 
ATOM     34  C   UNL A   1      42.314  29.935  34.925  1.00  0.00     0.049 A 
ATOM     35  H   UNL A   1      40.786  30.697  33.682  1.00  0.00     0.167 HD
ATOM     36  C   UNL A   1      42.530  28.613  32.833  1.00  0.00     0.074 A 
ATOM     37  C   UNL A   1      43.160  27.603  32.006  1.00  0.00     0.031 C 
ATOM     38  C   UNL A   1      42.931  28.937  34.087  1.00  0.00     0.037 A 
BRANCH  25  39
ATOM     39  C   UNL A   1      39.642  33.457  36.734  1.00  0.00     0.064 A 
ATOM     40  C   UNL A   1      38.799  33.107  37.800  1.00  0.00     0.173 A 
ATOM     41  C   UNL A   1      40.331  34.677  36.817  1.00  0.00     0.173 A 
ATOM     42  F   UNL A   1      38.109  31.957  37.767  1.00  0.00    -0.203 F 
ATOM     43  C   UNL A   1      38.629  33.960  38.888  1.00  0.00     0.198 A 
ATOM     44  C   UNL A   1      40.179  35.514  37.920  1.00  0.00     0.198 A 
ATOM     45  F   UNL A   1      41.154  35.058  35.829  1.00  0.00    -0.203 F 
ATOM     46  F   UNL A   1      37.778  33.628  39.871  1.00  0.00    -0.200 F 
ATOM     47  C   UNL A   1      39.322  35.159  38.951  1.00  0.00     0.200 A 
ATOM     48  F   UNL A   1      40.859  36.667  37.983  1.00  0.00    -0.200 F 
ATOM     49  F   UNL A   1      39.157  35.977  39.999  1.00  0.00    -0.200 F 
ENDBRANCH  25  39
BRANCH  26  50
ATOM     50  C   UNL A   1      40.765  27.849  28.535  1.00  0.00     0.064 A 
ATOM     51  C   UNL A   1      40.081  26.632  28.412  1.00  0.00     0.173 A 
ATOM     52  C   UNL A   1      41.557  28.267  27.456  1.00  0.00     0.173 A 
ATOM     53  F   UNL A   1      39.324  26.183  29.424  1.00  0.00    -0.203 F 
ATOM     54  C   UNL A   1      40.189  25.862  27.256  1.00  0.00     0.198 A 
ATOM     55  C   UNL A   1      41.641  27.511  26.290  1.00  0.00     0.198 A 
ATOM     56  F   UNL A   1      42.225  29.429  27.523  1.00  0.00    -0.203 F 
ATOM     57  F   UNL A   1      39.548  24.689  27.173  1.00  0.00    -0.200 F 
ATOM     58  C   UNL A   1      40.961  26.307  26.192  1.00  0.00     0.200 A 
ATOM     59  F   UNL A   1      42.371  27.955  25.258  1.00  0.00    -0.200 F 
ATOM     60  F   UNL A   1      41.049  25.575  25.074  1.00  0.00    -0.200 F 
ENDBRANCH  26  50
BRANCH  38  61
ATOM     61  C   UNL A   1      44.091  28.170  34.647  1.00  0.00     0.064 A 
ATOM     62  C   UNL A   1      45.408  28.639  34.529  1.00  0.00     0.173 A 
ATOM     63  C   UNL A   1      43.880  26.960  35.325  1.00  0.00     0.173 A 
ATOM     64  F   UNL A   1      45.662  29.780  33.873  1.00  0.00    -0.203 F 
ATOM     65  C   UNL A   1      46.474  27.910  35.049  1.00  0.00     0.198 A 
ATOM     66  C   UNL A   1      44.946  26.249  35.867  1.00  0.00     0.198 A 
ATOM     67  F   UNL A   1      42.639  26.471  35.466  1.00  0.00    -0.203 F 
ATOM     68  F   UNL A   1      47.729  28.351  34.881  1.00  0.00    -0.200 F 
ATOM     69  C   UNL A   1      46.242  26.720  35.723  1.00  0.00     0.200 A 
ATOM     70  F   UNL A   1      44.720  25.104  36.527  1.00  0.00    -0.200 F 
ATOM     71  F   UNL A   1      47.270  26.022  36.224  1.00  0.00    -0.200 F 
ENDBRANCH  38  61
ENDBRANCH  12  13
ENDBRANCH   5   7
ENDBRANCH   2   3
ENDBRANCH   1   2
BRANCH   1  72
ATOM     72  C   UNL A   1      31.403  30.755  26.394  1.00  0.00     0.117 C 
BRANCH  72  73
ATOM     73  N   UNL A   1      32.321  30.279  25.377  1.00  0.00    -0.356 N 
ATOM     74  C   UNL A   1      32.369  29.181  24.587  1.00  0.00     0.228 C 
ATOM     75  H   UNL A   1      33.077  30.891  25.229  1.00  0.00     0.163 HD
ATOM     76  O   UNL A   1      33.323  29.167  23.798  1.00  0.00    -0.275 OA
BRANCH  74  77
ATOM     77  C   UNL A   1      31.434  27.968  24.696  1.00  0.00     0.133 C 
ATOM     78  C   UNL A   1      31.403  27.479  26.161  1.00  0.00     0.025 C 
ATOM     79  C   UNL A   1      31.748  26.735  23.859  1.00  0.00     0.276 C 
ATOM     80  C   UNL A   1      32.722  26.782  26.533  1.00  0.00     0.062 C 
ATOM     81  N   UNL A   1      33.103  26.262  24.135  1.00  0.00    -0.331 N 
ATOM     82  C   UNL A   1      33.168  25.729  25.502  1.00  0.00     0.262 C 
ATOM     83  H   UNL A   1      33.734  27.062  24.085  1.00  0.00     0.348 HD
BRANCH  81  84
ATOM     84  C   UNL A   1      33.653  25.367  23.101  1.00  0.00     0.299 C 
BRANCH  84  85
ATOM     85  C   UNL A   1      33.599  23.878  23.397  1.00  0.00     0.014 A 
ATOM     86  C   UNL A   1      32.404  23.195  23.088  1.00  0.00     0.010 A 
ATOM     87  C   UNL A   1      34.672  23.164  24.000  1.00  0.00    -0.010 A 
ATOM     88  C   UNL A   1      32.206  21.876  23.470  1.00  0.00     0.001 A 
ATOM     89  C   UNL A   1      34.454  21.813  24.379  1.00  0.00    -0.018 A 
ATOM     90  C   UNL A   1      35.959  23.704  24.235  1.00  0.00     0.009 A 
ATOM     91  C   UNL A   1      33.218  21.198  24.135  1.00  0.00     0.009 A 
ATOM     92  C   UNL A   1      35.480  21.079  24.995  1.00  0.00     0.009 A 
ATOM     93  C   UNL A   1      36.981  22.948  24.816  1.00  0.00     0.001 A 
ATOM     94  C   UNL A   1      36.737  21.639  25.206  1.00  0.00     0.001 A 
ENDBRANCH  84  85
ENDBRANCH  81  84
ENDBRANCH  74  77
ENDBRANCH  72  73
ENDBRANCH   1  72
TORSDOF 12
ENDMDL
