MODEL 1
REMARK VINA RESULT:     -13.3      0.000      0.000
REMARK SMILES CCOc1cccc(C(=O)Nc2ccc(Cl)c(C(=O)NCCCNC(=O)c3ccc(-c4c5nc(c(-c6c(F)c(F)c(F)c(F)c6F)c6ccc([nH]6)c(-c6c(F)c(F)c(F)c(F)c6F)c6nc(c(-c7c(F)c(F)c(F)c(F)c7F)c7ccc4[nH]7)C=C6)C=C5)cc3)c2)c1
REMARK SMILES IDX 21 1 20 2 18 3 19 4 17 6 12 7 13 8 90 9 14 10 15 11 16 12
REMARK SMILES IDX 11 13 9 14 10 15 8 17 4 18 5 19 91 20 6 21 7 22 3 23 2 24
REMARK SMILES IDX 1 25 22 26 23 27 24 28 25 29 26 31 27 32 28 33 89 34 29 35
REMARK SMILES IDX 88 36 30 37 31 38 32 39 82 40 33 41 87 42 81 43 83 44 34 45
REMARK SMILES IDX 86 46 80 47 79 48 35 50 67 51 47 52 66 53 48 54 51 55 65 56
REMARK SMILES IDX 84 57 49 58 50 59 64 61 85 62 52 63 36 64 37 65 45 66 38 67
REMARK SMILES IDX 39 68 43 69 46 70 40 71 41 72 44 73 42 74 68 75 69 76 77 77
REMARK SMILES IDX 70 78 71 79 75 80 78 81 72 82 73 83 76 84 74 85 53 86 54 87
REMARK SMILES IDX 62 88 55 89 56 90 60 91 63 92 57 93 58 94 61 95 59 96
REMARK H PARENT 20 5 11 16 24 30 83 49 51 60
REMARK Flexibility Score: inf
ROOT
ATOM      1  C   UNL A   1      31.944  30.422  26.657  1.00  0.00     0.118 C 
ENDROOT
BRANCH   1   2
ATOM      2  N   UNL A   1      32.621  30.150  25.406  1.00  0.00    -0.352 N 
ATOM      3  C   UNL A   1      32.523  29.140  24.480  1.00  0.00     0.252 C 
ATOM      4  O   UNL A   1      33.403  29.127  23.621  1.00  0.00    -0.269 OA
ATOM      5  H   UNL A   1      33.291  30.830  25.170  1.00  0.00     0.163 HD
BRANCH   3   6
ATOM      6  C   UNL A   1      31.424  28.118  24.460  1.00  0.00     0.060 A 
ATOM      7  C   UNL A   1      30.299  26.161  25.408  1.00  0.00     0.042 A 
ATOM      8  C   UNL A   1      29.312  26.232  24.432  1.00  0.00     0.028 A 
ATOM      9  C   UNL A   1      31.396  27.030  25.349  1.00  0.00     0.041 A 
ATOM     10  C   UNL A   1      29.341  27.271  23.505  1.00  0.00     0.023 A 
ATOM     11  C   UNL A   1      30.363  28.232  23.536  1.00  0.00     0.053 A 
ATOM     12  Cl  UNL A   1      30.156  29.553  22.436  1.00  0.00    -0.083 Cl
BRANCH   7  13
ATOM     13  N   UNL A   1      30.132  25.220  26.433  1.00  0.00    -0.322 N 
ATOM     14  C   UNL A   1      30.474  23.883  26.511  1.00  0.00     0.255 C 
ATOM     15  O   UNL A   1      29.965  23.205  27.406  1.00  0.00    -0.269 OA
ATOM     16  H   UNL A   1      29.694  25.573  27.240  1.00  0.00     0.170 HD
BRANCH  14  17
ATOM     17  C   UNL A   1      31.508  23.243  25.635  1.00  0.00     0.043 A 
ATOM     18  C   UNL A   1      33.718  22.333  25.201  1.00  0.00     0.120 A 
ATOM     19  C   UNL A   1      33.403  22.205  23.849  1.00  0.00     0.046 A 
ATOM     20  C   UNL A   1      32.750  22.785  26.102  1.00  0.00     0.060 A 
ATOM     21  C   UNL A   1      32.129  22.533  23.392  1.00  0.00     0.005 A 
ATOM     22  C   UNL A   1      31.193  23.070  24.278  1.00  0.00     0.014 A 
BRANCH  18  23
ATOM     23  O   UNL A   1      35.049  22.240  25.503  1.00  0.00    -0.494 OA
BRANCH  23  24
ATOM     24  C   UNL A   1      35.687  23.384  26.066  1.00  0.00     0.226 C 
ATOM     25  C   UNL A   1      36.973  23.751  25.347  1.00  0.00     0.049 C 
ENDBRANCH  23  24
ENDBRANCH  18  23
ENDBRANCH  14  17
ENDBRANCH   7  13
ENDBRANCH   3   6
ENDBRANCH   1   2
BRANCH   1  26
ATOM     26  C   UNL A   1      31.641  31.908  26.791  1.00  0.00     0.042 C 
BRANCH  26  27
ATOM     27  C   UNL A   1      32.817  32.663  27.386  1.00  0.00     0.118 C 
BRANCH  27  28
ATOM     28  N   UNL A   1      32.489  34.062  27.631  1.00  0.00    -0.352 N 
ATOM     29  C   UNL A   1      33.003  34.910  28.582  1.00  0.00     0.251 C 
ATOM     30  H   UNL A   1      31.809  34.452  27.035  1.00  0.00     0.163 HD
ATOM     31  O   UNL A   1      32.481  35.999  28.797  1.00  0.00    -0.269 OA
BRANCH  29  32
ATOM     32  C   UNL A   1      34.178  34.479  29.365  1.00  0.00     0.039 A 
ATOM     33  C   UNL A   1      33.990  33.878  30.612  1.00  0.00     0.014 A 
ATOM     34  C   UNL A   1      35.463  34.628  28.838  1.00  0.00     0.014 A 
ATOM     35  C   UNL A   1      35.088  33.355  31.297  1.00  0.00     0.010 A 
ATOM     36  C   UNL A   1      36.539  34.027  29.474  1.00  0.00     0.010 A 
ATOM     37  C   UNL A   1      36.364  33.388  30.712  1.00  0.00    -0.014 A 
BRANCH  37  38
ATOM     38  C   UNL A   1      37.551  32.786  31.369  1.00  0.00     0.031 A 
ATOM     39  C   UNL A   1      38.252  31.633  30.706  1.00  0.00     0.074 A 
ATOM     40  C   UNL A   1      37.924  33.197  32.594  1.00  0.00     0.049 A 
ATOM     41  N   UNL A   1      39.184  30.846  31.178  1.00  0.00    -0.248 NA
ATOM     42  C   UNL A   1      37.813  31.297  29.343  1.00  0.00     0.031 C 
ATOM     43  C   UNL A   1      37.302  34.283  33.353  1.00  0.00     0.029 A 
ATOM     44  N   UNL A   1      38.909  32.731  33.430  1.00  0.00    -0.354 N 
ATOM     45  C   UNL A   1      39.419  29.907  30.182  1.00  0.00     0.074 A 
ATOM     46  C   UNL A   1      38.495  30.187  29.106  1.00  0.00     0.031 C 
ATOM     47  C   UNL A   1      37.928  34.411  34.533  1.00  0.00     0.029 A 
ATOM     48  C   UNL A   1      38.961  33.385  34.637  1.00  0.00     0.049 A 
ATOM     49  H   UNL A   1      39.519  31.999  33.187  1.00  0.00     0.167 HD
ATOM     50  C   UNL A   1      40.340  28.914  30.159  1.00  0.00     0.037 A 
ATOM     51  C   UNL A   1      39.745  33.168  35.711  1.00  0.00     0.037 A 
ATOM     52  C   UNL A   1      41.275  28.661  31.223  1.00  0.00     0.049 A 
ATOM     53  C   UNL A   1      40.752  32.049  35.667  1.00  0.00     0.074 A 
ATOM     54  C   UNL A   1      42.281  27.715  31.281  1.00  0.00     0.029 A 
ATOM     55  N   UNL A   1      41.319  29.367  32.417  1.00  0.00    -0.354 N 
ATOM     56  N   UNL A   1      41.000  31.195  34.703  1.00  0.00    -0.248 NA
ATOM     57  C   UNL A   1      41.589  31.866  36.861  1.00  0.00     0.031 C 
ATOM     58  C   UNL A   1      42.906  27.819  32.528  1.00  0.00     0.029 A 
ATOM     59  C   UNL A   1      42.326  28.866  33.225  1.00  0.00     0.049 A 
ATOM     60  H   UNL A   1      40.721  30.113  32.655  1.00  0.00     0.167 HD
ATOM     61  C   UNL A   1      42.044  30.400  35.157  1.00  0.00     0.074 A 
ATOM     62  C   UNL A   1      42.385  30.876  36.481  1.00  0.00     0.031 C 
ATOM     63  C   UNL A   1      42.665  29.370  34.531  1.00  0.00     0.037 A 
BRANCH  50  64
ATOM     64  C   UNL A   1      40.374  28.032  28.945  1.00  0.00     0.064 A 
ATOM     65  C   UNL A   1      41.133  28.367  27.812  1.00  0.00     0.173 A 
ATOM     66  C   UNL A   1      39.650  26.830  28.916  1.00  0.00     0.173 A 
ATOM     67  F   UNL A   1      41.833  29.510  27.782  1.00  0.00    -0.203 F 
ATOM     68  C   UNL A   1      41.135  27.552  26.683  1.00  0.00     0.198 A 
ATOM     69  C   UNL A   1      39.683  26.000  27.798  1.00  0.00     0.198 A 
ATOM     70  F   UNL A   1      38.913  26.458  29.972  1.00  0.00    -0.203 F 
ATOM     71  F   UNL A   1      41.818  27.925  25.592  1.00  0.00    -0.200 F 
ATOM     72  C   UNL A   1      40.416  26.367  26.679  1.00  0.00     0.200 A 
ATOM     73  F   UNL A   1      38.999  24.848  27.801  1.00  0.00    -0.200 F 
ATOM     74  F   UNL A   1      40.421  25.582  25.593  1.00  0.00    -0.200 F 
ENDBRANCH  50  64
BRANCH  51  75
ATOM     75  C   UNL A   1      39.628  34.042  36.906  1.00  0.00     0.064 A 
ATOM     76  C   UNL A   1      38.838  33.658  37.998  1.00  0.00     0.173 A 
ATOM     77  C   UNL A   1      40.297  35.273  36.986  1.00  0.00     0.173 A 
ATOM     78  F   UNL A   1      38.162  32.500  37.960  1.00  0.00    -0.203 F 
ATOM     79  C   UNL A   1      38.705  34.478  39.117  1.00  0.00     0.198 A 
ATOM     80  C   UNL A   1      40.187  36.079  38.117  1.00  0.00     0.198 A 
ATOM     81  F   UNL A   1      41.070  35.685  35.971  1.00  0.00    -0.203 F 
ATOM     82  F   UNL A   1      37.908  34.106  40.127  1.00  0.00    -0.200 F 
ATOM     83  C   UNL A   1      39.385  35.686  39.179  1.00  0.00     0.200 A 
ATOM     84  F   UNL A   1      40.856  37.239  38.179  1.00  0.00    -0.200 F 
ATOM     85  F   UNL A   1      39.260  36.472  40.256  1.00  0.00    -0.200 F 
ENDBRANCH  51  75
BRANCH  63  86
ATOM     86  C   UNL A   1      43.819  28.727  35.241  1.00  0.00     0.064 A 
ATOM     87  C   UNL A   1      43.639  27.655  36.128  1.00  0.00     0.173 A 
ATOM     88  C   UNL A   1      45.131  29.154  34.984  1.00  0.00     0.173 A 
ATOM     89  F   UNL A   1      42.403  27.220  36.418  1.00  0.00    -0.203 F 
ATOM     90  C   UNL A   1      44.728  27.049  36.747  1.00  0.00     0.198 A 
ATOM     91  C   UNL A   1      46.220  28.525  35.580  1.00  0.00     0.198 A 
ATOM     92  F   UNL A   1      45.357  30.171  34.139  1.00  0.00    -0.203 F 
ATOM     93  F   UNL A   1      44.531  26.053  37.622  1.00  0.00    -0.200 F 
ATOM     94  C   UNL A   1      46.018  27.477  36.465  1.00  0.00     0.200 A 
ATOM     95  F   UNL A   1      47.465  28.932  35.296  1.00  0.00    -0.200 F 
ATOM     96  F   UNL A   1      47.066  26.883  37.052  1.00  0.00    -0.200 F 
ENDBRANCH  63  86
ENDBRANCH  37  38
ENDBRANCH  29  32
ENDBRANCH  27  28
ENDBRANCH  26  27
ENDBRANCH   1  26
TORSDOF 14
ENDMDL
MODEL 2
REMARK VINA RESULT:     -13.3      0.116      1.931
REMARK SMILES CCOc1cccc(C(=O)Nc2ccc(Cl)c(C(=O)NCCCNC(=O)c3ccc(-c4c5nc(c(-c6c(F)c(F)c(F)c(F)c6F)c6ccc([nH]6)c(-c6c(F)c(F)c(F)c(F)c6F)c6nc(c(-c7c(F)c(F)c(F)c(F)c7F)c7ccc4[nH]7)C=C6)C=C5)cc3)c2)c1
REMARK SMILES IDX 21 1 20 2 18 3 19 4 17 6 12 7 13 8 90 9 14 10 15 11 16 12
REMARK SMILES IDX 11 13 9 14 10 15 8 17 4 18 5 19 91 20 6 21 7 22 3 23 2 24
REMARK SMILES IDX 1 25 22 26 23 27 24 28 25 29 26 31 27 32 28 33 89 34 29 35
REMARK SMILES IDX 88 36 30 37 31 38 32 39 82 40 33 41 87 42 81 43 83 44 34 45
REMARK SMILES IDX 86 46 80 47 79 48 35 50 67 51 47 52 66 53 48 54 51 55 65 56
REMARK SMILES IDX 84 57 49 58 50 59 64 61 85 62 52 63 36 64 37 65 45 66 38 67
REMARK SMILES IDX 39 68 43 69 46 70 40 71 41 72 44 73 42 74 68 75 69 76 77 77
REMARK SMILES IDX 70 78 71 79 75 80 78 81 72 82 73 83 76 84 74 85 53 86 54 87
REMARK SMILES IDX 62 88 55 89 56 90 60 91 63 92 57 93 58 94 61 95 59 96
REMARK H PARENT 20 5 11 16 24 30 83 49 51 60
REMARK Flexibility Score: inf
ROOT
ATOM      1  C   UNL A   1      31.895  30.432  26.592  1.00  0.00     0.118 C 
ENDROOT
BRANCH   1   2
ATOM      2  N   UNL A   1      32.636  30.096  25.394  1.00  0.00    -0.352 N 
ATOM      3  C   UNL A   1      32.578  29.045  24.512  1.00  0.00     0.252 C 
ATOM      4  O   UNL A   1      33.503  28.985  23.704  1.00  0.00    -0.269 OA
ATOM      5  H   UNL A   1      33.325  30.760  25.163  1.00  0.00     0.163 HD
BRANCH   3   6
ATOM      6  C   UNL A   1      31.471  28.032  24.480  1.00  0.00     0.060 A 
ATOM      7  C   UNL A   1      30.315  26.089  25.421  1.00  0.00     0.042 A 
ATOM      8  C   UNL A   1      29.345  26.163  24.428  1.00  0.00     0.028 A 
ATOM      9  C   UNL A   1      31.419  26.949  25.375  1.00  0.00     0.041 A 
ATOM     10  C   UNL A   1      29.398  27.195  23.496  1.00  0.00     0.023 A 
ATOM     11  C   UNL A   1      30.427  28.148  23.538  1.00  0.00     0.053 A 
ATOM     12  Cl  UNL A   1      30.248  29.465  22.427  1.00  0.00    -0.083 Cl
BRANCH   7  13
ATOM     13  N   UNL A   1      30.123  25.156  26.448  1.00  0.00    -0.322 N 
ATOM     14  C   UNL A   1      30.472  23.822  26.549  1.00  0.00     0.255 C 
ATOM     15  O   UNL A   1      29.940  23.148  27.433  1.00  0.00    -0.269 OA
ATOM     16  H   UNL A   1      29.659  25.513  27.238  1.00  0.00     0.170 HD
BRANCH  14  17
ATOM     17  C   UNL A   1      31.536  23.182  25.710  1.00  0.00     0.043 A 
ATOM     18  C   UNL A   1      33.756  22.262  25.357  1.00  0.00     0.120 A 
ATOM     19  C   UNL A   1      33.494  22.144  23.992  1.00  0.00     0.046 A 
ATOM     20  C   UNL A   1      32.756  22.713  26.222  1.00  0.00     0.060 A 
ATOM     21  C   UNL A   1      32.241  22.483  23.488  1.00  0.00     0.005 A 
ATOM     22  C   UNL A   1      31.274  23.020  24.339  1.00  0.00     0.014 A 
BRANCH  18  23
ATOM     23  O   UNL A   1      35.074  22.159  25.710  1.00  0.00    -0.494 OA
BRANCH  23  24
ATOM     24  C   UNL A   1      35.759  23.351  26.087  1.00  0.00     0.226 C 
ATOM     25  C   UNL A   1      36.892  23.700  25.138  1.00  0.00     0.049 C 
ENDBRANCH  23  24
ENDBRANCH  18  23
ENDBRANCH  14  17
ENDBRANCH   7  13
ENDBRANCH   3   6
ENDBRANCH   1   2
BRANCH   1  26
ATOM     26  C   UNL A   1      31.643  31.932  26.665  1.00  0.00     0.042 C 
BRANCH  26  27
ATOM     27  C   UNL A   1      32.776  32.652  27.376  1.00  0.00     0.118 C 
BRANCH  27  28
ATOM     28  N   UNL A   1      32.460  34.057  27.606  1.00  0.00    -0.352 N 
ATOM     29  C   UNL A   1      32.986  34.911  28.544  1.00  0.00     0.251 C 
ATOM     30  H   UNL A   1      31.779  34.444  27.010  1.00  0.00     0.163 HD
ATOM     31  O   UNL A   1      32.473  36.007  28.749  1.00  0.00    -0.269 OA
BRANCH  29  32
ATOM     32  C   UNL A   1      34.162  34.481  29.325  1.00  0.00     0.039 A 
ATOM     33  C   UNL A   1      33.976  33.888  30.576  1.00  0.00     0.014 A 
ATOM     34  C   UNL A   1      35.445  34.623  28.792  1.00  0.00     0.014 A 
ATOM     35  C   UNL A   1      35.076  33.366  31.260  1.00  0.00     0.010 A 
ATOM     36  C   UNL A   1      36.522  34.022  29.428  1.00  0.00     0.010 A 
ATOM     37  C   UNL A   1      36.349  33.391  30.670  1.00  0.00    -0.014 A 
BRANCH  37  38
ATOM     38  C   UNL A   1      37.537  32.789  31.326  1.00  0.00     0.031 A 
ATOM     39  C   UNL A   1      38.247  31.647  30.656  1.00  0.00     0.074 A 
ATOM     40  C   UNL A   1      37.903  33.191  32.557  1.00  0.00     0.049 A 
ATOM     41  N   UNL A   1      39.181  30.859  31.123  1.00  0.00    -0.248 NA
ATOM     42  C   UNL A   1      37.815  31.321  29.287  1.00  0.00     0.031 C 
ATOM     43  C   UNL A   1      37.272  34.266  33.324  1.00  0.00     0.029 A 
ATOM     44  N   UNL A   1      38.887  32.722  33.392  1.00  0.00    -0.354 N 
ATOM     45  C   UNL A   1      39.425  29.931  30.119  1.00  0.00     0.074 A 
ATOM     46  C   UNL A   1      38.503  30.217  29.043  1.00  0.00     0.031 C 
ATOM     47  C   UNL A   1      37.892  34.386  34.508  1.00  0.00     0.029 A 
ATOM     48  C   UNL A   1      38.931  33.364  34.606  1.00  0.00     0.049 A 
ATOM     49  H   UNL A   1      39.502  31.995  33.145  1.00  0.00     0.167 HD
ATOM     50  C   UNL A   1      40.351  28.943  30.091  1.00  0.00     0.037 A 
ATOM     51  C   UNL A   1      39.711  33.141  35.680  1.00  0.00     0.037 A 
ATOM     52  C   UNL A   1      41.283  28.685  31.156  1.00  0.00     0.049 A 
ATOM     53  C   UNL A   1      40.724  32.028  35.630  1.00  0.00     0.074 A 
ATOM     54  C   UNL A   1      42.294  27.744  31.209  1.00  0.00     0.029 A 
ATOM     55  N   UNL A   1      41.318  29.380  32.357  1.00  0.00    -0.354 N 
ATOM     56  N   UNL A   1      40.981  31.184  34.659  1.00  0.00    -0.248 NA
ATOM     57  C   UNL A   1      41.558  31.838  36.826  1.00  0.00     0.031 C 
ATOM     58  C   UNL A   1      42.913  27.839  32.459  1.00  0.00     0.029 A 
ATOM     59  C   UNL A   1      42.325  28.877  33.164  1.00  0.00     0.049 A 
ATOM     60  H   UNL A   1      40.716  30.121  32.600  1.00  0.00     0.167 HD
ATOM     61  C   UNL A   1      42.027  30.391  35.110  1.00  0.00     0.074 A 
ATOM     62  C   UNL A   1      42.361  30.856  36.439  1.00  0.00     0.031 C 
ATOM     63  C   UNL A   1      42.656  29.370  34.476  1.00  0.00     0.037 A 
BRANCH  50  64
ATOM     64  C   UNL A   1      40.395  28.073  28.868  1.00  0.00     0.064 A 
ATOM     65  C   UNL A   1      39.689  26.863  28.799  1.00  0.00     0.173 A 
ATOM     66  C   UNL A   1      41.142  28.460  27.744  1.00  0.00     0.173 A 
ATOM     67  F   UNL A   1      38.970  26.439  29.849  1.00  0.00    -0.203 F 
ATOM     68  C   UNL A   1      39.760  26.053  27.668  1.00  0.00     0.198 A 
ATOM     69  C   UNL A   1      41.182  27.666  26.602  1.00  0.00     0.198 A 
ATOM     70  F   UNL A   1      41.831  29.611  27.753  1.00  0.00    -0.203 F 
ATOM     71  F   UNL A   1      39.127  24.872  27.652  1.00  0.00    -0.200 F 
ATOM     72  C   UNL A   1      40.500  26.458  26.569  1.00  0.00     0.200 A 
ATOM     73  F   UNL A   1      41.887  28.065  25.534  1.00  0.00    -0.200 F 
ATOM     74  F   UNL A   1      40.565  25.680  25.479  1.00  0.00    -0.200 F 
ENDBRANCH  50  64
BRANCH  51  75
ATOM     75  C   UNL A   1      39.585  34.003  36.883  1.00  0.00     0.064 A 
ATOM     76  C   UNL A   1      40.247  35.237  36.951  1.00  0.00     0.173 A 
ATOM     77  C   UNL A   1      38.806  33.621  37.985  1.00  0.00     0.173 A 
ATOM     78  F   UNL A   1      41.020  35.638  35.930  1.00  0.00    -0.203 F 
ATOM     79  C   UNL A   1      40.151  36.047  38.081  1.00  0.00     0.198 A 
ATOM     80  C   UNL A   1      38.687  34.444  39.103  1.00  0.00     0.198 A 
ATOM     81  F   UNL A   1      38.148  32.452  37.970  1.00  0.00    -0.203 F 
ATOM     82  F   UNL A   1      40.829  37.200  38.136  1.00  0.00    -0.200 F 
ATOM     83  C   UNL A   1      39.366  35.652  39.154  1.00  0.00     0.200 A 
ATOM     84  F   UNL A   1      37.917  34.065  40.133  1.00  0.00    -0.200 F 
ATOM     85  F   UNL A   1      39.271  36.433  40.239  1.00  0.00    -0.200 F 
ENDBRANCH  51  75
BRANCH  63  86
ATOM     86  C   UNL A   1      43.811  28.726  35.185  1.00  0.00     0.064 A 
ATOM     87  C   UNL A   1      45.119  29.221  35.072  1.00  0.00     0.173 A 
ATOM     88  C   UNL A   1      43.593  27.630  36.034  1.00  0.00     0.173 A 
ATOM     89  F   UNL A   1      45.381  30.256  34.260  1.00  0.00    -0.203 F 
ATOM     90  C   UNL A   1      46.169  28.629  35.769  1.00  0.00     0.198 A 
ATOM     91  C   UNL A   1      44.640  27.061  36.754  1.00  0.00     0.198 A 
ATOM     92  F   UNL A   1      42.359  27.124  36.182  1.00  0.00    -0.203 F 
ATOM     93  F   UNL A   1      47.417  29.091  35.616  1.00  0.00    -0.200 F 
ATOM     94  C   UNL A   1      45.927  27.557  36.617  1.00  0.00     0.200 A 
ATOM     95  F   UNL A   1      44.401  26.035  37.582  1.00  0.00    -0.200 F 
ATOM     96  F   UNL A   1      46.937  26.997  37.296  1.00  0.00    -0.200 F 
ENDBRANCH  63  86
ENDBRANCH  37  38
ENDBRANCH  29  32
ENDBRANCH  27  28
ENDBRANCH  26  27
ENDBRANCH   1  26
TORSDOF 14
ENDMDL
MODEL 3
REMARK VINA RESULT:     -13.3      0.710      1.600
REMARK SMILES CCOc1cccc(C(=O)Nc2ccc(Cl)c(C(=O)NCCCNC(=O)c3ccc(-c4c5nc(c(-c6c(F)c(F)c(F)c(F)c6F)c6ccc([nH]6)c(-c6c(F)c(F)c(F)c(F)c6F)c6nc(c(-c7c(F)c(F)c(F)c(F)c7F)c7ccc4[nH]7)C=C6)C=C5)cc3)c2)c1
REMARK SMILES IDX 21 1 20 2 18 3 19 4 17 6 12 7 13 8 90 9 14 10 15 11 16 12
REMARK SMILES IDX 11 13 9 14 10 15 8 17 4 18 5 19 91 20 6 21 7 22 3 23 2 24
REMARK SMILES IDX 1 25 22 26 23 27 24 28 25 29 26 31 27 32 28 33 89 34 29 35
REMARK SMILES IDX 88 36 30 37 31 38 32 39 82 40 33 41 87 42 81 43 83 44 34 45
REMARK SMILES IDX 86 46 80 47 79 48 35 50 67 51 47 52 66 53 48 54 51 55 65 56
REMARK SMILES IDX 84 57 49 58 50 59 64 61 85 62 52 63 36 64 37 65 45 66 38 67
REMARK SMILES IDX 39 68 43 69 46 70 40 71 41 72 44 73 42 74 68 75 69 76 77 77
REMARK SMILES IDX 70 78 71 79 75 80 78 81 72 82 73 83 76 84 74 85 53 86 54 87
REMARK SMILES IDX 62 88 55 89 56 90 60 91 63 92 57 93 58 94 61 95 59 96
REMARK H PARENT 20 5 11 16 24 30 83 49 51 60
REMARK Flexibility Score: inf
ROOT
ATOM      1  C   UNL A   1      31.946  30.422  26.590  1.00  0.00     0.118 C 
ENDROOT
BRANCH   1   2
ATOM      2  N   UNL A   1      32.630  30.129  25.347  1.00  0.00    -0.352 N 
ATOM      3  C   UNL A   1      32.546  29.099  24.443  1.00  0.00     0.252 C 
ATOM      4  O   UNL A   1      33.429  29.076  23.589  1.00  0.00    -0.269 OA
ATOM      5  H   UNL A   1      33.295  30.811  25.099  1.00  0.00     0.163 HD
BRANCH   3   6
ATOM      6  C   UNL A   1      31.458  28.065  24.441  1.00  0.00     0.060 A 
ATOM      7  C   UNL A   1      30.344  26.123  25.433  1.00  0.00     0.042 A 
ATOM      8  C   UNL A   1      29.365  26.158  24.447  1.00  0.00     0.028 A 
ATOM      9  C   UNL A   1      31.432  27.002  25.360  1.00  0.00     0.041 A 
ATOM     10  C   UNL A   1      29.392  27.171  23.492  1.00  0.00     0.023 A 
ATOM     11  C   UNL A   1      30.404  28.143  23.506  1.00  0.00     0.053 A 
ATOM     12  Cl  UNL A   1      30.193  29.432  22.369  1.00  0.00    -0.083 Cl
BRANCH   7  13
ATOM     13  N   UNL A   1      30.177  25.209  26.482  1.00  0.00    -0.322 N 
ATOM     14  C   UNL A   1      30.561  23.887  26.613  1.00  0.00     0.255 C 
ATOM     15  O   UNL A   1      30.047  23.220  27.512  1.00  0.00    -0.269 OA
ATOM     16  H   UNL A   1      29.703  25.571  27.264  1.00  0.00     0.170 HD
BRANCH  14  17
ATOM     17  C   UNL A   1      31.642  23.256  25.788  1.00  0.00     0.043 A 
ATOM     18  C   UNL A   1      32.467  21.670  24.144  1.00  0.00     0.120 A 
ATOM     19  C   UNL A   1      33.778  22.048  24.433  1.00  0.00     0.046 A 
ATOM     20  C   UNL A   1      31.401  22.322  24.769  1.00  0.00     0.060 A 
ATOM     21  C   UNL A   1      34.028  23.066  25.349  1.00  0.00     0.005 A 
ATOM     22  C   UNL A   1      32.966  23.653  26.039  1.00  0.00     0.014 A 
BRANCH  18  23
ATOM     23  O   UNL A   1      32.336  20.503  23.443  1.00  0.00    -0.494 OA
BRANCH  23  24
ATOM     24  C   UNL A   1      32.452  19.277  24.162  1.00  0.00     0.226 C 
ATOM     25  C   UNL A   1      32.906  18.124  23.283  1.00  0.00     0.049 C 
ENDBRANCH  23  24
ENDBRANCH  18  23
ENDBRANCH  14  17
ENDBRANCH   7  13
ENDBRANCH   3   6
ENDBRANCH   1   2
BRANCH   1  26
ATOM     26  C   UNL A   1      31.662  31.913  26.708  1.00  0.00     0.042 C 
BRANCH  26  27
ATOM     27  C   UNL A   1      32.795  32.639  27.411  1.00  0.00     0.118 C 
BRANCH  27  28
ATOM     28  N   UNL A   1      32.474  34.043  27.641  1.00  0.00    -0.352 N 
ATOM     29  C   UNL A   1      32.994  34.899  28.581  1.00  0.00     0.251 C 
ATOM     30  H   UNL A   1      31.793  34.428  27.044  1.00  0.00     0.163 HD
ATOM     31  O   UNL A   1      32.477  35.993  28.785  1.00  0.00    -0.269 OA
BRANCH  29  32
ATOM     32  C   UNL A   1      34.170  34.473  29.365  1.00  0.00     0.039 A 
ATOM     33  C   UNL A   1      33.983  33.863  30.607  1.00  0.00     0.014 A 
ATOM     34  C   UNL A   1      35.455  34.636  28.841  1.00  0.00     0.014 A 
ATOM     35  C   UNL A   1      35.084  33.345  31.292  1.00  0.00     0.010 A 
ATOM     36  C   UNL A   1      36.534  34.040  29.477  1.00  0.00     0.010 A 
ATOM     37  C   UNL A   1      36.361  33.392  30.711  1.00  0.00    -0.014 A 
BRANCH  37  38
ATOM     38  C   UNL A   1      37.551  32.795  31.367  1.00  0.00     0.031 A 
ATOM     39  C   UNL A   1      38.267  31.656  30.697  1.00  0.00     0.074 A 
ATOM     40  C   UNL A   1      37.915  33.199  32.598  1.00  0.00     0.049 A 
ATOM     41  N   UNL A   1      39.205  30.873  31.165  1.00  0.00    -0.248 NA
ATOM     42  C   UNL A   1      37.837  31.328  29.328  1.00  0.00     0.031 C 
ATOM     43  C   UNL A   1      37.279  34.271  33.364  1.00  0.00     0.029 A 
ATOM     44  N   UNL A   1      38.901  32.735  33.433  1.00  0.00    -0.354 N 
ATOM     45  C   UNL A   1      39.453  29.946  30.161  1.00  0.00     0.074 A 
ATOM     46  C   UNL A   1      38.530  30.228  29.084  1.00  0.00     0.031 C 
ATOM     47  C   UNL A   1      37.898  34.394  34.548  1.00  0.00     0.029 A 
ATOM     48  C   UNL A   1      38.942  33.378  34.647  1.00  0.00     0.049 A 
ATOM     49  H   UNL A   1      39.519  32.011  33.186  1.00  0.00     0.167 HD
ATOM     50  C   UNL A   1      40.384  28.963  30.133  1.00  0.00     0.037 A 
ATOM     51  C   UNL A   1      39.723  33.158  35.722  1.00  0.00     0.037 A 
ATOM     52  C   UNL A   1      41.317  28.709  31.198  1.00  0.00     0.049 A 
ATOM     53  C   UNL A   1      40.741  32.050  35.672  1.00  0.00     0.074 A 
ATOM     54  C   UNL A   1      42.332  27.772  31.252  1.00  0.00     0.029 A 
ATOM     55  N   UNL A   1      41.348  29.404  32.399  1.00  0.00    -0.354 N 
ATOM     56  N   UNL A   1      41.001  31.208  34.701  1.00  0.00    -0.248 NA
ATOM     57  C   UNL A   1      41.575  31.864  36.868  1.00  0.00     0.031 C 
ATOM     58  C   UNL A   1      42.950  27.871  32.503  1.00  0.00     0.029 A 
ATOM     59  C   UNL A   1      42.357  28.906  33.207  1.00  0.00     0.049 A 
ATOM     60  H   UNL A   1      40.743  30.142  32.642  1.00  0.00     0.167 HD
ATOM     61  C   UNL A   1      42.051  30.419  35.153  1.00  0.00     0.074 A 
ATOM     62  C   UNL A   1      42.382  30.886  36.482  1.00  0.00     0.031 C 
ATOM     63  C   UNL A   1      42.685  29.401  34.519  1.00  0.00     0.037 A 
BRANCH  50  64
ATOM     64  C   UNL A   1      40.432  28.093  28.911  1.00  0.00     0.064 A 
ATOM     65  C   UNL A   1      41.204  28.438  27.790  1.00  0.00     0.173 A 
ATOM     66  C   UNL A   1      39.709  26.891  28.862  1.00  0.00     0.173 A 
ATOM     67  F   UNL A   1      41.904  29.582  27.780  1.00  0.00    -0.203 F 
ATOM     68  C   UNL A   1      41.219  27.634  26.653  1.00  0.00     0.198 A 
ATOM     69  C   UNL A   1      39.754  26.072  27.737  1.00  0.00     0.198 A 
ATOM     70  F   UNL A   1      38.959  26.509  29.906  1.00  0.00    -0.203 F 
ATOM     71  F   UNL A   1      41.914  28.018  25.574  1.00  0.00    -0.200 F 
ATOM     72  C   UNL A   1      40.500  26.450  26.630  1.00  0.00     0.200 A 
ATOM     73  F   UNL A   1      39.070  24.920  27.720  1.00  0.00    -0.200 F 
ATOM     74  F   UNL A   1      40.518  25.675  25.536  1.00  0.00    -0.200 F 
ENDBRANCH  50  64
BRANCH  51  75
ATOM     75  C   UNL A   1      39.592  34.020  36.924  1.00  0.00     0.064 A 
ATOM     76  C   UNL A   1      40.258  35.252  36.997  1.00  0.00     0.173 A 
ATOM     77  C   UNL A   1      38.804  33.640  38.021  1.00  0.00     0.173 A 
ATOM     78  F   UNL A   1      41.038  35.650  35.982  1.00  0.00    -0.203 F 
ATOM     79  C   UNL A   1      40.158  36.061  38.127  1.00  0.00     0.198 A 
ATOM     80  C   UNL A   1      38.682  34.462  39.139  1.00  0.00     0.198 A 
ATOM     81  F   UNL A   1      38.142  32.474  38.001  1.00  0.00    -0.203 F 
ATOM     82  F   UNL A   1      40.840  37.212  38.187  1.00  0.00    -0.200 F 
ATOM     83  C   UNL A   1      39.364  35.669  39.195  1.00  0.00     0.200 A 
ATOM     84  F   UNL A   1      37.904  34.086  40.164  1.00  0.00    -0.200 F 
ATOM     85  F   UNL A   1      39.265  36.449  40.280  1.00  0.00    -0.200 F 
ENDBRANCH  51  75
BRANCH  63  86
ATOM     86  C   UNL A   1      43.843  28.762  35.229  1.00  0.00     0.064 A 
ATOM     87  C   UNL A   1      43.668  27.687  36.113  1.00  0.00     0.173 A 
ATOM     88  C   UNL A   1      45.152  29.198  34.973  1.00  0.00     0.173 A 
ATOM     89  F   UNL A   1      42.435  27.245  36.402  1.00  0.00    -0.203 F 
ATOM     90  C   UNL A   1      44.761  27.086  36.731  1.00  0.00     0.198 A 
ATOM     91  C   UNL A   1      46.245  28.574  35.568  1.00  0.00     0.198 A 
ATOM     92  F   UNL A   1      45.373  30.217  34.130  1.00  0.00    -0.203 F 
ATOM     93  F   UNL A   1      44.569  26.088  37.604  1.00  0.00    -0.200 F 
ATOM     94  C   UNL A   1      46.048  27.522  36.450  1.00  0.00     0.200 A 
ATOM     95  F   UNL A   1      47.487  28.987  35.285  1.00  0.00    -0.200 F 
ATOM     96  F   UNL A   1      47.099  26.933  37.036  1.00  0.00    -0.200 F 
ENDBRANCH  63  86
ENDBRANCH  37  38
ENDBRANCH  29  32
ENDBRANCH  27  28
ENDBRANCH  26  27
ENDBRANCH   1  26
TORSDOF 14
ENDMDL
