MODEL 1
REMARK VINA RESULT:     -11.7      0.000      0.000
REMARK SMILES CCC[C@@]1(C(=O)NCCCNC(=O)c2ccc(-c3c4nc(c(-c5c(F)c(F)c(F)c(F)c5F)c5ccc([nH]5)c(-c5c(F)c(F)c(F)c(F)c5F)c5nc(c(-c6c(F)c(F)c(F)c(F)c6F)c6ccc3[nH]6)C=C5)C=C4)cc2)CCN(C(=O)NC[C@]2(C)CCCO2)C1
REMARK SMILES IDX 8 1 7 2 5 3 6 4 4 6 77 7 90 8 78 9 79 10 3 11 2 12 1 13
REMARK SMILES IDX 80 14 81 15 82 16 83 18 84 19 86 20 89 21 85 22 87 23 88 24
REMARK SMILES IDX 9 25 10 26 11 27 12 28 13 30 14 31 15 32 76 33 16 34 75 35
REMARK SMILES IDX 17 36 18 37 19 38 69 39 20 40 74 41 68 42 70 43 21 44 73 45
REMARK SMILES IDX 67 46 66 47 22 49 54 50 34 51 53 52 35 53 38 54 52 55 71 56
REMARK SMILES IDX 36 57 37 58 51 60 72 61 39 62 23 63 24 64 32 65 25 66 26 67
REMARK SMILES IDX 30 68 33 69 27 70 28 71 31 72 29 73 55 74 56 75 64 76 57 77
REMARK SMILES IDX 58 78 62 79 65 80 59 81 60 82 63 83 61 84 40 85 41 86 49 87
REMARK SMILES IDX 42 88 43 89 47 90 50 91 44 92 45 93 48 94 46 95
REMARK H PARENT 7 5 82 17 11 29 70 48 38 59
REMARK Flexibility Score: inf
ROOT
ATOM      1  C   UNL A   1      37.016  20.900  24.696  1.00  0.00     0.117 C 
ENDROOT
BRANCH   1   2
ATOM      2  N   UNL A   1      35.646  20.459  24.860  1.00  0.00    -0.355 N 
ATOM      3  C   UNL A   1      34.441  21.061  24.964  1.00  0.00     0.228 C 
ATOM      4  O   UNL A   1      33.513  20.285  25.236  1.00  0.00    -0.274 OA
ATOM      5  H   UNL A   1      35.575  19.478  24.908  1.00  0.00     0.163 HD
BRANCH   3   6
ATOM      6  C   UNL A   1      34.131  22.551  24.713  1.00  0.00     0.068 C 
ATOM      7  C   UNL A   1      34.721  23.641  25.600  1.00  0.00     0.040 C 
ATOM      8  C   UNL A   1      32.611  22.730  25.067  1.00  0.00     0.138 C 
ATOM      9  C   UNL A   1      33.931  23.508  26.871  1.00  0.00     0.122 C 
ATOM     10  N   UNL A   1      32.591  23.391  26.387  1.00  0.00    -0.324 N 
BRANCH   6  11
ATOM     11  C   UNL A   1      34.439  22.828  23.212  1.00  0.00     0.018 C 
BRANCH  11  12
ATOM     12  C   UNL A   1      33.225  22.951  22.270  1.00  0.00    -0.002 C 
ATOM     13  C   UNL A   1      32.946  24.342  21.723  1.00  0.00     0.004 C 
ENDBRANCH  11  12
ENDBRANCH   6  11
BRANCH  10  14
ATOM     14  C   UNL A   1      31.466  23.991  26.854  1.00  0.00     0.317 C 
ATOM     15  O   UNL A   1      30.558  23.336  27.369  1.00  0.00    -0.249 OA
ATOM     16  N   UNL A   1      31.270  25.319  26.743  1.00  0.00    -0.335 N 
ATOM     17  H   UNL A   1      30.338  25.562  26.954  1.00  0.00     0.165 HD
BRANCH  16  18
ATOM     18  C   UNL A   1      32.062  26.501  26.398  1.00  0.00     0.152 C 
BRANCH  18  19
ATOM     19  C   UNL A   1      31.911  26.957  24.911  1.00  0.00     0.083 C 
ATOM     20  C   UNL A   1      33.252  26.882  24.172  1.00  0.00     0.039 C 
ATOM     21  O   UNL A   1      31.548  28.356  24.901  1.00  0.00    -0.373 OA
ATOM     22  C   UNL A   1      30.850  26.195  24.118  1.00  0.00     0.044 C 
ATOM     23  C   UNL A   1      33.881  28.217  24.481  1.00  0.00     0.031 C 
ATOM     24  C   UNL A   1      32.686  29.143  24.541  1.00  0.00     0.161 C 
ENDBRANCH  18  19
ENDBRANCH  16  18
ENDBRANCH  10  14
ENDBRANCH   3   6
ENDBRANCH   1   2
BRANCH   1  25
ATOM     25  C   UNL A   1      37.996  19.768  24.969  1.00  0.00     0.042 C 
BRANCH  25  26
ATOM     26  C   UNL A   1      39.061  20.162  25.978  1.00  0.00     0.118 C 
BRANCH  26  27
ATOM     27  N   UNL A   1      40.144  19.186  26.020  1.00  0.00    -0.352 N 
ATOM     28  C   UNL A   1      41.503  19.373  26.031  1.00  0.00     0.251 C 
ATOM     29  H   UNL A   1      39.854  18.246  26.044  1.00  0.00     0.163 HD
ATOM     30  O   UNL A   1      42.249  18.441  25.756  1.00  0.00    -0.269 OA
BRANCH  28  31
ATOM     31  C   UNL A   1      42.066  20.699  26.364  1.00  0.00     0.039 A 
ATOM     32  C   UNL A   1      42.371  21.592  25.334  1.00  0.00     0.014 A 
ATOM     33  C   UNL A   1      42.324  21.048  27.690  1.00  0.00     0.014 A 
ATOM     34  C   UNL A   1      42.874  22.857  25.645  1.00  0.00     0.010 A 
ATOM     35  C   UNL A   1      42.710  22.344  28.004  1.00  0.00     0.010 A 
ATOM     36  C   UNL A   1      43.011  23.256  26.984  1.00  0.00    -0.014 A 
BRANCH  36  37
ATOM     37  C   UNL A   1      43.499  24.608  27.352  1.00  0.00     0.031 A 
ATOM     38  C   UNL A   1      42.539  25.618  27.922  1.00  0.00     0.074 A 
ATOM     39  C   UNL A   1      44.775  24.950  27.091  1.00  0.00     0.049 A 
ATOM     40  N   UNL A   1      42.737  26.881  28.204  1.00  0.00    -0.248 NA
ATOM     41  C   UNL A   1      41.162  25.159  28.173  1.00  0.00     0.031 C 
ATOM     42  C   UNL A   1      45.779  24.076  26.483  1.00  0.00     0.029 A 
ATOM     43  N   UNL A   1      45.442  26.133  27.291  1.00  0.00    -0.354 N 
ATOM     44  C   UNL A   1      41.508  27.368  28.633  1.00  0.00     0.074 A 
ATOM     45  C   UNL A   1      40.558  26.285  28.520  1.00  0.00     0.031 C 
ATOM     46  C   UNL A   1      46.939  24.744  26.378  1.00  0.00     0.029 A 
ATOM     47  C   UNL A   1      46.750  26.104  26.871  1.00  0.00     0.049 A 
ATOM     48  H   UNL A   1      45.023  26.926  27.696  1.00  0.00     0.167 HD
ATOM     49  C   UNL A   1      41.207  28.601  29.104  1.00  0.00     0.037 A 
ATOM     50  C   UNL A   1      47.686  27.072  26.874  1.00  0.00     0.037 A 
ATOM     51  C   UNL A   1      42.171  29.657  29.258  1.00  0.00     0.049 A 
ATOM     52  C   UNL A   1      47.330  28.426  27.426  1.00  0.00     0.074 A 
ATOM     53  C   UNL A   1      41.991  30.915  29.805  1.00  0.00     0.029 A 
ATOM     54  N   UNL A   1      43.497  29.578  28.862  1.00  0.00    -0.354 N 
ATOM     55  N   UNL A   1      46.187  28.850  27.907  1.00  0.00    -0.248 NA
ATOM     56  C   UNL A   1      48.399  29.435  27.444  1.00  0.00     0.031 C 
ATOM     57  C   UNL A   1      43.196  31.614  29.694  1.00  0.00     0.029 A 
ATOM     58  C   UNL A   1      44.143  30.773  29.130  1.00  0.00     0.049 A 
ATOM     59  H   UNL A   1      43.918  28.788  28.451  1.00  0.00     0.167 HD
ATOM     60  C   UNL A   1      46.404  30.161  28.309  1.00  0.00     0.074 A 
ATOM     61  C   UNL A   1      47.794  30.456  28.033  1.00  0.00     0.031 C 
ATOM     62  C   UNL A   1      45.531  31.042  28.857  1.00  0.00     0.037 A 
BRANCH  49  63
ATOM     63  C   UNL A   1      39.783  28.873  29.497  1.00  0.00     0.064 A 
ATOM     64  C   UNL A   1      39.321  28.649  30.803  1.00  0.00     0.173 A 
ATOM     65  C   UNL A   1      38.880  29.406  28.564  1.00  0.00     0.173 A 
ATOM     66  F   UNL A   1      40.140  28.129  31.729  1.00  0.00    -0.203 F 
ATOM     67  C   UNL A   1      38.001  28.922  31.154  1.00  0.00     0.198 A 
ATOM     68  C   UNL A   1      37.570  29.708  28.928  1.00  0.00     0.198 A 
ATOM     69  F   UNL A   1      39.269  29.643  27.303  1.00  0.00    -0.203 F 
ATOM     70  F   UNL A   1      37.570  28.652  32.393  1.00  0.00    -0.200 F 
ATOM     71  C   UNL A   1      37.129  29.460  30.219  1.00  0.00     0.200 A 
ATOM     72  F   UNL A   1      36.732  30.240  28.027  1.00  0.00    -0.200 F 
ATOM     73  F   UNL A   1      35.863  29.733  30.560  1.00  0.00    -0.200 F 
ENDBRANCH  49  63
BRANCH  50  74
ATOM     74  C   UNL A   1      49.051  26.790  26.356  1.00  0.00     0.064 A 
ATOM     75  C   UNL A   1      50.047  26.270  27.195  1.00  0.00     0.173 A 
ATOM     76  C   UNL A   1      49.391  27.037  25.018  1.00  0.00     0.173 A 
ATOM     77  F   UNL A   1      49.777  26.030  28.486  1.00  0.00    -0.203 F 
ATOM     78  C   UNL A   1      51.337  26.035  26.723  1.00  0.00     0.198 A 
ATOM     79  C   UNL A   1      50.672  26.772  24.539  1.00  0.00     0.198 A 
ATOM     80  F   UNL A   1      48.472  27.523  24.170  1.00  0.00    -0.203 F 
ATOM     81  F   UNL A   1      52.282  25.585  27.559  1.00  0.00    -0.200 F 
ATOM     82  C   UNL A   1      51.646  26.280  25.394  1.00  0.00     0.200 A 
ATOM     83  F   UNL A   1      50.961  26.990  23.249  1.00  0.00    -0.200 F 
ATOM     84  F   UNL A   1      52.885  26.049  24.938  1.00  0.00    -0.200 F 
ENDBRANCH  50  74
BRANCH  62  85
ATOM     85  C   UNL A   1      46.062  32.395  29.230  1.00  0.00     0.064 A 
ATOM     86  C   UNL A   1      46.011  33.477  28.339  1.00  0.00     0.173 A 
ATOM     87  C   UNL A   1      46.583  32.622  30.513  1.00  0.00     0.173 A 
ATOM     88  F   UNL A   1      45.536  33.307  27.096  1.00  0.00    -0.203 F 
ATOM     89  C   UNL A   1      46.488  34.731  28.711  1.00  0.00     0.198 A 
ATOM     90  C   UNL A   1      47.026  33.885  30.892  1.00  0.00     0.198 A 
ATOM     91  F   UNL A   1      46.645  31.622  31.405  1.00  0.00    -0.203 F 
ATOM     92  F   UNL A   1      46.476  35.739  27.827  1.00  0.00    -0.200 F 
ATOM     93  C   UNL A   1      46.986  34.936  29.989  1.00  0.00     0.200 A 
ATOM     94  F   UNL A   1      47.493  34.086  32.133  1.00  0.00    -0.200 F 
ATOM     95  F   UNL A   1      47.434  36.148  30.348  1.00  0.00    -0.200 F 
ENDBRANCH  62  85
ENDBRANCH  36  37
ENDBRANCH  28  31
ENDBRANCH  26  27
ENDBRANCH  25  26
ENDBRANCH   1  25
TORSDOF 15
ENDMDL
MODEL 2
REMARK VINA RESULT:     -11.7      5.419     10.988
REMARK SMILES CCC[C@@]1(C(=O)NCCCNC(=O)c2ccc(-c3c4nc(c(-c5c(F)c(F)c(F)c(F)c5F)c5ccc([nH]5)c(-c5c(F)c(F)c(F)c(F)c5F)c5nc(c(-c6c(F)c(F)c(F)c(F)c6F)c6ccc3[nH]6)C=C5)C=C4)cc2)CCN(C(=O)NC[C@]2(C)CCCO2)C1
REMARK SMILES IDX 8 1 7 2 5 3 6 4 4 6 77 7 90 8 78 9 79 10 3 11 2 12 1 13
REMARK SMILES IDX 80 14 81 15 82 16 83 18 84 19 86 20 89 21 85 22 87 23 88 24
REMARK SMILES IDX 9 25 10 26 11 27 12 28 13 30 14 31 15 32 76 33 16 34 75 35
REMARK SMILES IDX 17 36 18 37 19 38 69 39 20 40 74 41 68 42 70 43 21 44 73 45
REMARK SMILES IDX 67 46 66 47 22 49 54 50 34 51 53 52 35 53 38 54 52 55 71 56
REMARK SMILES IDX 36 57 37 58 51 60 72 61 39 62 23 63 24 64 32 65 25 66 26 67
REMARK SMILES IDX 30 68 33 69 27 70 28 71 31 72 29 73 55 74 56 75 64 76 57 77
REMARK SMILES IDX 58 78 62 79 65 80 59 81 60 82 63 83 61 84 40 85 41 86 49 87
REMARK SMILES IDX 42 88 43 89 47 90 50 91 44 92 45 93 48 94 46 95
REMARK H PARENT 7 5 82 17 11 29 70 48 38 59
REMARK Flexibility Score: inf
ROOT
ATOM      1  C   UNL A   1      31.473  30.692  26.260  1.00  0.00     0.117 C 
ENDROOT
BRANCH   1   2
ATOM      2  N   UNL A   1      31.044  30.357  24.917  1.00  0.00    -0.355 N 
ATOM      3  C   UNL A   1      31.140  29.277  24.112  1.00  0.00     0.228 C 
ATOM      4  O   UNL A   1      30.736  29.474  22.956  1.00  0.00    -0.274 OA
ATOM      5  H   UNL A   1      30.563  31.100  24.485  1.00  0.00     0.163 HD
BRANCH   3   6
ATOM      6  C   UNL A   1      31.619  27.867  24.515  1.00  0.00     0.068 C 
ATOM      7  C   UNL A   1      33.101  27.556  24.690  1.00  0.00     0.040 C 
ATOM      8  C   UNL A   1      31.311  26.948  23.278  1.00  0.00     0.138 C 
ATOM      9  C   UNL A   1      33.608  27.519  23.276  1.00  0.00     0.122 C 
ATOM     10  N   UNL A   1      32.612  26.733  22.615  1.00  0.00    -0.324 N 
BRANCH   6  11
ATOM     11  C   UNL A   1      30.812  27.463  25.784  1.00  0.00     0.018 C 
BRANCH  11  12
ATOM     12  C   UNL A   1      31.194  26.124  26.448  1.00  0.00    -0.002 C 
ATOM     13  C   UNL A   1      30.282  24.946  26.142  1.00  0.00     0.004 C 
ENDBRANCH  11  12
ENDBRANCH   6  11
BRANCH  10  14
ATOM     14  C   UNL A   1      32.783  25.735  21.711  1.00  0.00     0.317 C 
ATOM     15  O   UNL A   1      33.277  25.953  20.604  1.00  0.00    -0.249 OA
ATOM     16  N   UNL A   1      32.388  24.472  21.963  1.00  0.00    -0.335 N 
ATOM     17  H   UNL A   1      32.408  23.922  21.146  1.00  0.00     0.165 HD
BRANCH  16  18
ATOM     18  C   UNL A   1      31.938  23.693  23.119  1.00  0.00     0.152 C 
BRANCH  18  19
ATOM     19  C   UNL A   1      33.032  22.750  23.716  1.00  0.00     0.083 C 
ATOM     20  C   UNL A   1      33.337  23.112  25.174  1.00  0.00     0.039 C 
ATOM     21  O   UNL A   1      34.266  22.977  23.000  1.00  0.00    -0.373 OA
ATOM     22  C   UNL A   1      32.705  21.260  23.619  1.00  0.00     0.044 C 
ATOM     23  C   UNL A   1      34.387  24.186  25.040  1.00  0.00     0.031 C 
ATOM     24  C   UNL A   1      35.153  23.752  23.810  1.00  0.00     0.161 C 
ENDBRANCH  18  19
ENDBRANCH  16  18
ENDBRANCH  10  14
ENDBRANCH   3   6
ENDBRANCH   1   2
BRANCH   1  25
ATOM     25  C   UNL A   1      31.405  32.194  26.502  1.00  0.00     0.042 C 
BRANCH  25  26
ATOM     26  C   UNL A   1      32.621  32.711  27.250  1.00  0.00     0.118 C 
BRANCH  26  27
ATOM     27  N   UNL A   1      32.469  34.115  27.610  1.00  0.00    -0.352 N 
ATOM     28  C   UNL A   1      33.010  34.825  28.653  1.00  0.00     0.251 C 
ATOM     29  H   UNL A   1      31.889  34.637  27.010  1.00  0.00     0.163 HD
ATOM     30  O   UNL A   1      32.527  35.905  28.970  1.00  0.00    -0.269 OA
BRANCH  28  31
ATOM     31  C   UNL A   1      34.163  34.281  29.401  1.00  0.00     0.039 A 
ATOM     32  C   UNL A   1      33.941  33.590  30.595  1.00  0.00     0.014 A 
ATOM     33  C   UNL A   1      35.465  34.481  28.941  1.00  0.00     0.014 A 
ATOM     34  C   UNL A   1      35.025  33.048  31.288  1.00  0.00     0.010 A 
ATOM     35  C   UNL A   1      36.527  33.842  29.565  1.00  0.00     0.010 A 
ATOM     36  C   UNL A   1      36.323  33.137  30.759  1.00  0.00    -0.014 A 
BRANCH  36  37
ATOM     37  C   UNL A   1      37.491  32.533  31.445  1.00  0.00     0.031 A 
ATOM     38  C   UNL A   1      38.223  31.385  30.803  1.00  0.00     0.074 A 
ATOM     39  C   UNL A   1      37.834  32.958  32.676  1.00  0.00     0.049 A 
ATOM     40  N   UNL A   1      39.193  30.649  31.283  1.00  0.00    -0.248 NA
ATOM     41  C   UNL A   1      37.779  30.984  29.457  1.00  0.00     0.031 C 
ATOM     42  C   UNL A   1      37.160  34.021  33.424  1.00  0.00     0.029 A 
ATOM     43  N   UNL A   1      38.828  32.536  33.523  1.00  0.00    -0.354 N 
ATOM     44  C   UNL A   1      39.450  29.687  30.315  1.00  0.00     0.074 A 
ATOM     45  C   UNL A   1      38.499  29.893  29.246  1.00  0.00     0.031 C 
ATOM     46  C   UNL A   1      37.771  34.182  34.609  1.00  0.00     0.029 A 
ATOM     47  C   UNL A   1      38.852  33.207  34.722  1.00  0.00     0.049 A 
ATOM     48  H   UNL A   1      39.463  31.821  33.294  1.00  0.00     0.167 HD
ATOM     49  C   UNL A   1      40.412  28.734  30.306  1.00  0.00     0.037 A 
ATOM     50  C   UNL A   1      39.650  33.046  35.794  1.00  0.00     0.037 A 
ATOM     51  C   UNL A   1      41.385  28.568  31.352  1.00  0.00     0.049 A 
ATOM     52  C   UNL A   1      40.726  31.995  35.748  1.00  0.00     0.074 A 
ATOM     53  C   UNL A   1      42.454  27.692  31.404  1.00  0.00     0.029 A 
ATOM     54  N   UNL A   1      41.404  29.296  32.533  1.00  0.00    -0.354 N 
ATOM     55  N   UNL A   1      41.014  31.146  34.791  1.00  0.00    -0.248 NA
ATOM     56  C   UNL A   1      41.596  31.885  36.927  1.00  0.00     0.031 C 
ATOM     57  C   UNL A   1      43.091  27.856  32.638  1.00  0.00     0.029 A 
ATOM     58  C   UNL A   1      42.453  28.872  33.331  1.00  0.00     0.049 A 
ATOM     59  H   UNL A   1      40.767  30.008  32.769  1.00  0.00     0.167 HD
ATOM     60  C   UNL A   1      42.110  30.423  35.239  1.00  0.00     0.074 A 
ATOM     61  C   UNL A   1      42.448  30.945  36.547  1.00  0.00     0.031 C 
ATOM     62  C   UNL A   1      42.778  29.415  34.625  1.00  0.00     0.037 A 
BRANCH  49  63
ATOM     63  C   UNL A   1      40.468  27.804  29.128  1.00  0.00     0.064 A 
ATOM     64  C   UNL A   1      41.298  28.058  28.025  1.00  0.00     0.173 A 
ATOM     65  C   UNL A   1      39.712  26.622  29.121  1.00  0.00     0.173 A 
ATOM     66  F   UNL A   1      42.032  29.179  27.976  1.00  0.00    -0.203 F 
ATOM     67  C   UNL A   1      41.350  27.176  26.948  1.00  0.00     0.198 A 
ATOM     68  C   UNL A   1      39.791  25.727  28.057  1.00  0.00     0.198 A 
ATOM     69  F   UNL A   1      38.905  26.328  30.150  1.00  0.00    -0.203 F 
ATOM     70  F   UNL A   1      42.112  27.465  25.885  1.00  0.00    -0.200 F 
ATOM     71  C   UNL A   1      40.604  26.008  26.969  1.00  0.00     0.200 A 
ATOM     72  F   UNL A   1      39.080  24.592  28.084  1.00  0.00    -0.200 F 
ATOM     73  F   UNL A   1      40.662  25.155  25.937  1.00  0.00    -0.200 F 
ENDBRANCH  49  63
BRANCH  50  74
ATOM     74  C   UNL A   1      39.473  33.909  36.991  1.00  0.00     0.064 A 
ATOM     75  C   UNL A   1      38.726  33.470  38.093  1.00  0.00     0.173 A 
ATOM     76  C   UNL A   1      40.041  35.191  37.059  1.00  0.00     0.173 A 
ATOM     77  F   UNL A   1      38.151  32.258  38.071  1.00  0.00    -0.203 F 
ATOM     78  C   UNL A   1      38.530  34.288  39.204  1.00  0.00     0.198 A 
ATOM     79  C   UNL A   1      39.870  35.995  38.183  1.00  0.00     0.198 A 
ATOM     80  F   UNL A   1      40.775  35.655  36.038  1.00  0.00    -0.203 F 
ATOM     81  F   UNL A   1      37.769  33.861  40.221  1.00  0.00    -0.200 F 
ATOM     82  C   UNL A   1      39.107  35.548  39.251  1.00  0.00     0.200 A 
ATOM     83  F   UNL A   1      40.448  37.203  38.233  1.00  0.00    -0.200 F 
ATOM     84  F   UNL A   1      38.923  36.333  40.321  1.00  0.00    -0.200 F 
ENDBRANCH  50  74
BRANCH  62  85
ATOM     85  C   UNL A   1      43.963  28.838  35.341  1.00  0.00     0.064 A 
ATOM     86  C   UNL A   1      45.259  29.339  35.145  1.00  0.00     0.173 A 
ATOM     87  C   UNL A   1      43.792  27.800  36.271  1.00  0.00     0.173 A 
ATOM     88  F   UNL A   1      45.476  30.320  34.256  1.00  0.00    -0.203 F 
ATOM     89  C   UNL A   1      46.343  28.805  35.835  1.00  0.00     0.198 A 
ATOM     90  C   UNL A   1      44.875  27.293  36.984  1.00  0.00     0.198 A 
ATOM     91  F   UNL A   1      42.573  27.292  36.501  1.00  0.00    -0.203 F 
ATOM     92  F   UNL A   1      47.579  29.266  35.597  1.00  0.00    -0.200 F 
ATOM     93  C   UNL A   1      46.149  27.790  36.760  1.00  0.00     0.200 A 
ATOM     94  F   UNL A   1      44.683  26.322  37.889  1.00  0.00    -0.200 F 
ATOM     95  F   UNL A   1      47.194  27.285  37.432  1.00  0.00    -0.200 F 
ENDBRANCH  62  85
ENDBRANCH  36  37
ENDBRANCH  28  31
ENDBRANCH  26  27
ENDBRANCH  25  26
ENDBRANCH   1  25
TORSDOF 15
ENDMDL
MODEL 3
REMARK VINA RESULT:     -11.7      4.389     10.717
REMARK SMILES CCC[C@@]1(C(=O)NCCCNC(=O)c2ccc(-c3c4nc(c(-c5c(F)c(F)c(F)c(F)c5F)c5ccc([nH]5)c(-c5c(F)c(F)c(F)c(F)c5F)c5nc(c(-c6c(F)c(F)c(F)c(F)c6F)c6ccc3[nH]6)C=C5)C=C4)cc2)CCN(C(=O)NC[C@]2(C)CCCO2)C1
REMARK SMILES IDX 8 1 7 2 5 3 6 4 4 6 77 7 90 8 78 9 79 10 3 11 2 12 1 13
REMARK SMILES IDX 80 14 81 15 82 16 83 18 84 19 86 20 89 21 85 22 87 23 88 24
REMARK SMILES IDX 9 25 10 26 11 27 12 28 13 30 14 31 15 32 76 33 16 34 75 35
REMARK SMILES IDX 17 36 18 37 19 38 69 39 20 40 74 41 68 42 70 43 21 44 73 45
REMARK SMILES IDX 67 46 66 47 22 49 54 50 34 51 53 52 35 53 38 54 52 55 71 56
REMARK SMILES IDX 36 57 37 58 51 60 72 61 39 62 23 63 24 64 32 65 25 66 26 67
REMARK SMILES IDX 30 68 33 69 27 70 28 71 31 72 29 73 55 74 56 75 64 76 57 77
REMARK SMILES IDX 58 78 62 79 65 80 59 81 60 82 63 83 61 84 40 85 41 86 49 87
REMARK SMILES IDX 42 88 43 89 47 90 50 91 44 92 45 93 48 94 46 95
REMARK H PARENT 7 5 82 17 11 29 70 48 38 59
REMARK Flexibility Score: inf
ROOT
ATOM      1  C   UNL A   1      43.842  21.994  25.826  1.00  0.00     0.117 C 
ENDROOT
BRANCH   1   2
ATOM      2  N   UNL A   1      44.900  22.531  24.994  1.00  0.00    -0.355 N 
ATOM      3  C   UNL A   1      45.632  23.666  24.972  1.00  0.00     0.228 C 
ATOM      4  O   UNL A   1      46.360  23.775  23.974  1.00  0.00    -0.274 OA
ATOM      5  H   UNL A   1      45.146  21.917  24.264  1.00  0.00     0.163 HD
BRANCH   3   6
ATOM      6  C   UNL A   1      45.686  24.749  26.069  1.00  0.00     0.068 C 
ATOM      7  C   UNL A   1      44.463  25.594  26.406  1.00  0.00     0.040 C 
ATOM      8  C   UNL A   1      46.625  25.874  25.504  1.00  0.00     0.138 C 
ATOM      9  C   UNL A   1      44.366  26.532  25.236  1.00  0.00     0.122 C 
ATOM     10  N   UNL A   1      45.721  26.961  25.077  1.00  0.00    -0.324 N 
BRANCH   6  11
ATOM     11  C   UNL A   1      46.260  24.067  27.346  1.00  0.00     0.018 C 
BRANCH  11  12
ATOM     12  C   UNL A   1      45.554  24.393  28.678  1.00  0.00    -0.002 C 
ATOM     13  C   UNL A   1      44.601  23.330  29.203  1.00  0.00     0.004 C 
ENDBRANCH  11  12
ENDBRANCH   6  11
BRANCH  10  14
ATOM     14  C   UNL A   1      46.191  28.214  24.843  1.00  0.00     0.317 C 
ATOM     15  O   UNL A   1      46.637  28.534  23.740  1.00  0.00    -0.249 OA
ATOM     16  N   UNL A   1      46.228  29.151  25.810  1.00  0.00    -0.335 N 
ATOM     17  H   UNL A   1      46.765  29.929  25.532  1.00  0.00     0.165 HD
BRANCH  16  18
ATOM     18  C   UNL A   1      45.688  29.331  27.159  1.00  0.00     0.152 C 
BRANCH  18  19
ATOM     19  C   UNL A   1      44.522  30.366  27.246  1.00  0.00     0.083 C 
ATOM     20  C   UNL A   1      44.846  31.633  26.447  1.00  0.00     0.039 C 
ATOM     21  O   UNL A   1      44.403  30.801  28.619  1.00  0.00    -0.373 OA
ATOM     22  C   UNL A   1      43.160  29.825  26.811  1.00  0.00     0.044 C 
ATOM     23  C   UNL A   1      45.615  32.468  27.440  1.00  0.00     0.031 C 
ATOM     24  C   UNL A   1      44.958  32.112  28.755  1.00  0.00     0.161 C 
ENDBRANCH  18  19
ENDBRANCH  16  18
ENDBRANCH  10  14
ENDBRANCH   3   6
ENDBRANCH   1   2
BRANCH   1  25
ATOM     25  C   UNL A   1      42.487  22.566  25.431  1.00  0.00     0.042 C 
BRANCH  25  26
ATOM     26  C   UNL A   1      41.393  22.178  26.410  1.00  0.00     0.118 C 
BRANCH  26  27
ATOM     27  N   UNL A   1      40.068  22.460  25.870  1.00  0.00    -0.352 N 
ATOM     28  C   UNL A   1      39.168  23.440  26.203  1.00  0.00     0.251 C 
ATOM     29  H   UNL A   1      39.775  21.852  25.153  1.00  0.00     0.163 HD
ATOM     30  O   UNL A   1      37.995  23.331  25.863  1.00  0.00    -0.269 OA
BRANCH  28  31
ATOM     31  C   UNL A   1      39.607  24.618  26.980  1.00  0.00     0.039 A 
ATOM     32  C   UNL A   1      40.376  25.603  26.355  1.00  0.00     0.014 A 
ATOM     33  C   UNL A   1      39.288  24.735  28.333  1.00  0.00     0.014 A 
ATOM     34  C   UNL A   1      40.766  26.733  27.077  1.00  0.00     0.010 A 
ATOM     35  C   UNL A   1      39.573  25.910  29.014  1.00  0.00     0.010 A 
ATOM     36  C   UNL A   1      40.336  26.913  28.401  1.00  0.00    -0.014 A 
BRANCH  36  37
ATOM     37  C   UNL A   1      40.694  28.122  29.182  1.00  0.00     0.031 A 
ATOM     38  C   UNL A   1      42.048  28.217  29.832  1.00  0.00     0.074 A 
ATOM     39  C   UNL A   1      39.774  29.087  29.377  1.00  0.00     0.049 A 
ATOM     40  N   UNL A   1      42.515  29.132  30.643  1.00  0.00    -0.248 NA
ATOM     41  C   UNL A   1      42.990  27.116  29.567  1.00  0.00     0.031 C 
ATOM     42  C   UNL A   1      38.408  29.075  28.849  1.00  0.00     0.029 A 
ATOM     43  N   UNL A   1      39.845  30.258  30.088  1.00  0.00    -0.354 N 
ATOM     44  C   UNL A   1      43.785  28.701  31.005  1.00  0.00     0.074 A 
ATOM     45  C   UNL A   1      43.996  27.418  30.375  1.00  0.00     0.031 C 
ATOM     46  C   UNL A   1      37.777  30.195  29.236  1.00  0.00     0.029 A 
ATOM     47  C   UNL A   1      38.677  30.983  30.073  1.00  0.00     0.049 A 
ATOM     48  H   UNL A   1      40.654  30.553  30.563  1.00  0.00     0.167 HD
ATOM     49  C   UNL A   1      44.704  29.333  31.772  1.00  0.00     0.037 A 
ATOM     50  C   UNL A   1      38.366  32.145  30.676  1.00  0.00     0.037 A 
ATOM     51  C   UNL A   1      44.504  30.632  32.356  1.00  0.00     0.049 A 
ATOM     52  C   UNL A   1      39.414  32.838  31.504  1.00  0.00     0.074 A 
ATOM     53  C   UNL A   1      45.399  31.400  33.078  1.00  0.00     0.029 A 
ATOM     54  N   UNL A   1      43.323  31.355  32.283  1.00  0.00    -0.354 N 
ATOM     55  N   UNL A   1      40.641  32.461  31.771  1.00  0.00    -0.248 NA
ATOM     56  C   UNL A   1      39.038  34.123  32.109  1.00  0.00     0.031 C 
ATOM     57  C   UNL A   1      44.743  32.566  33.485  1.00  0.00     0.029 A 
ATOM     58  C   UNL A   1      43.457  32.551  32.968  1.00  0.00     0.049 A 
ATOM     59  H   UNL A   1      42.508  31.062  31.814  1.00  0.00     0.167 HD
ATOM     60  C   UNL A   1      41.191  33.472  32.547  1.00  0.00     0.074 A 
ATOM     61  C   UNL A   1      40.169  34.487  32.694  1.00  0.00     0.031 C 
ATOM     62  C   UNL A   1      42.430  33.553  33.092  1.00  0.00     0.037 A 
BRANCH  49  63
ATOM     63  C   UNL A   1      46.012  28.636  32.018  1.00  0.00     0.064 A 
ATOM     64  C   UNL A   1      47.125  28.841  31.189  1.00  0.00     0.173 A 
ATOM     65  C   UNL A   1      46.165  27.785  33.124  1.00  0.00     0.173 A 
ATOM     66  F   UNL A   1      47.029  29.634  30.112  1.00  0.00    -0.203 F 
ATOM     67  C   UNL A   1      48.335  28.198  31.441  1.00  0.00     0.198 A 
ATOM     68  C   UNL A   1      47.386  27.171  33.391  1.00  0.00     0.198 A 
ATOM     69  F   UNL A   1      45.135  27.558  33.952  1.00  0.00    -0.203 F 
ATOM     70  F   UNL A   1      49.369  28.370  30.607  1.00  0.00    -0.200 F 
ATOM     71  C   UNL A   1      48.467  27.371  32.547  1.00  0.00     0.200 A 
ATOM     72  F   UNL A   1      47.516  26.382  34.468  1.00  0.00    -0.200 F 
ATOM     73  F   UNL A   1      49.635  26.763  32.795  1.00  0.00    -0.200 F 
ENDBRANCH  49  63
BRANCH  50  74
ATOM     74  C   UNL A   1      37.012  32.734  30.505  1.00  0.00     0.064 A 
ATOM     75  C   UNL A   1      36.695  33.494  29.371  1.00  0.00     0.173 A 
ATOM     76  C   UNL A   1      36.009  32.556  31.471  1.00  0.00     0.173 A 
ATOM     77  F   UNL A   1      37.622  33.706  28.426  1.00  0.00    -0.203 F 
ATOM     78  C   UNL A   1      35.437  34.076  29.221  1.00  0.00     0.198 A 
ATOM     79  C   UNL A   1      34.743  33.113  31.304  1.00  0.00     0.198 A 
ATOM     80  F   UNL A   1      36.256  31.828  32.569  1.00  0.00    -0.203 F 
ATOM     81  F   UNL A   1      35.178  34.839  28.150  1.00  0.00    -0.200 F 
ATOM     82  C   UNL A   1      34.460  33.880  30.185  1.00  0.00     0.200 A 
ATOM     83  F   UNL A   1      33.795  32.902  32.228  1.00  0.00    -0.200 F 
ATOM     84  F   UNL A   1      33.249  34.435  30.039  1.00  0.00    -0.200 F 
ENDBRANCH  50  74
BRANCH  62  85
ATOM     85  C   UNL A   1      42.763  34.795  33.864  1.00  0.00     0.064 A 
ATOM     86  C   UNL A   1      43.180  35.971  33.222  1.00  0.00     0.173 A 
ATOM     87  C   UNL A   1      42.617  34.823  35.260  1.00  0.00     0.173 A 
ATOM     88  F   UNL A   1      43.349  35.991  31.891  1.00  0.00    -0.203 F 
ATOM     89  C   UNL A   1      43.464  37.122  33.953  1.00  0.00     0.198 A 
ATOM     90  C   UNL A   1      42.869  35.985  35.982  1.00  0.00     0.198 A 
ATOM     91  F   UNL A   1      42.214  33.727  35.919  1.00  0.00    -0.203 F 
ATOM     92  F   UNL A   1      43.907  38.219  33.325  1.00  0.00    -0.200 F 
ATOM     93  C   UNL A   1      43.299  37.130  35.330  1.00  0.00     0.200 A 
ATOM     94  F   UNL A   1      42.694  35.996  37.311  1.00  0.00    -0.200 F 
ATOM     95  F   UNL A   1      43.562  38.242  36.031  1.00  0.00    -0.200 F 
ENDBRANCH  62  85
ENDBRANCH  36  37
ENDBRANCH  28  31
ENDBRANCH  26  27
ENDBRANCH  25  26
ENDBRANCH   1  25
TORSDOF 15
ENDMDL
