MODEL 1
REMARK VINA RESULT:     -10.6      0.000      0.000
REMARK SMILES CSc1nc(C2CC2)nc(C)c1C(=O)NCCCNC(=O)c1ccc(-c2c3nc(c(-c4c(F)c(F)c(F)c(F)c4F)c4ccc([nH]4)c(-c4c(F)c(F)c(F)c(F)c4F)c4nc(c(-c5c(F)c(F)c(F)c(F)c5F)c5ccc2[nH]5)C=C4)C=C3)cc1
REMARK SMILES IDX 17 1 16 2 15 3 13 4 14 5 12 7 3 8 4 9 5 10 10 11 9 12 11 13
REMARK SMILES IDX 2 14 1 15 6 16 7 17 8 18 18 19 19 20 20 21 21 23 22 24 23 25
REMARK SMILES IDX 84 26 24 27 83 28 25 29 26 30 27 31 77 32 28 33 82 34 76 35
REMARK SMILES IDX 78 36 29 37 81 38 75 39 74 40 30 42 62 43 42 44 61 45 43 46
REMARK SMILES IDX 46 47 60 48 79 49 44 50 45 51 59 53 80 54 47 55 31 56 32 57
REMARK SMILES IDX 40 58 33 59 34 60 38 61 41 62 35 63 36 64 39 65 37 66 63 67
REMARK SMILES IDX 64 68 72 69 65 70 66 71 70 72 73 73 67 74 68 75 71 76 69 77
REMARK SMILES IDX 48 78 49 79 57 80 50 81 51 82 55 83 58 84 52 85 53 86 56 87
REMARK SMILES IDX 54 88
REMARK H PARENT 15 6 19 22 78 41 46 52
REMARK Flexibility Score: inf
ROOT
ATOM      1  C   UNL A   1      40.850  20.291  26.952  1.00  0.00     0.042 C 
ENDROOT
BRANCH   1   2
ATOM      2  C   UNL A   1      42.359  20.132  26.694  1.00  0.00     0.118 C 
BRANCH   2   3
ATOM      3  N   UNL A   1      42.742  20.966  25.570  1.00  0.00    -0.352 N 
ATOM      4  C   UNL A   1      43.350  22.189  25.437  1.00  0.00     0.255 C 
ATOM      5  O   UNL A   1      43.037  22.775  24.396  1.00  0.00    -0.269 OA
ATOM      6  H   UNL A   1      42.513  20.561  24.703  1.00  0.00     0.163 HD
BRANCH   4   7
ATOM      7  C   UNL A   1      44.363  22.814  26.341  1.00  0.00     0.093 A 
ATOM      8  C   UNL A   1      45.695  22.897  25.891  1.00  0.00     0.113 A 
ATOM      9  N   UNL A   1      46.684  23.564  26.546  1.00  0.00    -0.225 NA
ATOM     10  C   UNL A   1      46.377  24.201  27.675  1.00  0.00     0.133 A 
ATOM     11  C   UNL A   1      44.157  23.483  27.542  1.00  0.00     0.055 A 
ATOM     12  N   UNL A   1      45.154  24.130  28.202  1.00  0.00    -0.237 NA
ATOM     13  C   UNL A   1      42.885  23.783  28.246  1.00  0.00     0.068 C 
BRANCH   8  14
ATOM     14  S   UNL A   1      46.340  22.235  24.350  1.00  0.00    -0.109 SA
ATOM     15  C   UNL A   1      46.346  20.478  24.751  1.00  0.00     0.092 C 
ENDBRANCH   8  14
BRANCH  10  16
ATOM     16  C   UNL A   1      47.351  25.122  28.359  1.00  0.00     0.058 C 
ATOM     17  C   UNL A   1      48.831  25.113  28.086  1.00  0.00     0.012 C 
ATOM     18  C   UNL A   1      47.988  26.225  27.536  1.00  0.00     0.012 C 
ENDBRANCH  10  16
ENDBRANCH   4   7
ENDBRANCH   2   3
ENDBRANCH   1   2
BRANCH   1  19
ATOM     19  C   UNL A   1      40.396  21.711  27.244  1.00  0.00     0.118 C 
BRANCH  19  20
ATOM     20  N   UNL A   1      39.445  22.170  26.246  1.00  0.00    -0.352 N 
ATOM     21  C   UNL A   1      38.801  23.374  26.148  1.00  0.00     0.251 C 
ATOM     22  H   UNL A   1      39.233  21.521  25.537  1.00  0.00     0.163 HD
ATOM     23  O   UNL A   1      37.804  23.465  25.419  1.00  0.00    -0.269 OA
BRANCH  21  24
ATOM     24  C   UNL A   1      39.268  24.562  26.894  1.00  0.00     0.039 A 
ATOM     25  C   UNL A   1      40.083  25.495  26.244  1.00  0.00     0.014 A 
ATOM     26  C   UNL A   1      38.958  24.737  28.246  1.00  0.00     0.014 A 
ATOM     27  C   UNL A   1      40.550  26.616  26.935  1.00  0.00     0.010 A 
ATOM     28  C   UNL A   1      39.351  25.895  28.909  1.00  0.00     0.010 A 
ATOM     29  C   UNL A   1      40.165  26.839  28.266  1.00  0.00    -0.014 A 
BRANCH  29  30
ATOM     30  C   UNL A   1      40.610  28.045  29.007  1.00  0.00     0.031 A 
ATOM     31  C   UNL A   1      42.011  28.125  29.546  1.00  0.00     0.074 A 
ATOM     32  C   UNL A   1      39.729  29.033  29.258  1.00  0.00     0.049 A 
ATOM     33  N   UNL A   1      42.564  29.050  30.289  1.00  0.00    -0.248 NA
ATOM     34  C   UNL A   1      42.904  26.997  29.233  1.00  0.00     0.031 C 
ATOM     35  C   UNL A   1      38.329  29.042  28.830  1.00  0.00     0.029 A 
ATOM     36  N   UNL A   1      39.875  30.210  29.946  1.00  0.00    -0.354 N 
ATOM     37  C   UNL A   1      43.855  28.607  30.548  1.00  0.00     0.074 A 
ATOM     38  C   UNL A   1      43.988  27.307  29.928  1.00  0.00     0.031 C 
ATOM     39  C   UNL A   1      37.751  30.178  29.248  1.00  0.00     0.029 A 
ATOM     40  C   UNL A   1      38.724  30.957  30.008  1.00  0.00     0.049 A 
ATOM     41  H   UNL A   1      40.724  30.493  30.357  1.00  0.00     0.167 HD
ATOM     42  C   UNL A   1      44.845  29.240  31.223  1.00  0.00     0.037 A 
ATOM     43  C   UNL A   1      38.479  32.132  30.619  1.00  0.00     0.037 A 
ATOM     44  C   UNL A   1      44.709  30.546  31.813  1.00  0.00     0.049 A 
ATOM     45  C   UNL A   1      39.594  32.813  31.362  1.00  0.00     0.074 A 
ATOM     46  C   UNL A   1      45.669  31.307  32.454  1.00  0.00     0.029 A 
ATOM     47  N   UNL A   1      43.533  31.281  31.837  1.00  0.00    -0.354 N 
ATOM     48  N   UNL A   1      40.834  32.421  31.536  1.00  0.00    -0.248 NA
ATOM     49  C   UNL A   1      39.280  34.103  31.989  1.00  0.00     0.031 C 
ATOM     50  C   UNL A   1      45.061  32.480  32.913  1.00  0.00     0.029 A 
ATOM     51  C   UNL A   1      43.735  32.477  32.508  1.00  0.00     0.049 A 
ATOM     52  H   UNL A   1      42.679  30.996  31.436  1.00  0.00     0.167 HD
ATOM     53  C   UNL A   1      41.452  33.424  32.270  1.00  0.00     0.074 A 
ATOM     54  C   UNL A   1      40.456  34.450  32.493  1.00  0.00     0.031 C 
ATOM     55  C   UNL A   1      42.730  33.486  32.719  1.00  0.00     0.037 A 
BRANCH  42  56
ATOM     56  C   UNL A   1      46.160  28.525  31.359  1.00  0.00     0.064 A 
ATOM     57  C   UNL A   1      46.395  27.597  32.384  1.00  0.00     0.173 A 
ATOM     58  C   UNL A   1      47.192  28.752  30.434  1.00  0.00     0.173 A 
ATOM     59  F   UNL A   1      45.447  27.349  33.301  1.00  0.00    -0.203 F 
ATOM     60  C   UNL A   1      47.623  26.952  32.502  1.00  0.00     0.198 A 
ATOM     61  C   UNL A   1      48.407  28.080  30.535  1.00  0.00     0.198 A 
ATOM     62  F   UNL A   1      47.020  29.625  29.429  1.00  0.00    -0.203 F 
ATOM     63  F   UNL A   1      47.843  26.113  33.524  1.00  0.00    -0.200 F 
ATOM     64  C   UNL A   1      48.626  27.189  31.574  1.00  0.00     0.200 A 
ATOM     65  F   UNL A   1      49.370  28.300  29.629  1.00  0.00    -0.200 F 
ATOM     66  F   UNL A   1      49.806  26.563  31.686  1.00  0.00    -0.200 F 
ENDBRANCH  42  56
BRANCH  43  67
ATOM     67  C   UNL A   1      37.127  32.742  30.530  1.00  0.00     0.064 A 
ATOM     68  C   UNL A   1      36.766  33.535  29.432  1.00  0.00     0.173 A 
ATOM     69  C   UNL A   1      36.164  32.535  31.528  1.00  0.00     0.173 A 
ATOM     70  F   UNL A   1      37.659  33.778  28.460  1.00  0.00    -0.203 F 
ATOM     71  C   UNL A   1      35.500  34.111  29.343  1.00  0.00     0.198 A 
ATOM     72  C   UNL A   1      34.888  33.086  31.424  1.00  0.00     0.198 A 
ATOM     73  F   UNL A   1      36.455  31.776  32.595  1.00  0.00    -0.203 F 
ATOM     74  F   UNL A   1      35.196  34.896  28.302  1.00  0.00    -0.200 F 
ATOM     75  C   UNL A   1      34.560  33.879  30.335  1.00  0.00     0.200 A 
ATOM     76  F   UNL A   1      33.977  32.845  32.377  1.00  0.00    -0.200 F 
ATOM     77  F   UNL A   1      33.339  34.423  30.245  1.00  0.00    -0.200 F 
ENDBRANCH  43  67
BRANCH  55  78
ATOM     78  C   UNL A   1      43.131  34.720  33.475  1.00  0.00     0.064 A 
ATOM     79  C   UNL A   1      43.532  35.890  32.813  1.00  0.00     0.173 A 
ATOM     80  C   UNL A   1      43.070  34.745  34.877  1.00  0.00     0.173 A 
ATOM     81  F   UNL A   1      43.621  35.911  31.475  1.00  0.00    -0.203 F 
ATOM     82  C   UNL A   1      43.879  37.033  33.528  1.00  0.00     0.198 A 
ATOM     83  C   UNL A   1      43.387  35.899  35.587  1.00  0.00     0.198 A 
ATOM     84  F   UNL A   1      42.687  33.653  35.557  1.00  0.00    -0.203 F 
ATOM     85  F   UNL A   1      44.303  38.125  32.878  1.00  0.00    -0.200 F 
ATOM     86  C   UNL A   1      43.798  37.039  34.913  1.00  0.00     0.200 A 
ATOM     87  F   UNL A   1      43.294  35.907  36.924  1.00  0.00    -0.200 F 
ATOM     88  F   UNL A   1      44.123  38.144  35.600  1.00  0.00    -0.200 F 
ENDBRANCH  55  78
ENDBRANCH  29  30
ENDBRANCH  21  24
ENDBRANCH  19  20
ENDBRANCH   1  19
TORSDOF 12
ENDMDL
MODEL 2
REMARK VINA RESULT:     -10.3      3.434      6.154
REMARK SMILES CSc1nc(C2CC2)nc(C)c1C(=O)NCCCNC(=O)c1ccc(-c2c3nc(c(-c4c(F)c(F)c(F)c(F)c4F)c4ccc([nH]4)c(-c4c(F)c(F)c(F)c(F)c4F)c4nc(c(-c5c(F)c(F)c(F)c(F)c5F)c5ccc2[nH]5)C=C4)C=C3)cc1
REMARK SMILES IDX 17 1 16 2 15 3 13 4 14 5 12 7 3 8 4 9 5 10 10 11 9 12 11 13
REMARK SMILES IDX 2 14 1 15 6 16 7 17 8 18 18 19 19 20 20 21 21 23 22 24 23 25
REMARK SMILES IDX 84 26 24 27 83 28 25 29 26 30 27 31 77 32 28 33 82 34 76 35
REMARK SMILES IDX 78 36 29 37 81 38 75 39 74 40 30 42 62 43 42 44 61 45 43 46
REMARK SMILES IDX 46 47 60 48 79 49 44 50 45 51 59 53 80 54 47 55 31 56 32 57
REMARK SMILES IDX 40 58 33 59 34 60 38 61 41 62 35 63 36 64 39 65 37 66 63 67
REMARK SMILES IDX 64 68 72 69 65 70 66 71 70 72 73 73 67 74 68 75 71 76 69 77
REMARK SMILES IDX 48 78 49 79 57 80 50 81 51 82 55 83 58 84 52 85 53 86 56 87
REMARK SMILES IDX 54 88
REMARK H PARENT 15 6 19 22 78 41 46 52
REMARK Flexibility Score: inf
ROOT
ATOM      1  C   UNL A   1      35.791  23.321  24.415  1.00  0.00     0.042 C 
ENDROOT
BRANCH   1   2
ATOM      2  C   UNL A   1      34.805  22.140  24.468  1.00  0.00     0.118 C 
BRANCH   2   3
ATOM      3  N   UNL A   1      33.642  22.452  23.659  1.00  0.00    -0.352 N 
ATOM      4  C   UNL A   1      32.551  23.272  23.811  1.00  0.00     0.255 C 
ATOM      5  O   UNL A   1      31.562  22.884  23.182  1.00  0.00    -0.269 OA
ATOM      6  H   UNL A   1      33.632  21.963  22.806  1.00  0.00     0.163 HD
BRANCH   4   7
ATOM      7  C   UNL A   1      32.471  24.564  24.558  1.00  0.00     0.093 A 
ATOM      8  C   UNL A   1      32.006  24.536  25.888  1.00  0.00     0.113 A 
ATOM      9  N   UNL A   1      32.018  25.608  26.725  1.00  0.00    -0.225 NA
ATOM     10  C   UNL A   1      32.518  26.757  26.273  1.00  0.00     0.133 A 
ATOM     11  C   UNL A   1      32.940  25.815  24.177  1.00  0.00     0.055 A 
ATOM     12  N   UNL A   1      32.930  26.888  25.011  1.00  0.00    -0.237 NA
ATOM     13  C   UNL A   1      33.667  26.214  22.945  1.00  0.00     0.068 C 
BRANCH   8  14
ATOM     14  S   UNL A   1      31.400  23.093  26.772  1.00  0.00    -0.109 SA
ATOM     15  C   UNL A   1      32.926  22.557  27.564  1.00  0.00     0.092 C 
ENDBRANCH   8  14
BRANCH  10  16
ATOM     16  C   UNL A   1      32.752  27.935  27.182  1.00  0.00     0.058 C 
ATOM     17  C   UNL A   1      33.068  29.318  26.681  1.00  0.00     0.012 C 
ATOM     18  C   UNL A   1      31.700  29.025  27.223  1.00  0.00     0.012 C 
ENDBRANCH  10  16
ENDBRANCH   4   7
ENDBRANCH   2   3
ENDBRANCH   1   2
BRANCH   1  19
ATOM     19  C   UNL A   1      36.484  23.635  25.730  1.00  0.00     0.118 C 
BRANCH  19  20
ATOM     20  N   UNL A   1      37.498  22.640  26.036  1.00  0.00    -0.352 N 
ATOM     21  C   UNL A   1      38.795  22.814  26.437  1.00  0.00     0.251 C 
ATOM     22  H   UNL A   1      37.210  21.703  25.941  1.00  0.00     0.163 HD
ATOM     23  O   UNL A   1      39.586  21.866  26.346  1.00  0.00    -0.269 OA
BRANCH  21  24
ATOM     24  C   UNL A   1      39.269  24.109  26.973  1.00  0.00     0.039 A 
ATOM     25  C   UNL A   1      39.937  24.993  26.120  1.00  0.00     0.014 A 
ATOM     26  C   UNL A   1      39.112  24.435  28.324  1.00  0.00     0.014 A 
ATOM     27  C   UNL A   1      40.409  26.214  26.609  1.00  0.00     0.010 A 
ATOM     28  C   UNL A   1      39.504  25.685  28.791  1.00  0.00     0.010 A 
ATOM     29  C   UNL A   1      40.171  26.582  27.943  1.00  0.00    -0.014 A 
BRANCH  29  30
ATOM     30  C   UNL A   1      40.621  27.892  28.475  1.00  0.00     0.031 A 
ATOM     31  C   UNL A   1      42.064  28.102  28.840  1.00  0.00     0.074 A 
ATOM     32  C   UNL A   1      39.716  28.864  28.698  1.00  0.00     0.049 A 
ATOM     33  N   UNL A   1      42.637  29.140  29.397  1.00  0.00    -0.248 NA
ATOM     34  C   UNL A   1      42.983  26.984  28.572  1.00  0.00     0.031 C 
ATOM     35  C   UNL A   1      38.281  28.757  28.430  1.00  0.00     0.029 A 
ATOM     36  N   UNL A   1      39.865  30.126  29.213  1.00  0.00    -0.354 N 
ATOM     37  C   UNL A   1      43.972  28.791  29.563  1.00  0.00     0.074 A 
ATOM     38  C   UNL A   1      44.114  27.428  29.098  1.00  0.00     0.031 C 
ATOM     39  C   UNL A   1      37.685  29.911  28.765  1.00  0.00     0.029 A 
ATOM     40  C   UNL A   1      38.686  30.824  29.310  1.00  0.00     0.049 A 
ATOM     41  H   UNL A   1      40.735  30.497  29.489  1.00  0.00     0.167 HD
ATOM     42  C   UNL A   1      44.989  29.548  30.040  1.00  0.00     0.037 A 
ATOM     43  C   UNL A   1      38.439  32.056  29.794  1.00  0.00     0.037 A 
ATOM     44  C   UNL A   1      44.841  30.912  30.475  1.00  0.00     0.049 A 
ATOM     45  C   UNL A   1      39.585  32.876  30.318  1.00  0.00     0.074 A 
ATOM     46  C   UNL A   1      45.818  31.791  30.906  1.00  0.00     0.029 A 
ATOM     47  N   UNL A   1      43.633  31.592  30.538  1.00  0.00    -0.354 N 
ATOM     48  N   UNL A   1      40.856  32.564  30.400  1.00  0.00    -0.248 NA
ATOM     49  C   UNL A   1      39.264  34.221  30.811  1.00  0.00     0.031 C 
ATOM     50  C   UNL A   1      45.194  32.986  31.280  1.00  0.00     0.029 A 
ATOM     51  C   UNL A   1      43.836  32.872  31.029  1.00  0.00     0.049 A 
ATOM     52  H   UNL A   1      42.760  31.220  30.273  1.00  0.00     0.167 HD
ATOM     53  C   UNL A   1      41.490  33.680  30.931  1.00  0.00     0.074 A 
ATOM     54  C   UNL A   1      40.464  34.682  31.134  1.00  0.00     0.031 C 
ATOM     55  C   UNL A   1      42.802  33.856  31.224  1.00  0.00     0.037 A 
BRANCH  42  56
ATOM     56  C   UNL A   1      46.350  28.915  30.116  1.00  0.00     0.064 A 
ATOM     57  C   UNL A   1      47.250  28.963  29.040  1.00  0.00     0.173 A 
ATOM     58  C   UNL A   1      46.772  28.273  31.291  1.00  0.00     0.173 A 
ATOM     59  F   UNL A   1      46.895  29.556  27.890  1.00  0.00    -0.203 F 
ATOM     60  C   UNL A   1      48.503  28.363  29.124  1.00  0.00     0.198 A 
ATOM     61  C   UNL A   1      48.038  27.703  31.383  1.00  0.00     0.198 A 
ATOM     62  F   UNL A   1      45.955  28.202  32.354  1.00  0.00    -0.203 F 
ATOM     63  F   UNL A   1      49.322  28.373  28.063  1.00  0.00    -0.200 F 
ATOM     64  C   UNL A   1      48.899  27.738  30.297  1.00  0.00     0.200 A 
ATOM     65  F   UNL A   1      48.425  27.112  32.523  1.00  0.00    -0.200 F 
ATOM     66  F   UNL A   1      50.108  27.165  30.378  1.00  0.00    -0.200 F 
ENDBRANCH  42  56
BRANCH  43  67
ATOM     67  C   UNL A   1      37.053  32.590  29.780  1.00  0.00     0.064 A 
ATOM     68  C   UNL A   1      36.207  32.426  30.886  1.00  0.00     0.173 A 
ATOM     69  C   UNL A   1      36.548  33.287  28.672  1.00  0.00     0.173 A 
ATOM     70  F   UNL A   1      36.637  31.751  31.963  1.00  0.00    -0.203 F 
ATOM     71  C   UNL A   1      34.906  32.925  30.879  1.00  0.00     0.198 A 
ATOM     72  C   UNL A   1      35.257  33.811  28.677  1.00  0.00     0.198 A 
ATOM     73  F   UNL A   1      37.320  33.479  27.592  1.00  0.00    -0.203 F 
ATOM     74  F   UNL A   1      34.107  32.720  31.934  1.00  0.00    -0.200 F 
ATOM     75  C   UNL A   1      34.435  33.624  29.778  1.00  0.00     0.200 A 
ATOM     76  F   UNL A   1      34.812  34.501  27.618  1.00  0.00    -0.200 F 
ATOM     77  F   UNL A   1      33.188  34.112  29.775  1.00  0.00    -0.200 F 
ENDBRANCH  43  67
BRANCH  55  78
ATOM     78  C   UNL A   1      43.208  35.194  31.771  1.00  0.00     0.064 A 
ATOM     79  C   UNL A   1      43.686  36.215  30.937  1.00  0.00     0.173 A 
ATOM     80  C   UNL A   1      43.075  35.471  33.140  1.00  0.00     0.173 A 
ATOM     81  F   UNL A   1      43.847  35.994  29.624  1.00  0.00    -0.203 F 
ATOM     82  C   UNL A   1      44.037  37.457  31.457  1.00  0.00     0.198 A 
ATOM     83  C   UNL A   1      43.397  36.724  33.653  1.00  0.00     0.198 A 
ATOM     84  F   UNL A   1      42.616  34.529  33.979  1.00  0.00    -0.203 F 
ATOM     85  F   UNL A   1      44.535  38.404  30.650  1.00  0.00    -0.200 F 
ATOM     86  C   UNL A   1      43.884  37.713  32.812  1.00  0.00     0.200 A 
ATOM     87  F   UNL A   1      43.234  36.974  34.959  1.00  0.00    -0.200 F 
ATOM     88  F   UNL A   1      44.213  38.914  33.310  1.00  0.00    -0.200 F 
ENDBRANCH  55  78
ENDBRANCH  29  30
ENDBRANCH  21  24
ENDBRANCH  19  20
ENDBRANCH   1  19
TORSDOF 12
ENDMDL
MODEL 3
REMARK VINA RESULT:     -10.2      5.385      9.894
REMARK SMILES CSc1nc(C2CC2)nc(C)c1C(=O)NCCCNC(=O)c1ccc(-c2c3nc(c(-c4c(F)c(F)c(F)c(F)c4F)c4ccc([nH]4)c(-c4c(F)c(F)c(F)c(F)c4F)c4nc(c(-c5c(F)c(F)c(F)c(F)c5F)c5ccc2[nH]5)C=C4)C=C3)cc1
REMARK SMILES IDX 17 1 16 2 15 3 13 4 14 5 12 7 3 8 4 9 5 10 10 11 9 12 11 13
REMARK SMILES IDX 2 14 1 15 6 16 7 17 8 18 18 19 19 20 20 21 21 23 22 24 23 25
REMARK SMILES IDX 84 26 24 27 83 28 25 29 26 30 27 31 77 32 28 33 82 34 76 35
REMARK SMILES IDX 78 36 29 37 81 38 75 39 74 40 30 42 62 43 42 44 61 45 43 46
REMARK SMILES IDX 46 47 60 48 79 49 44 50 45 51 59 53 80 54 47 55 31 56 32 57
REMARK SMILES IDX 40 58 33 59 34 60 38 61 41 62 35 63 36 64 39 65 37 66 63 67
REMARK SMILES IDX 64 68 72 69 65 70 66 71 70 72 73 73 67 74 68 75 71 76 69 77
REMARK SMILES IDX 48 78 49 79 57 80 50 81 51 82 55 83 58 84 52 85 53 86 56 87
REMARK SMILES IDX 54 88
REMARK H PARENT 15 6 19 22 78 41 46 52
REMARK Flexibility Score: inf
ROOT
ATOM      1  C   UNL A   1      31.224  31.931  26.174  1.00  0.00     0.042 C 
ENDROOT
BRANCH   1   2
ATOM      2  C   UNL A   1      31.181  30.432  25.826  1.00  0.00     0.118 C 
BRANCH   2   3
ATOM      3  N   UNL A   1      30.729  30.271  24.457  1.00  0.00    -0.352 N 
ATOM      4  C   UNL A   1      30.789  29.259  23.532  1.00  0.00     0.255 C 
ATOM      5  O   UNL A   1      30.772  29.666  22.366  1.00  0.00    -0.269 OA
ATOM      6  H   UNL A   1      30.275  31.073  24.112  1.00  0.00     0.163 HD
BRANCH   4   7
ATOM      7  C   UNL A   1      30.792  27.785  23.782  1.00  0.00     0.093 A 
ATOM      8  C   UNL A   1      32.004  27.177  24.162  1.00  0.00     0.113 A 
ATOM      9  N   UNL A   1      32.118  25.880  24.558  1.00  0.00    -0.225 NA
ATOM     10  C   UNL A   1      31.014  25.136  24.612  1.00  0.00     0.133 A 
ATOM     11  C   UNL A   1      29.710  26.915  23.843  1.00  0.00     0.055 A 
ATOM     12  N   UNL A   1      29.833  25.615  24.219  1.00  0.00    -0.237 NA
ATOM     13  C   UNL A   1      28.260  27.204  23.701  1.00  0.00     0.068 C 
BRANCH   8  14
ATOM     14  S   UNL A   1      33.604  27.985  24.292  1.00  0.00    -0.109 SA
ATOM     15  C   UNL A   1      33.911  27.773  26.055  1.00  0.00     0.092 C 
ENDBRANCH   8  14
BRANCH  10  16
ATOM     16  C   UNL A   1      31.012  23.759  25.221  1.00  0.00     0.058 C 
ATOM     17  C   UNL A   1      32.100  23.254  26.130  1.00  0.00     0.012 C 
ATOM     18  C   UNL A   1      30.773  23.640  26.713  1.00  0.00     0.012 C 
ENDBRANCH  10  16
ENDBRANCH   4   7
ENDBRANCH   2   3
ENDBRANCH   1   2
BRANCH   1  19
ATOM     19  C   UNL A   1      32.465  32.379  26.926  1.00  0.00     0.118 C 
BRANCH  19  20
ATOM     20  N   UNL A   1      32.350  33.766  27.345  1.00  0.00    -0.352 N 
ATOM     21  C   UNL A   1      32.981  34.421  28.367  1.00  0.00     0.251 C 
ATOM     22  H   UNL A   1      31.726  34.314  26.816  1.00  0.00     0.163 HD
ATOM     23  O   UNL A   1      32.525  35.502  28.761  1.00  0.00    -0.269 OA
BRANCH  21  24
ATOM     24  C   UNL A   1      34.191  33.864  29.009  1.00  0.00     0.039 A 
ATOM     25  C   UNL A   1      35.442  34.393  28.675  1.00  0.00     0.014 A 
ATOM     26  C   UNL A   1      34.110  32.784  29.895  1.00  0.00     0.014 A 
ATOM     27  C   UNL A   1      36.600  33.871  29.257  1.00  0.00     0.010 A 
ATOM     28  C   UNL A   1      35.254  32.322  30.539  1.00  0.00     0.010 A 
ATOM     29  C   UNL A   1      36.512  32.849  30.215  1.00  0.00    -0.014 A 
BRANCH  29  30
ATOM     30  C   UNL A   1      37.723  32.308  30.881  1.00  0.00     0.031 A 
ATOM     31  C   UNL A   1      38.537  31.236  30.211  1.00  0.00     0.074 A 
ATOM     32  C   UNL A   1      38.044  32.730  32.119  1.00  0.00     0.049 A 
ATOM     33  N   UNL A   1      39.574  30.577  30.662  1.00  0.00    -0.248 NA
ATOM     34  C   UNL A   1      38.110  30.828  28.862  1.00  0.00     0.031 C 
ATOM     35  C   UNL A   1      37.299  33.728  32.889  1.00  0.00     0.029 A 
ATOM     36  N   UNL A   1      39.068  32.363  32.954  1.00  0.00    -0.354 N 
ATOM     37  C   UNL A   1      39.907  29.667  29.667  1.00  0.00     0.074 A 
ATOM     38  C   UNL A   1      38.932  29.821  28.610  1.00  0.00     0.031 C 
ATOM     39  C   UNL A   1      37.902  33.907  34.074  1.00  0.00     0.029 A 
ATOM     40  C   UNL A   1      39.049  33.009  34.165  1.00  0.00     0.049 A 
ATOM     41  H   UNL A   1      39.753  31.698  32.707  1.00  0.00     0.167 HD
ATOM     42  C   UNL A   1      40.946  28.798  29.630  1.00  0.00     0.037 A 
ATOM     43  C   UNL A   1      39.859  32.882  35.233  1.00  0.00     0.037 A 
ATOM     44  C   UNL A   1      41.927  28.672  30.677  1.00  0.00     0.049 A 
ATOM     45  C   UNL A   1      41.005  31.910  35.168  1.00  0.00     0.074 A 
ATOM     46  C   UNL A   1      43.058  27.878  30.708  1.00  0.00     0.029 A 
ATOM     47  N   UNL A   1      41.886  29.360  31.881  1.00  0.00    -0.354 N 
ATOM     48  N   UNL A   1      41.355  31.109  34.191  1.00  0.00    -0.248 NA
ATOM     49  C   UNL A   1      41.871  31.829  36.351  1.00  0.00     0.031 C 
ATOM     50  C   UNL A   1      43.673  28.044  31.954  1.00  0.00     0.029 A 
ATOM     51  C   UNL A   1      42.958  28.986  32.676  1.00  0.00     0.049 A 
ATOM     52  H   UNL A   1      41.197  30.017  32.134  1.00  0.00     0.167 HD
ATOM     53  C   UNL A   1      42.494  30.446  34.630  1.00  0.00     0.074 A 
ATOM     54  C   UNL A   1      42.784  30.954  35.955  1.00  0.00     0.031 C 
ATOM     55  C   UNL A   1      43.230  29.503  33.993  1.00  0.00     0.037 A 
BRANCH  42  56
ATOM     56  C   UNL A   1      41.073  27.917  28.420  1.00  0.00     0.064 A 
ATOM     57  C   UNL A   1      41.823  28.302  27.299  1.00  0.00     0.173 A 
ATOM     58  C   UNL A   1      40.456  26.656  28.390  1.00  0.00     0.173 A 
ATOM     59  F   UNL A   1      42.426  29.501  27.270  1.00  0.00    -0.203 F 
ATOM     60  C   UNL A   1      41.921  27.477  26.181  1.00  0.00     0.198 A 
ATOM     61  C   UNL A   1      40.584  25.819  27.285  1.00  0.00     0.198 A 
ATOM     62  F   UNL A   1      39.731  26.232  29.437  1.00  0.00    -0.203 F 
ATOM     63  F   UNL A   1      42.596  27.893  25.101  1.00  0.00    -0.200 F 
ATOM     64  C   UNL A   1      41.307  26.235  26.177  1.00  0.00     0.200 A 
ATOM     65  F   UNL A   1      40.001  24.612  27.288  1.00  0.00    -0.200 F 
ATOM     66  F   UNL A   1      41.406  25.439  25.103  1.00  0.00    -0.200 F 
ENDBRANCH  42  56
BRANCH  43  67
ATOM     67  C   UNL A   1      39.623  33.714  36.441  1.00  0.00     0.064 A 
ATOM     68  C   UNL A   1      40.204  34.984  36.566  1.00  0.00     0.173 A 
ATOM     69  C   UNL A   1      38.802  33.269  37.488  1.00  0.00     0.173 A 
ATOM     70  F   UNL A   1      41.012  35.447  35.599  1.00  0.00    -0.203 F 
ATOM     71  C   UNL A   1      39.987  35.769  37.696  1.00  0.00     0.198 A 
ATOM     72  C   UNL A   1      38.561  34.066  38.605  1.00  0.00     0.198 A 
ATOM     73  F   UNL A   1      38.214  32.065  37.414  1.00  0.00    -0.203 F 
ATOM     74  F   UNL A   1      40.586  36.962  37.806  1.00  0.00    -0.200 F 
ATOM     75  C   UNL A   1      39.159  35.313  38.711  1.00  0.00     0.200 A 
ATOM     76  F   UNL A   1      37.747  33.629  39.575  1.00  0.00    -0.200 F 
ATOM     77  F   UNL A   1      38.942  36.071  39.793  1.00  0.00    -0.200 F 
ENDBRANCH  43  67
BRANCH  55  78
ATOM     78  C   UNL A   1      44.439  28.976  34.711  1.00  0.00     0.064 A 
ATOM     79  C   UNL A   1      44.377  27.821  35.505  1.00  0.00     0.173 A 
ATOM     80  C   UNL A   1      45.683  29.609  34.566  1.00  0.00     0.173 A 
ATOM     81  F   UNL A   1      43.208  27.190  35.688  1.00  0.00    -0.203 F 
ATOM     82  C   UNL A   1      45.512  27.333  36.146  1.00  0.00     0.198 A 
ATOM     83  C   UNL A   1      46.822  29.100  35.182  1.00  0.00     0.198 A 
ATOM     84  F   UNL A   1      45.795  30.713  33.812  1.00  0.00    -0.203 F 
ATOM     85  F   UNL A   1      45.422  26.255  36.937  1.00  0.00    -0.200 F 
ATOM     86  C   UNL A   1      46.735  27.967  35.976  1.00  0.00     0.200 A 
ATOM     87  F   UNL A   1      48.004  29.705  35.005  1.00  0.00    -0.200 F 
ATOM     88  F   UNL A   1      47.829  27.489  36.586  1.00  0.00    -0.200 F 
ENDBRANCH  55  78
ENDBRANCH  29  30
ENDBRANCH  21  24
ENDBRANCH  19  20
ENDBRANCH   1  19
TORSDOF 12
ENDMDL
