MODEL 1
REMARK VINA RESULT:     -13.1      0.000      0.000
REMARK SMILES CC(=O)OCC1=C(C(=O)NCCCNC(=O)c2ccc(-c3c4nc(c(-c5c(F)c(F)c(F)c(F)c5F)c5ccc([nH]5)c(-c5c(F)c(F)c(F)c(F)c5F)c5nc(c(-c6c(F)c(F)c(F)c(F)c6F)c6ccc3[nH]6)C=C5)C=C4)cc2)N2C(=O)[C@H](NC(=O)C3CCCCC3)[C@@H]2SC1
REMARK SMILES IDX 11 1 10 2 8 3 9 4 7 6 6 7 95 8 80 9 94 10 81 11 93 12 82 13
REMARK SMILES IDX 83 14 5 15 4 16 2 17 1 18 3 19 84 20 85 21 86 23 87 24 88 25
REMARK SMILES IDX 92 26 89 27 91 28 90 29 12 30 13 31 14 32 15 33 16 35 17 36
REMARK SMILES IDX 18 37 79 38 19 39 78 40 20 41 21 42 22 43 72 44 23 45 77 46
REMARK SMILES IDX 71 47 73 48 24 49 76 50 70 51 69 52 25 54 57 55 37 56 56 57
REMARK SMILES IDX 38 58 41 59 55 60 74 61 39 62 40 63 54 65 75 66 42 67 26 68
REMARK SMILES IDX 27 69 35 70 28 71 29 72 33 73 36 74 30 75 31 76 34 77 32 78
REMARK SMILES IDX 58 79 59 80 67 81 60 82 61 83 65 84 68 85 62 86 63 87 66 88
REMARK SMILES IDX 64 89 43 90 44 91 52 92 45 93 46 94 50 95 53 96 47 97 48 98
REMARK SMILES IDX 51 99 49 100
REMARK H PARENT 10 5 84 22 14 34 73 53 41 64
REMARK Flexibility Score: inf
ROOT
ATOM      1  C   UNL A   1      31.997  31.058  26.144  1.00  0.00     0.118 C 
ENDROOT
BRANCH   1   2
ATOM      2  N   UNL A   1      31.786  29.790  26.799  1.00  0.00    -0.351 N 
ATOM      3  C   UNL A   1      31.466  28.512  26.574  1.00  0.00     0.268 C 
ATOM      4  O   UNL A   1      31.182  27.949  27.651  1.00  0.00    -0.268 OA
ATOM      5  H   UNL A   1      31.931  29.910  27.765  1.00  0.00     0.163 HD
BRANCH   3   6
ATOM      6  C   UNL A   1      31.277  27.671  25.304  1.00  0.00     0.114 C 
ATOM      7  C   UNL A   1      30.560  27.840  24.161  1.00  0.00     0.007 C 
ATOM      8  C   UNL A   1      30.261  26.694  23.197  1.00  0.00     0.108 C 
ATOM      9  N   UNL A   1      31.956  26.479  25.453  1.00  0.00    -0.290 N 
ATOM     10  S   UNL A   1      31.589  25.506  23.001  1.00  0.00    -0.129 SA
ATOM     11  C   UNL A   1      33.249  26.250  25.813  1.00  0.00     0.253 C 
ATOM     12  C   UNL A   1      31.745  25.225  24.775  1.00  0.00     0.181 C 
ATOM     13  O   UNL A   1      34.135  26.971  26.219  1.00  0.00    -0.272 OA
ATOM     14  C   UNL A   1      33.169  24.800  25.263  1.00  0.00     0.205 C 
BRANCH   7  15
ATOM     15  C   UNL A   1      29.986  29.109  23.597  1.00  0.00     0.267 C 
BRANCH  15  16
ATOM     16  O   UNL A   1      29.360  28.945  22.324  1.00  0.00    -0.461 OA
BRANCH  16  17
ATOM     17  C   UNL A   1      28.362  29.799  21.972  1.00  0.00     0.302 C 
ATOM     18  C   UNL A   1      27.691  30.328  23.206  1.00  0.00     0.139 C 
ATOM     19  O   UNL A   1      28.072  30.122  20.831  1.00  0.00    -0.253 OA
ENDBRANCH  16  17
ENDBRANCH  15  16
ENDBRANCH   7  15
BRANCH  14  20
ATOM     20  N   UNL A   1      34.167  24.487  24.207  1.00  0.00    -0.342 N 
ATOM     21  C   UNL A   1      34.571  23.281  23.720  1.00  0.00     0.223 C 
ATOM     22  H   UNL A   1      34.601  25.270  23.798  1.00  0.00     0.164 HD
ATOM     23  O   UNL A   1      35.402  23.258  22.814  1.00  0.00    -0.275 OA
BRANCH  21  24
ATOM     24  C   UNL A   1      33.946  22.018  24.295  1.00  0.00     0.078 C 
ATOM     25  C   UNL A   1      32.913  21.450  23.312  1.00  0.00     0.013 C 
ATOM     26  C   UNL A   1      35.027  20.974  24.604  1.00  0.00     0.013 C 
ATOM     27  C   UNL A   1      32.305  20.148  23.828  1.00  0.00     0.001 C 
ATOM     28  C   UNL A   1      34.411  19.690  25.147  1.00  0.00     0.001 C 
ATOM     29  C   UNL A   1      33.376  19.119  24.183  1.00  0.00     0.000 C 
ENDBRANCH  21  24
ENDBRANCH  14  20
ENDBRANCH   3   6
ENDBRANCH   1   2
BRANCH   1  30
ATOM     30  C   UNL A   1      31.629  32.236  27.034  1.00  0.00     0.042 C 
BRANCH  30  31
ATOM     31  C   UNL A   1      32.811  33.152  27.293  1.00  0.00     0.118 C 
BRANCH  31  32
ATOM     32  N   UNL A   1      32.444  34.459  27.811  1.00  0.00    -0.352 N 
ATOM     33  C   UNL A   1      33.026  35.154  28.847  1.00  0.00     0.251 C 
ATOM     34  H   UNL A   1      31.686  34.903  27.365  1.00  0.00     0.163 HD
ATOM     35  O   UNL A   1      32.558  36.228  29.209  1.00  0.00    -0.269 OA
BRANCH  33  36
ATOM     36  C   UNL A   1      34.178  34.562  29.564  1.00  0.00     0.039 A 
ATOM     37  C   UNL A   1      33.937  33.818  30.723  1.00  0.00     0.014 A 
ATOM     38  C   UNL A   1      35.480  34.691  29.076  1.00  0.00     0.014 A 
ATOM     39  C   UNL A   1      34.990  33.136  31.339  1.00  0.00     0.010 A 
ATOM     40  C   UNL A   1      36.506  33.938  29.632  1.00  0.00     0.010 A 
ATOM     41  C   UNL A   1      36.272  33.155  30.771  1.00  0.00    -0.014 A 
BRANCH  41  42
ATOM     42  C   UNL A   1      37.398  32.384  31.354  1.00  0.00     0.031 A 
ATOM     43  C   UNL A   1      37.902  32.731  32.728  1.00  0.00     0.074 A 
ATOM     44  C   UNL A   1      38.021  31.444  30.618  1.00  0.00     0.049 A 
ATOM     45  N   UNL A   1      38.960  32.290  33.358  1.00  0.00    -0.248 NA
ATOM     46  C   UNL A   1      37.136  33.742  33.474  1.00  0.00     0.031 C 
ATOM     47  C   UNL A   1      37.663  31.058  29.252  1.00  0.00     0.029 A 
ATOM     48  N   UNL A   1      39.099  30.648  30.914  1.00  0.00    -0.354 N 
ATOM     49  C   UNL A   1      39.007  32.997  34.552  1.00  0.00     0.074 A 
ATOM     50  C   UNL A   1      37.897  33.925  34.542  1.00  0.00     0.031 C 
ATOM     51  C   UNL A   1      38.486  30.081  28.839  1.00  0.00     0.029 A 
ATOM     52  C   UNL A   1      39.451  29.796  29.897  1.00  0.00     0.049 A 
ATOM     53  H   UNL A   1      39.575  30.685  31.775  1.00  0.00     0.167 HD
ATOM     54  C   UNL A   1      39.885  32.869  35.575  1.00  0.00     0.037 A 
ATOM     55  C   UNL A   1      40.442  28.887  29.828  1.00  0.00     0.037 A 
ATOM     56  C   UNL A   1      40.948  31.902  35.609  1.00  0.00     0.049 A 
ATOM     57  C   UNL A   1      41.355  28.713  31.010  1.00  0.00     0.074 A 
ATOM     58  C   UNL A   1      41.864  31.657  36.617  1.00  0.00     0.029 A 
ATOM     59  N   UNL A   1      41.221  31.002  34.589  1.00  0.00    -0.354 N 
ATOM     60  N   UNL A   1      41.372  29.367  32.145  1.00  0.00    -0.248 NA
ATOM     61  C   UNL A   1      42.385  27.669  30.903  1.00  0.00     0.031 C 
ATOM     62  C   UNL A   1      42.698  30.612  36.203  1.00  0.00     0.029 A 
ATOM     63  C   UNL A   1      42.284  30.192  34.949  1.00  0.00     0.049 A 
ATOM     64  H   UNL A   1      40.732  30.948  33.737  1.00  0.00     0.167 HD
ATOM     65  C   UNL A   1      42.390  28.799  32.898  1.00  0.00     0.074 A 
ATOM     66  C   UNL A   1      42.963  27.738  32.094  1.00  0.00     0.031 C 
ATOM     67  C   UNL A   1      42.815  29.126  34.142  1.00  0.00     0.037 A 
BRANCH  54  68
ATOM     68  C   UNL A   1      39.715  33.786  36.749  1.00  0.00     0.064 A 
ATOM     69  C   UNL A   1      40.344  35.040  36.794  1.00  0.00     0.173 A 
ATOM     70  C   UNL A   1      38.900  33.419  37.829  1.00  0.00     0.173 A 
ATOM     71  F   UNL A   1      41.147  35.428  35.792  1.00  0.00    -0.203 F 
ATOM     72  C   UNL A   1      40.184  35.880  37.893  1.00  0.00     0.198 A 
ATOM     73  C   UNL A   1      38.722  34.273  38.914  1.00  0.00     0.198 A 
ATOM     74  F   UNL A   1      38.275  32.231  37.833  1.00  0.00    -0.203 F 
ATOM     75  F   UNL A   1      40.835  37.051  37.936  1.00  0.00    -0.200 F 
ATOM     76  C   UNL A   1      39.370  35.499  38.948  1.00  0.00     0.200 A 
ATOM     77  F   UNL A   1      37.930  33.908  39.931  1.00  0.00    -0.200 F 
ATOM     78  F   UNL A   1      39.217  36.310  40.004  1.00  0.00    -0.200 F 
ENDBRANCH  54  68
BRANCH  55  79
ATOM     79  C   UNL A   1      40.594  28.040  28.620  1.00  0.00     0.064 A 
ATOM     80  C   UNL A   1      41.388  28.466  27.546  1.00  0.00     0.173 A 
ATOM     81  C   UNL A   1      39.950  26.800  28.506  1.00  0.00     0.173 A 
ATOM     82  F   UNL A   1      42.008  29.653  27.603  1.00  0.00    -0.203 F 
ATOM     83  C   UNL A   1      41.517  27.691  26.395  1.00  0.00     0.198 A 
ATOM     84  C   UNL A   1      40.097  26.017  27.364  1.00  0.00     0.198 A 
ATOM     85  F   UNL A   1      39.185  26.347  29.510  1.00  0.00    -0.203 F 
ATOM     86  F   UNL A   1      42.251  28.140  25.367  1.00  0.00    -0.200 F 
ATOM     87  C   UNL A   1      40.874  26.466  26.306  1.00  0.00     0.200 A 
ATOM     88  F   UNL A   1      39.484  24.828  27.285  1.00  0.00    -0.200 F 
ATOM     89  F   UNL A   1      40.998  25.722  25.199  1.00  0.00    -0.200 F 
ENDBRANCH  55  79
BRANCH  67  90
ATOM     90  C   UNL A   1      43.920  28.301  34.725  1.00  0.00     0.064 A 
ATOM     91  C   UNL A   1      45.264  28.670  34.577  1.00  0.00     0.173 A 
ATOM     92  C   UNL A   1      43.625  27.156  35.478  1.00  0.00     0.173 A 
ATOM     93  F   UNL A   1      45.593  29.749  33.852  1.00  0.00    -0.203 F 
ATOM     94  C   UNL A   1      46.278  27.907  35.150  1.00  0.00     0.198 A 
ATOM     95  C   UNL A   1      44.640  26.408  36.066  1.00  0.00     0.198 A 
ATOM     96  F   UNL A   1      42.351  26.768  35.647  1.00  0.00    -0.203 F 
ATOM     97  F   UNL A   1      47.559  28.257  34.970  1.00  0.00    -0.200 F 
ATOM     98  C   UNL A   1      45.964  26.782  35.898  1.00  0.00     0.200 A 
ATOM     99  F   UNL A   1      44.336  25.324  36.794  1.00  0.00    -0.200 F 
ATOM    100  F   UNL A   1      46.942  26.052  36.453  1.00  0.00    -0.200 F 
ENDBRANCH  67  90
ENDBRANCH  41  42
ENDBRANCH  33  36
ENDBRANCH  31  32
ENDBRANCH  30  31
ENDBRANCH   1  30
TORSDOF 15
ENDMDL
MODEL 2
REMARK VINA RESULT:     -13.0      0.594      7.018
REMARK SMILES CC(=O)OCC1=C(C(=O)NCCCNC(=O)c2ccc(-c3c4nc(c(-c5c(F)c(F)c(F)c(F)c5F)c5ccc([nH]5)c(-c5c(F)c(F)c(F)c(F)c5F)c5nc(c(-c6c(F)c(F)c(F)c(F)c6F)c6ccc3[nH]6)C=C5)C=C4)cc2)N2C(=O)[C@H](NC(=O)C3CCCCC3)[C@@H]2SC1
REMARK SMILES IDX 11 1 10 2 8 3 9 4 7 6 6 7 95 8 80 9 94 10 81 11 93 12 82 13
REMARK SMILES IDX 83 14 5 15 4 16 2 17 1 18 3 19 84 20 85 21 86 23 87 24 88 25
REMARK SMILES IDX 92 26 89 27 91 28 90 29 12 30 13 31 14 32 15 33 16 35 17 36
REMARK SMILES IDX 18 37 79 38 19 39 78 40 20 41 21 42 22 43 72 44 23 45 77 46
REMARK SMILES IDX 71 47 73 48 24 49 76 50 70 51 69 52 25 54 57 55 37 56 56 57
REMARK SMILES IDX 38 58 41 59 55 60 74 61 39 62 40 63 54 65 75 66 42 67 26 68
REMARK SMILES IDX 27 69 35 70 28 71 29 72 33 73 36 74 30 75 31 76 34 77 32 78
REMARK SMILES IDX 58 79 59 80 67 81 60 82 61 83 65 84 68 85 62 86 63 87 66 88
REMARK SMILES IDX 64 89 43 90 44 91 52 92 45 93 46 94 50 95 53 96 47 97 48 98
REMARK SMILES IDX 51 99 49 100
REMARK H PARENT 10 5 84 22 14 34 73 53 41 64
REMARK Flexibility Score: inf
ROOT
ATOM      1  C   UNL A   1      32.349  30.780  26.188  1.00  0.00     0.118 C 
ENDROOT
BRANCH   1   2
ATOM      2  N   UNL A   1      31.926  29.561  26.833  1.00  0.00    -0.351 N 
ATOM      3  C   UNL A   1      31.473  28.326  26.592  1.00  0.00     0.268 C 
ATOM      4  O   UNL A   1      31.026  27.825  27.644  1.00  0.00    -0.268 OA
ATOM      5  H   UNL A   1      31.996  29.683  27.808  1.00  0.00     0.163 HD
BRANCH   3   6
ATOM      6  C   UNL A   1      31.300  27.488  25.319  1.00  0.00     0.114 C 
ATOM      7  C   UNL A   1      30.596  27.659  24.168  1.00  0.00     0.007 C 
ATOM      8  C   UNL A   1      30.308  26.515  23.198  1.00  0.00     0.108 C 
ATOM      9  N   UNL A   1      31.976  26.295  25.474  1.00  0.00    -0.290 N 
ATOM     10  S   UNL A   1      31.638  25.327  23.016  1.00  0.00    -0.129 SA
ATOM     11  C   UNL A   1      33.265  26.065  25.848  1.00  0.00     0.253 C 
ATOM     12  C   UNL A   1      31.773  25.043  24.791  1.00  0.00     0.181 C 
ATOM     13  O   UNL A   1      34.146  26.785  26.266  1.00  0.00    -0.272 OA
ATOM     14  C   UNL A   1      33.190  24.616  25.294  1.00  0.00     0.205 C 
BRANCH   7  15
ATOM     15  C   UNL A   1      30.029  28.930  23.599  1.00  0.00     0.267 C 
BRANCH  15  16
ATOM     16  O   UNL A   1      28.706  28.791  23.082  1.00  0.00    -0.461 OA
BRANCH  16  17
ATOM     17  C   UNL A   1      28.174  29.817  22.365  1.00  0.00     0.302 C 
ATOM     18  C   UNL A   1      27.613  30.849  23.300  1.00  0.00     0.139 C 
ATOM     19  O   UNL A   1      28.180  29.913  21.148  1.00  0.00    -0.253 OA
ENDBRANCH  16  17
ENDBRANCH  15  16
ENDBRANCH   7  15
BRANCH  14  20
ATOM     20  N   UNL A   1      34.201  24.305  24.250  1.00  0.00    -0.342 N 
ATOM     21  C   UNL A   1      34.591  23.101  23.747  1.00  0.00     0.223 C 
ATOM     22  H   UNL A   1      34.656  25.087  23.864  1.00  0.00     0.164 HD
ATOM     23  O   UNL A   1      35.438  23.079  22.855  1.00  0.00    -0.275 OA
BRANCH  21  24
ATOM     24  C   UNL A   1      33.934  21.839  24.287  1.00  0.00     0.078 C 
ATOM     25  C   UNL A   1      32.920  21.299  23.268  1.00  0.00     0.013 C 
ATOM     26  C   UNL A   1      34.991  20.776  24.610  1.00  0.00     0.013 C 
ATOM     27  C   UNL A   1      32.281  19.999  23.749  1.00  0.00     0.001 C 
ATOM     28  C   UNL A   1      34.343  19.493  25.119  1.00  0.00     0.001 C 
ATOM     29  C   UNL A   1      33.327  18.950  24.119  1.00  0.00     0.000 C 
ENDBRANCH  21  24
ENDBRANCH  14  20
ENDBRANCH   3   6
ENDBRANCH   1   2
BRANCH   1  30
ATOM     30  C   UNL A   1      31.807  32.020  26.885  1.00  0.00     0.042 C 
BRANCH  30  31
ATOM     31  C   UNL A   1      32.915  32.917  27.405  1.00  0.00     0.118 C 
BRANCH  31  32
ATOM     32  N   UNL A   1      32.472  34.252  27.771  1.00  0.00    -0.352 N 
ATOM     33  C   UNL A   1      33.004  35.089  28.726  1.00  0.00     0.251 C 
ATOM     34  H   UNL A   1      31.697  34.602  27.274  1.00  0.00     0.163 HD
ATOM     35  O   UNL A   1      32.475  36.169  28.964  1.00  0.00    -0.269 OA
BRANCH  33  36
ATOM     36  C   UNL A   1      34.178  34.644  29.511  1.00  0.00     0.039 A 
ATOM     37  C   UNL A   1      33.967  34.073  30.770  1.00  0.00     0.014 A 
ATOM     38  C   UNL A   1      35.472  34.738  28.996  1.00  0.00     0.014 A 
ATOM     39  C   UNL A   1      35.043  33.522  31.469  1.00  0.00     0.010 A 
ATOM     40  C   UNL A   1      36.525  34.107  29.647  1.00  0.00     0.010 A 
ATOM     41  C   UNL A   1      36.322  33.494  30.892  1.00  0.00    -0.014 A 
BRANCH  41  42
ATOM     42  C   UNL A   1      37.474  32.852  31.571  1.00  0.00     0.031 A 
ATOM     43  C   UNL A   1      38.203  31.726  30.892  1.00  0.00     0.074 A 
ATOM     44  C   UNL A   1      37.804  33.218  32.824  1.00  0.00     0.049 A 
ATOM     45  N   UNL A   1      39.131  30.934  31.364  1.00  0.00    -0.248 NA
ATOM     46  C   UNL A   1      37.802  31.422  29.508  1.00  0.00     0.031 C 
ATOM     47  C   UNL A   1      37.135  34.256  33.611  1.00  0.00     0.029 A 
ATOM     48  N   UNL A   1      38.780  32.744  33.665  1.00  0.00    -0.354 N 
ATOM     49  C   UNL A   1      39.393  30.019  30.355  1.00  0.00     0.074 A 
ATOM     50  C   UNL A   1      38.500  30.325  29.259  1.00  0.00     0.031 C 
ATOM     51  C   UNL A   1      37.739  34.361  34.806  1.00  0.00     0.029 A 
ATOM     52  C   UNL A   1      38.812  33.376  34.883  1.00  0.00     0.049 A 
ATOM     53  H   UNL A   1      39.399  32.020  33.416  1.00  0.00     0.167 HD
ATOM     54  C   UNL A   1      40.313  29.024  30.334  1.00  0.00     0.037 A 
ATOM     55  C   UNL A   1      39.618  33.178  35.943  1.00  0.00     0.037 A 
ATOM     56  C   UNL A   1      41.242  28.764  31.400  1.00  0.00     0.049 A 
ATOM     57  C   UNL A   1      40.682  32.118  35.864  1.00  0.00     0.074 A 
ATOM     58  C   UNL A   1      42.244  27.812  31.461  1.00  0.00     0.029 A 
ATOM     59  N   UNL A   1      41.293  29.480  32.586  1.00  0.00    -0.354 N 
ATOM     60  N   UNL A   1      40.940  31.277  34.892  1.00  0.00    -0.248 NA
ATOM     61  C   UNL A   1      41.570  31.982  37.026  1.00  0.00     0.031 C 
ATOM     62  C   UNL A   1      42.899  27.947  32.691  1.00  0.00     0.029 A 
ATOM     63  C   UNL A   1      42.318  28.999  33.382  1.00  0.00     0.049 A 
ATOM     64  H   UNL A   1      40.690  30.220  32.827  1.00  0.00     0.167 HD
ATOM     65  C   UNL A   1      42.034  30.534  35.311  1.00  0.00     0.074 A 
ATOM     66  C   UNL A   1      42.398  31.029  36.623  1.00  0.00     0.031 C 
ATOM     67  C   UNL A   1      42.677  29.529  34.670  1.00  0.00     0.037 A 
BRANCH  54  68
ATOM     68  C   UNL A   1      40.367  28.161  29.110  1.00  0.00     0.064 A 
ATOM     69  C   UNL A   1      41.152  28.512  28.002  1.00  0.00     0.173 A 
ATOM     70  C   UNL A   1      39.643  26.961  29.051  1.00  0.00     0.173 A 
ATOM     71  F   UNL A   1      41.848  29.659  28.004  1.00  0.00    -0.203 F 
ATOM     72  C   UNL A   1      41.188  27.706  26.867  1.00  0.00     0.198 A 
ATOM     73  C   UNL A   1      39.703  26.145  27.924  1.00  0.00     0.198 A 
ATOM     74  F   UNL A   1      38.879  26.580  30.086  1.00  0.00    -0.203 F 
ATOM     75  F   UNL A   1      41.906  28.087  25.801  1.00  0.00    -0.200 F 
ATOM     76  C   UNL A   1      40.469  26.522  26.832  1.00  0.00     0.200 A 
ATOM     77  F   UNL A   1      39.013  24.996  27.893  1.00  0.00    -0.200 F 
ATOM     78  F   UNL A   1      40.507  25.747  25.739  1.00  0.00    -0.200 F 
ENDBRANCH  54  68
BRANCH  55  79
ATOM     79  C   UNL A   1      39.486  34.032  37.149  1.00  0.00     0.064 A 
ATOM     80  C   UNL A   1      40.117  35.282  37.211  1.00  0.00     0.173 A 
ATOM     81  C   UNL A   1      38.740  33.620  38.262  1.00  0.00     0.173 A 
ATOM     82  F   UNL A   1      40.856  35.709  36.177  1.00  0.00    -0.203 F 
ATOM     83  C   UNL A   1      40.023  36.081  38.349  1.00  0.00     0.198 A 
ATOM     84  C   UNL A   1      38.629  34.429  39.390  1.00  0.00     0.198 A 
ATOM     85  F   UNL A   1      38.112  32.435  38.248  1.00  0.00    -0.203 F 
ATOM     86  F   UNL A   1      40.669  37.254  38.396  1.00  0.00    -0.200 F 
ATOM     87  C   UNL A   1      39.276  35.655  39.437  1.00  0.00     0.200 A 
ATOM     88  F   UNL A   1      37.897  34.020  40.436  1.00  0.00    -0.200 F 
ATOM     89  F   UNL A   1      39.186  36.423  40.530  1.00  0.00    -0.200 F 
ENDBRANCH  55  79
BRANCH  67  90
ATOM     90  C   UNL A   1      43.867  28.932  35.357  1.00  0.00     0.064 A 
ATOM     91  C   UNL A   1      45.160  29.428  35.142  1.00  0.00     0.173 A 
ATOM     92  C   UNL A   1      43.702  27.884  36.273  1.00  0.00     0.173 A 
ATOM     93  F   UNL A   1      45.365  30.420  34.262  1.00  0.00    -0.203 F 
ATOM     94  C   UNL A   1      46.252  28.881  35.809  1.00  0.00     0.198 A 
ATOM     95  C   UNL A   1      44.793  27.353  36.954  1.00  0.00     0.198 A 
ATOM     96  F   UNL A   1      42.481  27.380  36.511  1.00  0.00    -0.203 F 
ATOM     97  F   UNL A   1      47.485  29.346  35.566  1.00  0.00    -0.200 F 
ATOM     98  C   UNL A   1      46.067  27.849  36.718  1.00  0.00     0.200 A 
ATOM     99  F   UNL A   1      44.613  26.361  37.836  1.00  0.00    -0.200 F 
ATOM    100  F   UNL A   1      47.119  27.328  37.364  1.00  0.00    -0.200 F 
ENDBRANCH  67  90
ENDBRANCH  41  42
ENDBRANCH  33  36
ENDBRANCH  31  32
ENDBRANCH  30  31
ENDBRANCH   1  30
TORSDOF 15
ENDMDL
MODEL 3
REMARK VINA RESULT:     -12.9      1.177      7.220
REMARK SMILES CC(=O)OCC1=C(C(=O)NCCCNC(=O)c2ccc(-c3c4nc(c(-c5c(F)c(F)c(F)c(F)c5F)c5ccc([nH]5)c(-c5c(F)c(F)c(F)c(F)c5F)c5nc(c(-c6c(F)c(F)c(F)c(F)c6F)c6ccc3[nH]6)C=C5)C=C4)cc2)N2C(=O)[C@H](NC(=O)C3CCCCC3)[C@@H]2SC1
REMARK SMILES IDX 11 1 10 2 8 3 9 4 7 6 6 7 95 8 80 9 94 10 81 11 93 12 82 13
REMARK SMILES IDX 83 14 5 15 4 16 2 17 1 18 3 19 84 20 85 21 86 23 87 24 88 25
REMARK SMILES IDX 92 26 89 27 91 28 90 29 12 30 13 31 14 32 15 33 16 35 17 36
REMARK SMILES IDX 18 37 79 38 19 39 78 40 20 41 21 42 22 43 72 44 23 45 77 46
REMARK SMILES IDX 71 47 73 48 24 49 76 50 70 51 69 52 25 54 57 55 37 56 56 57
REMARK SMILES IDX 38 58 41 59 55 60 74 61 39 62 40 63 54 65 75 66 42 67 26 68
REMARK SMILES IDX 27 69 35 70 28 71 29 72 33 73 36 74 30 75 31 76 34 77 32 78
REMARK SMILES IDX 58 79 59 80 67 81 60 82 61 83 65 84 68 85 62 86 63 87 66 88
REMARK SMILES IDX 64 89 43 90 44 91 52 92 45 93 46 94 50 95 53 96 47 97 48 98
REMARK SMILES IDX 51 99 49 100
REMARK H PARENT 10 5 84 22 14 34 73 53 41 64
REMARK Flexibility Score: inf
ROOT
ATOM      1  C   UNL A   1      32.362  30.292  26.673  1.00  0.00     0.118 C 
ENDROOT
BRANCH   1   2
ATOM      2  N   UNL A   1      32.701  30.018  25.297  1.00  0.00    -0.351 N 
ATOM      3  C   UNL A   1      32.381  29.252  24.250  1.00  0.00     0.268 C 
ATOM      4  O   UNL A   1      33.273  29.327  23.380  1.00  0.00    -0.268 OA
ATOM      5  H   UNL A   1      33.440  30.614  25.034  1.00  0.00     0.163 HD
BRANCH   3   6
ATOM      6  C   UNL A   1      31.246  28.259  23.968  1.00  0.00     0.114 C 
ATOM      7  C   UNL A   1      29.981  28.388  23.484  1.00  0.00     0.007 C 
ATOM      8  C   UNL A   1      28.926  27.293  23.629  1.00  0.00     0.108 C 
ATOM      9  N   UNL A   1      31.640  27.002  24.377  1.00  0.00    -0.290 N 
ATOM     10  S   UNL A   1      29.549  25.620  23.477  1.00  0.00    -0.129 SA
ATOM     11  C   UNL A   1      32.771  26.303  24.083  1.00  0.00     0.253 C 
ATOM     12  C   UNL A   1      30.826  25.865  24.726  1.00  0.00     0.181 C 
ATOM     13  O   UNL A   1      33.795  26.593  23.504  1.00  0.00    -0.272 OA
ATOM     14  C   UNL A   1      32.105  24.982  24.558  1.00  0.00     0.205 C 
BRANCH   7  15
ATOM     15  C   UNL A   1      29.391  29.529  22.704  1.00  0.00     0.267 C 
BRANCH  15  16
ATOM     16  O   UNL A   1      29.094  30.679  23.498  1.00  0.00    -0.461 OA
BRANCH  16  17
ATOM     17  C   UNL A   1      28.049  31.470  23.136  1.00  0.00     0.302 C 
ATOM     18  C   UNL A   1      28.383  32.199  21.867  1.00  0.00     0.139 C 
ATOM     19  O   UNL A   1      26.983  31.555  23.725  1.00  0.00    -0.253 OA
ENDBRANCH  16  17
ENDBRANCH  15  16
ENDBRANCH   7  15
BRANCH  14  20
ATOM     20  N   UNL A   1      32.046  23.917  23.523  1.00  0.00    -0.342 N 
ATOM     21  C   UNL A   1      32.944  22.934  23.233  1.00  0.00     0.223 C 
ATOM     22  H   UNL A   1      31.237  23.924  22.963  1.00  0.00     0.164 HD
ATOM     23  O   UNL A   1      32.675  22.134  22.340  1.00  0.00    -0.275 OA
BRANCH  21  24
ATOM     24  C   UNL A   1      34.221  22.850  24.056  1.00  0.00     0.078 C 
ATOM     25  C   UNL A   1      34.352  21.454  24.680  1.00  0.00     0.013 C 
ATOM     26  C   UNL A   1      35.444  23.168  23.186  1.00  0.00     0.013 C 
ATOM     27  C   UNL A   1      35.652  21.311  25.466  1.00  0.00     0.001 C 
ATOM     28  C   UNL A   1      36.735  23.052  23.990  1.00  0.00     0.001 C 
ATOM     29  C   UNL A   1      36.873  21.671  24.622  1.00  0.00     0.000 C 
ENDBRANCH  21  24
ENDBRANCH  14  20
ENDBRANCH   3   6
ENDBRANCH   1   2
BRANCH   1  30
ATOM     30  C   UNL A   1      31.853  31.712  26.870  1.00  0.00     0.042 C 
BRANCH  30  31
ATOM     31  C   UNL A   1      32.960  32.668  27.274  1.00  0.00     0.118 C 
BRANCH  31  32
ATOM     32  N   UNL A   1      32.492  33.997  27.631  1.00  0.00    -0.352 N 
ATOM     33  C   UNL A   1      33.009  34.851  28.579  1.00  0.00     0.251 C 
ATOM     34  H   UNL A   1      31.710  34.329  27.133  1.00  0.00     0.163 HD
ATOM     35  O   UNL A   1      32.460  35.923  28.810  1.00  0.00    -0.269 OA
BRANCH  33  36
ATOM     36  C   UNL A   1      34.193  34.435  29.366  1.00  0.00     0.039 A 
ATOM     37  C   UNL A   1      33.992  33.832  30.611  1.00  0.00     0.014 A 
ATOM     38  C   UNL A   1      35.487  34.586  28.864  1.00  0.00     0.014 A 
ATOM     39  C   UNL A   1      35.083  33.307  31.310  1.00  0.00     0.010 A 
ATOM     40  C   UNL A   1      36.556  33.981  29.512  1.00  0.00     0.010 A 
ATOM     41  C   UNL A   1      36.366  33.337  30.743  1.00  0.00    -0.014 A 
BRANCH  41  42
ATOM     42  C   UNL A   1      37.536  32.725  31.420  1.00  0.00     0.031 A 
ATOM     43  C   UNL A   1      38.294  31.621  30.737  1.00  0.00     0.074 A 
ATOM     44  C   UNL A   1      37.856  33.096  32.674  1.00  0.00     0.049 A 
ATOM     45  N   UNL A   1      39.244  30.854  31.207  1.00  0.00    -0.248 NA
ATOM     46  C   UNL A   1      37.902  31.311  29.353  1.00  0.00     0.031 C 
ATOM     47  C   UNL A   1      37.159  34.114  33.464  1.00  0.00     0.029 A 
ATOM     48  N   UNL A   1      38.844  32.647  33.513  1.00  0.00    -0.354 N 
ATOM     49  C   UNL A   1      39.531  29.949  30.195  1.00  0.00     0.074 A 
ATOM     50  C   UNL A   1      38.629  30.234  29.100  1.00  0.00     0.031 C 
ATOM     51  C   UNL A   1      37.760  34.231  34.659  1.00  0.00     0.029 A 
ATOM     52  C   UNL A   1      38.860  33.275  34.733  1.00  0.00     0.049 A 
ATOM     53  H   UNL A   1      39.483  31.940  33.262  1.00  0.00     0.167 HD
ATOM     54  C   UNL A   1      40.477  28.980  30.171  1.00  0.00     0.037 A 
ATOM     55  C   UNL A   1      39.672  33.096  35.792  1.00  0.00     0.037 A 
ATOM     56  C   UNL A   1      41.414  28.742  31.235  1.00  0.00     0.049 A 
ATOM     57  C   UNL A   1      40.764  32.066  35.709  1.00  0.00     0.074 A 
ATOM     58  C   UNL A   1      42.442  27.818  31.293  1.00  0.00     0.029 A 
ATOM     59  N   UNL A   1      41.446  29.456  32.424  1.00  0.00    -0.354 N 
ATOM     60  N   UNL A   1      41.044  31.236  34.735  1.00  0.00    -0.248 NA
ATOM     61  C   UNL A   1      41.656  31.951  36.872  1.00  0.00     0.031 C 
ATOM     62  C   UNL A   1      43.092  27.967  32.523  1.00  0.00     0.029 A 
ATOM     63  C   UNL A   1      42.484  29.000  33.218  1.00  0.00     0.049 A 
ATOM     64  H   UNL A   1      40.823  30.178  32.667  1.00  0.00     0.167 HD
ATOM     65  C   UNL A   1      42.158  30.521  35.152  1.00  0.00     0.074 A 
ATOM     66  C   UNL A   1      42.510  31.022  36.465  1.00  0.00     0.031 C 
ATOM     67  C   UNL A   1      42.829  29.536  34.508  1.00  0.00     0.037 A 
BRANCH  54  68
ATOM     68  C   UNL A   1      40.555  28.122  28.944  1.00  0.00     0.064 A 
ATOM     69  C   UNL A   1      39.829  26.925  28.842  1.00  0.00     0.173 A 
ATOM     70  C   UNL A   1      41.345  28.508  27.852  1.00  0.00     0.173 A 
ATOM     71  F   UNL A   1      39.073  26.506  29.867  1.00  0.00    -0.203 F 
ATOM     72  C   UNL A   1      39.916  26.133  27.701  1.00  0.00     0.198 A 
ATOM     73  C   UNL A   1      41.408  27.725  26.702  1.00  0.00     0.198 A 
ATOM     74  F   UNL A   1      42.056  29.645  27.899  1.00  0.00    -0.203 F 
ATOM     75  F   UNL A   1      39.252  24.969  27.646  1.00  0.00    -0.200 F 
ATOM     76  C   UNL A   1      40.699  26.536  26.631  1.00  0.00     0.200 A 
ATOM     77  F   UNL A   1      42.160  28.118  25.665  1.00  0.00    -0.200 F 
ATOM     78  F   UNL A   1      40.779  25.771  25.533  1.00  0.00    -0.200 F 
ENDBRANCH  54  68
BRANCH  55  79
ATOM     79  C   UNL A   1      39.517  33.943  37.001  1.00  0.00     0.064 A 
ATOM     80  C   UNL A   1      40.092  35.220  37.056  1.00  0.00     0.173 A 
ATOM     81  C   UNL A   1      38.804  33.497  38.123  1.00  0.00     0.173 A 
ATOM     82  F   UNL A   1      40.798  35.680  36.014  1.00  0.00    -0.203 F 
ATOM     83  C   UNL A   1      39.977  36.013  38.196  1.00  0.00     0.198 A 
ATOM     84  C   UNL A   1      38.671  34.300  39.253  1.00  0.00     0.198 A 
ATOM     85  F   UNL A   1      38.229  32.285  38.115  1.00  0.00    -0.203 F 
ATOM     86  F   UNL A   1      40.570  37.214  38.237  1.00  0.00    -0.200 F 
ATOM     87  C   UNL A   1      39.263  35.553  39.293  1.00  0.00     0.200 A 
ATOM     88  F   UNL A   1      37.971  33.858  40.307  1.00  0.00    -0.200 F 
ATOM     89  F   UNL A   1      39.153  36.316  40.388  1.00  0.00    -0.200 F 
ENDBRANCH  55  79
BRANCH  67  90
ATOM     90  C   UNL A   1      44.034  28.970  35.192  1.00  0.00     0.064 A 
ATOM     91  C   UNL A   1      45.315  29.491  34.965  1.00  0.00     0.173 A 
ATOM     92  C   UNL A   1      43.897  27.926  36.117  1.00  0.00     0.173 A 
ATOM     93  F   UNL A   1      45.495  30.480  34.077  1.00  0.00    -0.203 F 
ATOM     94  C   UNL A   1      46.423  28.973  35.631  1.00  0.00     0.198 A 
ATOM     95  C   UNL A   1      45.003  27.423  36.796  1.00  0.00     0.198 A 
ATOM     96  F   UNL A   1      42.689  27.398  36.366  1.00  0.00    -0.203 F 
ATOM     97  F   UNL A   1      47.644  29.462  35.377  1.00  0.00    -0.200 F 
ATOM     98  C   UNL A   1      46.264  27.944  36.549  1.00  0.00     0.200 A 
ATOM     99  F   UNL A   1      44.848  26.435  37.687  1.00  0.00    -0.200 F 
ATOM    100  F   UNL A   1      47.331  27.451  37.193  1.00  0.00    -0.200 F 
ENDBRANCH  67  90
ENDBRANCH  41  42
ENDBRANCH  33  36
ENDBRANCH  31  32
ENDBRANCH  30  31
ENDBRANCH   1  30
TORSDOF 15
ENDMDL
