MODEL 1
REMARK VINA RESULT:     -11.0      0.000      0.000
REMARK SMILES C=CCN(CC(=O)NCCCNC(=O)c1ccc(-c2c3nc(c(-c4c(F)c(F)c(F)c(F)c4F)c4ccc([nH]4)c(-c4c(F)c(F)c(F)c(F)c4F)c4nc(c(-c5c(F)c(F)c(F)c(F)c5F)c5ccc2[nH]5)C=C4)C=C3)cc1)S(=O)(=O)Cc1cc(C)on1
REMARK SMILES IDX 9 1 8 2 6 3 7 4 5 6 4 7 3 8 2 9 1 10 78 11 79 12 80 13 81 14
REMARK SMILES IDX 82 15 83 16 87 17 84 18 86 19 85 20 10 21 11 22 12 23 13 24
REMARK SMILES IDX 14 26 15 27 16 28 77 29 17 30 76 31 18 32 19 33 20 34 70 35
REMARK SMILES IDX 21 36 75 37 69 38 71 39 22 40 74 41 68 42 67 43 23 45 55 46
REMARK SMILES IDX 35 47 54 48 36 49 39 50 53 51 72 52 37 53 38 54 52 56 73 57
REMARK SMILES IDX 40 58 24 59 25 60 33 61 26 62 27 63 31 64 34 65 28 66 29 67
REMARK SMILES IDX 32 68 30 69 56 70 57 71 65 72 58 73 59 74 63 75 66 76 60 77
REMARK SMILES IDX 61 78 64 79 62 80 41 81 42 82 50 83 43 84 44 85 48 86 51 87
REMARK SMILES IDX 45 88 46 89 49 90 47 91
REMARK H PARENT 8 5 12 25 71 44 39 55
REMARK Flexibility Score: inf
ROOT
ATOM      1  C   UNL A   1      31.360  30.892  26.058  1.00  0.00     0.117 C 
ENDROOT
BRANCH   1   2
ATOM      2  N   UNL A   1      32.159  30.082  26.959  1.00  0.00    -0.355 N 
ATOM      3  C   UNL A   1      33.094  29.125  26.677  1.00  0.00     0.235 C 
ATOM      4  O   UNL A   1      33.674  28.578  27.621  1.00  0.00    -0.274 OA
ATOM      5  H   UNL A   1      32.005  30.247  27.917  1.00  0.00     0.163 HD
BRANCH   3   6
ATOM      6  C   UNL A   1      33.454  28.776  25.240  1.00  0.00     0.202 C 
BRANCH   6   7
ATOM      7  N   UNL A   1      32.559  27.838  24.511  1.00  0.00    -0.188 NA
BRANCH   7   8
ATOM      8  C   UNL A   1      32.186  26.661  25.307  1.00  0.00     0.129 C 
BRANCH   8   9
ATOM      9  C   UNL A   1      30.815  26.652  25.884  1.00  0.00    -0.018 C 
ATOM     10  C   UNL A   1      29.908  25.683  25.688  1.00  0.00     0.005 C 
ENDBRANCH   8   9
ENDBRANCH   7   8
BRANCH   7  11
ATOM     11  S   UNL A   1      32.542  27.896  22.825  1.00  0.00     0.220 S 
ATOM     12  O   UNL A   1      32.957  29.232  22.448  1.00  0.00    -0.212 OA
ATOM     13  O   UNL A   1      33.247  26.763  22.255  1.00  0.00    -0.212 OA
BRANCH  11  14
ATOM     14  C   UNL A   1      30.807  27.683  22.386  1.00  0.00     0.214 C 
BRANCH  14  15
ATOM     15  C   UNL A   1      29.980  28.927  22.399  1.00  0.00     0.100 A 
ATOM     16  C   UNL A   1      29.170  29.406  23.463  1.00  0.00     0.073 A 
ATOM     17  N   UNL A   1      29.865  29.728  21.332  1.00  0.00    -0.084 NA
ATOM     18  C   UNL A   1      28.599  30.556  22.974  1.00  0.00     0.133 A 
ATOM     19  O   UNL A   1      29.027  30.756  21.701  1.00  0.00    -0.361 OA
ATOM     20  C   UNL A   1      27.658  31.559  23.503  1.00  0.00     0.091 C 
ENDBRANCH  14  15
ENDBRANCH  11  14
ENDBRANCH   7  11
ENDBRANCH   6   7
ENDBRANCH   3   6
ENDBRANCH   1   2
BRANCH   1  21
ATOM     21  C   UNL A   1      31.300  32.350  26.503  1.00  0.00     0.042 C 
BRANCH  21  22
ATOM     22  C   UNL A   1      32.591  32.876  27.111  1.00  0.00     0.118 C 
BRANCH  22  23
ATOM     23  N   UNL A   1      32.449  34.227  27.635  1.00  0.00    -0.352 N 
ATOM     24  C   UNL A   1      33.071  34.861  28.684  1.00  0.00     0.251 C 
ATOM     25  H   UNL A   1      31.795  34.783  27.154  1.00  0.00     0.163 HD
ATOM     26  O   UNL A   1      32.637  35.949  29.056  1.00  0.00    -0.269 OA
BRANCH  24  27
ATOM     27  C   UNL A   1      34.232  34.263  29.386  1.00  0.00     0.039 A 
ATOM     28  C   UNL A   1      33.996  33.507  30.541  1.00  0.00     0.014 A 
ATOM     29  C   UNL A   1      35.546  34.482  28.972  1.00  0.00     0.014 A 
ATOM     30  C   UNL A   1      35.065  32.936  31.238  1.00  0.00     0.010 A 
ATOM     31  C   UNL A   1      36.602  33.826  29.604  1.00  0.00     0.010 A 
ATOM     32  C   UNL A   1      36.378  33.063  30.758  1.00  0.00    -0.014 A 
BRANCH  32  33
ATOM     33  C   UNL A   1      37.521  32.426  31.464  1.00  0.00     0.031 A 
ATOM     34  C   UNL A   1      38.259  31.273  30.836  1.00  0.00     0.074 A 
ATOM     35  C   UNL A   1      37.865  32.849  32.695  1.00  0.00     0.049 A 
ATOM     36  N   UNL A   1      39.257  30.569  31.311  1.00  0.00    -0.248 NA
ATOM     37  C   UNL A   1      37.797  30.835  29.510  1.00  0.00     0.031 C 
ATOM     38  C   UNL A   1      37.193  33.916  33.438  1.00  0.00     0.029 A 
ATOM     39  N   UNL A   1      38.858  32.427  33.545  1.00  0.00    -0.354 N 
ATOM     40  C   UNL A   1      39.524  29.597  30.354  1.00  0.00     0.074 A 
ATOM     41  C   UNL A   1      38.547  29.764  29.301  1.00  0.00     0.031 C 
ATOM     42  C   UNL A   1      37.808  34.084  34.618  1.00  0.00     0.029 A 
ATOM     43  C   UNL A   1      38.889  33.109  34.736  1.00  0.00     0.049 A 
ATOM     44  H   UNL A   1      39.487  31.704  33.320  1.00  0.00     0.167 HD
ATOM     45  C   UNL A   1      40.509  28.666  30.343  1.00  0.00     0.037 A 
ATOM     46  C   UNL A   1      39.692  32.962  35.807  1.00  0.00     0.037 A 
ATOM     47  C   UNL A   1      41.491  28.517  31.386  1.00  0.00     0.049 A 
ATOM     48  C   UNL A   1      40.778  31.923  35.774  1.00  0.00     0.074 A 
ATOM     49  C   UNL A   1      42.574  27.657  31.435  1.00  0.00     0.029 A 
ATOM     50  N   UNL A   1      41.498  29.236  32.572  1.00  0.00    -0.354 N 
ATOM     51  N   UNL A   1      41.079  31.069  34.825  1.00  0.00    -0.248 NA
ATOM     52  C   UNL A   1      41.645  31.835  36.957  1.00  0.00     0.031 C 
ATOM     53  C   UNL A   1      43.197  27.810  32.678  1.00  0.00     0.029 A 
ATOM     54  C   UNL A   1      42.546  28.815  33.376  1.00  0.00     0.049 A 
ATOM     55  H   UNL A   1      40.854  29.943  32.809  1.00  0.00     0.167 HD
ATOM     56  C   UNL A   1      42.179  30.358  35.285  1.00  0.00     0.074 A 
ATOM     57  C   UNL A   1      42.504  30.895  36.590  1.00  0.00     0.031 C 
ATOM     58  C   UNL A   1      42.857  29.351  34.678  1.00  0.00     0.037 A 
BRANCH  45  59
ATOM     59  C   UNL A   1      40.560  27.726  29.170  1.00  0.00     0.064 A 
ATOM     60  C   UNL A   1      41.423  27.941  28.081  1.00  0.00     0.173 A 
ATOM     61  C   UNL A   1      39.743  26.585  29.137  1.00  0.00     0.173 A 
ATOM     62  F   UNL A   1      42.221  29.018  28.056  1.00  0.00    -0.203 F 
ATOM     63  C   UNL A   1      41.429  27.078  26.987  1.00  0.00     0.198 A 
ATOM     64  C   UNL A   1      39.780  25.704  28.058  1.00  0.00     0.198 A 
ATOM     65  F   UNL A   1      38.906  26.322  30.152  1.00  0.00    -0.203 F 
ATOM     66  F   UNL A   1      42.210  27.344  25.931  1.00  0.00    -0.200 F 
ATOM     67  C   UNL A   1      40.613  25.957  26.980  1.00  0.00     0.200 A 
ATOM     68  F   UNL A   1      39.002  24.613  28.061  1.00  0.00    -0.200 F 
ATOM     69  F   UNL A   1      40.620  25.129  25.927  1.00  0.00    -0.200 F 
ENDBRANCH  45  59
BRANCH  46  70
ATOM     70  C   UNL A   1      39.503  33.844  36.989  1.00  0.00     0.064 A 
ATOM     71  C   UNL A   1      40.054  35.132  37.026  1.00  0.00     0.173 A 
ATOM     72  C   UNL A   1      38.745  33.428  38.093  1.00  0.00     0.173 A 
ATOM     73  F   UNL A   1      40.804  35.569  36.003  1.00  0.00    -0.203 F 
ATOM     74  C   UNL A   1      39.862  35.966  38.125  1.00  0.00     0.198 A 
ATOM     75  C   UNL A   1      38.528  34.273  39.179  1.00  0.00     0.198 A 
ATOM     76  F   UNL A   1      38.190  32.206  38.105  1.00  0.00    -0.203 F 
ATOM     77  F   UNL A   1      40.429  37.180  38.151  1.00  0.00    -0.200 F 
ATOM     78  C   UNL A   1      39.091  35.540  39.197  1.00  0.00     0.200 A 
ATOM     79  F   UNL A   1      37.768  33.863  40.203  1.00  0.00    -0.200 F 
ATOM     80  F   UNL A   1      38.895  36.347  40.248  1.00  0.00    -0.200 F 
ENDBRANCH  46  70
BRANCH  58  81
ATOM     81  C   UNL A   1      44.039  28.780  35.409  1.00  0.00     0.064 A 
ATOM     82  C   UNL A   1      45.334  29.294  35.239  1.00  0.00     0.173 A 
ATOM     83  C   UNL A   1      43.869  27.726  36.321  1.00  0.00     0.173 A 
ATOM     84  F   UNL A   1      45.555  30.292  34.369  1.00  0.00    -0.203 F 
ATOM     85  C   UNL A   1      46.415  28.755  35.931  1.00  0.00     0.198 A 
ATOM     86  C   UNL A   1      44.947  27.214  37.036  1.00  0.00     0.198 A 
ATOM     87  F   UNL A   1      42.651  27.201  36.527  1.00  0.00    -0.203 F 
ATOM     88  F   UNL A   1      47.651  29.227  35.711  1.00  0.00    -0.200 F 
ATOM     89  C   UNL A   1      46.220  27.722  36.834  1.00  0.00     0.200 A 
ATOM     90  F   UNL A   1      44.753  26.227  37.922  1.00  0.00    -0.200 F 
ATOM     91  F   UNL A   1      47.261  27.210  37.505  1.00  0.00    -0.200 F 
ENDBRANCH  58  81
ENDBRANCH  32  33
ENDBRANCH  24  27
ENDBRANCH  22  23
ENDBRANCH  21  22
ENDBRANCH   1  21
TORSDOF 16
ENDMDL
MODEL 2
REMARK VINA RESULT:     -11.0      6.410     11.780
REMARK SMILES C=CCN(CC(=O)NCCCNC(=O)c1ccc(-c2c3nc(c(-c4c(F)c(F)c(F)c(F)c4F)c4ccc([nH]4)c(-c4c(F)c(F)c(F)c(F)c4F)c4nc(c(-c5c(F)c(F)c(F)c(F)c5F)c5ccc2[nH]5)C=C4)C=C3)cc1)S(=O)(=O)Cc1cc(C)on1
REMARK SMILES IDX 9 1 8 2 6 3 7 4 5 6 4 7 3 8 2 9 1 10 78 11 79 12 80 13 81 14
REMARK SMILES IDX 82 15 83 16 87 17 84 18 86 19 85 20 10 21 11 22 12 23 13 24
REMARK SMILES IDX 14 26 15 27 16 28 77 29 17 30 76 31 18 32 19 33 20 34 70 35
REMARK SMILES IDX 21 36 75 37 69 38 71 39 22 40 74 41 68 42 67 43 23 45 55 46
REMARK SMILES IDX 35 47 54 48 36 49 39 50 53 51 72 52 37 53 38 54 52 56 73 57
REMARK SMILES IDX 40 58 24 59 25 60 33 61 26 62 27 63 31 64 34 65 28 66 29 67
REMARK SMILES IDX 32 68 30 69 56 70 57 71 65 72 58 73 59 74 63 75 66 76 60 77
REMARK SMILES IDX 61 78 64 79 62 80 41 81 42 82 50 83 43 84 44 85 48 86 51 87
REMARK SMILES IDX 45 88 46 89 49 90 47 91
REMARK H PARENT 8 5 12 25 71 44 39 55
REMARK Flexibility Score: inf
ROOT
ATOM      1  C   UNL A   1      37.420  20.560  24.650  1.00  0.00     0.117 C 
ENDROOT
BRANCH   1   2
ATOM      2  N   UNL A   1      37.797  21.769  25.358  1.00  0.00    -0.355 N 
ATOM      3  C   UNL A   1      37.279  23.031  25.272  1.00  0.00     0.235 C 
ATOM      4  O   UNL A   1      37.751  23.909  26.003  1.00  0.00    -0.274 OA
ATOM      5  H   UNL A   1      38.539  21.665  25.997  1.00  0.00     0.163 HD
BRANCH   3   6
ATOM      6  C   UNL A   1      36.115  23.342  24.343  1.00  0.00     0.202 C 
BRANCH   6   7
ATOM      7  N   UNL A   1      34.789  23.612  24.960  1.00  0.00    -0.188 NA
BRANCH   7   8
ATOM      8  C   UNL A   1      34.622  25.012  25.375  1.00  0.00     0.129 C 
BRANCH   8   9
ATOM      9  C   UNL A   1      33.698  25.845  24.559  1.00  0.00    -0.018 C 
ATOM     10  C   UNL A   1      33.094  26.963  24.988  1.00  0.00     0.005 C 
ENDBRANCH   8   9
ENDBRANCH   7   8
BRANCH   7  11
ATOM     11  S   UNL A   1      33.927  22.314  25.608  1.00  0.00     0.220 S 
ATOM     12  O   UNL A   1      34.763  21.729  26.637  1.00  0.00    -0.212 OA
ATOM     13  O   UNL A   1      32.573  22.704  25.951  1.00  0.00    -0.212 OA
BRANCH  11  14
ATOM     14  C   UNL A   1      33.786  21.144  24.243  1.00  0.00     0.214 C 
BRANCH  14  15
ATOM     15  C   UNL A   1      33.393  19.754  24.622  1.00  0.00     0.100 A 
ATOM     16  C   UNL A   1      34.208  18.591  24.577  1.00  0.00     0.073 A 
ATOM     17  N   UNL A   1      32.150  19.435  25.006  1.00  0.00    -0.084 NA
ATOM     18  C   UNL A   1      33.383  17.574  24.991  1.00  0.00     0.133 A 
ATOM     19  O   UNL A   1      32.154  18.082  25.262  1.00  0.00    -0.361 OA
ATOM     20  C   UNL A   1      33.536  16.121  25.181  1.00  0.00     0.091 C 
ENDBRANCH  14  15
ENDBRANCH  11  14
ENDBRANCH   7  11
ENDBRANCH   6   7
ENDBRANCH   3   6
ENDBRANCH   1   2
BRANCH   1  21
ATOM     21  C   UNL A   1      38.328  19.386  25.002  1.00  0.00     0.042 C 
BRANCH  21  22
ATOM     22  C   UNL A   1      39.313  19.667  26.126  1.00  0.00     0.118 C 
BRANCH  22  23
ATOM     23  N   UNL A   1      40.508  18.840  26.038  1.00  0.00    -0.352 N 
ATOM     24  C   UNL A   1      41.841  19.173  26.026  1.00  0.00     0.251 C 
ATOM     25  H   UNL A   1      40.330  17.873  25.978  1.00  0.00     0.163 HD
ATOM     26  O   UNL A   1      42.664  18.304  25.745  1.00  0.00    -0.269 OA
BRANCH  24  27
ATOM     27  C   UNL A   1      42.310  20.549  26.321  1.00  0.00     0.039 A 
ATOM     28  C   UNL A   1      42.567  21.411  25.249  1.00  0.00     0.014 A 
ATOM     29  C   UNL A   1      42.560  20.986  27.622  1.00  0.00     0.014 A 
ATOM     30  C   UNL A   1      43.021  22.711  25.485  1.00  0.00     0.010 A 
ATOM     31  C   UNL A   1      42.909  22.315  27.863  1.00  0.00     0.010 A 
ATOM     32  C   UNL A   1      43.166  23.188  26.798  1.00  0.00    -0.014 A 
BRANCH  32  33
ATOM     33  C   UNL A   1      43.606  24.583  27.066  1.00  0.00     0.031 A 
ATOM     34  C   UNL A   1      42.631  25.603  27.590  1.00  0.00     0.074 A 
ATOM     35  C   UNL A   1      44.872  24.948  26.789  1.00  0.00     0.049 A 
ATOM     36  N   UNL A   1      42.819  26.873  27.853  1.00  0.00    -0.248 NA
ATOM     37  C   UNL A   1      41.253  25.144  27.824  1.00  0.00     0.031 C 
ATOM     38  C   UNL A   1      45.898  24.071  26.224  1.00  0.00     0.029 A 
ATOM     39  N   UNL A   1      45.511  26.155  26.936  1.00  0.00    -0.354 N 
ATOM     40  C   UNL A   1      41.584  27.363  28.261  1.00  0.00     0.074 A 
ATOM     41  C   UNL A   1      40.642  26.271  28.153  1.00  0.00     0.031 C 
ATOM     42  C   UNL A   1      47.043  24.759  26.096  1.00  0.00     0.029 A 
ATOM     43  C   UNL A   1      46.822  26.136  26.531  1.00  0.00     0.049 A 
ATOM     44  H   UNL A   1      45.069  26.957  27.298  1.00  0.00     0.167 HD
ATOM     45  C   UNL A   1      41.268  28.604  28.706  1.00  0.00     0.037 A 
ATOM     46  C   UNL A   1      47.743  27.118  26.502  1.00  0.00     0.037 A 
ATOM     47  C   UNL A   1      42.216  29.682  28.829  1.00  0.00     0.049 A 
ATOM     48  C   UNL A   1      47.373  28.488  27.001  1.00  0.00     0.074 A 
ATOM     49  C   UNL A   1      42.015  30.952  29.341  1.00  0.00     0.029 A 
ATOM     50  N   UNL A   1      43.540  29.621  28.420  1.00  0.00    -0.354 N 
ATOM     51  N   UNL A   1      46.225  28.916  27.469  1.00  0.00    -0.248 NA
ATOM     52  C   UNL A   1      48.429  29.508  26.978  1.00  0.00     0.031 C 
ATOM     53  C   UNL A   1      43.200  31.679  29.181  1.00  0.00     0.029 A 
ATOM     54  C   UNL A   1      44.159  30.842  28.634  1.00  0.00     0.049 A 
ATOM     55  H   UNL A   1      43.976  28.826  28.034  1.00  0.00     0.167 HD
ATOM     56  C   UNL A   1      46.425  30.245  27.816  1.00  0.00     0.074 A 
ATOM     57  C   UNL A   1      47.811  30.546  27.522  1.00  0.00     0.031 C 
ATOM     58  C   UNL A   1      45.539  31.134  28.331  1.00  0.00     0.037 A 
BRANCH  45  59
ATOM     59  C   UNL A   1      39.835  28.862  29.079  1.00  0.00     0.064 A 
ATOM     60  C   UNL A   1      38.895  29.328  28.144  1.00  0.00     0.173 A 
ATOM     61  C   UNL A   1      39.388  28.628  30.389  1.00  0.00     0.173 A 
ATOM     62  F   UNL A   1      39.267  29.575  26.879  1.00  0.00    -0.203 F 
ATOM     63  C   UNL A   1      37.580  29.596  28.518  1.00  0.00     0.198 A 
ATOM     64  C   UNL A   1      38.062  28.861  30.750  1.00  0.00     0.198 A 
ATOM     65  F   UNL A   1      40.237  28.173  31.323  1.00  0.00    -0.203 F 
ATOM     66  F   UNL A   1      36.722  30.106  27.624  1.00  0.00    -0.200 F 
ATOM     67  C   UNL A   1      37.163  29.356  29.819  1.00  0.00     0.200 A 
ATOM     68  F   UNL A   1      37.658  28.612  32.003  1.00  0.00    -0.200 F 
ATOM     69  F   UNL A   1      35.898  29.614  30.176  1.00  0.00    -0.200 F 
ENDBRANCH  45  59
BRANCH  46  70
ATOM     70  C   UNL A   1      49.111  26.824  25.999  1.00  0.00     0.064 A 
ATOM     71  C   UNL A   1      50.099  26.308  26.850  1.00  0.00     0.173 A 
ATOM     72  C   UNL A   1      49.451  27.026  24.653  1.00  0.00     0.173 A 
ATOM     73  F   UNL A   1      49.829  26.117  28.150  1.00  0.00    -0.203 F 
ATOM     74  C   UNL A   1      51.375  26.015  26.377  1.00  0.00     0.198 A 
ATOM     75  C   UNL A   1      50.718  26.704  24.174  1.00  0.00     0.198 A 
ATOM     76  F   UNL A   1      48.540  27.511  23.797  1.00  0.00    -0.203 F 
ATOM     77  F   UNL A   1      52.311  25.556  27.218  1.00  0.00    -0.200 F 
ATOM     78  C   UNL A   1      51.681  26.203  25.036  1.00  0.00     0.200 A 
ATOM     79  F   UNL A   1      51.003  26.871  22.876  1.00  0.00    -0.200 F 
ATOM     80  F   UNL A   1      52.905  25.908  24.579  1.00  0.00    -0.200 F 
ENDBRANCH  46  70
BRANCH  58  81
ATOM     81  C   UNL A   1      46.048  32.514  28.638  1.00  0.00     0.064 A 
ATOM     82  C   UNL A   1      46.633  32.829  29.875  1.00  0.00     0.173 A 
ATOM     83  C   UNL A   1      45.984  33.527  27.668  1.00  0.00     0.173 A 
ATOM     84  F   UNL A   1      46.707  31.903  30.843  1.00  0.00    -0.203 F 
ATOM     85  C   UNL A   1      47.106  34.112  30.137  1.00  0.00     0.198 A 
ATOM     86  C   UNL A   1      46.489  34.798  27.922  1.00  0.00     0.198 A 
ATOM     87  F   UNL A   1      45.441  33.278  26.466  1.00  0.00    -0.203 F 
ATOM     88  F   UNL A   1      47.610  34.405  31.344  1.00  0.00    -0.200 F 
ATOM     89  C   UNL A   1      47.041  35.093  29.158  1.00  0.00     0.200 A 
ATOM     90  F   UNL A   1      46.442  35.739  26.968  1.00  0.00    -0.200 F 
ATOM     91  F   UNL A   1      47.504  36.325  29.411  1.00  0.00    -0.200 F 
ENDBRANCH  58  81
ENDBRANCH  32  33
ENDBRANCH  24  27
ENDBRANCH  22  23
ENDBRANCH  21  22
ENDBRANCH   1  21
TORSDOF 16
ENDMDL
MODEL 3
REMARK VINA RESULT:     -11.0      1.025      7.561
REMARK SMILES C=CCN(CC(=O)NCCCNC(=O)c1ccc(-c2c3nc(c(-c4c(F)c(F)c(F)c(F)c4F)c4ccc([nH]4)c(-c4c(F)c(F)c(F)c(F)c4F)c4nc(c(-c5c(F)c(F)c(F)c(F)c5F)c5ccc2[nH]5)C=C4)C=C3)cc1)S(=O)(=O)Cc1cc(C)on1
REMARK SMILES IDX 9 1 8 2 6 3 7 4 5 6 4 7 3 8 2 9 1 10 78 11 79 12 80 13 81 14
REMARK SMILES IDX 82 15 83 16 87 17 84 18 86 19 85 20 10 21 11 22 12 23 13 24
REMARK SMILES IDX 14 26 15 27 16 28 77 29 17 30 76 31 18 32 19 33 20 34 70 35
REMARK SMILES IDX 21 36 75 37 69 38 71 39 22 40 74 41 68 42 67 43 23 45 55 46
REMARK SMILES IDX 35 47 54 48 36 49 39 50 53 51 72 52 37 53 38 54 52 56 73 57
REMARK SMILES IDX 40 58 24 59 25 60 33 61 26 62 27 63 31 64 34 65 28 66 29 67
REMARK SMILES IDX 32 68 30 69 56 70 57 71 65 72 58 73 59 74 63 75 66 76 60 77
REMARK SMILES IDX 61 78 64 79 62 80 41 81 42 82 50 83 43 84 44 85 48 86 51 87
REMARK SMILES IDX 45 88 46 89 49 90 47 91
REMARK H PARENT 8 5 12 25 71 44 39 55
REMARK Flexibility Score: inf
ROOT
ATOM      1  C   UNL A   1      31.513  30.820  26.157  1.00  0.00     0.117 C 
ENDROOT
BRANCH   1   2
ATOM      2  N   UNL A   1      32.741  30.174  26.583  1.00  0.00    -0.355 N 
ATOM      3  C   UNL A   1      32.979  28.863  26.888  1.00  0.00     0.235 C 
ATOM      4  O   UNL A   1      34.127  28.535  27.206  1.00  0.00    -0.274 OA
ATOM      5  H   UNL A   1      33.520  30.770  26.663  1.00  0.00     0.163 HD
BRANCH   3   6
ATOM      6  C   UNL A   1      31.875  27.819  26.790  1.00  0.00     0.202 C 
BRANCH   6   7
ATOM      7  N   UNL A   1      31.950  26.835  25.678  1.00  0.00    -0.188 NA
BRANCH   7   8
ATOM      8  C   UNL A   1      32.763  25.656  26.006  1.00  0.00     0.129 C 
BRANCH   8   9
ATOM      9  C   UNL A   1      34.112  25.580  25.384  1.00  0.00    -0.018 C 
ATOM     10  C   UNL A   1      34.447  24.757  24.380  1.00  0.00     0.005 C 
ENDBRANCH   8   9
ENDBRANCH   7   8
BRANCH   7  11
ATOM     11  S   UNL A   1      31.637  27.373  24.110  1.00  0.00     0.220 S 
ATOM     12  O   UNL A   1      32.576  28.443  23.839  1.00  0.00    -0.212 OA
ATOM     13  O   UNL A   1      31.562  26.263  23.180  1.00  0.00    -0.212 OA
BRANCH  11  14
ATOM     14  C   UNL A   1      29.976  28.070  24.198  1.00  0.00     0.214 C 
BRANCH  14  15
ATOM     15  C   UNL A   1      29.661  29.119  23.184  1.00  0.00     0.100 A 
ATOM     16  C   UNL A   1      29.032  30.372  23.415  1.00  0.00     0.073 A 
ATOM     17  N   UNL A   1      29.896  28.952  21.876  1.00  0.00    -0.084 NA
ATOM     18  C   UNL A   1      28.944  30.950  22.171  1.00  0.00     0.133 A 
ATOM     19  O   UNL A   1      29.475  30.105  21.251  1.00  0.00    -0.361 OA
ATOM     20  C   UNL A   1      28.411  32.220  21.648  1.00  0.00     0.091 C 
ENDBRANCH  14  15
ENDBRANCH  11  14
ENDBRANCH   7  11
ENDBRANCH   6   7
ENDBRANCH   3   6
ENDBRANCH   1   2
BRANCH   1  21
ATOM     21  C   UNL A   1      31.375  32.223  26.740  1.00  0.00     0.042 C 
BRANCH  21  22
ATOM     22  C   UNL A   1      32.692  32.960  26.924  1.00  0.00     0.118 C 
BRANCH  22  23
ATOM     23  N   UNL A   1      32.527  34.225  27.626  1.00  0.00    -0.352 N 
ATOM     24  C   UNL A   1      33.140  34.723  28.751  1.00  0.00     0.251 C 
ATOM     25  H   UNL A   1      31.863  34.830  27.223  1.00  0.00     0.163 HD
ATOM     26  O   UNL A   1      32.688  35.744  29.266  1.00  0.00    -0.269 OA
BRANCH  24  27
ATOM     27  C   UNL A   1      34.312  34.057  29.368  1.00  0.00     0.039 A 
ATOM     28  C   UNL A   1      34.086  33.036  30.299  1.00  0.00     0.014 A 
ATOM     29  C   UNL A   1      35.622  34.454  29.098  1.00  0.00     0.014 A 
ATOM     30  C   UNL A   1      35.164  32.391  30.912  1.00  0.00     0.010 A 
ATOM     31  C   UNL A   1      36.698  33.741  29.626  1.00  0.00     0.010 A 
ATOM     32  C   UNL A   1      36.483  32.714  30.556  1.00  0.00    -0.014 A 
BRANCH  32  33
ATOM     33  C   UNL A   1      37.640  32.007  31.166  1.00  0.00     0.031 A 
ATOM     34  C   UNL A   1      38.113  32.371  32.549  1.00  0.00     0.074 A 
ATOM     35  C   UNL A   1      38.300  31.071  30.458  1.00  0.00     0.049 A 
ATOM     36  N   UNL A   1      39.122  31.891  33.234  1.00  0.00    -0.248 NA
ATOM     37  C   UNL A   1      37.373  33.435  33.243  1.00  0.00     0.031 C 
ATOM     38  C   UNL A   1      37.979  30.669  29.088  1.00  0.00     0.029 A 
ATOM     39  N   UNL A   1      39.384  30.296  30.787  1.00  0.00    -0.354 N 
ATOM     40  C   UNL A   1      39.147  32.607  34.424  1.00  0.00     0.074 A 
ATOM     41  C   UNL A   1      38.092  33.594  34.344  1.00  0.00     0.031 C 
ATOM     42  C   UNL A   1      38.828  29.704  28.703  1.00  0.00     0.029 A 
ATOM     43  C   UNL A   1      39.780  29.449  29.781  1.00  0.00     0.049 A 
ATOM     44  H   UNL A   1      39.835  30.343  31.661  1.00  0.00     0.167 HD
ATOM     45  C   UNL A   1      39.960  32.443  35.497  1.00  0.00     0.037 A 
ATOM     46  C   UNL A   1      40.799  28.571  29.727  1.00  0.00     0.037 A 
ATOM     47  C   UNL A   1      40.996  31.446  35.578  1.00  0.00     0.049 A 
ATOM     48  C   UNL A   1      41.689  28.403  30.927  1.00  0.00     0.074 A 
ATOM     49  C   UNL A   1      41.823  31.146  36.647  1.00  0.00     0.029 A 
ATOM     50  N   UNL A   1      41.359  30.596  34.543  1.00  0.00    -0.354 N 
ATOM     51  N   UNL A   1      41.647  29.024  32.082  1.00  0.00    -0.248 NA
ATOM     52  C   UNL A   1      42.762  27.406  30.821  1.00  0.00     0.031 C 
ATOM     53  C   UNL A   1      42.728  30.161  36.236  1.00  0.00     0.029 A 
ATOM     54  C   UNL A   1      42.421  29.797  34.935  1.00  0.00     0.049 A 
ATOM     55  H   UNL A   1      40.925  30.566  33.659  1.00  0.00     0.167 HD
ATOM     56  C   UNL A   1      42.670  28.479  32.847  1.00  0.00     0.074 A 
ATOM     57  C   UNL A   1      43.302  27.464  32.030  1.00  0.00     0.031 C 
ATOM     58  C   UNL A   1      43.048  28.793  34.111  1.00  0.00     0.037 A 
BRANCH  45  59
ATOM     59  C   UNL A   1      39.767  33.374  36.661  1.00  0.00     0.064 A 
ATOM     60  C   UNL A   1      38.880  33.079  37.711  1.00  0.00     0.173 A 
ATOM     61  C   UNL A   1      40.487  34.576  36.737  1.00  0.00     0.173 A 
ATOM     62  F   UNL A   1      38.160  31.948  37.689  1.00  0.00    -0.203 F 
ATOM     63  C   UNL A   1      38.689  33.973  38.763  1.00  0.00     0.198 A 
ATOM     64  C   UNL A   1      40.321  35.449  37.810  1.00  0.00     0.198 A 
ATOM     65  F   UNL A   1      41.356  34.907  35.769  1.00  0.00    -0.203 F 
ATOM     66  F   UNL A   1      37.787  33.699  39.715  1.00  0.00    -0.200 F 
ATOM     67  C   UNL A   1      39.414  35.153  38.815  1.00  0.00     0.200 A 
ATOM     68  F   UNL A   1      41.036  36.582  37.867  1.00  0.00    -0.200 F 
ATOM     69  F   UNL A   1      39.228  36.011  39.828  1.00  0.00    -0.200 F 
ENDBRANCH  45  59
BRANCH  46  70
ATOM     70  C   UNL A   1      41.011  27.770  28.492  1.00  0.00     0.064 A 
ATOM     71  C   UNL A   1      40.353  26.548  28.301  1.00  0.00     0.173 A 
ATOM     72  C   UNL A   1      41.853  28.225  27.466  1.00  0.00     0.173 A 
ATOM     73  F   UNL A   1      39.553  26.061  29.262  1.00  0.00    -0.203 F 
ATOM     74  C   UNL A   1      40.536  25.806  27.137  1.00  0.00     0.198 A 
ATOM     75  C   UNL A   1      42.012  27.497  26.289  1.00  0.00     0.198 A 
ATOM     76  F   UNL A   1      42.501  29.392  27.596  1.00  0.00    -0.203 F 
ATOM     77  F   UNL A   1      39.923  24.623  26.994  1.00  0.00    -0.200 F 
ATOM     78  C   UNL A   1      41.358  26.286  26.127  1.00  0.00     0.200 A 
ATOM     79  F   UNL A   1      42.793  27.973  25.310  1.00  0.00    -0.200 F 
ATOM     80  F   UNL A   1      41.523  25.578  25.001  1.00  0.00    -0.200 F 
ENDBRANCH  46  70
BRANCH  58  81
ATOM     81  C   UNL A   1      44.186  28.010  34.703  1.00  0.00     0.064 A 
ATOM     82  C   UNL A   1      45.513  28.464  34.633  1.00  0.00     0.173 A 
ATOM     83  C   UNL A   1      43.942  26.807  35.384  1.00  0.00     0.173 A 
ATOM     84  F   UNL A   1      45.804  29.601  33.983  1.00  0.00    -0.203 F 
ATOM     85  C   UNL A   1      46.552  27.727  35.195  1.00  0.00     0.198 A 
ATOM     86  C   UNL A   1      44.979  26.091  35.974  1.00  0.00     0.198 A 
ATOM     87  F   UNL A   1      42.692  26.330  35.487  1.00  0.00    -0.203 F 
ATOM     88  F   UNL A   1      47.817  28.152  35.068  1.00  0.00    -0.200 F 
ATOM     89  C   UNL A   1      46.284  26.547  35.872  1.00  0.00     0.200 A 
ATOM     90  F   UNL A   1      44.716  24.960  36.642  1.00  0.00    -0.200 F 
ATOM     91  F   UNL A   1      47.286  25.844  36.417  1.00  0.00    -0.200 F 
ENDBRANCH  58  81
ENDBRANCH  32  33
ENDBRANCH  24  27
ENDBRANCH  22  23
ENDBRANCH  21  22
ENDBRANCH   1  21
TORSDOF 16
ENDMDL
