MODEL 1
REMARK VINA RESULT:     -14.2      0.000      0.000
REMARK SMILES Cc1ccc(N2C(=O)[NH+]=C(NCCCNC(=O)c3ccc(-c4c5nc(c(-c6c(F)c(F)c(F)c(F)c6F)c6ccc([nH]6)c(-c6c(F)c(F)c(F)c(F)c6F)c6nc(c(-c7c(F)c(F)c(F)c(F)c7F)c7ccc4[nH]7)C=C6)C=C5)cc3)/C(=C\c3ccccc3OCc3cccc(C(=O)[O-])c3)C2=O)cc1
REMARK SMILES IDX 12 1 11 2 6 3 7 4 100 5 8 6 9 7 81 8 101 9 10 10 82 12 5 14
REMARK SMILES IDX 1 15 2 16 3 17 103 18 4 19 102 20 83 21 84 22 88 23 85 24
REMARK SMILES IDX 87 25 86 26 89 27 90 28 91 29 92 30 99 31 93 32 95 33 94 34
REMARK SMILES IDX 96 35 97 36 98 37 13 38 14 39 15 40 16 41 17 43 18 44 19 45
REMARK SMILES IDX 80 46 20 47 79 48 21 49 22 50 23 51 73 52 24 53 78 54 72 55
REMARK SMILES IDX 74 56 25 57 77 58 71 59 70 60 26 62 58 63 38 64 57 65 39 66
REMARK SMILES IDX 42 67 56 68 75 69 40 70 41 71 55 73 76 74 43 75 27 76 28 77
REMARK SMILES IDX 36 78 29 79 30 80 34 81 37 82 31 83 32 84 35 85 33 86 59 87
REMARK SMILES IDX 60 88 68 89 61 90 62 91 66 92 69 93 63 94 64 95 67 96 65 97
REMARK SMILES IDX 44 98 45 99 53 100 46 101 47 102 51 103 54 104 48 105 49 106
REMARK SMILES IDX 52 107 50 108
REMARK H PARENT 9 11 11 13 15 42 74 61 42 72
REMARK Flexibility Score: inf
ROOT
ATOM      1  C   UNL A   1      35.560  23.242  25.038  1.00  0.00     0.195 C 
ENDROOT
BRANCH   1   2
ATOM      2  N   UNL A   1      34.342  23.455  25.834  1.00  0.00    -0.305 N 
ATOM      3  N   UNL A   1      32.834  27.314  26.314  1.00  0.00    -0.155 N 
ATOM      4  C   UNL A   1      34.181  27.023  26.042  1.00  0.00     0.448 C 
ATOM      5  C   UNL A   1      31.884  26.325  26.514  1.00  0.00     0.328 C 
ATOM      6  O   UNL A   1      35.027  27.901  25.883  1.00  0.00    -0.212 OA
ATOM      7  N   UNL A   1      34.598  25.723  25.997  1.00  0.00    -0.209 N 
ATOM      8  C   UNL A   1      32.315  24.990  26.042  1.00  0.00     0.129 C 
ATOM      9  O   UNL A   1      30.726  26.483  26.904  1.00  0.00    -0.249 OA
ATOM     10  C   UNL A   1      33.781  24.718  25.964  1.00  0.00     0.236 C 
ATOM     11  H   UNL A   1      35.566  25.541  25.990  1.00  0.00     0.270 HD
ATOM     12  C   UNL A   1      31.315  24.273  25.492  1.00  0.00     0.034 C 
ATOM     13  H   UNL A   1      33.918  22.688  26.284  1.00  0.00     0.256 HD
BRANCH   3  14
ATOM     14  C   UNL A   1      32.410  28.684  26.356  1.00  0.00     0.111 A 
ATOM     15  C   UNL A   1      31.197  32.828  26.461  1.00  0.00     0.044 C 
ATOM     16  C   UNL A   1      31.622  31.393  26.414  1.00  0.00    -0.051 A 
ATOM     17  C   UNL A   1      32.569  30.913  27.322  1.00  0.00     0.007 A 
ATOM     18  C   UNL A   1      31.089  30.521  25.463  1.00  0.00     0.007 A 
ATOM     19  C   UNL A   1      32.951  29.571  27.299  1.00  0.00     0.044 A 
ATOM     20  C   UNL A   1      31.483  29.183  25.433  1.00  0.00     0.044 A 
ENDBRANCH   3  14
BRANCH  12  21
ATOM     21  C   UNL A   1      31.491  23.024  24.772  1.00  0.00     0.018 A 
ATOM     22  C   UNL A   1      31.517  21.903  25.606  1.00  0.00     0.012 A 
ATOM     23  C   UNL A   1      31.855  22.914  23.421  1.00  0.00     0.127 A 
ATOM     24  C   UNL A   1      32.112  20.745  25.153  1.00  0.00     0.001 A 
ATOM     25  C   UNL A   1      32.404  21.721  22.968  1.00  0.00     0.047 A 
ATOM     26  C   UNL A   1      32.602  20.680  23.853  1.00  0.00     0.004 A 
BRANCH  23  27
ATOM     27  O   UNL A   1      31.980  23.905  22.501  1.00  0.00    -0.488 OA
BRANCH  27  28
ATOM     28  C   UNL A   1      33.204  24.601  22.342  1.00  0.00     0.265 C 
BRANCH  28  29
ATOM     29  C   UNL A   1      32.890  26.078  22.345  1.00  0.00    -0.010 A 
ATOM     30  C   UNL A   1      33.934  27.009  22.422  1.00  0.00     0.007 A 
ATOM     31  C   UNL A   1      31.565  26.542  22.307  1.00  0.00     0.017 A 
ATOM     32  C   UNL A   1      33.661  28.376  22.461  1.00  0.00     0.001 A 
ATOM     33  C   UNL A   1      31.285  27.910  22.369  1.00  0.00    -0.002 A 
ATOM     34  C   UNL A   1      32.340  28.827  22.446  1.00  0.00     0.010 A 
BRANCH  33  35
ATOM     35  C   UNL A   1      29.894  28.405  22.408  1.00  0.00     0.071 C 
ATOM     36  O   UNL A   1      28.983  27.928  23.076  1.00  0.00    -0.545 OA
ATOM     37  O   UNL A   1      29.687  29.461  21.604  1.00  0.00    -0.545 OA
ENDBRANCH  33  35
ENDBRANCH  28  29
ENDBRANCH  27  28
ENDBRANCH  23  27
ENDBRANCH  12  21
ENDBRANCH   1   2
BRANCH   1  38
ATOM     38  C   UNL A   1      36.423  22.103  25.565  1.00  0.00     0.059 C 
BRANCH  38  39
ATOM     39  C   UNL A   1      37.831  22.060  24.993  1.00  0.00     0.119 C 
BRANCH  39  40
ATOM     40  N   UNL A   1      38.894  21.745  25.942  1.00  0.00    -0.352 N 
ATOM     41  C   UNL A   1      39.779  22.576  26.606  1.00  0.00     0.251 C 
ATOM     42  H   UNL A   1      38.997  20.786  26.141  1.00  0.00     0.163 HD
ATOM     43  O   UNL A   1      40.726  22.070  27.205  1.00  0.00    -0.269 OA
BRANCH  41  44
ATOM     44  C   UNL A   1      39.521  24.036  26.765  1.00  0.00     0.039 A 
ATOM     45  C   UNL A   1      40.363  24.931  26.077  1.00  0.00     0.014 A 
ATOM     46  C   UNL A   1      38.674  24.532  27.740  1.00  0.00     0.014 A 
ATOM     47  C   UNL A   1      40.566  26.221  26.565  1.00  0.00     0.010 A 
ATOM     48  C   UNL A   1      38.961  25.750  28.301  1.00  0.00     0.010 A 
ATOM     49  C   UNL A   1      39.968  26.560  27.764  1.00  0.00    -0.014 A 
BRANCH  49  50
ATOM     50  C   UNL A   1      40.284  27.716  28.585  1.00  0.00     0.031 A 
ATOM     51  C   UNL A   1      39.324  28.833  28.557  1.00  0.00     0.074 A 
ATOM     52  C   UNL A   1      41.186  27.577  29.587  1.00  0.00     0.049 A 
ATOM     53  N   UNL A   1      39.462  29.906  29.240  1.00  0.00    -0.248 NA
ATOM     54  C   UNL A   1      38.106  28.823  27.750  1.00  0.00     0.031 C 
ATOM     55  C   UNL A   1      41.219  28.277  30.874  1.00  0.00     0.029 A 
ATOM     56  N   UNL A   1      42.309  26.745  29.646  1.00  0.00    -0.354 N 
ATOM     57  C   UNL A   1      38.281  30.605  29.182  1.00  0.00     0.074 A 
ATOM     58  C   UNL A   1      37.481  29.912  28.204  1.00  0.00     0.031 C 
ATOM     59  C   UNL A   1      42.397  28.045  31.480  1.00  0.00     0.029 A 
ATOM     60  C   UNL A   1      43.235  27.351  30.523  1.00  0.00     0.049 A 
ATOM     61  H   UNL A   1      42.430  25.894  29.165  1.00  0.00     0.167 HD
ATOM     62  C   UNL A   1      38.116  31.632  30.061  1.00  0.00     0.037 A 
ATOM     63  C   UNL A   1      44.421  27.791  30.006  1.00  0.00     0.037 A 
ATOM     64  C   UNL A   1      39.329  31.807  30.867  1.00  0.00     0.049 A 
ATOM     65  C   UNL A   1      44.475  29.303  29.984  1.00  0.00     0.074 A 
ATOM     66  C   UNL A   1      39.733  31.381  32.120  1.00  0.00     0.029 A 
ATOM     67  N   UNL A   1      40.482  32.198  30.214  1.00  0.00    -0.354 N 
ATOM     68  N   UNL A   1      43.470  30.064  30.324  1.00  0.00    -0.248 NA
ATOM     69  C   UNL A   1      45.623  30.081  29.534  1.00  0.00     0.031 C 
ATOM     70  C   UNL A   1      41.157  31.512  32.191  1.00  0.00     0.029 A 
ATOM     71  C   UNL A   1      41.609  32.031  30.989  1.00  0.00     0.049 A 
ATOM     72  H   UNL A   1      40.496  32.557  29.296  1.00  0.00     0.167 HD
ATOM     73  C   UNL A   1      43.785  31.372  30.139  1.00  0.00     0.074 A 
ATOM     74  C   UNL A   1      45.140  31.335  29.611  1.00  0.00     0.031 C 
ATOM     75  C   UNL A   1      42.904  32.377  30.417  1.00  0.00     0.037 A 
BRANCH  62  76
ATOM     76  C   UNL A   1      36.840  32.392  30.317  1.00  0.00     0.064 A 
ATOM     77  C   UNL A   1      36.430  33.395  29.412  1.00  0.00     0.173 A 
ATOM     78  C   UNL A   1      35.971  32.194  31.408  1.00  0.00     0.173 A 
ATOM     79  F   UNL A   1      37.129  33.663  28.302  1.00  0.00    -0.203 F 
ATOM     80  C   UNL A   1      35.283  34.165  29.609  1.00  0.00     0.198 A 
ATOM     81  C   UNL A   1      34.844  32.994  31.627  1.00  0.00     0.198 A 
ATOM     82  F   UNL A   1      36.138  31.187  32.271  1.00  0.00    -0.203 F 
ATOM     83  F   UNL A   1      34.946  35.093  28.703  1.00  0.00    -0.200 F 
ATOM     84  C   UNL A   1      34.499  33.978  30.726  1.00  0.00     0.200 A 
ATOM     85  F   UNL A   1      34.087  32.790  32.715  1.00  0.00    -0.200 F 
ATOM     86  F   UNL A   1      33.406  34.728  30.924  1.00  0.00    -0.200 F 
ENDBRANCH  62  76
BRANCH  63  87
ATOM     87  C   UNL A   1      44.887  26.845  28.936  1.00  0.00     0.064 A 
ATOM     88  C   UNL A   1      45.231  25.541  29.367  1.00  0.00     0.173 A 
ATOM     89  C   UNL A   1      44.411  26.982  27.623  1.00  0.00     0.173 A 
ATOM     90  F   UNL A   1      45.701  25.352  30.611  1.00  0.00    -0.203 F 
ATOM     91  C   UNL A   1      44.878  24.419  28.618  1.00  0.00     0.198 A 
ATOM     92  C   UNL A   1      44.106  25.852  26.859  1.00  0.00     0.198 A 
ATOM     93  F   UNL A   1      44.071  28.190  27.150  1.00  0.00    -0.203 F 
ATOM     94  F   UNL A   1      45.003  23.194  29.150  1.00  0.00    -0.200 F 
ATOM     95  C   UNL A   1      44.274  24.577  27.384  1.00  0.00     0.200 A 
ATOM     96  F   UNL A   1      43.525  25.998  25.659  1.00  0.00    -0.200 F 
ATOM     97  F   UNL A   1      43.797  23.510  26.729  1.00  0.00    -0.200 F 
ENDBRANCH  63  87
BRANCH  75  98
ATOM     98  C   UNL A   1      43.221  33.813  30.142  1.00  0.00     0.064 A 
ATOM     99  C   UNL A   1      43.292  34.762  31.167  1.00  0.00     0.173 A 
ATOM    100  C   UNL A   1      43.392  34.296  28.827  1.00  0.00     0.173 A 
ATOM    101  F   UNL A   1      43.047  34.417  32.440  1.00  0.00    -0.203 F 
ATOM    102  C   UNL A   1      43.612  36.092  30.903  1.00  0.00     0.198 A 
ATOM    103  C   UNL A   1      43.632  35.638  28.560  1.00  0.00     0.198 A 
ATOM    104  F   UNL A   1      43.374  33.480  27.763  1.00  0.00    -0.203 F 
ATOM    105  F   UNL A   1      43.771  36.949  31.921  1.00  0.00    -0.200 F 
ATOM    106  C   UNL A   1      43.775  36.531  29.600  1.00  0.00     0.200 A 
ATOM    107  F   UNL A   1      43.745  36.050  27.289  1.00  0.00    -0.200 F 
ATOM    108  F   UNL A   1      44.078  37.810  29.347  1.00  0.00    -0.200 F 
ENDBRANCH  75  98
ENDBRANCH  49  50
ENDBRANCH  41  44
ENDBRANCH  39  40
ENDBRANCH  38  39
ENDBRANCH   1  38
TORSDOF 15
ENDMDL
MODEL 2
REMARK VINA RESULT:     -13.9      1.094      2.111
REMARK SMILES Cc1ccc(N2C(=O)[NH+]=C(NCCCNC(=O)c3ccc(-c4c5nc(c(-c6c(F)c(F)c(F)c(F)c6F)c6ccc([nH]6)c(-c6c(F)c(F)c(F)c(F)c6F)c6nc(c(-c7c(F)c(F)c(F)c(F)c7F)c7ccc4[nH]7)C=C6)C=C5)cc3)/C(=C\c3ccccc3OCc3cccc(C(=O)[O-])c3)C2=O)cc1
REMARK SMILES IDX 12 1 11 2 6 3 7 4 100 5 8 6 9 7 81 8 101 9 10 10 82 12 5 14
REMARK SMILES IDX 1 15 2 16 3 17 103 18 4 19 102 20 83 21 84 22 88 23 85 24
REMARK SMILES IDX 87 25 86 26 89 27 90 28 91 29 92 30 99 31 93 32 95 33 94 34
REMARK SMILES IDX 96 35 97 36 98 37 13 38 14 39 15 40 16 41 17 43 18 44 19 45
REMARK SMILES IDX 80 46 20 47 79 48 21 49 22 50 23 51 73 52 24 53 78 54 72 55
REMARK SMILES IDX 74 56 25 57 77 58 71 59 70 60 26 62 58 63 38 64 57 65 39 66
REMARK SMILES IDX 42 67 56 68 75 69 40 70 41 71 55 73 76 74 43 75 27 76 28 77
REMARK SMILES IDX 36 78 29 79 30 80 34 81 37 82 31 83 32 84 35 85 33 86 59 87
REMARK SMILES IDX 60 88 68 89 61 90 62 91 66 92 69 93 63 94 64 95 67 96 65 97
REMARK SMILES IDX 44 98 45 99 53 100 46 101 47 102 51 103 54 104 48 105 49 106
REMARK SMILES IDX 52 107 50 108
REMARK H PARENT 9 11 11 13 15 42 74 61 42 72
REMARK Flexibility Score: inf
ROOT
ATOM      1  C   UNL A   1      36.195  20.790  24.483  1.00  0.00     0.195 C 
ENDROOT
BRANCH   1   2
ATOM      2  N   UNL A   1      35.164  20.960  25.517  1.00  0.00    -0.305 N 
ATOM      3  N   UNL A   1      33.546  24.740  26.224  1.00  0.00    -0.155 N 
ATOM      4  C   UNL A   1      34.820  24.518  25.676  1.00  0.00     0.448 C 
ATOM      5  C   UNL A   1      32.726  23.704  26.645  1.00  0.00     0.328 C 
ATOM      6  O   UNL A   1      35.554  25.438  25.319  1.00  0.00    -0.212 OA
ATOM      7  N   UNL A   1      35.302  23.243  25.571  1.00  0.00    -0.209 N 
ATOM      8  C   UNL A   1      33.132  22.381  26.121  1.00  0.00     0.129 C 
ATOM      9  O   UNL A   1      31.671  23.808  27.271  1.00  0.00    -0.249 OA
ATOM     10  C   UNL A   1      34.563  22.192  25.736  1.00  0.00     0.236 C 
ATOM     11  H   UNL A   1      36.255  23.118  25.360  1.00  0.00     0.270 HD
ATOM     12  C   UNL A   1      32.087  21.587  25.814  1.00  0.00     0.034 C 
ATOM     13  H   UNL A   1      34.896  20.187  26.064  1.00  0.00     0.256 HD
BRANCH   3  14
ATOM     14  C   UNL A   1      33.053  26.082  26.326  1.00  0.00     0.111 A 
ATOM     15  C   UNL A   1      31.557  30.117  26.705  1.00  0.00     0.044 C 
ATOM     16  C   UNL A   1      32.082  28.720  26.583  1.00  0.00    -0.051 A 
ATOM     17  C   UNL A   1      31.215  27.632  26.712  1.00  0.00     0.007 A 
ATOM     18  C   UNL A   1      33.438  28.485  26.350  1.00  0.00     0.007 A 
ATOM     19  C   UNL A   1      31.694  26.328  26.575  1.00  0.00     0.044 A 
ATOM     20  C   UNL A   1      33.917  27.181  26.228  1.00  0.00     0.044 A 
ENDBRANCH   3  14
BRANCH  12  21
ATOM     21  C   UNL A   1      32.186  20.326  25.102  1.00  0.00     0.018 A 
ATOM     22  C   UNL A   1      32.555  19.255  25.920  1.00  0.00     0.012 A 
ATOM     23  C   UNL A   1      32.174  20.184  23.706  1.00  0.00     0.127 A 
ATOM     24  C   UNL A   1      33.119  18.136  25.345  1.00  0.00     0.001 A 
ATOM     25  C   UNL A   1      32.697  19.026  23.144  1.00  0.00     0.047 A 
ATOM     26  C   UNL A   1      33.237  18.052  23.962  1.00  0.00     0.004 A 
BRANCH  23  27
ATOM     27  O   UNL A   1      31.939  21.135  22.766  1.00  0.00    -0.488 OA
BRANCH  27  28
ATOM     28  C   UNL A   1      32.905  22.132  22.482  1.00  0.00     0.265 C 
BRANCH  28  29
ATOM     29  C   UNL A   1      32.269  23.473  22.760  1.00  0.00    -0.010 A 
ATOM     30  C   UNL A   1      30.958  23.532  23.249  1.00  0.00     0.007 A 
ATOM     31  C   UNL A   1      32.955  24.672  22.505  1.00  0.00     0.017 A 
ATOM     32  C   UNL A   1      30.342  24.762  23.478  1.00  0.00     0.001 A 
ATOM     33  C   UNL A   1      32.335  25.907  22.711  1.00  0.00    -0.002 A 
ATOM     34  C   UNL A   1      31.025  25.948  23.199  1.00  0.00     0.010 A 
BRANCH  33  35
ATOM     35  C   UNL A   1      33.019  27.173  22.373  1.00  0.00     0.071 C 
ATOM     36  O   UNL A   1      33.986  27.286  21.627  1.00  0.00    -0.545 OA
ATOM     37  O   UNL A   1      32.486  28.241  22.987  1.00  0.00    -0.545 OA
ENDBRANCH  33  35
ENDBRANCH  28  29
ENDBRANCH  27  28
ENDBRANCH  23  27
ENDBRANCH  12  21
ENDBRANCH   1   2
BRANCH   1  38
ATOM     38  C   UNL A   1      37.592  20.603  25.062  1.00  0.00     0.059 C 
BRANCH  38  39
ATOM     39  C   UNL A   1      38.286  21.894  25.468  1.00  0.00     0.119 C 
BRANCH  39  40
ATOM     40  N   UNL A   1      39.536  21.739  26.203  1.00  0.00    -0.352 N 
ATOM     41  C   UNL A   1      40.412  22.693  26.693  1.00  0.00     0.251 C 
ATOM     42  H   UNL A   1      39.800  20.807  26.377  1.00  0.00     0.163 HD
ATOM     43  O   UNL A   1      41.510  22.327  27.106  1.00  0.00    -0.269 OA
BRANCH  41  44
ATOM     44  C   UNL A   1      39.998  24.110  26.900  1.00  0.00     0.039 A 
ATOM     45  C   UNL A   1      40.642  25.102  26.135  1.00  0.00     0.014 A 
ATOM     46  C   UNL A   1      39.212  24.499  27.971  1.00  0.00     0.014 A 
ATOM     47  C   UNL A   1      40.740  26.407  26.616  1.00  0.00     0.010 A 
ATOM     48  C   UNL A   1      39.410  25.742  28.513  1.00  0.00     0.010 A 
ATOM     49  C   UNL A   1      40.244  26.670  27.879  1.00  0.00    -0.014 A 
BRANCH  49  50
ATOM     50  C   UNL A   1      40.508  27.856  28.676  1.00  0.00     0.031 A 
ATOM     51  C   UNL A   1      39.505  28.933  28.615  1.00  0.00     0.074 A 
ATOM     52  C   UNL A   1      41.406  27.775  29.688  1.00  0.00     0.049 A 
ATOM     53  N   UNL A   1      39.595  30.026  29.275  1.00  0.00    -0.248 NA
ATOM     54  C   UNL A   1      38.296  28.857  27.799  1.00  0.00     0.031 C 
ATOM     55  C   UNL A   1      41.401  28.505  30.957  1.00  0.00     0.029 A 
ATOM     56  N   UNL A   1      42.560  26.989  29.774  1.00  0.00    -0.354 N 
ATOM     57  C   UNL A   1      38.389  30.676  29.192  1.00  0.00     0.074 A 
ATOM     58  C   UNL A   1      37.624  29.930  28.224  1.00  0.00     0.031 C 
ATOM     59  C   UNL A   1      42.582  28.333  31.578  1.00  0.00     0.029 A 
ATOM     60  C   UNL A   1      43.455  27.651  30.643  1.00  0.00     0.049 A 
ATOM     61  H   UNL A   1      42.719  26.133  29.313  1.00  0.00     0.167 HD
ATOM     62  C   UNL A   1      38.175  31.715  30.046  1.00  0.00     0.037 A 
ATOM     63  C   UNL A   1      44.627  28.126  30.125  1.00  0.00     0.037 A 
ATOM     64  C   UNL A   1      39.374  31.956  30.856  1.00  0.00     0.049 A 
ATOM     65  C   UNL A   1      44.622  29.638  30.068  1.00  0.00     0.074 A 
ATOM     66  C   UNL A   1      39.785  31.575  32.122  1.00  0.00     0.029 A 
ATOM     67  N   UNL A   1      40.516  32.378  30.203  1.00  0.00    -0.354 N 
ATOM     68  N   UNL A   1      43.585  30.366  30.384  1.00  0.00    -0.248 NA
ATOM     69  C   UNL A   1      45.742  30.450  29.609  1.00  0.00     0.031 C 
ATOM     70  C   UNL A   1      41.201  31.764  32.200  1.00  0.00     0.029 A 
ATOM     71  C   UNL A   1      41.642  32.273  30.989  1.00  0.00     0.049 A 
ATOM     72  H   UNL A   1      40.524  32.716  29.278  1.00  0.00     0.167 HD
ATOM     73  C   UNL A   1      43.849  31.681  30.171  1.00  0.00     0.074 A 
ATOM     74  C   UNL A   1      45.209  31.685  29.654  1.00  0.00     0.031 C 
ATOM     75  C   UNL A   1      42.927  32.657  30.420  1.00  0.00     0.037 A 
BRANCH  62  76
ATOM     76  C   UNL A   1      36.868  32.431  30.275  1.00  0.00     0.064 A 
ATOM     77  C   UNL A   1      36.440  33.415  29.359  1.00  0.00     0.173 A 
ATOM     78  C   UNL A   1      35.987  32.205  31.350  1.00  0.00     0.173 A 
ATOM     79  F   UNL A   1      37.151  33.704  28.261  1.00  0.00    -0.203 F 
ATOM     80  C   UNL A   1      35.263  34.144  29.531  1.00  0.00     0.198 A 
ATOM     81  C   UNL A   1      34.828  32.964  31.545  1.00  0.00     0.198 A 
ATOM     82  F   UNL A   1      36.173  31.207  32.220  1.00  0.00    -0.203 F 
ATOM     83  F   UNL A   1      34.911  35.057  28.615  1.00  0.00    -0.200 F 
ATOM     84  C   UNL A   1      34.465  33.933  30.634  1.00  0.00     0.200 A 
ATOM     85  F   UNL A   1      34.059  32.737  32.620  1.00  0.00    -0.200 F 
ATOM     86  F   UNL A   1      33.343  34.643  30.808  1.00  0.00    -0.200 F 
ENDBRANCH  62  76
BRANCH  63  87
ATOM     87  C   UNL A   1      45.138  27.175  29.080  1.00  0.00     0.064 A 
ATOM     88  C   UNL A   1      45.470  25.875  29.532  1.00  0.00     0.173 A 
ATOM     89  C   UNL A   1      44.715  27.303  27.749  1.00  0.00     0.173 A 
ATOM     90  F   UNL A   1      45.891  25.695  30.795  1.00  0.00    -0.203 F 
ATOM     91  C   UNL A   1      45.150  24.747  28.778  1.00  0.00     0.198 A 
ATOM     92  C   UNL A   1      44.444  26.167  26.980  1.00  0.00     0.198 A 
ATOM     93  F   UNL A   1      44.390  28.506  27.254  1.00  0.00    -0.203 F 
ATOM     94  F   UNL A   1      45.258  23.526  29.321  1.00  0.00    -0.200 F 
ATOM     95  C   UNL A   1      44.595  24.896  27.519  1.00  0.00     0.200 A 
ATOM     96  F   UNL A   1      43.911  26.303  25.757  1.00  0.00    -0.200 F 
ATOM     97  F   UNL A   1      44.149  23.822  26.852  1.00  0.00    -0.200 F 
ENDBRANCH  63  87
BRANCH  75  98
ATOM     98  C   UNL A   1      43.190  34.098  30.114  1.00  0.00     0.064 A 
ATOM     99  C   UNL A   1      43.346  34.557  28.803  1.00  0.00     0.173 A 
ATOM    100  C   UNL A   1      43.368  35.052  31.139  1.00  0.00     0.173 A 
ATOM    101  F   UNL A   1      43.291  33.706  27.767  1.00  0.00    -0.203 F 
ATOM    102  C   UNL A   1      43.566  35.905  28.528  1.00  0.00     0.198 A 
ATOM    103  C   UNL A   1      43.667  36.381  30.865  1.00  0.00     0.198 A 
ATOM    104  F   UNL A   1      43.217  34.741  32.434  1.00  0.00    -0.203 F 
ATOM    105  F   UNL A   1      43.608  36.322  27.255  1.00  0.00    -0.200 F 
ATOM    106  C   UNL A   1      43.733  36.815  29.558  1.00  0.00     0.200 A 
ATOM    107  F   UNL A   1      43.867  37.237  31.877  1.00  0.00    -0.200 F 
ATOM    108  F   UNL A   1      43.950  38.108  29.293  1.00  0.00    -0.200 F 
ENDBRANCH  75  98
ENDBRANCH  49  50
ENDBRANCH  41  44
ENDBRANCH  39  40
ENDBRANCH  38  39
ENDBRANCH   1  38
TORSDOF 15
ENDMDL
MODEL 3
REMARK VINA RESULT:     -13.3      1.520      2.650
REMARK SMILES Cc1ccc(N2C(=O)[NH+]=C(NCCCNC(=O)c3ccc(-c4c5nc(c(-c6c(F)c(F)c(F)c(F)c6F)c6ccc([nH]6)c(-c6c(F)c(F)c(F)c(F)c6F)c6nc(c(-c7c(F)c(F)c(F)c(F)c7F)c7ccc4[nH]7)C=C6)C=C5)cc3)/C(=C\c3ccccc3OCc3cccc(C(=O)[O-])c3)C2=O)cc1
REMARK SMILES IDX 12 1 11 2 6 3 7 4 100 5 8 6 9 7 81 8 101 9 10 10 82 12 5 14
REMARK SMILES IDX 1 15 2 16 3 17 103 18 4 19 102 20 83 21 84 22 88 23 85 24
REMARK SMILES IDX 87 25 86 26 89 27 90 28 91 29 92 30 99 31 93 32 95 33 94 34
REMARK SMILES IDX 96 35 97 36 98 37 13 38 14 39 15 40 16 41 17 43 18 44 19 45
REMARK SMILES IDX 80 46 20 47 79 48 21 49 22 50 23 51 73 52 24 53 78 54 72 55
REMARK SMILES IDX 74 56 25 57 77 58 71 59 70 60 26 62 58 63 38 64 57 65 39 66
REMARK SMILES IDX 42 67 56 68 75 69 40 70 41 71 55 73 76 74 43 75 27 76 28 77
REMARK SMILES IDX 36 78 29 79 30 80 34 81 37 82 31 83 32 84 35 85 33 86 59 87
REMARK SMILES IDX 60 88 68 89 61 90 62 91 66 92 69 93 63 94 64 95 67 96 65 97
REMARK SMILES IDX 44 98 45 99 53 100 46 101 47 102 51 103 54 104 48 105 49 106
REMARK SMILES IDX 52 107 50 108
REMARK H PARENT 9 11 11 13 15 42 74 61 42 72
REMARK Flexibility Score: inf
ROOT
ATOM      1  C   UNL A   1      36.287  20.585  24.632  1.00  0.00     0.195 C 
ENDROOT
BRANCH   1   2
ATOM      2  N   UNL A   1      35.195  20.773  25.597  1.00  0.00    -0.305 N 
ATOM      3  N   UNL A   1      33.568  24.571  26.168  1.00  0.00    -0.155 N 
ATOM      4  C   UNL A   1      34.871  24.335  25.703  1.00  0.00     0.448 C 
ATOM      5  C   UNL A   1      32.714  23.546  26.546  1.00  0.00     0.328 C 
ATOM      6  O   UNL A   1      35.634  25.245  25.384  1.00  0.00    -0.212 OA
ATOM      7  N   UNL A   1      35.348  23.055  25.640  1.00  0.00    -0.209 N 
ATOM      8  C   UNL A   1      33.141  22.215  26.061  1.00  0.00     0.129 C 
ATOM      9  O   UNL A   1      31.622  23.664  27.103  1.00  0.00    -0.249 OA
ATOM     10  C   UNL A   1      34.591  22.011  25.768  1.00  0.00     0.236 C 
ATOM     11  H   UNL A   1      36.312  22.921  25.490  1.00  0.00     0.270 HD
ATOM     12  C   UNL A   1      32.111  21.426  25.696  1.00  0.00     0.034 C 
ATOM     13  H   UNL A   1      34.887  20.007  26.134  1.00  0.00     0.256 HD
BRANCH   3  14
ATOM     14  C   UNL A   1      33.080  25.919  26.227  1.00  0.00     0.111 A 
ATOM     15  C   UNL A   1      31.601  29.970  26.475  1.00  0.00     0.044 C 
ATOM     16  C   UNL A   1      32.121  28.567  26.398  1.00  0.00    -0.051 A 
ATOM     17  C   UNL A   1      31.252  27.488  26.579  1.00  0.00     0.007 A 
ATOM     18  C   UNL A   1      33.473  28.319  26.157  1.00  0.00     0.007 A 
ATOM     19  C   UNL A   1      31.725  26.178  26.484  1.00  0.00     0.044 A 
ATOM     20  C   UNL A   1      33.946  27.009  26.077  1.00  0.00     0.044 A 
ENDBRANCH   3  14
BRANCH  12  21
ATOM     21  C   UNL A   1      32.244  20.158  25.003  1.00  0.00     0.018 A 
ATOM     22  C   UNL A   1      32.612  19.104  25.842  1.00  0.00     0.012 A 
ATOM     23  C   UNL A   1      32.263  19.997  23.608  1.00  0.00     0.127 A 
ATOM     24  C   UNL A   1      33.205  17.986  25.294  1.00  0.00     0.001 A 
ATOM     25  C   UNL A   1      32.815  18.841  23.073  1.00  0.00     0.047 A 
ATOM     26  C   UNL A   1      33.353  17.886  23.914  1.00  0.00     0.004 A 
BRANCH  23  27
ATOM     27  O   UNL A   1      32.033  20.932  22.651  1.00  0.00    -0.488 OA
BRANCH  27  28
ATOM     28  C   UNL A   1      32.971  21.964  22.402  1.00  0.00     0.265 C 
BRANCH  28  29
ATOM     29  C   UNL A   1      32.285  23.280  22.684  1.00  0.00    -0.010 A 
ATOM     30  C   UNL A   1      30.960  23.289  23.139  1.00  0.00     0.007 A 
ATOM     31  C   UNL A   1      32.939  24.504  22.468  1.00  0.00     0.017 A 
ATOM     32  C   UNL A   1      30.300  24.495  23.371  1.00  0.00     0.001 A 
ATOM     33  C   UNL A   1      32.274  25.715  22.677  1.00  0.00    -0.002 A 
ATOM     34  C   UNL A   1      30.951  25.706  23.130  1.00  0.00     0.010 A 
BRANCH  33  35
ATOM     35  C   UNL A   1      32.926  27.007  22.378  1.00  0.00     0.071 C 
ATOM     36  O   UNL A   1      32.536  28.108  22.752  1.00  0.00    -0.545 OA
ATOM     37  O   UNL A   1      34.023  26.881  21.615  1.00  0.00    -0.545 OA
ENDBRANCH  33  35
ENDBRANCH  28  29
ENDBRANCH  27  28
ENDBRANCH  23  27
ENDBRANCH  12  21
ENDBRANCH   1   2
BRANCH   1  38
ATOM     38  C   UNL A   1      37.650  20.435  25.297  1.00  0.00     0.059 C 
BRANCH  38  39
ATOM     39  C   UNL A   1      38.348  21.749  25.610  1.00  0.00     0.119 C 
BRANCH  39  40
ATOM     40  N   UNL A   1      39.678  21.638  26.199  1.00  0.00    -0.352 N 
ATOM     41  C   UNL A   1      40.573  22.621  26.586  1.00  0.00     0.251 C 
ATOM     42  H   UNL A   1      39.988  20.716  26.346  1.00  0.00     0.163 HD
ATOM     43  O   UNL A   1      41.722  22.292  26.873  1.00  0.00    -0.269 OA
BRANCH  41  44
ATOM     44  C   UNL A   1      40.141  24.026  26.834  1.00  0.00     0.039 A 
ATOM     45  C   UNL A   1      40.619  25.025  25.962  1.00  0.00     0.014 A 
ATOM     46  C   UNL A   1      39.517  24.409  28.008  1.00  0.00     0.014 A 
ATOM     47  C   UNL A   1      40.739  26.343  26.403  1.00  0.00     0.010 A 
ATOM     48  C   UNL A   1      39.747  25.670  28.494  1.00  0.00     0.010 A 
ATOM     49  C   UNL A   1      40.436  26.614  27.723  1.00  0.00    -0.014 A 
BRANCH  49  50
ATOM     50  C   UNL A   1      40.774  27.825  28.451  1.00  0.00     0.031 A 
ATOM     51  C   UNL A   1      39.746  28.879  28.498  1.00  0.00     0.074 A 
ATOM     52  C   UNL A   1      41.798  27.789  29.337  1.00  0.00     0.049 A 
ATOM     53  N   UNL A   1      39.896  29.991  29.115  1.00  0.00    -0.248 NA
ATOM     54  C   UNL A   1      38.442  28.757  27.851  1.00  0.00     0.031 C 
ATOM     55  C   UNL A   1      41.943  28.551  30.580  1.00  0.00     0.029 A 
ATOM     56  N   UNL A   1      42.972  27.029  29.289  1.00  0.00    -0.354 N 
ATOM     57  C   UNL A   1      38.674  30.614  29.177  1.00  0.00     0.074 A 
ATOM     58  C   UNL A   1      37.807  29.827  28.336  1.00  0.00     0.031 C 
ATOM     59  C   UNL A   1      43.199  28.419  31.043  1.00  0.00     0.029 A 
ATOM     60  C   UNL A   1      43.957  27.731  30.018  1.00  0.00     0.049 A 
ATOM     61  H   UNL A   1      43.089  26.165  28.830  1.00  0.00     0.167 HD
ATOM     62  C   UNL A   1      38.550  31.670  30.028  1.00  0.00     0.037 A 
ATOM     63  C   UNL A   1      45.039  28.216  29.338  1.00  0.00     0.037 A 
ATOM     64  C   UNL A   1      39.838  31.956  30.667  1.00  0.00     0.049 A 
ATOM     65  C   UNL A   1      44.991  29.726  29.249  1.00  0.00     0.074 A 
ATOM     66  C   UNL A   1      40.421  31.616  31.876  1.00  0.00     0.029 A 
ATOM     67  N   UNL A   1      40.875  32.384  29.860  1.00  0.00    -0.354 N 
ATOM     68  N   UNL A   1      43.988  30.440  29.681  1.00  0.00    -0.248 NA
ATOM     69  C   UNL A   1      46.022  30.548  28.627  1.00  0.00     0.031 C 
ATOM     70  C   UNL A   1      41.830  31.835  31.763  1.00  0.00     0.029 A 
ATOM     71  C   UNL A   1      42.097  32.322  30.494  1.00  0.00     0.049 A 
ATOM     72  H   UNL A   1      40.753  32.698  28.934  1.00  0.00     0.167 HD
ATOM     73  C   UNL A   1      44.191  31.754  29.406  1.00  0.00     0.074 A 
ATOM     74  C   UNL A   1      45.471  31.773  28.714  1.00  0.00     0.031 C 
ATOM     75  C   UNL A   1      43.287  32.718  29.751  1.00  0.00     0.037 A 
BRANCH  62  76
ATOM     76  C   UNL A   1      37.268  32.364  30.411  1.00  0.00     0.064 A 
ATOM     77  C   UNL A   1      36.784  32.258  31.732  1.00  0.00     0.173 A 
ATOM     78  C   UNL A   1      36.471  33.147  29.553  1.00  0.00     0.173 A 
ATOM     79  F   UNL A   1      37.460  31.586  32.673  1.00  0.00    -0.203 F 
ATOM     80  C   UNL A   1      35.584  32.840  32.144  1.00  0.00     0.198 A 
ATOM     81  C   UNL A   1      35.248  33.695  29.954  1.00  0.00     0.198 A 
ATOM     82  F   UNL A   1      36.865  33.465  28.316  1.00  0.00    -0.203 F 
ATOM     83  F   UNL A   1      35.189  32.710  33.418  1.00  0.00    -0.200 F 
ATOM     84  C   UNL A   1      34.805  33.543  31.251  1.00  0.00     0.200 A 
ATOM     85  F   UNL A   1      34.509  34.385  29.073  1.00  0.00    -0.200 F 
ATOM     86  F   UNL A   1      33.646  34.088  31.642  1.00  0.00    -0.200 F 
ENDBRANCH  62  76
BRANCH  63  87
ATOM     87  C   UNL A   1      45.432  27.250  28.257  1.00  0.00     0.064 A 
ATOM     88  C   UNL A   1      45.164  27.662  26.929  1.00  0.00     0.173 A 
ATOM     89  C   UNL A   1      46.515  26.381  28.453  1.00  0.00     0.173 A 
ATOM     90  F   UNL A   1      44.133  28.487  26.681  1.00  0.00    -0.203 F 
ATOM     91  C   UNL A   1      46.079  27.425  25.903  1.00  0.00     0.198 A 
ATOM     92  C   UNL A   1      47.401  26.107  27.407  1.00  0.00     0.198 A 
ATOM     93  F   UNL A   1      46.821  25.948  29.685  1.00  0.00    -0.203 F 
ATOM     94  F   UNL A   1      45.919  28.021  24.713  1.00  0.00    -0.200 F 
ATOM     95  C   UNL A   1      47.219  26.684  26.157  1.00  0.00     0.200 A 
ATOM     96  F   UNL A   1      48.506  25.384  27.644  1.00  0.00    -0.200 F 
ATOM     97  F   UNL A   1      48.173  26.579  25.220  1.00  0.00    -0.200 F 
ENDBRANCH  63  87
BRANCH  75  98
ATOM     98  C   UNL A   1      43.473  34.155  29.381  1.00  0.00     0.064 A 
ATOM     99  C   UNL A   1      43.588  35.157  30.350  1.00  0.00     0.173 A 
ATOM    100  C   UNL A   1      43.469  34.581  28.035  1.00  0.00     0.173 A 
ATOM    101  F   UNL A   1      43.506  34.862  31.656  1.00  0.00    -0.203 F 
ATOM    102  C   UNL A   1      43.786  36.489  29.994  1.00  0.00     0.198 A 
ATOM    103  C   UNL A   1      43.586  35.920  27.685  1.00  0.00     0.198 A 
ATOM    104  F   UNL A   1      43.393  33.713  27.016  1.00  0.00    -0.203 F 
ATOM    105  F   UNL A   1      43.994  37.405  30.951  1.00  0.00    -0.200 F 
ATOM    106  C   UNL A   1      43.778  36.872  28.664  1.00  0.00     0.200 A 
ATOM    107  F   UNL A   1      43.533  36.274  26.393  1.00  0.00    -0.200 F 
ATOM    108  F   UNL A   1      43.963  38.153  28.324  1.00  0.00    -0.200 F 
ENDBRANCH  75  98
ENDBRANCH  49  50
ENDBRANCH  41  44
ENDBRANCH  39  40
ENDBRANCH  38  39
ENDBRANCH   1  38
TORSDOF 15
ENDMDL
