MODEL 1
REMARK VINA RESULT:     -10.1      0.000      0.000
REMARK SMILES O=C(CCCNC(=O)COc1ccc2c3c(c(=O)oc2c1)CCC3)NCCCNC(=O)c1ccc(-c2c3nc(c(-c4c(F)c(F)c(F)c(F)c4F)c4ccc([nH]4)c(-c4c(F)c(F)c(F)c(F)c4F)c4nc(c(-c5c(F)c(F)c(F)c(F)c5F)c5ccc2[nH]5)C=C4)C=C3)cc1
REMARK SMILES IDX 1 1 2 2 25 3 3 5 4 6 5 7 6 8 7 9 8 11 9 12 10 13 11 14 12 15
REMARK SMILES IDX 21 16 13 17 20 18 14 19 19 20 15 21 17 22 16 23 24 24 18 25
REMARK SMILES IDX 22 26 23 27 26 28 27 29 28 30 29 31 30 32 31 34 32 35 33 36
REMARK SMILES IDX 94 37 34 38 93 39 35 40 36 41 37 42 87 43 38 44 92 45 86 46
REMARK SMILES IDX 88 47 39 48 91 49 85 50 84 51 40 53 72 54 52 55 71 56 53 57
REMARK SMILES IDX 56 58 70 59 89 60 54 61 55 62 69 64 90 65 57 66 41 67 42 68
REMARK SMILES IDX 50 69 43 70 44 71 48 72 51 73 45 74 46 75 49 76 47 77 73 78
REMARK SMILES IDX 74 79 82 80 75 81 76 82 80 83 83 84 77 85 78 86 81 87 79 88
REMARK SMILES IDX 58 89 59 90 67 91 60 92 61 93 65 94 68 95 62 96 63 97 66 98
REMARK SMILES IDX 64 99
REMARK H PARENT 25 4 6 10 29 33 88 52 56 63
REMARK Flexibility Score: inf
ROOT
ATOM      1  O   UNL A   1      36.072  35.359  32.898  1.00  0.00    -0.275 OA
ATOM      2  C   UNL A   1      35.217  34.985  33.690  1.00  0.00     0.220 C 
ATOM      3  N   UNL A   1      34.059  35.679  33.956  1.00  0.00    -0.356 N 
ATOM      4  H   UNL A   1      33.392  35.267  34.550  1.00  0.00     0.163 HD
ENDROOT
BRANCH   2   5
ATOM      5  C   UNL A   1      35.358  33.714  34.505  1.00  0.00     0.102 C 
BRANCH   5   6
ATOM      6  C   UNL A   1      36.345  33.871  35.664  1.00  0.00     0.031 C 
BRANCH   6   7
ATOM      7  C   UNL A   1      37.623  33.033  35.566  1.00  0.00     0.116 C 
BRANCH   7   8
ATOM      8  N   UNL A   1      37.576  32.060  34.489  1.00  0.00    -0.353 N 
ATOM      9  C   UNL A   1      38.233  30.871  34.378  1.00  0.00     0.257 C 
ATOM     10  H   UNL A   1      36.989  32.291  33.733  1.00  0.00     0.163 HD
ATOM     11  O   UNL A   1      37.935  30.139  33.431  1.00  0.00    -0.271 OA
BRANCH   9  12
ATOM     12  C   UNL A   1      39.299  30.468  35.400  1.00  0.00     0.329 C 
BRANCH  12  13
ATOM     13  O   UNL A   1      40.661  30.460  34.999  1.00  0.00    -0.484 OA
BRANCH  13  14
ATOM     14  C   UNL A   1      41.332  29.277  35.123  1.00  0.00     0.123 A 
ATOM     15  C   UNL A   1      41.247  28.419  34.022  1.00  0.00     0.047 A 
ATOM     16  C   UNL A   1      41.997  28.856  36.269  1.00  0.00     0.094 A 
ATOM     17  C   UNL A   1      41.849  27.155  34.049  1.00  0.00     0.016 A 
ATOM     18  C   UNL A   1      42.581  27.591  36.289  1.00  0.00     0.142 A 
ATOM     19  C   UNL A   1      42.523  26.730  35.193  1.00  0.00     0.021 A 
ATOM     20  O   UNL A   1      43.234  27.218  37.489  1.00  0.00    -0.422 OA
ATOM     21  C   UNL A   1      43.171  25.443  35.325  1.00  0.00    -0.027 A 
ATOM     22  C   UNL A   1      43.874  25.990  37.628  1.00  0.00     0.339 A 
ATOM     23  C   UNL A   1      43.802  25.115  36.455  1.00  0.00     0.042 A 
ATOM     24  C   UNL A   1      43.252  24.358  34.311  1.00  0.00     0.037 C 
ATOM     25  O   UNL A   1      44.450  25.660  38.654  1.00  0.00    -0.246 OA
ATOM     26  C   UNL A   1      44.421  23.767  36.390  1.00  0.00     0.044 C 
ATOM     27  C   UNL A   1      43.747  23.172  35.150  1.00  0.00     0.010 C 
ENDBRANCH  13  14
ENDBRANCH  12  13
ENDBRANCH   9  12
ENDBRANCH   7   8
ENDBRANCH   6   7
ENDBRANCH   5   6
ENDBRANCH   2   5
BRANCH   3  28
ATOM     28  C   UNL A   1      33.775  36.987  33.402  1.00  0.00     0.117 C 
BRANCH  28  29
ATOM     29  C   UNL A   1      32.919  36.899  32.144  1.00  0.00     0.042 C 
BRANCH  29  30
ATOM     30  C   UNL A   1      33.684  36.581  30.862  1.00  0.00     0.118 C 
BRANCH  30  31
ATOM     31  N   UNL A   1      32.905  35.834  29.887  1.00  0.00    -0.352 N 
ATOM     32  C   UNL A   1      33.237  34.695  29.191  1.00  0.00     0.251 C 
ATOM     33  H   UNL A   1      32.009  36.196  29.697  1.00  0.00     0.163 HD
ATOM     34  O   UNL A   1      32.487  34.273  28.316  1.00  0.00    -0.269 OA
BRANCH  32  35
ATOM     35  C   UNL A   1      34.515  33.997  29.462  1.00  0.00     0.039 A 
ATOM     36  C   UNL A   1      35.620  34.286  28.657  1.00  0.00     0.014 A 
ATOM     37  C   UNL A   1      34.632  33.069  30.500  1.00  0.00     0.014 A 
ATOM     38  C   UNL A   1      36.858  33.704  28.941  1.00  0.00     0.010 A 
ATOM     39  C   UNL A   1      35.884  32.551  30.830  1.00  0.00     0.010 A 
ATOM     40  C   UNL A   1      37.012  32.866  30.057  1.00  0.00    -0.014 A 
BRANCH  40  41
ATOM     41  C   UNL A   1      38.346  32.324  30.434  1.00  0.00     0.031 A 
ATOM     42  C   UNL A   1      38.837  31.029  29.848  1.00  0.00     0.074 A 
ATOM     43  C   UNL A   1      39.091  32.967  31.355  1.00  0.00     0.049 A 
ATOM     44  N   UNL A   1      39.942  30.371  30.102  1.00  0.00    -0.248 NA
ATOM     45  C   UNL A   1      37.963  30.375  28.864  1.00  0.00     0.031 C 
ATOM     46  C   UNL A   1      38.711  34.207  32.034  1.00  0.00     0.029 A 
ATOM     47  N   UNL A   1      40.320  32.663  31.888  1.00  0.00    -0.354 N 
ATOM     48  C   UNL A   1      39.887  29.224  29.320  1.00  0.00     0.074 A 
ATOM     49  C   UNL A   1      38.617  29.248  28.626  1.00  0.00     0.031 C 
ATOM     50  C   UNL A   1      39.694  34.571  32.873  1.00  0.00     0.029 A 
ATOM     51  C   UNL A   1      40.754  33.568  32.826  1.00  0.00     0.049 A 
ATOM     52  H   UNL A   1      40.841  31.872  31.622  1.00  0.00     0.167 HD
ATOM     53  C   UNL A   1      40.819  28.251  29.176  1.00  0.00     0.037 A 
ATOM     54  C   UNL A   1      41.875  33.584  33.574  1.00  0.00     0.037 A 
ATOM     55  C   UNL A   1      42.089  28.237  29.856  1.00  0.00     0.049 A 
ATOM     56  C   UNL A   1      42.884  32.479  33.412  1.00  0.00     0.074 A 
ATOM     57  C   UNL A   1      43.123  27.325  29.733  1.00  0.00     0.029 A 
ATOM     58  N   UNL A   1      42.495  29.175  30.793  1.00  0.00    -0.354 N 
ATOM     59  N   UNL A   1      42.854  31.439  32.615  1.00  0.00    -0.248 NA
ATOM     60  C   UNL A   1      44.090  32.554  34.250  1.00  0.00     0.031 C 
ATOM     61  C   UNL A   1      44.130  27.679  30.636  1.00  0.00     0.029 A 
ATOM     62  C   UNL A   1      43.753  28.847  31.277  1.00  0.00     0.049 A 
ATOM     63  H   UNL A   1      41.969  29.959  31.075  1.00  0.00     0.167 HD
ATOM     64  C   UNL A   1      44.044  30.756  32.831  1.00  0.00     0.074 A 
ATOM     65  C   UNL A   1      44.782  31.509  33.823  1.00  0.00     0.031 C 
ATOM     66  C   UNL A   1      44.483  29.608  32.258  1.00  0.00     0.037 A 
BRANCH  53  67
ATOM     67  C   UNL A   1      40.502  27.115  28.245  1.00  0.00     0.064 A 
ATOM     68  C   UNL A   1      41.119  26.997  26.989  1.00  0.00     0.173 A 
ATOM     69  C   UNL A   1      39.601  26.110  28.629  1.00  0.00     0.173 A 
ATOM     70  F   UNL A   1      41.982  27.934  26.570  1.00  0.00    -0.203 F 
ATOM     71  C   UNL A   1      40.821  25.932  26.142  1.00  0.00     0.198 A 
ATOM     72  C   UNL A   1      39.332  25.029  27.792  1.00  0.00     0.198 A 
ATOM     73  F   UNL A   1      38.989  26.169  29.822  1.00  0.00    -0.203 F 
ATOM     74  F   UNL A   1      41.385  25.869  24.927  1.00  0.00    -0.200 F 
ATOM     75  C   UNL A   1      39.935  24.946  26.547  1.00  0.00     0.200 A 
ATOM     76  F   UNL A   1      38.488  24.068  28.193  1.00  0.00    -0.200 F 
ATOM     77  F   UNL A   1      39.658  23.917  25.734  1.00  0.00    -0.200 F 
ENDBRANCH  53  67
BRANCH  54  78
ATOM     78  C   UNL A   1      42.113  34.693  34.536  1.00  0.00     0.064 A 
ATOM     79  C   UNL A   1      41.771  34.560  35.889  1.00  0.00     0.173 A 
ATOM     80  C   UNL A   1      42.673  35.911  34.123  1.00  0.00     0.173 A 
ATOM     81  F   UNL A   1      41.213  33.422  36.330  1.00  0.00    -0.203 F 
ATOM     82  C   UNL A   1      41.957  35.610  36.786  1.00  0.00     0.198 A 
ATOM     83  C   UNL A   1      42.888  36.949  35.028  1.00  0.00     0.198 A 
ATOM     84  F   UNL A   1      43.021  36.090  32.840  1.00  0.00    -0.203 F 
ATOM     85  F   UNL A   1      41.572  35.473  38.063  1.00  0.00    -0.200 F 
ATOM     86  C   UNL A   1      42.520  36.801  36.356  1.00  0.00     0.200 A 
ATOM     87  F   UNL A   1      43.447  38.093  34.610  1.00  0.00    -0.200 F 
ATOM     88  F   UNL A   1      42.702  37.810  37.220  1.00  0.00    -0.200 F 
ENDBRANCH  54  78
BRANCH  66  89
ATOM     89  C   UNL A   1      45.846  29.116  32.657  1.00  0.00     0.064 A 
ATOM     90  C   UNL A   1      46.052  28.373  33.829  1.00  0.00     0.173 A 
ATOM     91  C   UNL A   1      46.955  29.359  31.832  1.00  0.00     0.173 A 
ATOM     92  F   UNL A   1      45.028  28.126  34.660  1.00  0.00    -0.203 F 
ATOM     93  C   UNL A   1      47.322  27.918  34.175  1.00  0.00     0.198 A 
ATOM     94  C   UNL A   1      48.217  28.872  32.163  1.00  0.00     0.198 A 
ATOM     95  F   UNL A   1      46.814  30.057  30.695  1.00  0.00    -0.203 F 
ATOM     96  F   UNL A   1      47.503  27.257  35.327  1.00  0.00    -0.200 F 
ATOM     97  C   UNL A   1      48.400  28.160  33.338  1.00  0.00     0.200 A 
ATOM     98  F   UNL A   1      49.255  29.093  31.346  1.00  0.00    -0.200 F 
ATOM     99  F   UNL A   1      49.621  27.714  33.669  1.00  0.00    -0.200 F 
ENDBRANCH  66  89
ENDBRANCH  40  41
ENDBRANCH  32  35
ENDBRANCH  30  31
ENDBRANCH  29  30
ENDBRANCH  28  29
ENDBRANCH   3  28
TORSDOF 16
ENDMDL
MODEL 2
REMARK VINA RESULT:      -9.9      6.327     12.516
REMARK SMILES O=C(CCCNC(=O)COc1ccc2c3c(c(=O)oc2c1)CCC3)NCCCNC(=O)c1ccc(-c2c3nc(c(-c4c(F)c(F)c(F)c(F)c4F)c4ccc([nH]4)c(-c4c(F)c(F)c(F)c(F)c4F)c4nc(c(-c5c(F)c(F)c(F)c(F)c5F)c5ccc2[nH]5)C=C4)C=C3)cc1
REMARK SMILES IDX 1 1 2 2 25 3 3 5 4 6 5 7 6 8 7 9 8 11 9 12 10 13 11 14 12 15
REMARK SMILES IDX 21 16 13 17 20 18 14 19 19 20 15 21 17 22 16 23 24 24 18 25
REMARK SMILES IDX 22 26 23 27 26 28 27 29 28 30 29 31 30 32 31 34 32 35 33 36
REMARK SMILES IDX 94 37 34 38 93 39 35 40 36 41 37 42 87 43 38 44 92 45 86 46
REMARK SMILES IDX 88 47 39 48 91 49 85 50 84 51 40 53 72 54 52 55 71 56 53 57
REMARK SMILES IDX 56 58 70 59 89 60 54 61 55 62 69 64 90 65 57 66 41 67 42 68
REMARK SMILES IDX 50 69 43 70 44 71 48 72 51 73 45 74 46 75 49 76 47 77 73 78
REMARK SMILES IDX 74 79 82 80 75 81 76 82 80 83 83 84 77 85 78 86 81 87 79 88
REMARK SMILES IDX 58 89 59 90 67 91 60 92 61 93 65 94 68 95 62 96 63 97 66 98
REMARK SMILES IDX 64 99
REMARK H PARENT 25 4 6 10 29 33 88 52 56 63
REMARK Flexibility Score: inf
ROOT
ATOM      1  O   UNL A   1      37.110  23.666  24.481  1.00  0.00    -0.275 OA
ATOM      2  C   UNL A   1      36.807  23.171  25.558  1.00  0.00     0.220 C 
ATOM      3  N   UNL A   1      37.714  22.620  26.433  1.00  0.00    -0.356 N 
ATOM      4  H   UNL A   1      37.391  22.312  27.310  1.00  0.00     0.163 HD
ENDROOT
BRANCH   2   5
ATOM      5  C   UNL A   1      35.372  23.076  26.038  1.00  0.00     0.102 C 
BRANCH   5   6
ATOM      6  C   UNL A   1      35.064  21.730  26.698  1.00  0.00     0.031 C 
BRANCH   6   7
ATOM      7  C   UNL A   1      33.596  21.486  27.055  1.00  0.00     0.116 C 
BRANCH   7   8
ATOM      8  N   UNL A   1      33.150  20.145  26.721  1.00  0.00    -0.353 N 
ATOM      9  C   UNL A   1      33.069  19.547  25.499  1.00  0.00     0.257 C 
ATOM     10  H   UNL A   1      32.868  19.589  27.483  1.00  0.00     0.163 HD
ATOM     11  O   UNL A   1      32.789  18.347  25.467  1.00  0.00    -0.271 OA
BRANCH   9  12
ATOM     12  C   UNL A   1      33.320  20.348  24.218  1.00  0.00     0.329 C 
BRANCH  12  13
ATOM     13  O   UNL A   1      32.228  21.023  23.611  1.00  0.00    -0.484 OA
BRANCH  13  14
ATOM     14  C   UNL A   1      32.217  22.386  23.708  1.00  0.00     0.123 A 
ATOM     15  C   UNL A   1      31.361  22.913  24.680  1.00  0.00     0.047 A 
ATOM     16  C   UNL A   1      32.916  23.249  22.871  1.00  0.00     0.094 A 
ATOM     17  C   UNL A   1      31.223  24.297  24.841  1.00  0.00     0.016 A 
ATOM     18  C   UNL A   1      32.761  24.624  23.031  1.00  0.00     0.142 A 
ATOM     19  C   UNL A   1      31.926  25.167  24.009  1.00  0.00     0.021 A 
ATOM     20  O   UNL A   1      33.491  25.448  22.141  1.00  0.00    -0.422 OA
ATOM     21  C   UNL A   1      31.848  26.610  24.087  1.00  0.00    -0.027 A 
ATOM     22  C   UNL A   1      33.438  26.837  22.212  1.00  0.00     0.339 A 
ATOM     23  C   UNL A   1      32.560  27.373  23.255  1.00  0.00     0.042 A 
ATOM     24  C   UNL A   1      31.039  27.426  25.032  1.00  0.00     0.037 C 
ATOM     25  O   UNL A   1      34.071  27.559  21.457  1.00  0.00    -0.246 OA
ATOM     26  C   UNL A   1      32.364  28.824  23.505  1.00  0.00     0.044 C 
ATOM     27  C   UNL A   1      31.120  28.822  24.399  1.00  0.00     0.010 C 
ENDBRANCH  13  14
ENDBRANCH  12  13
ENDBRANCH   9  12
ENDBRANCH   7   8
ENDBRANCH   6   7
ENDBRANCH   5   6
ENDBRANCH   2   5
BRANCH   3  28
ATOM     28  C   UNL A   1      39.121  22.471  26.126  1.00  0.00     0.117 C 
BRANCH  28  29
ATOM     29  C   UNL A   1      39.420  21.135  25.456  1.00  0.00     0.042 C 
BRANCH  29  30
ATOM     30  C   UNL A   1      39.489  19.938  26.400  1.00  0.00     0.118 C 
BRANCH  30  31
ATOM     31  N   UNL A   1      40.562  19.008  26.088  1.00  0.00    -0.352 N 
ATOM     32  C   UNL A   1      41.922  19.217  26.064  1.00  0.00     0.251 C 
ATOM     33  H   UNL A   1      40.274  18.093  25.861  1.00  0.00     0.163 HD
ATOM     34  O   UNL A   1      42.669  18.332  25.659  1.00  0.00    -0.269 OA
BRANCH  32  35
ATOM     35  C   UNL A   1      42.486  20.520  26.485  1.00  0.00     0.039 A 
ATOM     36  C   UNL A   1      43.138  21.307  25.532  1.00  0.00     0.014 A 
ATOM     37  C   UNL A   1      42.375  20.971  27.803  1.00  0.00     0.014 A 
ATOM     38  C   UNL A   1      43.608  22.576  25.881  1.00  0.00     0.010 A 
ATOM     39  C   UNL A   1      42.773  22.267  28.129  1.00  0.00     0.010 A 
ATOM     40  C   UNL A   1      43.390  23.086  27.171  1.00  0.00    -0.014 A 
BRANCH  40  41
ATOM     41  C   UNL A   1      43.789  24.474  27.527  1.00  0.00     0.031 A 
ATOM     42  C   UNL A   1      42.747  25.499  27.883  1.00  0.00     0.074 A 
ATOM     43  C   UNL A   1      45.087  24.832  27.470  1.00  0.00     0.049 A 
ATOM     44  N   UNL A   1      42.897  26.771  28.162  1.00  0.00    -0.248 NA
ATOM     45  C   UNL A   1      41.350  25.042  27.907  1.00  0.00     0.031 C 
ATOM     46  C   UNL A   1      46.192  23.948  27.095  1.00  0.00     0.029 A 
ATOM     47  N   UNL A   1      45.698  26.037  27.718  1.00  0.00    -0.354 N 
ATOM     48  C   UNL A   1      41.616  27.263  28.381  1.00  0.00     0.074 A 
ATOM     49  C   UNL A   1      40.698  26.169  28.149  1.00  0.00     0.031 C 
ATOM     50  C   UNL A   1      47.345  24.630  27.160  1.00  0.00     0.029 A 
ATOM     51  C   UNL A   1      47.060  26.012  27.537  1.00  0.00     0.049 A 
ATOM     52  H   UNL A   1      45.207  26.842  27.998  1.00  0.00     0.167 HD
ATOM     53  C   UNL A   1      41.241  28.509  28.763  1.00  0.00     0.037 A 
ATOM     54  C   UNL A   1      47.976  26.993  27.652  1.00  0.00     0.037 A 
ATOM     55  C   UNL A   1      42.157  29.593  29.009  1.00  0.00     0.049 A 
ATOM     56  C   UNL A   1      47.531  28.373  28.055  1.00  0.00     0.074 A 
ATOM     57  C   UNL A   1      41.878  30.874  29.453  1.00  0.00     0.029 A 
ATOM     58  N   UNL A   1      43.530  29.526  28.822  1.00  0.00    -0.354 N 
ATOM     59  N   UNL A   1      46.326  28.808  28.331  1.00  0.00    -0.248 NA
ATOM     60  C   UNL A   1      48.577  29.400  28.170  1.00  0.00     0.031 C 
ATOM     61  C   UNL A   1      43.074  31.598  29.482  1.00  0.00     0.029 A 
ATOM     62  C   UNL A   1      44.108  30.752  29.116  1.00  0.00     0.049 A 
ATOM     63  H   UNL A   1      44.023  28.727  28.525  1.00  0.00     0.167 HD
ATOM     64  C   UNL A   1      46.470  30.144  28.682  1.00  0.00     0.074 A 
ATOM     65  C   UNL A   1      47.885  30.445  28.599  1.00  0.00     0.031 C 
ATOM     66  C   UNL A   1      45.517  31.039  29.040  1.00  0.00     0.037 A 
BRANCH  53  67
ATOM     67  C   UNL A   1      39.772  28.769  28.940  1.00  0.00     0.064 A 
ATOM     68  C   UNL A   1      39.133  28.578  30.176  1.00  0.00     0.173 A 
ATOM     69  C   UNL A   1      39.001  29.255  27.873  1.00  0.00     0.173 A 
ATOM     70  F   UNL A   1      39.821  28.108  31.226  1.00  0.00    -0.203 F 
ATOM     71  C   UNL A   1      37.772  28.834  30.326  1.00  0.00     0.198 A 
ATOM     72  C   UNL A   1      37.648  29.542  28.038  1.00  0.00     0.198 A 
ATOM     73  F   UNL A   1      39.562  29.464  26.672  1.00  0.00    -0.203 F 
ATOM     74  F   UNL A   1      37.175  28.595  31.502  1.00  0.00    -0.200 F 
ATOM     75  C   UNL A   1      37.034  29.323  29.260  1.00  0.00     0.200 A 
ATOM     76  F   UNL A   1      36.939  30.031  27.010  1.00  0.00    -0.200 F 
ATOM     77  F   UNL A   1      35.726  29.578  29.410  1.00  0.00    -0.200 F 
ENDBRANCH  53  67
BRANCH  54  78
ATOM     78  C   UNL A   1      49.413  26.705  27.396  1.00  0.00     0.064 A 
ATOM     79  C   UNL A   1      50.270  26.331  28.441  1.00  0.00     0.173 A 
ATOM     80  C   UNL A   1      49.962  26.809  26.109  1.00  0.00     0.173 A 
ATOM     81  F   UNL A   1      49.798  26.238  29.693  1.00  0.00    -0.203 F 
ATOM     82  C   UNL A   1      51.624  26.097  28.213  1.00  0.00     0.198 A 
ATOM     83  C   UNL A   1      51.310  26.543  25.877  1.00  0.00     0.198 A 
ATOM     84  F   UNL A   1      49.185  27.160  25.074  1.00  0.00    -0.203 F 
ATOM     85  F   UNL A   1      52.431  25.792  29.239  1.00  0.00    -0.200 F 
ATOM     86  C   UNL A   1      52.142  26.197  26.931  1.00  0.00     0.200 A 
ATOM     87  F   UNL A   1      51.802  26.626  24.634  1.00  0.00    -0.200 F 
ATOM     88  F   UNL A   1      53.445  25.968  26.712  1.00  0.00    -0.200 F 
ENDBRANCH  54  78
BRANCH  66  89
ATOM     89  C   UNL A   1      45.974  32.422  29.413  1.00  0.00     0.064 A 
ATOM     90  C   UNL A   1      46.053  33.456  28.468  1.00  0.00     0.173 A 
ATOM     91  C   UNL A   1      46.300  32.724  30.744  1.00  0.00     0.173 A 
ATOM     92  F   UNL A   1      45.767  33.216  27.179  1.00  0.00    -0.203 F 
ATOM     93  C   UNL A   1      46.469  34.732  28.837  1.00  0.00     0.198 A 
ATOM     94  C   UNL A   1      46.682  34.011  31.115  1.00  0.00     0.198 A 
ATOM     95  F   UNL A   1      46.234  31.775  31.689  1.00  0.00    -0.203 F 
ATOM     96  F   UNL A   1      46.588  35.691  27.906  1.00  0.00    -0.200 F 
ATOM     97  C   UNL A   1      46.775  35.011  30.160  1.00  0.00     0.200 A 
ATOM     98  F   UNL A   1      46.962  34.281  32.397  1.00  0.00    -0.200 F 
ATOM     99  F   UNL A   1      47.167  36.243  30.514  1.00  0.00    -0.200 F 
ENDBRANCH  66  89
ENDBRANCH  40  41
ENDBRANCH  32  35
ENDBRANCH  30  31
ENDBRANCH  29  30
ENDBRANCH  28  29
ENDBRANCH   3  28
TORSDOF 16
ENDMDL
MODEL 3
REMARK VINA RESULT:      -9.9      5.212     10.849
REMARK SMILES O=C(CCCNC(=O)COc1ccc2c3c(c(=O)oc2c1)CCC3)NCCCNC(=O)c1ccc(-c2c3nc(c(-c4c(F)c(F)c(F)c(F)c4F)c4ccc([nH]4)c(-c4c(F)c(F)c(F)c(F)c4F)c4nc(c(-c5c(F)c(F)c(F)c(F)c5F)c5ccc2[nH]5)C=C4)C=C3)cc1
REMARK SMILES IDX 1 1 2 2 25 3 3 5 4 6 5 7 6 8 7 9 8 11 9 12 10 13 11 14 12 15
REMARK SMILES IDX 21 16 13 17 20 18 14 19 19 20 15 21 17 22 16 23 24 24 18 25
REMARK SMILES IDX 22 26 23 27 26 28 27 29 28 30 29 31 30 32 31 34 32 35 33 36
REMARK SMILES IDX 94 37 34 38 93 39 35 40 36 41 37 42 87 43 38 44 92 45 86 46
REMARK SMILES IDX 88 47 39 48 91 49 85 50 84 51 40 53 72 54 52 55 71 56 53 57
REMARK SMILES IDX 56 58 70 59 89 60 54 61 55 62 69 64 90 65 57 66 41 67 42 68
REMARK SMILES IDX 50 69 43 70 44 71 48 72 51 73 45 74 46 75 49 76 47 77 73 78
REMARK SMILES IDX 74 79 82 80 75 81 76 82 80 83 83 84 77 85 78 86 81 87 79 88
REMARK SMILES IDX 58 89 59 90 67 91 60 92 61 93 65 94 68 95 62 96 63 97 66 98
REMARK SMILES IDX 64 99
REMARK H PARENT 25 4 6 10 29 33 88 52 56 63
REMARK Flexibility Score: inf
ROOT
ATOM      1  O   UNL A   1      32.294  25.607  26.549  1.00  0.00    -0.275 OA
ATOM      2  C   UNL A   1      33.316  25.975  25.985  1.00  0.00     0.220 C 
ATOM      3  N   UNL A   1      34.427  25.183  25.814  1.00  0.00    -0.356 N 
ATOM      4  H   UNL A   1      35.177  25.535  25.283  1.00  0.00     0.163 HD
ENDROOT
BRANCH   2   5
ATOM      5  C   UNL A   1      33.486  27.379  25.438  1.00  0.00     0.102 C 
BRANCH   5   6
ATOM      6  C   UNL A   1      32.368  28.322  25.889  1.00  0.00     0.031 C 
BRANCH   6   7
ATOM      7  C   UNL A   1      32.383  29.718  25.263  1.00  0.00     0.116 C 
BRANCH   7   8
ATOM      8  N   UNL A   1      31.073  30.144  24.804  1.00  0.00    -0.353 N 
ATOM      9  C   UNL A   1      30.415  29.812  23.657  1.00  0.00     0.257 C 
ATOM     10  H   UNL A   1      30.591  30.758  25.405  1.00  0.00     0.163 HD
ATOM     11  O   UNL A   1      29.246  30.188  23.540  1.00  0.00    -0.271 OA
BRANCH   9  12
ATOM     12  C   UNL A   1      31.112  28.999  22.563  1.00  0.00     0.329 C 
BRANCH  12  13
ATOM     13  O   UNL A   1      30.448  27.863  22.030  1.00  0.00    -0.484 OA
BRANCH  13  14
ATOM     14  C   UNL A   1      30.928  26.639  22.405  1.00  0.00     0.123 A 
ATOM     15  C   UNL A   1      30.064  25.871  23.191  1.00  0.00     0.047 A 
ATOM     16  C   UNL A   1      32.207  26.169  22.132  1.00  0.00     0.094 A 
ATOM     17  C   UNL A   1      30.461  24.620  23.682  1.00  0.00     0.016 A 
ATOM     18  C   UNL A   1      32.596  24.929  22.635  1.00  0.00     0.142 A 
ATOM     19  C   UNL A   1      31.741  24.140  23.405  1.00  0.00     0.021 A 
ATOM     20  O   UNL A   1      33.914  24.511  22.331  1.00  0.00    -0.422 OA
ATOM     21  C   UNL A   1      32.250  22.867  23.869  1.00  0.00    -0.027 A 
ATOM     22  C   UNL A   1      34.415  23.284  22.757  1.00  0.00     0.339 A 
ATOM     23  C   UNL A   1      33.488  22.478  23.554  1.00  0.00     0.042 A 
ATOM     24  C   UNL A   1      31.544  21.853  24.696  1.00  0.00     0.037 C 
ATOM     25  O   UNL A   1      35.546  22.908  22.492  1.00  0.00    -0.246 OA
ATOM     26  C   UNL A   1      33.819  21.138  24.102  1.00  0.00     0.044 C 
ATOM     27  C   UNL A   1      32.694  20.929  25.121  1.00  0.00     0.010 C 
ENDBRANCH  13  14
ENDBRANCH  12  13
ENDBRANCH   9  12
ENDBRANCH   7   8
ENDBRANCH   6   7
ENDBRANCH   5   6
ENDBRANCH   2   5
BRANCH   3  28
ATOM     28  C   UNL A   1      34.547  23.854  26.377  1.00  0.00     0.117 C 
BRANCH  28  29
ATOM     29  C   UNL A   1      35.993  23.502  26.704  1.00  0.00     0.042 C 
BRANCH  29  30
ATOM     30  C   UNL A   1      36.984  23.705  25.560  1.00  0.00     0.118 C 
BRANCH  30  31
ATOM     31  N   UNL A   1      38.171  22.871  25.659  1.00  0.00    -0.352 N 
ATOM     32  C   UNL A   1      39.405  23.166  26.190  1.00  0.00     0.251 C 
ATOM     33  H   UNL A   1      38.077  21.961  25.293  1.00  0.00     0.163 HD
ATOM     34  O   UNL A   1      40.327  22.363  26.076  1.00  0.00    -0.269 OA
BRANCH  32  35
ATOM     35  C   UNL A   1      39.640  24.464  26.862  1.00  0.00     0.039 A 
ATOM     36  C   UNL A   1      39.220  24.619  28.186  1.00  0.00     0.014 A 
ATOM     37  C   UNL A   1      40.271  25.523  26.203  1.00  0.00     0.014 A 
ATOM     38  C   UNL A   1      39.500  25.805  28.870  1.00  0.00     0.010 A 
ATOM     39  C   UNL A   1      40.620  26.672  26.910  1.00  0.00     0.010 A 
ATOM     40  C   UNL A   1      40.242  26.825  28.254  1.00  0.00    -0.014 A 
BRANCH  40  41
ATOM     41  C   UNL A   1      40.641  28.047  29.003  1.00  0.00     0.031 A 
ATOM     42  C   UNL A   1      42.030  28.177  29.566  1.00  0.00     0.074 A 
ATOM     43  C   UNL A   1      39.733  29.017  29.231  1.00  0.00     0.049 A 
ATOM     44  N   UNL A   1      42.542  29.137  30.295  1.00  0.00    -0.248 NA
ATOM     45  C   UNL A   1      42.960  27.072  29.292  1.00  0.00     0.031 C 
ATOM     46  C   UNL A   1      38.341  28.994  28.780  1.00  0.00     0.029 A 
ATOM     47  N   UNL A   1      39.841  30.207  29.908  1.00  0.00    -0.354 N 
ATOM     48  C   UNL A   1      43.845  28.745  30.576  1.00  0.00     0.074 A 
ATOM     49  C   UNL A   1      44.028  27.437  29.986  1.00  0.00     0.031 C 
ATOM     50  C   UNL A   1      37.732  30.124  29.171  1.00  0.00     0.029 A 
ATOM     51  C   UNL A   1      38.675  30.932  29.938  1.00  0.00     0.049 A 
ATOM     52  H   UNL A   1      40.676  30.511  30.333  1.00  0.00     0.167 HD
ATOM     53  C   UNL A   1      44.808  29.424  31.246  1.00  0.00     0.037 A 
ATOM     54  C   UNL A   1      38.393  32.112  30.526  1.00  0.00     0.037 A 
ATOM     55  C   UNL A   1      44.629  30.733  31.819  1.00  0.00     0.049 A 
ATOM     56  C   UNL A   1      39.474  32.835  31.283  1.00  0.00     0.074 A 
ATOM     57  C   UNL A   1      45.561  31.526  32.467  1.00  0.00     0.029 A 
ATOM     58  N   UNL A   1      43.435  31.439  31.822  1.00  0.00    -0.354 N 
ATOM     59  N   UNL A   1      40.723  32.488  31.478  1.00  0.00    -0.248 NA
ATOM     60  C   UNL A   1      39.108  34.120  31.897  1.00  0.00     0.031 C 
ATOM     61  C   UNL A   1      44.918  32.686  32.910  1.00  0.00     0.029 A 
ATOM     62  C   UNL A   1      43.600  32.646  32.485  1.00  0.00     0.049 A 
ATOM     63  H   UNL A   1      42.594  31.130  31.414  1.00  0.00     0.167 HD
ATOM     64  C   UNL A   1      41.298  33.521  32.207  1.00  0.00     0.074 A 
ATOM     65  C   UNL A   1      40.265  34.516  32.405  1.00  0.00     0.031 C 
ATOM     66  C   UNL A   1      42.568  33.634  32.669  1.00  0.00     0.037 A 
BRANCH  53  67
ATOM     67  C   UNL A   1      46.149  28.763  31.396  1.00  0.00     0.064 A 
ATOM     68  C   UNL A   1      47.176  28.955  30.458  1.00  0.00     0.173 A 
ATOM     69  C   UNL A   1      46.425  27.959  32.513  1.00  0.00     0.173 A 
ATOM     70  F   UNL A   1      46.962  29.708  29.368  1.00  0.00    -0.203 F 
ATOM     71  C   UNL A   1      48.416  28.343  30.617  1.00  0.00     0.198 A 
ATOM     72  C   UNL A   1      47.679  27.377  32.685  1.00  0.00     0.198 A 
ATOM     73  F   UNL A   1      45.483  27.748  33.445  1.00  0.00    -0.203 F 
ATOM     74  F   UNL A   1      49.363  28.502  29.681  1.00  0.00    -0.200 F 
ATOM     75  C   UNL A   1      48.669  27.562  31.734  1.00  0.00     0.200 A 
ATOM     76  F   UNL A   1      47.927  26.635  33.774  1.00  0.00    -0.200 F 
ATOM     77  F   UNL A   1      49.868  26.982  31.890  1.00  0.00    -0.200 F 
ENDBRANCH  53  67
BRANCH  54  78
ATOM     78  C   UNL A   1      37.029  32.694  30.410  1.00  0.00     0.064 A 
ATOM     79  C   UNL A   1      36.672  33.479  29.305  1.00  0.00     0.173 A 
ATOM     80  C   UNL A   1      36.061  32.491  31.405  1.00  0.00     0.173 A 
ATOM     81  F   UNL A   1      37.569  33.721  28.338  1.00  0.00    -0.203 F 
ATOM     82  C   UNL A   1      35.408  34.059  29.211  1.00  0.00     0.198 A 
ATOM     83  C   UNL A   1      34.786  33.044  31.293  1.00  0.00     0.198 A 
ATOM     84  F   UNL A   1      36.349  31.744  32.481  1.00  0.00    -0.203 F 
ATOM     85  F   UNL A   1      35.112  34.848  28.169  1.00  0.00    -0.200 F 
ATOM     86  C   UNL A   1      34.465  33.836  30.201  1.00  0.00     0.200 A 
ATOM     87  F   UNL A   1      33.873  32.813  32.246  1.00  0.00    -0.200 F 
ATOM     88  F   UNL A   1      33.248  34.390  30.108  1.00  0.00    -0.200 F 
ENDBRANCH  54  78
BRANCH  66  89
ATOM     89  C   UNL A   1      42.927  34.898  33.399  1.00  0.00     0.064 A 
ATOM     90  C   UNL A   1      43.320  36.059  32.719  1.00  0.00     0.173 A 
ATOM     91  C   UNL A   1      42.838  34.956  34.799  1.00  0.00     0.173 A 
ATOM     92  F   UNL A   1      43.436  36.053  31.382  1.00  0.00    -0.203 F 
ATOM     93  C   UNL A   1      43.640  37.223  33.414  1.00  0.00     0.198 A 
ATOM     94  C   UNL A   1      43.125  36.132  35.488  1.00  0.00     0.198 A 
ATOM     95  F   UNL A   1      42.460  33.877  35.499  1.00  0.00    -0.203 F 
ATOM     96  F   UNL A   1      44.065  38.305  32.745  1.00  0.00    -0.200 F 
ATOM     97  C   UNL A   1      43.533  37.261  34.796  1.00  0.00     0.200 A 
ATOM     98  F   UNL A   1      43.006  36.171  36.822  1.00  0.00    -0.200 F 
ATOM     99  F   UNL A   1      43.833  38.385  35.462  1.00  0.00    -0.200 F 
ENDBRANCH  66  89
ENDBRANCH  40  41
ENDBRANCH  32  35
ENDBRANCH  30  31
ENDBRANCH  29  30
ENDBRANCH  28  29
ENDBRANCH   3  28
TORSDOF 16
ENDMDL
