MODEL 1
REMARK VINA RESULT:     -12.1      0.000      0.000
REMARK SMILES CC(=O)N[C@@H](Cc1cc(Br)c(O)c(Br)c1)C(=O)NCCCNC(=O)c1ccc(-c2c3nc(c(-c4c(F)c(F)c(F)c(F)c4F)c4ccc([nH]4)c(-c4c(F)c(F)c(F)c(F)c4F)c4nc(c(-c5c(F)c(F)c(F)c(F)c5F)c5ccc2[nH]5)C=C4)C=C3)cc1
REMARK SMILES IDX 19 1 18 2 16 3 17 4 5 6 4 7 1 8 2 9 3 10 6 12 7 13 8 14
REMARK SMILES IDX 15 15 9 16 13 17 10 18 11 19 14 20 12 21 20 23 21 24 22 25
REMARK SMILES IDX 23 26 24 28 25 29 26 30 87 31 27 32 86 33 28 34 29 35 30 36
REMARK SMILES IDX 80 37 31 38 85 39 79 40 81 41 32 42 84 43 78 44 77 45 33 47
REMARK SMILES IDX 65 48 45 49 64 50 46 51 49 52 63 53 82 54 47 55 48 56 62 58
REMARK SMILES IDX 83 59 50 60 34 61 35 62 43 63 36 64 37 65 41 66 44 67 38 68
REMARK SMILES IDX 39 69 42 70 40 71 66 72 67 73 75 74 68 75 69 76 73 77 76 78
REMARK SMILES IDX 70 79 71 80 74 81 72 82 51 83 52 84 60 85 53 86 54 87 58 88
REMARK SMILES IDX 61 89 55 90 56 91 59 92 57 93
REMARK H PARENT 18 5 4 11 12 22 22 27 81 46 49 57
REMARK Flexibility Score: inf
ROOT
ATOM      1  C   UNL A   1      32.400  26.867  26.502  1.00  0.00     0.117 C 
ENDROOT
BRANCH   1   2
ATOM      2  N   UNL A   1      31.453  25.862  26.937  1.00  0.00    -0.354 N 
ATOM      3  C   UNL A   1      31.230  24.608  26.446  1.00  0.00     0.242 C 
ATOM      4  O   UNL A   1      30.714  23.794  27.221  1.00  0.00    -0.273 OA
ATOM      5  H   UNL A   1      30.886  26.121  27.700  1.00  0.00     0.163 HD
BRANCH   3   6
ATOM      6  C   UNL A   1      31.682  24.150  25.038  1.00  0.00     0.175 C 
BRANCH   6   7
ATOM      7  N   UNL A   1      32.122  22.753  24.997  1.00  0.00    -0.344 N 
ATOM      8  C   UNL A   1      33.759  23.041  23.169  1.00  0.00     0.114 C 
ATOM      9  C   UNL A   1      33.139  22.218  24.263  1.00  0.00     0.217 C 
ATOM     10  O   UNL A   1      33.502  21.068  24.503  1.00  0.00    -0.275 OA
ATOM     11  H   UNL A   1      31.624  22.126  25.567  1.00  0.00     0.164 HD
ENDBRANCH   6   7
BRANCH   6  12
ATOM     12  C   UNL A   1      30.712  24.538  23.898  1.00  0.00     0.070 C 
BRANCH  12  13
ATOM     13  C   UNL A   1      30.836  25.925  23.314  1.00  0.00    -0.043 A 
ATOM     14  C   UNL A   1      29.719  26.768  23.208  1.00  0.00     0.023 A 
ATOM     15  C   UNL A   1      32.092  26.411  22.915  1.00  0.00     0.023 A 
ATOM     16  C   UNL A   1      29.874  28.095  22.793  1.00  0.00     0.061 A 
ATOM     17  C   UNL A   1      32.242  27.738  22.493  1.00  0.00     0.061 A 
ATOM     18  Br  UNL A   1      28.352  29.226  22.771  1.00  0.00    -0.047 Br
ATOM     19  C   UNL A   1      31.136  28.590  22.453  1.00  0.00     0.143 A 
ATOM     20  Br  UNL A   1      33.989  28.359  22.095  1.00  0.00    -0.047 Br
BRANCH  19  21
ATOM     21  O   UNL A   1      31.310  29.904  22.113  1.00  0.00    -0.506 OA
ATOM     22  H   UNL A   1      31.637  30.512  22.747  1.00  0.00     0.293 HD
ENDBRANCH  19  21
ENDBRANCH  12  13
ENDBRANCH   6  12
ENDBRANCH   3   6
ENDBRANCH   1   2
BRANCH   1  23
ATOM     23  C   UNL A   1      31.799  28.222  26.197  1.00  0.00     0.042 C 
BRANCH  23  24
ATOM     24  C   UNL A   1      32.835  29.269  25.813  1.00  0.00     0.118 C 
BRANCH  24  25
ATOM     25  N   UNL A   1      32.479  30.627  26.221  1.00  0.00    -0.352 N 
ATOM     26  C   UNL A   1      33.105  31.514  27.071  1.00  0.00     0.251 C 
ATOM     27  H   UNL A   1      31.648  30.967  25.819  1.00  0.00     0.163 HD
ATOM     28  O   UNL A   1      32.566  32.570  27.361  1.00  0.00    -0.269 OA
BRANCH  26  29
ATOM     29  C   UNL A   1      34.415  31.175  27.663  1.00  0.00     0.039 A 
ATOM     30  C   UNL A   1      35.376  32.181  27.807  1.00  0.00     0.014 A 
ATOM     31  C   UNL A   1      34.694  29.878  28.088  1.00  0.00     0.014 A 
ATOM     32  C   UNL A   1      36.571  31.904  28.475  1.00  0.00     0.010 A 
ATOM     33  C   UNL A   1      35.823  29.633  28.855  1.00  0.00     0.010 A 
ATOM     34  C   UNL A   1      36.776  30.643  29.056  1.00  0.00    -0.014 A 
BRANCH  34  35
ATOM     35  C   UNL A   1      37.982  30.334  29.865  1.00  0.00     0.031 A 
ATOM     36  C   UNL A   1      39.035  29.417  29.305  1.00  0.00     0.074 A 
ATOM     37  C   UNL A   1      38.080  30.796  31.127  1.00  0.00     0.049 A 
ATOM     38  N   UNL A   1      40.075  28.888  29.897  1.00  0.00    -0.248 NA
ATOM     39  C   UNL A   1      38.871  29.005  27.900  1.00  0.00     0.031 C 
ATOM     40  C   UNL A   1      37.100  31.652  31.798  1.00  0.00     0.029 A 
ATOM     41  N   UNL A   1      39.049  30.597  32.078  1.00  0.00    -0.354 N 
ATOM     42  C   UNL A   1      40.669  28.066  28.947  1.00  0.00     0.074 A 
ATOM     43  C   UNL A   1      39.840  28.114  27.763  1.00  0.00     0.031 C 
ATOM     44  C   UNL A   1      37.532  31.928  33.040  1.00  0.00     0.029 A 
ATOM     45  C   UNL A   1      38.794  31.233  33.268  1.00  0.00     0.049 A 
ATOM     46  H   UNL A   1      39.853  30.050  31.921  1.00  0.00     0.167 HD
ATOM     47  C   UNL A   1      41.822  27.362  29.042  1.00  0.00     0.037 A 
ATOM     48  C   UNL A   1      39.497  31.243  34.416  1.00  0.00     0.037 A 
ATOM     49  C   UNL A   1      42.665  27.354  30.206  1.00  0.00     0.049 A 
ATOM     50  C   UNL A   1      40.779  30.458  34.490  1.00  0.00     0.074 A 
ATOM     51  C   UNL A   1      43.869  26.703  30.398  1.00  0.00     0.029 A 
ATOM     52  N   UNL A   1      42.393  28.049  31.376  1.00  0.00    -0.354 N 
ATOM     53  N   UNL A   1      41.350  29.715  33.573  1.00  0.00    -0.248 NA
ATOM     54  C   UNL A   1      41.517  30.516  35.760  1.00  0.00     0.031 C 
ATOM     55  C   UNL A   1      44.317  26.985  31.692  1.00  0.00     0.029 A 
ATOM     56  C   UNL A   1      43.409  27.842  32.293  1.00  0.00     0.049 A 
ATOM     57  H   UNL A   1      41.596  28.606  31.531  1.00  0.00     0.167 HD
ATOM     58  C   UNL A   1      42.527  29.248  34.140  1.00  0.00     0.074 A 
ATOM     59  C   UNL A   1      42.597  29.801  35.476  1.00  0.00     0.031 C 
ATOM     60  C   UNL A   1      43.466  28.428  33.606  1.00  0.00     0.037 A 
BRANCH  47  61
ATOM     61  C   UNL A   1      42.248  26.570  27.842  1.00  0.00     0.064 A 
ATOM     62  C   UNL A   1      41.781  25.264  27.624  1.00  0.00     0.173 A 
ATOM     63  C   UNL A   1      43.109  27.126  26.883  1.00  0.00     0.173 A 
ATOM     64  F   UNL A   1      40.969  24.682  28.520  1.00  0.00    -0.203 F 
ATOM     65  C   UNL A   1      42.181  24.535  26.509  1.00  0.00     0.198 A 
ATOM     66  C   UNL A   1      43.484  26.405  25.753  1.00  0.00     0.198 A 
ATOM     67  F   UNL A   1      43.583  28.371  27.041  1.00  0.00    -0.203 F 
ATOM     68  F   UNL A   1      41.762  23.272  26.350  1.00  0.00    -0.200 F 
ATOM     69  C   UNL A   1      43.025  25.108  25.570  1.00  0.00     0.200 A 
ATOM     70  F   UNL A   1      44.291  26.962  24.840  1.00  0.00    -0.200 F 
ATOM     71  F   UNL A   1      43.404  24.407  24.492  1.00  0.00    -0.200 F 
ENDBRANCH  47  61
BRANCH  48  72
ATOM     72  C   UNL A   1      39.030  32.042  35.579  1.00  0.00     0.064 A 
ATOM     73  C   UNL A   1      39.369  33.398  35.698  1.00  0.00     0.173 A 
ATOM     74  C   UNL A   1      38.265  31.472  36.606  1.00  0.00     0.173 A 
ATOM     75  F   UNL A   1      40.118  33.985  34.750  1.00  0.00    -0.203 F 
ATOM     76  C   UNL A   1      38.989  34.143  36.812  1.00  0.00     0.198 A 
ATOM     77  C   UNL A   1      37.860  32.225  37.706  1.00  0.00     0.198 A 
ATOM     78  F   UNL A   1      37.907  30.181  36.538  1.00  0.00    -0.203 F 
ATOM     79  F   UNL A   1      39.378  35.421  36.925  1.00  0.00    -0.200 F 
ATOM     80  C   UNL A   1      38.233  33.556  37.814  1.00  0.00     0.200 A 
ATOM     81  F   UNL A   1      37.117  31.658  38.667  1.00  0.00    -0.200 F 
ATOM     82  F   UNL A   1      37.871  34.272  38.889  1.00  0.00    -0.200 F 
ENDBRANCH  48  72
BRANCH  60  83
ATOM     83  C   UNL A   1      44.670  28.129  34.447  1.00  0.00     0.064 A 
ATOM     84  C   UNL A   1      45.798  28.962  34.439  1.00  0.00     0.173 A 
ATOM     85  C   UNL A   1      44.678  27.015  35.300  1.00  0.00     0.173 A 
ATOM     86  F   UNL A   1      45.842  30.030  33.628  1.00  0.00    -0.203 F 
ATOM     87  C   UNL A   1      46.901  28.677  35.238  1.00  0.00     0.198 A 
ATOM     88  C   UNL A   1      45.770  26.749  36.119  1.00  0.00     0.198 A 
ATOM     89  F   UNL A   1      43.619  26.193  35.347  1.00  0.00    -0.203 F 
ATOM     90  F   UNL A   1      47.986  29.460  35.182  1.00  0.00    -0.200 F 
ATOM     91  C   UNL A   1      46.883  27.576  36.083  1.00  0.00     0.200 A 
ATOM     92  F   UNL A   1      45.748  25.692  36.942  1.00  0.00    -0.200 F 
ATOM     93  F   UNL A   1      47.944  27.307  36.856  1.00  0.00    -0.200 F 
ENDBRANCH  60  83
ENDBRANCH  34  35
ENDBRANCH  26  29
ENDBRANCH  24  25
ENDBRANCH  23  24
ENDBRANCH   1  23
TORSDOF 14
ENDMDL
MODEL 2
REMARK VINA RESULT:     -12.0      1.787      3.016
REMARK SMILES CC(=O)N[C@@H](Cc1cc(Br)c(O)c(Br)c1)C(=O)NCCCNC(=O)c1ccc(-c2c3nc(c(-c4c(F)c(F)c(F)c(F)c4F)c4ccc([nH]4)c(-c4c(F)c(F)c(F)c(F)c4F)c4nc(c(-c5c(F)c(F)c(F)c(F)c5F)c5ccc2[nH]5)C=C4)C=C3)cc1
REMARK SMILES IDX 19 1 18 2 16 3 17 4 5 6 4 7 1 8 2 9 3 10 6 12 7 13 8 14
REMARK SMILES IDX 15 15 9 16 13 17 10 18 11 19 14 20 12 21 20 23 21 24 22 25
REMARK SMILES IDX 23 26 24 28 25 29 26 30 87 31 27 32 86 33 28 34 29 35 30 36
REMARK SMILES IDX 80 37 31 38 85 39 79 40 81 41 32 42 84 43 78 44 77 45 33 47
REMARK SMILES IDX 65 48 45 49 64 50 46 51 49 52 63 53 82 54 47 55 48 56 62 58
REMARK SMILES IDX 83 59 50 60 34 61 35 62 43 63 36 64 37 65 41 66 44 67 38 68
REMARK SMILES IDX 39 69 42 70 40 71 66 72 67 73 75 74 68 75 69 76 73 77 76 78
REMARK SMILES IDX 70 79 71 80 74 81 72 82 51 83 52 84 60 85 53 86 54 87 58 88
REMARK SMILES IDX 61 89 55 90 56 91 59 92 57 93
REMARK H PARENT 18 5 4 11 12 22 22 27 81 46 49 57
REMARK Flexibility Score: inf
ROOT
ATOM      1  C   UNL A   1      33.526  28.401  23.045  1.00  0.00     0.117 C 
ENDROOT
BRANCH   1   2
ATOM      2  N   UNL A   1      32.937  27.674  21.940  1.00  0.00    -0.354 N 
ATOM      3  C   UNL A   1      32.469  26.393  21.894  1.00  0.00     0.242 C 
ATOM      4  O   UNL A   1      31.633  26.141  21.018  1.00  0.00    -0.273 OA
ATOM      5  H   UNL A   1      32.864  28.179  21.096  1.00  0.00     0.163 HD
BRANCH   3   6
ATOM      6  C   UNL A   1      32.846  25.308  22.931  1.00  0.00     0.175 C 
BRANCH   6   7
ATOM      7  N   UNL A   1      31.968  25.294  24.103  1.00  0.00    -0.344 N 
ATOM      8  C   UNL A   1      33.750  25.641  25.779  1.00  0.00     0.114 C 
ATOM      9  C   UNL A   1      32.298  25.561  25.399  1.00  0.00     0.217 C 
ATOM     10  O   UNL A   1      31.396  25.703  26.223  1.00  0.00    -0.275 OA
ATOM     11  H   UNL A   1      31.026  25.066  23.935  1.00  0.00     0.164 HD
ENDBRANCH   6   7
BRANCH   6  12
ATOM     12  C   UNL A   1      33.108  23.910  22.325  1.00  0.00     0.070 C 
BRANCH  12  13
ATOM     13  C   UNL A   1      33.701  22.854  23.228  1.00  0.00    -0.043 A 
ATOM     14  C   UNL A   1      32.969  21.708  23.577  1.00  0.00     0.023 A 
ATOM     15  C   UNL A   1      35.021  22.981  23.689  1.00  0.00     0.023 A 
ATOM     16  C   UNL A   1      33.577  20.676  24.299  1.00  0.00     0.061 A 
ATOM     17  C   UNL A   1      35.624  21.949  24.419  1.00  0.00     0.061 A 
ATOM     18  Br  UNL A   1      32.581  19.102  24.653  1.00  0.00    -0.047 Br
ATOM     19  C   UNL A   1      34.910  20.784  24.706  1.00  0.00     0.143 A 
ATOM     20  Br  UNL A   1      37.450  22.138  24.895  1.00  0.00    -0.047 Br
BRANCH  19  21
ATOM     21  O   UNL A   1      35.536  19.752  25.352  1.00  0.00    -0.506 OA
ATOM     22  H   UNL A   1      35.792  19.848  26.248  1.00  0.00     0.293 HD
ENDBRANCH  19  21
ENDBRANCH  12  13
ENDBRANCH   6  12
ENDBRANCH   3   6
ENDBRANCH   1   2
BRANCH   1  23
ATOM     23  C   UNL A   1      32.536  28.953  24.048  1.00  0.00     0.042 C 
BRANCH  23  24
ATOM     24  C   UNL A   1      33.160  29.274  25.397  1.00  0.00     0.118 C 
BRANCH  24  25
ATOM     25  N   UNL A   1      32.682  30.523  25.986  1.00  0.00    -0.352 N 
ATOM     26  C   UNL A   1      33.202  31.314  26.988  1.00  0.00     0.251 C 
ATOM     27  H   UNL A   1      31.842  30.860  25.597  1.00  0.00     0.163 HD
ATOM     28  O   UNL A   1      32.570  32.271  27.406  1.00  0.00    -0.269 OA
BRANCH  26  29
ATOM     29  C   UNL A   1      34.511  30.986  27.588  1.00  0.00     0.039 A 
ATOM     30  C   UNL A   1      35.475  31.991  27.707  1.00  0.00     0.014 A 
ATOM     31  C   UNL A   1      34.786  29.698  28.044  1.00  0.00     0.014 A 
ATOM     32  C   UNL A   1      36.670  31.727  28.380  1.00  0.00     0.010 A 
ATOM     33  C   UNL A   1      35.915  29.469  28.817  1.00  0.00     0.010 A 
ATOM     34  C   UNL A   1      36.871  30.480  28.992  1.00  0.00    -0.014 A 
BRANCH  34  35
ATOM     35  C   UNL A   1      38.076  30.188  29.808  1.00  0.00     0.031 A 
ATOM     36  C   UNL A   1      39.135  29.269  29.262  1.00  0.00     0.074 A 
ATOM     37  C   UNL A   1      38.170  30.666  31.064  1.00  0.00     0.049 A 
ATOM     38  N   UNL A   1      40.177  28.752  29.863  1.00  0.00    -0.248 NA
ATOM     39  C   UNL A   1      38.977  28.838  27.862  1.00  0.00     0.031 C 
ATOM     40  C   UNL A   1      37.183  31.525  31.722  1.00  0.00     0.029 A 
ATOM     41  N   UNL A   1      39.137  30.484  32.020  1.00  0.00    -0.354 N 
ATOM     42  C   UNL A   1      40.777  27.922  28.925  1.00  0.00     0.074 A 
ATOM     43  C   UNL A   1      39.951  27.951  27.739  1.00  0.00     0.031 C 
ATOM     44  C   UNL A   1      37.611  31.819  32.961  1.00  0.00     0.029 A 
ATOM     45  C   UNL A   1      38.876  31.133  33.201  1.00  0.00     0.049 A 
ATOM     46  H   UNL A   1      39.945  29.938  31.872  1.00  0.00     0.167 HD
ATOM     47  C   UNL A   1      41.933  27.225  29.031  1.00  0.00     0.037 A 
ATOM     48  C   UNL A   1      39.576  31.161  34.351  1.00  0.00     0.037 A 
ATOM     49  C   UNL A   1      42.773  27.235  30.198  1.00  0.00     0.049 A 
ATOM     50  C   UNL A   1      40.862  30.384  34.438  1.00  0.00     0.074 A 
ATOM     51  C   UNL A   1      43.980  26.593  30.400  1.00  0.00     0.029 A 
ATOM     52  N   UNL A   1      42.495  27.944  31.358  1.00  0.00    -0.354 N 
ATOM     53  N   UNL A   1      41.439  29.633  33.532  1.00  0.00    -0.248 NA
ATOM     54  C   UNL A   1      41.597  30.461  35.708  1.00  0.00     0.031 C 
ATOM     55  C   UNL A   1      44.424  26.893  31.692  1.00  0.00     0.029 A 
ATOM     56  C   UNL A   1      43.510  27.753  32.280  1.00  0.00     0.049 A 
ATOM     57  H   UNL A   1      41.695  28.499  31.504  1.00  0.00     0.167 HD
ATOM     58  C   UNL A   1      42.617  29.178  34.107  1.00  0.00     0.074 A 
ATOM     59  C   UNL A   1      42.680  29.748  35.436  1.00  0.00     0.031 C 
ATOM     60  C   UNL A   1      43.561  28.356  33.586  1.00  0.00     0.037 A 
BRANCH  47  61
ATOM     61  C   UNL A   1      42.366  26.420  27.842  1.00  0.00     0.064 A 
ATOM     62  C   UNL A   1      41.889  25.117  27.629  1.00  0.00     0.173 A 
ATOM     63  C   UNL A   1      43.244  26.961  26.890  1.00  0.00     0.173 A 
ATOM     64  F   UNL A   1      41.061  24.548  28.519  1.00  0.00    -0.203 F 
ATOM     65  C   UNL A   1      42.296  24.375  26.524  1.00  0.00     0.198 A 
ATOM     66  C   UNL A   1      43.625  26.227  25.770  1.00  0.00     0.198 A 
ATOM     67  F   UNL A   1      43.728  28.202  27.044  1.00  0.00    -0.203 F 
ATOM     68  F   UNL A   1      41.867  23.115  26.369  1.00  0.00    -0.200 F 
ATOM     69  C   UNL A   1      43.157  24.933  25.591  1.00  0.00     0.200 A 
ATOM     70  F   UNL A   1      44.448  26.769  24.863  1.00  0.00    -0.200 F 
ATOM     71  F   UNL A   1      43.542  24.221  24.523  1.00  0.00    -0.200 F 
ENDBRANCH  47  61
BRANCH  48  72
ATOM     72  C   UNL A   1      39.102  31.973  35.503  1.00  0.00     0.064 A 
ATOM     73  C   UNL A   1      39.466  33.322  35.624  1.00  0.00     0.173 A 
ATOM     74  C   UNL A   1      38.306  31.420  36.515  1.00  0.00     0.173 A 
ATOM     75  F   UNL A   1      40.244  33.892  34.690  1.00  0.00    -0.203 F 
ATOM     76  C   UNL A   1      39.079  34.077  36.729  1.00  0.00     0.198 A 
ATOM     77  C   UNL A   1      37.896  32.184  37.606  1.00  0.00     0.198 A 
ATOM     78  F   UNL A   1      37.925  30.136  36.444  1.00  0.00    -0.203 F 
ATOM     79  F   UNL A   1      39.490  35.348  36.846  1.00  0.00    -0.200 F 
ATOM     80  C   UNL A   1      38.291  33.508  37.718  1.00  0.00     0.200 A 
ATOM     81  F   UNL A   1      37.123  31.635  38.554  1.00  0.00    -0.200 F 
ATOM     82  F   UNL A   1      37.923  34.234  38.783  1.00  0.00    -0.200 F 
ENDBRANCH  48  72
BRANCH  60  83
ATOM     83  C   UNL A   1      44.765  28.074  34.434  1.00  0.00     0.064 A 
ATOM     84  C   UNL A   1      45.893  28.906  34.409  1.00  0.00     0.173 A 
ATOM     85  C   UNL A   1      44.771  26.977  35.308  1.00  0.00     0.173 A 
ATOM     86  F   UNL A   1      45.938  29.957  33.577  1.00  0.00    -0.203 F 
ATOM     87  C   UNL A   1      46.994  28.637  35.215  1.00  0.00     0.198 A 
ATOM     88  C   UNL A   1      45.863  26.727  36.133  1.00  0.00     0.198 A 
ATOM     89  F   UNL A   1      43.712  26.156  35.371  1.00  0.00    -0.203 F 
ATOM     90  F   UNL A   1      48.080  29.418  35.144  1.00  0.00    -0.200 F 
ATOM     91  C   UNL A   1      46.976  27.552  36.081  1.00  0.00     0.200 A 
ATOM     92  F   UNL A   1      45.839  25.686  36.977  1.00  0.00    -0.200 F 
ATOM     93  F   UNL A   1      48.036  27.299  36.860  1.00  0.00    -0.200 F 
ENDBRANCH  60  83
ENDBRANCH  34  35
ENDBRANCH  26  29
ENDBRANCH  24  25
ENDBRANCH  23  24
ENDBRANCH   1  23
TORSDOF 14
ENDMDL
MODEL 3
REMARK VINA RESULT:     -11.9      5.321      8.856
REMARK SMILES CC(=O)N[C@@H](Cc1cc(Br)c(O)c(Br)c1)C(=O)NCCCNC(=O)c1ccc(-c2c3nc(c(-c4c(F)c(F)c(F)c(F)c4F)c4ccc([nH]4)c(-c4c(F)c(F)c(F)c(F)c4F)c4nc(c(-c5c(F)c(F)c(F)c(F)c5F)c5ccc2[nH]5)C=C4)C=C3)cc1
REMARK SMILES IDX 19 1 18 2 16 3 17 4 5 6 4 7 1 8 2 9 3 10 6 12 7 13 8 14
REMARK SMILES IDX 15 15 9 16 13 17 10 18 11 19 14 20 12 21 20 23 21 24 22 25
REMARK SMILES IDX 23 26 24 28 25 29 26 30 87 31 27 32 86 33 28 34 29 35 30 36
REMARK SMILES IDX 80 37 31 38 85 39 79 40 81 41 32 42 84 43 78 44 77 45 33 47
REMARK SMILES IDX 65 48 45 49 64 50 46 51 49 52 63 53 82 54 47 55 48 56 62 58
REMARK SMILES IDX 83 59 50 60 34 61 35 62 43 63 36 64 37 65 41 66 44 67 38 68
REMARK SMILES IDX 39 69 42 70 40 71 66 72 67 73 75 74 68 75 69 76 73 77 76 78
REMARK SMILES IDX 70 79 71 80 74 81 72 82 51 83 52 84 60 85 53 86 54 87 58 88
REMARK SMILES IDX 61 89 55 90 56 91 59 92 57 93
REMARK H PARENT 18 5 4 11 12 22 22 27 81 46 49 57
REMARK Flexibility Score: inf
ROOT
ATOM      1  C   UNL A   1      41.912  19.733  26.994  1.00  0.00     0.117 C 
ENDROOT
BRANCH   1   2
ATOM      2  N   UNL A   1      43.000  19.674  26.041  1.00  0.00    -0.354 N 
ATOM      3  C   UNL A   1      43.915  20.630  25.707  1.00  0.00     0.242 C 
ATOM      4  O   UNL A   1      44.981  20.229  25.225  1.00  0.00    -0.273 OA
ATOM      5  H   UNL A   1      43.094  18.817  25.563  1.00  0.00     0.163 HD
BRANCH   3   6
ATOM      6  C   UNL A   1      43.721  22.138  26.000  1.00  0.00     0.175 C 
BRANCH   6   7
ATOM      7  N   UNL A   1      44.437  22.593  27.193  1.00  0.00    -0.344 N 
ATOM      8  C   UNL A   1      42.428  23.217  28.490  1.00  0.00     0.114 C 
ATOM      9  C   UNL A   1      43.908  22.974  28.391  1.00  0.00     0.217 C 
ATOM     10  O   UNL A   1      44.663  23.133  29.348  1.00  0.00    -0.275 OA
ATOM     11  H   UNL A   1      45.418  22.628  27.123  1.00  0.00     0.164 HD
ENDBRANCH   6   7
BRANCH   6  12
ATOM     12  C   UNL A   1      43.903  23.055  24.768  1.00  0.00     0.070 C 
BRANCH  12  13
ATOM     13  C   UNL A   1      44.410  24.458  25.007  1.00  0.00    -0.043 A 
ATOM     14  C   UNL A   1      45.785  24.740  25.010  1.00  0.00     0.023 A 
ATOM     15  C   UNL A   1      43.501  25.515  25.179  1.00  0.00     0.023 A 
ATOM     16  C   UNL A   1      46.233  26.061  25.096  1.00  0.00     0.061 A 
ATOM     17  C   UNL A   1      43.955  26.837  25.272  1.00  0.00     0.061 A 
ATOM     18  Br  UNL A   1      48.096  26.400  24.986  1.00  0.00    -0.047 Br
ATOM     19  C   UNL A   1      45.321  27.114  25.208  1.00  0.00     0.143 A 
ATOM     20  Br  UNL A   1      42.662  28.220  25.371  1.00  0.00    -0.047 Br
BRANCH  19  21
ATOM     21  O   UNL A   1      45.745  28.416  25.223  1.00  0.00    -0.506 OA
ATOM     22  H   UNL A   1      45.480  28.987  25.916  1.00  0.00     0.293 HD
ENDBRANCH  19  21
ENDBRANCH  12  13
ENDBRANCH   6  12
ENDBRANCH   3   6
ENDBRANCH   1   2
BRANCH   1  23
ATOM     23  C   UNL A   1      40.569  20.115  26.409  1.00  0.00     0.042 C 
BRANCH  23  24
ATOM     24  C   UNL A   1      40.424  21.608  26.155  1.00  0.00     0.118 C 
BRANCH  24  25
ATOM     25  N   UNL A   1      39.061  22.021  25.829  1.00  0.00    -0.352 N 
ATOM     26  C   UNL A   1      38.360  23.168  26.133  1.00  0.00     0.251 C 
ATOM     27  H   UNL A   1      38.554  21.365  25.298  1.00  0.00     0.163 HD
ATOM     28  O   UNL A   1      37.176  23.258  25.852  1.00  0.00    -0.269 OA
BRANCH  26  29
ATOM     29  C   UNL A   1      39.031  24.282  26.834  1.00  0.00     0.039 A 
ATOM     30  C   UNL A   1      39.782  25.198  26.092  1.00  0.00     0.014 A 
ATOM     31  C   UNL A   1      38.910  24.434  28.214  1.00  0.00     0.014 A 
ATOM     32  C   UNL A   1      40.320  26.322  26.722  1.00  0.00     0.010 A 
ATOM     33  C   UNL A   1      39.338  25.608  28.816  1.00  0.00     0.010 A 
ATOM     34  C   UNL A   1      40.050  26.565  28.078  1.00  0.00    -0.014 A 
BRANCH  34  35
ATOM     35  C   UNL A   1      40.509  27.798  28.765  1.00  0.00     0.031 A 
ATOM     36  C   UNL A   1      41.936  27.899  29.229  1.00  0.00     0.074 A 
ATOM     37  C   UNL A   1      39.627  28.775  29.053  1.00  0.00     0.049 A 
ATOM     38  N   UNL A   1      42.502  28.805  29.987  1.00  0.00    -0.248 NA
ATOM     39  C   UNL A   1      42.841  26.810  28.823  1.00  0.00     0.031 C 
ATOM     40  C   UNL A   1      38.206  28.769  28.700  1.00  0.00     0.029 A 
ATOM     41  N   UNL A   1      39.794  29.959  29.726  1.00  0.00    -0.354 N 
ATOM     42  C   UNL A   1      43.812  28.381  30.164  1.00  0.00     0.074 A 
ATOM     43  C   UNL A   1      43.943  27.107  29.493  1.00  0.00     0.031 C 
ATOM     44  C   UNL A   1      37.639  29.908  29.132  1.00  0.00     0.029 A 
ATOM     45  C   UNL A   1      38.643  30.702  29.832  1.00  0.00     0.049 A 
ATOM     46  H   UNL A   1      40.659  30.250  30.097  1.00  0.00     0.167 HD
ATOM     47  C   UNL A   1      44.826  29.013  30.801  1.00  0.00     0.037 A 
ATOM     48  C   UNL A   1      38.425  31.884  30.436  1.00  0.00     0.037 A 
ATOM     49  C   UNL A   1      44.701  30.301  31.428  1.00  0.00     0.049 A 
ATOM     50  C   UNL A   1      39.572  32.570  31.128  1.00  0.00     0.074 A 
ATOM     51  C   UNL A   1      45.670  31.047  32.072  1.00  0.00     0.029 A 
ATOM     52  N   UNL A   1      43.527  31.041  31.473  1.00  0.00    -0.354 N 
ATOM     53  N   UNL A   1      40.816  32.177  31.257  1.00  0.00    -0.248 NA
ATOM     54  C   UNL A   1      39.285  33.867  31.757  1.00  0.00     0.031 C 
ATOM     55  C   UNL A   1      45.079  32.231  32.527  1.00  0.00     0.029 A 
ATOM     56  C   UNL A   1      43.751  32.237  32.134  1.00  0.00     0.049 A 
ATOM     57  H   UNL A   1      42.665  30.757  31.092  1.00  0.00     0.167 HD
ATOM     58  C   UNL A   1      41.465  33.190  31.948  1.00  0.00     0.074 A 
ATOM     59  C   UNL A   1      40.482  34.222  32.200  1.00  0.00     0.031 C 
ATOM     60  C   UNL A   1      42.760  33.259  32.345  1.00  0.00     0.037 A 
BRANCH  47  61
ATOM     61  C   UNL A   1      46.162  28.333  30.820  1.00  0.00     0.064 A 
ATOM     62  C   UNL A   1      46.508  27.431  31.839  1.00  0.00     0.173 A 
ATOM     63  C   UNL A   1      47.098  28.559  29.799  1.00  0.00     0.173 A 
ATOM     64  F   UNL A   1      45.654  27.193  32.847  1.00  0.00    -0.203 F 
ATOM     65  C   UNL A   1      47.750  26.803  31.851  1.00  0.00     0.198 A 
ATOM     66  C   UNL A   1      48.327  27.906  29.799  1.00  0.00     0.198 A 
ATOM     67  F   UNL A   1      46.817  29.409  28.801  1.00  0.00    -0.203 F 
ATOM     68  F   UNL A   1      48.076  25.985  32.862  1.00  0.00    -0.200 F 
ATOM     69  C   UNL A   1      48.655  27.034  30.827  1.00  0.00     0.200 A 
ATOM     70  F   UNL A   1      49.199  28.121  28.804  1.00  0.00    -0.200 F 
ATOM     71  F   UNL A   1      49.848  26.423  30.836  1.00  0.00    -0.200 F 
ENDBRANCH  47  61
BRANCH  48  72
ATOM     72  C   UNL A   1      37.080  32.517  30.391  1.00  0.00     0.064 A 
ATOM     73  C   UNL A   1      36.715  33.345  29.319  1.00  0.00     0.173 A 
ATOM     74  C   UNL A   1      36.146  32.336  31.419  1.00  0.00     0.173 A 
ATOM     75  F   UNL A   1      37.583  33.566  28.319  1.00  0.00    -0.203 F 
ATOM     76  C   UNL A   1      35.482  33.992  29.294  1.00  0.00     0.198 A 
ATOM     77  C   UNL A   1      34.901  32.960  31.380  1.00  0.00     0.198 A 
ATOM     78  F   UNL A   1      36.442  31.548  32.464  1.00  0.00    -0.203 F 
ATOM     79  F   UNL A   1      35.184  34.823  28.285  1.00  0.00    -0.200 F 
ATOM     80  C   UNL A   1      34.574  33.797  30.323  1.00  0.00     0.200 A 
ATOM     81  F   UNL A   1      34.020  32.758  32.370  1.00  0.00    -0.200 F 
ATOM     82  F   UNL A   1      33.389  34.423  30.301  1.00  0.00    -0.200 F 
ENDBRANCH  48  72
BRANCH  60  83
ATOM     83  C   UNL A   1      43.195  34.513  33.042  1.00  0.00     0.064 A 
ATOM     84  C   UNL A   1      43.597  35.650  32.325  1.00  0.00     0.173 A 
ATOM     85  C   UNL A   1      43.173  34.588  34.442  1.00  0.00     0.173 A 
ATOM     86  F   UNL A   1      43.650  35.619  30.985  1.00  0.00    -0.203 F 
ATOM     87  C   UNL A   1      43.983  36.810  32.989  1.00  0.00     0.198 A 
ATOM     88  C   UNL A   1      43.532  35.760  35.101  1.00  0.00     0.198 A 
ATOM     89  F   UNL A   1      42.790  33.529  35.170  1.00  0.00    -0.203 F 
ATOM     90  F   UNL A   1      44.406  37.870  32.287  1.00  0.00    -0.200 F 
ATOM     91  C   UNL A   1      43.943  36.867  34.375  1.00  0.00     0.200 A 
ATOM     92  F   UNL A   1      43.482  35.816  36.439  1.00  0.00    -0.200 F 
ATOM     93  F   UNL A   1      44.309  37.988  35.011  1.00  0.00    -0.200 F 
ENDBRANCH  60  83
ENDBRANCH  34  35
ENDBRANCH  26  29
ENDBRANCH  24  25
ENDBRANCH  23  24
ENDBRANCH   1  23
TORSDOF 14
ENDMDL
