MODEL 1
REMARK VINA RESULT:     -10.1      0.000      0.000
REMARK SMILES CCC[N@H+](C1CC1)[C@H](C)[C@@H](C)C(=O)NCCCNC(=O)c1ccc(-c2c3nc(c(-c4c(F)c(F)c(F)c(F)c4F)c4ccc([nH]4)c(-c4c(F)c(F)c(F)c(F)c4F)c4nc(c(-c5c(F)c(F)c(F)c(F)c5F)c5ccc2[nH]5)C=C4)C=C3)cc1
REMARK SMILES IDX 15 1 14 2 12 3 13 4 10 6 11 7 8 8 9 9 4 10 3 12 2 13 1 14
REMARK SMILES IDX 5 15 6 16 7 17 16 18 17 19 18 20 19 21 20 23 21 24 22 25
REMARK SMILES IDX 83 26 23 27 82 28 24 29 25 30 26 31 76 32 27 33 81 34 75 35
REMARK SMILES IDX 77 36 28 37 80 38 74 39 73 40 29 42 61 43 41 44 60 45 42 46
REMARK SMILES IDX 45 47 59 48 78 49 43 50 44 51 58 53 79 54 46 55 30 56 31 57
REMARK SMILES IDX 39 58 32 59 33 60 37 61 40 62 34 63 35 64 38 65 36 66 62 67
REMARK SMILES IDX 63 68 71 69 64 70 65 71 69 72 72 73 66 74 67 75 70 76 68 77
REMARK SMILES IDX 47 78 48 79 56 80 49 81 50 82 54 83 57 84 51 85 52 86 55 87
REMARK SMILES IDX 53 88
REMARK H PARENT 14 5 4 11 18 22 77 41 45 52
REMARK Flexibility Score: inf
ROOT
ATOM      1  C   UNL A   1      31.016  30.963  25.380  1.00  0.00     0.117 C 
ENDROOT
BRANCH   1   2
ATOM      2  N   UNL A   1      32.218  30.147  25.312  1.00  0.00    -0.356 N 
ATOM      3  C   UNL A   1      32.500  28.864  25.666  1.00  0.00     0.228 C 
ATOM      4  O   UNL A   1      33.653  28.477  25.438  1.00  0.00    -0.275 OA
ATOM      5  H   UNL A   1      32.991  30.623  24.928  1.00  0.00     0.163 HD
BRANCH   3   6
ATOM      6  C   UNL A   1      31.480  27.905  26.281  1.00  0.00     0.133 C 
ATOM      7  C   UNL A   1      31.641  27.958  27.807  1.00  0.00     0.024 C 
BRANCH   6   8
ATOM      8  C   UNL A   1      31.475  26.493  25.619  1.00  0.00     0.193 C 
ATOM      9  C   UNL A   1      30.166  25.721  25.872  1.00  0.00     0.076 C 
BRANCH   8  10
ATOM     10  N   UNL A   1      31.859  26.416  24.173  1.00  0.00    -0.330 N 
ATOM     11  H   UNL A   1      32.432  27.255  24.078  1.00  0.00     0.348 HD
BRANCH  10  12
ATOM     12  C   UNL A   1      30.742  26.550  23.214  1.00  0.00     0.262 C 
BRANCH  12  13
ATOM     13  C   UNL A   1      30.516  27.954  22.645  1.00  0.00     0.058 C 
ATOM     14  C   UNL A   1      29.185  28.568  23.044  1.00  0.00     0.010 C 
ENDBRANCH  12  13
ENDBRANCH  10  12
BRANCH  10  15
ATOM     15  C   UNL A   1      32.709  25.258  23.812  1.00  0.00     0.184 C 
ATOM     16  C   UNL A   1      34.110  25.530  23.310  1.00  0.00     0.071 C 
ATOM     17  C   UNL A   1      33.911  24.904  24.651  1.00  0.00     0.071 C 
ENDBRANCH  10  15
ENDBRANCH   8  10
ENDBRANCH   6   8
ENDBRANCH   3   6
ENDBRANCH   1   2
BRANCH   1  18
ATOM     18  C   UNL A   1      31.030  32.014  26.493  1.00  0.00     0.042 C 
BRANCH  18  19
ATOM     19  C   UNL A   1      32.406  32.511  26.921  1.00  0.00     0.118 C 
BRANCH  19  20
ATOM     20  N   UNL A   1      32.383  33.873  27.421  1.00  0.00    -0.352 N 
ATOM     21  C   UNL A   1      33.159  34.479  28.378  1.00  0.00     0.251 C 
ATOM     22  H   UNL A   1      31.703  34.454  27.009  1.00  0.00     0.163 HD
ATOM     23  O   UNL A   1      32.860  35.606  28.765  1.00  0.00    -0.269 OA
BRANCH  21  24
ATOM     24  C   UNL A   1      34.339  33.800  28.966  1.00  0.00     0.039 A 
ATOM     25  C   UNL A   1      34.117  32.728  29.838  1.00  0.00     0.014 A 
ATOM     26  C   UNL A   1      35.645  34.243  28.737  1.00  0.00     0.014 A 
ATOM     27  C   UNL A   1      35.196  32.079  30.447  1.00  0.00     0.010 A 
ATOM     28  C   UNL A   1      36.727  33.556  29.297  1.00  0.00     0.010 A 
ATOM     29  C   UNL A   1      36.513  32.477  30.168  1.00  0.00    -0.014 A 
BRANCH  29  30
ATOM     30  C   UNL A   1      37.669  31.796  30.808  1.00  0.00     0.031 A 
ATOM     31  C   UNL A   1      38.088  32.165  32.205  1.00  0.00     0.074 A 
ATOM     32  C   UNL A   1      38.370  30.871  30.123  1.00  0.00     0.049 A 
ATOM     33  N   UNL A   1      39.102  31.728  32.910  1.00  0.00    -0.248 NA
ATOM     34  C   UNL A   1      37.270  33.175  32.893  1.00  0.00     0.031 C 
ATOM     35  C   UNL A   1      38.090  30.441  28.753  1.00  0.00     0.029 A 
ATOM     36  N   UNL A   1      39.469  30.131  30.485  1.00  0.00    -0.354 N 
ATOM     37  C   UNL A   1      39.054  32.421  34.113  1.00  0.00     0.074 A 
ATOM     38  C   UNL A   1      37.936  33.337  34.028  1.00  0.00     0.031 C 
ATOM     39  C   UNL A   1      38.983  29.505  28.395  1.00  0.00     0.029 A 
ATOM     40  C   UNL A   1      39.917  29.290  29.497  1.00  0.00     0.049 A 
ATOM     41  H   UNL A   1      39.895  30.198  31.370  1.00  0.00     0.167 HD
ATOM     42  C   UNL A   1      39.858  32.296  35.197  1.00  0.00     0.037 A 
ATOM     43  C   UNL A   1      40.965  28.443  29.480  1.00  0.00     0.037 A 
ATOM     44  C   UNL A   1      40.950  31.363  35.299  1.00  0.00     0.049 A 
ATOM     45  C   UNL A   1      41.836  28.315  30.699  1.00  0.00     0.074 A 
ATOM     46  C   UNL A   1      41.786  31.128  36.376  1.00  0.00     0.029 A 
ATOM     47  N   UNL A   1      41.355  30.511  34.284  1.00  0.00    -0.354 N 
ATOM     48  N   UNL A   1      41.749  28.940  31.848  1.00  0.00    -0.248 NA
ATOM     49  C   UNL A   1      42.949  27.358  30.622  1.00  0.00     0.031 C 
ATOM     50  C   UNL A   1      42.718  30.154  36.003  1.00  0.00     0.029 A 
ATOM     51  C   UNL A   1      42.437  29.755  34.706  1.00  0.00     0.049 A 
ATOM     52  H   UNL A   1      40.936  30.449  33.395  1.00  0.00     0.167 HD
ATOM     53  C   UNL A   1      42.771  28.433  32.637  1.00  0.00     0.074 A 
ATOM     54  C   UNL A   1      43.463  27.441  31.840  1.00  0.00     0.031 C 
ATOM     55  C   UNL A   1      43.107  28.760  33.909  1.00  0.00     0.037 A 
BRANCH  42  56
ATOM     56  C   UNL A   1      39.584  33.191  36.369  1.00  0.00     0.064 A 
ATOM     57  C   UNL A   1      38.661  32.835  37.364  1.00  0.00     0.173 A 
ATOM     58  C   UNL A   1      40.279  34.399  36.520  1.00  0.00     0.173 A 
ATOM     59  F   UNL A   1      37.963  31.694  37.260  1.00  0.00    -0.203 F 
ATOM     60  C   UNL A   1      38.428  33.669  38.454  1.00  0.00     0.198 A 
ATOM     61  C   UNL A   1      40.062  35.218  37.624  1.00  0.00     0.198 A 
ATOM     62  F   UNL A   1      41.177  34.783  35.599  1.00  0.00    -0.203 F 
ATOM     63  F   UNL A   1      37.510  33.328  39.370  1.00  0.00    -0.200 F 
ATOM     64  C   UNL A   1      39.132  34.856  38.587  1.00  0.00     0.200 A 
ATOM     65  F   UNL A   1      40.752  36.360  37.758  1.00  0.00    -0.200 F 
ATOM     66  F   UNL A   1      38.909  35.655  39.640  1.00  0.00    -0.200 F 
ENDBRANCH  42  56
BRANCH  43  67
ATOM     67  C   UNL A   1      41.234  27.627  28.269  1.00  0.00     0.064 A 
ATOM     68  C   UNL A   1      42.104  28.088  27.272  1.00  0.00     0.173 A 
ATOM     69  C   UNL A   1      40.627  26.377  28.082  1.00  0.00     0.173 A 
ATOM     70  F   UNL A   1      42.690  29.288  27.396  1.00  0.00    -0.203 F 
ATOM     71  C   UNL A   1      42.343  27.337  26.123  1.00  0.00     0.198 A 
ATOM     72  C   UNL A   1      40.885  25.616  26.944  1.00  0.00     0.198 A 
ATOM     73  F   UNL A   1      39.788  25.892  29.009  1.00  0.00    -0.203 F 
ATOM     74  F   UNL A   1      43.146  27.818  25.165  1.00  0.00    -0.200 F 
ATOM     75  C   UNL A   1      41.738  26.099  25.962  1.00  0.00     0.200 A 
ATOM     76  F   UNL A   1      40.307  24.417  26.797  1.00  0.00    -0.200 F 
ATOM     77  F   UNL A   1      41.971  25.375  24.859  1.00  0.00    -0.200 F 
ENDBRANCH  43  67
BRANCH  55  78
ATOM     78  C   UNL A   1      44.246  28.013  34.535  1.00  0.00     0.064 A 
ATOM     79  C   UNL A   1      45.559  28.503  34.491  1.00  0.00     0.173 A 
ATOM     80  C   UNL A   1      44.014  26.812  35.222  1.00  0.00     0.173 A 
ATOM     81  F   UNL A   1      45.834  29.638  33.831  1.00  0.00    -0.203 F 
ATOM     82  C   UNL A   1      46.603  27.806  35.095  1.00  0.00     0.198 A 
ATOM     83  C   UNL A   1      45.054  26.131  35.846  1.00  0.00     0.198 A 
ATOM     84  F   UNL A   1      42.774  26.305  35.297  1.00  0.00    -0.203 F 
ATOM     85  F   UNL A   1      47.856  28.271  35.006  1.00  0.00    -0.200 F 
ATOM     86  C   UNL A   1      46.348  26.625  35.777  1.00  0.00     0.200 A 
ATOM     87  F   UNL A   1      44.806  24.995  36.514  1.00  0.00    -0.200 F 
ATOM     88  F   UNL A   1      47.354  25.959  36.362  1.00  0.00    -0.200 F 
ENDBRANCH  55  78
ENDBRANCH  29  30
ENDBRANCH  21  24
ENDBRANCH  19  20
ENDBRANCH  18  19
ENDBRANCH   1  18
TORSDOF 15
ENDMDL
MODEL 2
REMARK VINA RESULT:     -10.1      5.689      9.778
REMARK SMILES CCC[N@H+](C1CC1)[C@H](C)[C@@H](C)C(=O)NCCCNC(=O)c1ccc(-c2c3nc(c(-c4c(F)c(F)c(F)c(F)c4F)c4ccc([nH]4)c(-c4c(F)c(F)c(F)c(F)c4F)c4nc(c(-c5c(F)c(F)c(F)c(F)c5F)c5ccc2[nH]5)C=C4)C=C3)cc1
REMARK SMILES IDX 15 1 14 2 12 3 13 4 10 6 11 7 8 8 9 9 4 10 3 12 2 13 1 14
REMARK SMILES IDX 5 15 6 16 7 17 16 18 17 19 18 20 19 21 20 23 21 24 22 25
REMARK SMILES IDX 83 26 23 27 82 28 24 29 25 30 26 31 76 32 27 33 81 34 75 35
REMARK SMILES IDX 77 36 28 37 80 38 74 39 73 40 29 42 61 43 41 44 60 45 42 46
REMARK SMILES IDX 45 47 59 48 78 49 43 50 44 51 58 53 79 54 46 55 30 56 31 57
REMARK SMILES IDX 39 58 32 59 33 60 37 61 40 62 34 63 35 64 38 65 36 66 62 67
REMARK SMILES IDX 63 68 71 69 64 70 65 71 69 72 72 73 66 74 67 75 70 76 68 77
REMARK SMILES IDX 47 78 48 79 56 80 49 81 50 82 54 83 57 84 51 85 52 86 55 87
REMARK SMILES IDX 53 88
REMARK H PARENT 14 5 4 11 18 22 77 41 45 52
REMARK Flexibility Score: inf
ROOT
ATOM      1  C   UNL A   1      36.709  19.606  24.988  1.00  0.00     0.117 C 
ENDROOT
BRANCH   1   2
ATOM      2  N   UNL A   1      36.290  20.768  25.756  1.00  0.00    -0.356 N 
ATOM      3  C   UNL A   1      35.744  21.967  25.418  1.00  0.00     0.228 C 
ATOM      4  O   UNL A   1      35.484  22.731  26.355  1.00  0.00    -0.275 OA
ATOM      5  H   UNL A   1      36.432  20.665  26.726  1.00  0.00     0.163 HD
BRANCH   3   6
ATOM      6  C   UNL A   1      35.419  22.382  23.982  1.00  0.00     0.133 C 
ATOM      7  C   UNL A   1      36.657  23.080  23.400  1.00  0.00     0.024 C 
BRANCH   6   8
ATOM      8  C   UNL A   1      34.056  23.126  23.841  1.00  0.00     0.193 C 
ATOM      9  C   UNL A   1      33.641  23.339  22.373  1.00  0.00     0.076 C 
BRANCH   8  10
ATOM     10  N   UNL A   1      32.905  22.597  24.640  1.00  0.00    -0.330 N 
ATOM     11  H   UNL A   1      33.395  22.109  25.391  1.00  0.00     0.348 HD
BRANCH  10  12
ATOM     12  C   UNL A   1      32.066  21.592  23.953  1.00  0.00     0.262 C 
BRANCH  12  13
ATOM     13  C   UNL A   1      32.593  20.154  23.977  1.00  0.00     0.058 C 
ATOM     14  C   UNL A   1      32.838  19.616  25.377  1.00  0.00     0.010 C 
ENDBRANCH  12  13
ENDBRANCH  10  12
BRANCH  10  15
ATOM     15  C   UNL A   1      32.053  23.632  25.271  1.00  0.00     0.184 C 
ATOM     16  C   UNL A   1      32.034  23.718  26.781  1.00  0.00     0.071 C 
ATOM     17  C   UNL A   1      32.678  24.804  25.984  1.00  0.00     0.071 C 
ENDBRANCH  10  15
ENDBRANCH   8  10
ENDBRANCH   6   8
ENDBRANCH   3   6
ENDBRANCH   1   2
BRANCH   1  18
ATOM     18  C   UNL A   1      38.205  19.572  24.663  1.00  0.00     0.042 C 
BRANCH  18  19
ATOM     19  C   UNL A   1      39.144  19.896  25.819  1.00  0.00     0.118 C 
BRANCH  19  20
ATOM     20  N   UNL A   1      40.256  18.968  25.919  1.00  0.00    -0.352 N 
ATOM     21  C   UNL A   1      41.601  19.209  26.055  1.00  0.00     0.251 C 
ATOM     22  H   UNL A   1      40.006  18.017  25.884  1.00  0.00     0.163 HD
ATOM     23  O   UNL A   1      42.389  18.272  25.957  1.00  0.00    -0.269 OA
BRANCH  21  24
ATOM     24  C   UNL A   1      42.125  20.574  26.301  1.00  0.00     0.039 A 
ATOM     25  C   UNL A   1      42.199  21.025  27.624  1.00  0.00     0.014 A 
ATOM     26  C   UNL A   1      42.470  21.439  25.259  1.00  0.00     0.014 A 
ATOM     27  C   UNL A   1      42.652  22.318  27.904  1.00  0.00     0.010 A 
ATOM     28  C   UNL A   1      42.981  22.709  25.541  1.00  0.00     0.010 A 
ATOM     29  C   UNL A   1      43.064  23.167  26.865  1.00  0.00    -0.014 A 
BRANCH  29  30
ATOM     30  C   UNL A   1      43.548  24.544  27.148  1.00  0.00     0.031 A 
ATOM     31  C   UNL A   1      42.610  25.575  27.714  1.00  0.00     0.074 A 
ATOM     32  C   UNL A   1      44.820  24.883  26.864  1.00  0.00     0.049 A 
ATOM     33  N   UNL A   1      42.827  26.841  27.973  1.00  0.00    -0.248 NA
ATOM     34  C   UNL A   1      41.239  25.130  28.007  1.00  0.00     0.031 C 
ATOM     35  C   UNL A   1      45.824  23.989  26.287  1.00  0.00     0.029 A 
ATOM     36  N   UNL A   1      45.484  26.076  27.015  1.00  0.00    -0.354 N 
ATOM     37  C   UNL A   1      41.619  27.345  28.440  1.00  0.00     0.074 A 
ATOM     38  C   UNL A   1      40.662  26.259  28.392  1.00  0.00     0.031 C 
ATOM     39  C   UNL A   1      46.979  24.660  26.146  1.00  0.00     0.029 A 
ATOM     40  C   UNL A   1      46.790  26.037  26.593  1.00  0.00     0.049 A 
ATOM     41  H   UNL A   1      45.063  26.883  27.391  1.00  0.00     0.167 HD
ATOM     42  C   UNL A   1      41.337  28.593  28.885  1.00  0.00     0.037 A 
ATOM     43  C   UNL A   1      47.727  27.005  26.564  1.00  0.00     0.037 A 
ATOM     44  C   UNL A   1      42.293  29.666  28.967  1.00  0.00     0.049 A 
ATOM     45  C   UNL A   1      47.391  28.379  27.073  1.00  0.00     0.074 A 
ATOM     46  C   UNL A   1      42.112  30.949  29.453  1.00  0.00     0.029 A 
ATOM     47  N   UNL A   1      43.613  29.579  28.552  1.00  0.00    -0.354 N 
ATOM     48  N   UNL A   1      46.260  28.828  27.560  1.00  0.00    -0.248 NA
ATOM     49  C   UNL A   1      48.466  29.381  27.035  1.00  0.00     0.031 C 
ATOM     50  C   UNL A   1      43.314  31.649  29.304  1.00  0.00     0.029 A 
ATOM     51  C   UNL A   1      44.255  30.789  28.761  1.00  0.00     0.049 A 
ATOM     52  H   UNL A   1      44.033  28.776  28.166  1.00  0.00     0.167 HD
ATOM     53  C   UNL A   1      46.494  30.150  27.912  1.00  0.00     0.074 A 
ATOM     54  C   UNL A   1      47.878  30.430  27.592  1.00  0.00     0.031 C 
ATOM     55  C   UNL A   1      45.636  31.050  28.452  1.00  0.00     0.037 A 
BRANCH  42  56
ATOM     56  C   UNL A   1      39.929  28.870  29.324  1.00  0.00     0.064 A 
ATOM     57  C   UNL A   1      38.932  29.232  28.405  1.00  0.00     0.173 A 
ATOM     58  C   UNL A   1      39.563  28.734  30.670  1.00  0.00     0.173 A 
ATOM     59  F   UNL A   1      39.234  29.386  27.107  1.00  0.00    -0.203 F 
ATOM     60  C   UNL A   1      37.627  29.472  28.824  1.00  0.00     0.198 A 
ATOM     61  C   UNL A   1      38.251  28.949  31.082  1.00  0.00     0.198 A 
ATOM     62  F   UNL A   1      40.477  28.383  31.588  1.00  0.00    -0.203 F 
ATOM     63  F   UNL A   1      36.700  29.859  27.935  1.00  0.00    -0.200 F 
ATOM     64  C   UNL A   1      37.285  29.324  30.160  1.00  0.00     0.200 A 
ATOM     65  F   UNL A   1      37.919  28.795  32.371  1.00  0.00    -0.200 F 
ATOM     66  F   UNL A   1      36.026  29.550  30.560  1.00  0.00    -0.200 F 
ENDBRANCH  42  56
BRANCH  43  67
ATOM     67  C   UNL A   1      49.089  26.698  26.057  1.00  0.00     0.064 A 
ATOM     68  C   UNL A   1      50.051  26.115  26.891  1.00  0.00     0.173 A 
ATOM     69  C   UNL A   1      49.455  26.985  24.734  1.00  0.00     0.173 A 
ATOM     70  F   UNL A   1      49.753  25.845  28.171  1.00  0.00    -0.203 F 
ATOM     71  C   UNL A   1      51.337  25.846  26.427  1.00  0.00     0.198 A 
ATOM     72  C   UNL A   1      50.734  26.693  24.264  1.00  0.00     0.198 A 
ATOM     73  F   UNL A   1      48.569  27.541  23.896  1.00  0.00    -0.203 F 
ATOM     74  F   UNL A   1      52.251  25.326  27.257  1.00  0.00    -0.200 F 
ATOM     75  C   UNL A   1      51.676  26.129  25.113  1.00  0.00     0.200 A 
ATOM     76  F   UNL A   1      51.055  26.958  22.991  1.00  0.00    -0.200 F 
ATOM     77  F   UNL A   1      52.912  25.867  24.665  1.00  0.00    -0.200 F 
ENDBRANCH  43  67
BRANCH  55  78
ATOM     78  C   UNL A   1      46.179  32.412  28.770  1.00  0.00     0.064 A 
ATOM     79  C   UNL A   1      46.120  33.462  27.843  1.00  0.00     0.173 A 
ATOM     80  C   UNL A   1      46.727  32.678  30.034  1.00  0.00     0.173 A 
ATOM     81  F   UNL A   1      45.620  33.251  26.616  1.00  0.00    -0.203 F 
ATOM     82  C   UNL A   1      46.610  34.726  28.163  1.00  0.00     0.198 A 
ATOM     83  C   UNL A   1      47.193  33.948  30.359  1.00  0.00     0.198 A 
ATOM     84  F   UNL A   1      46.801  31.708  30.958  1.00  0.00    -0.203 F 
ATOM     85  F   UNL A   1      46.581  35.704  27.248  1.00  0.00    -0.200 F 
ATOM     86  C   UNL A   1      47.140  34.969  29.422  1.00  0.00     0.200 A 
ATOM     87  F   UNL A   1      47.695  34.186  31.579  1.00  0.00    -0.200 F 
ATOM     88  F   UNL A   1      47.606  36.188  29.729  1.00  0.00    -0.200 F 
ENDBRANCH  55  78
ENDBRANCH  29  30
ENDBRANCH  21  24
ENDBRANCH  19  20
ENDBRANCH  18  19
ENDBRANCH   1  18
TORSDOF 15
ENDMDL
MODEL 3
REMARK VINA RESULT:     -10.0      1.096      7.566
REMARK SMILES CCC[N@H+](C1CC1)[C@H](C)[C@@H](C)C(=O)NCCCNC(=O)c1ccc(-c2c3nc(c(-c4c(F)c(F)c(F)c(F)c4F)c4ccc([nH]4)c(-c4c(F)c(F)c(F)c(F)c4F)c4nc(c(-c5c(F)c(F)c(F)c(F)c5F)c5ccc2[nH]5)C=C4)C=C3)cc1
REMARK SMILES IDX 15 1 14 2 12 3 13 4 10 6 11 7 8 8 9 9 4 10 3 12 2 13 1 14
REMARK SMILES IDX 5 15 6 16 7 17 16 18 17 19 18 20 19 21 20 23 21 24 22 25
REMARK SMILES IDX 83 26 23 27 82 28 24 29 25 30 26 31 76 32 27 33 81 34 75 35
REMARK SMILES IDX 77 36 28 37 80 38 74 39 73 40 29 42 61 43 41 44 60 45 42 46
REMARK SMILES IDX 45 47 59 48 78 49 43 50 44 51 58 53 79 54 46 55 30 56 31 57
REMARK SMILES IDX 39 58 32 59 33 60 37 61 40 62 34 63 35 64 38 65 36 66 62 67
REMARK SMILES IDX 63 68 71 69 64 70 65 71 69 72 72 73 66 74 67 75 70 76 68 77
REMARK SMILES IDX 47 78 48 79 56 80 49 81 50 82 54 83 57 84 51 85 52 86 55 87
REMARK SMILES IDX 53 88
REMARK H PARENT 14 5 4 11 18 22 77 41 45 52
REMARK Flexibility Score: inf
ROOT
ATOM      1  C   UNL A   1      31.211  30.875  26.236  1.00  0.00     0.117 C 
ENDROOT
BRANCH   1   2
ATOM      2  N   UNL A   1      31.842  30.351  25.034  1.00  0.00    -0.356 N 
ATOM      3  C   UNL A   1      32.325  29.128  24.688  1.00  0.00     0.228 C 
ATOM      4  O   UNL A   1      32.784  29.028  23.544  1.00  0.00    -0.275 OA
ATOM      5  H   UNL A   1      31.939  31.024  24.322  1.00  0.00     0.163 HD
BRANCH   3   6
ATOM      6  C   UNL A   1      32.294  27.906  25.607  1.00  0.00     0.133 C 
ATOM      7  C   UNL A   1      33.732  27.622  26.063  1.00  0.00     0.024 C 
BRANCH   6   8
ATOM      8  C   UNL A   1      31.487  26.706  25.024  1.00  0.00     0.193 C 
ATOM      9  C   UNL A   1      30.367  26.227  25.966  1.00  0.00     0.076 C 
BRANCH   8  10
ATOM     10  N   UNL A   1      30.971  26.848  23.625  1.00  0.00    -0.330 N 
ATOM     11  H   UNL A   1      31.450  27.698  23.325  1.00  0.00     0.348 HD
BRANCH  10  12
ATOM     12  C   UNL A   1      29.521  27.110  23.508  1.00  0.00     0.262 C 
BRANCH  12  13
ATOM     13  C   UNL A   1      29.133  28.502  23.002  1.00  0.00     0.058 C 
ATOM     14  C   UNL A   1      27.646  28.796  23.103  1.00  0.00     0.010 C 
ENDBRANCH  12  13
ENDBRANCH  10  12
BRANCH  10  15
ATOM     15  C   UNL A   1      31.374  25.766  22.697  1.00  0.00     0.184 C 
ATOM     16  C   UNL A   1      32.353  26.099  21.593  1.00  0.00     0.071 C 
ATOM     17  C   UNL A   1      32.780  25.222  22.724  1.00  0.00     0.071 C 
ENDBRANCH  10  15
ENDBRANCH   8  10
ENDBRANCH   6   8
ENDBRANCH   3   6
ENDBRANCH   1   2
BRANCH   1  18
ATOM     18  C   UNL A   1      31.401  32.379  26.443  1.00  0.00     0.042 C 
BRANCH  18  19
ATOM     19  C   UNL A   1      32.510  32.784  27.408  1.00  0.00     0.118 C 
BRANCH  19  20
ATOM     20  N   UNL A   1      32.528  34.208  27.681  1.00  0.00    -0.352 N 
ATOM     21  C   UNL A   1      33.270  34.928  28.585  1.00  0.00     0.251 C 
ATOM     22  H   UNL A   1      31.912  34.744  27.131  1.00  0.00     0.163 HD
ATOM     23  O   UNL A   1      33.008  36.115  28.764  1.00  0.00    -0.269 OA
BRANCH  21  24
ATOM     24  C   UNL A   1      34.366  34.303  29.363  1.00  0.00     0.039 A 
ATOM     25  C   UNL A   1      35.674  34.433  28.882  1.00  0.00     0.014 A 
ATOM     26  C   UNL A   1      34.126  33.534  30.505  1.00  0.00     0.014 A 
ATOM     27  C   UNL A   1      36.739  33.829  29.560  1.00  0.00     0.010 A 
ATOM     28  C   UNL A   1      35.195  32.983  31.218  1.00  0.00     0.010 A 
ATOM     29  C   UNL A   1      36.510  33.113  30.745  1.00  0.00    -0.014 A 
BRANCH  29  30
ATOM     30  C   UNL A   1      37.632  32.467  31.476  1.00  0.00     0.031 A 
ATOM     31  C   UNL A   1      38.368  31.307  30.864  1.00  0.00     0.074 A 
ATOM     32  C   UNL A   1      37.969  32.897  32.708  1.00  0.00     0.049 A 
ATOM     33  N   UNL A   1      39.331  30.576  31.368  1.00  0.00    -0.248 NA
ATOM     34  C   UNL A   1      37.950  30.900  29.513  1.00  0.00     0.031 C 
ATOM     35  C   UNL A   1      37.319  33.991  33.429  1.00  0.00     0.029 A 
ATOM     36  N   UNL A   1      38.939  32.455  33.576  1.00  0.00    -0.354 N 
ATOM     37  C   UNL A   1      39.620  29.615  30.407  1.00  0.00     0.074 A 
ATOM     38  C   UNL A   1      38.705  29.830  29.306  1.00  0.00     0.031 C 
ATOM     39  C   UNL A   1      37.916  34.146  34.622  1.00  0.00     0.029 A 
ATOM     40  C   UNL A   1      38.969  33.144  34.764  1.00  0.00     0.049 A 
ATOM     41  H   UNL A   1      39.554  31.716  33.365  1.00  0.00     0.167 HD
ATOM     42  C   UNL A   1      40.573  28.652  30.431  1.00  0.00     0.037 A 
ATOM     43  C   UNL A   1      39.754  32.981  35.846  1.00  0.00     0.037 A 
ATOM     44  C   UNL A   1      41.508  28.456  31.507  1.00  0.00     0.049 A 
ATOM     45  C   UNL A   1      40.811  31.912  35.843  1.00  0.00     0.074 A 
ATOM     46  C   UNL A   1      42.542  27.540  31.597  1.00  0.00     0.029 A 
ATOM     47  N   UNL A   1      41.522  29.191  32.682  1.00  0.00    -0.354 N 
ATOM     48  N   UNL A   1      41.107  31.044  34.907  1.00  0.00    -0.248 NA
ATOM     49  C   UNL A   1      41.648  31.804  37.047  1.00  0.00     0.031 C 
ATOM     50  C   UNL A   1      43.163  27.700  32.840  1.00  0.00     0.029 A 
ATOM     51  C   UNL A   1      42.540  28.742  33.508  1.00  0.00     0.049 A 
ATOM     52  H   UNL A   1      40.901  29.924  32.899  1.00  0.00     0.167 HD
ATOM     53  C   UNL A   1      42.180  30.309  35.394  1.00  0.00     0.074 A 
ATOM     54  C   UNL A   1      42.489  30.838  36.706  1.00  0.00     0.031 C 
ATOM     55  C   UNL A   1      42.847  29.286  34.805  1.00  0.00     0.037 A 
BRANCH  42  56
ATOM     56  C   UNL A   1      40.657  27.731  29.249  1.00  0.00     0.064 A 
ATOM     57  C   UNL A   1      39.801  26.627  29.118  1.00  0.00     0.173 A 
ATOM     58  C   UNL A   1      41.575  27.977  28.218  1.00  0.00     0.173 A 
ATOM     59  F   UNL A   1      38.913  26.343  30.083  1.00  0.00    -0.203 F 
ATOM     60  C   UNL A   1      39.880  25.789  28.009  1.00  0.00     0.198 A 
ATOM     61  C   UNL A   1      41.633  27.152  27.098  1.00  0.00     0.198 A 
ATOM     62  F   UNL A   1      42.411  29.023  28.292  1.00  0.00    -0.203 F 
ATOM     63  F   UNL A   1      39.081  24.715  27.926  1.00  0.00    -0.200 F 
ATOM     64  C   UNL A   1      40.791  26.055  26.997  1.00  0.00     0.200 A 
ATOM     65  F   UNL A   1      42.505  27.417  26.116  1.00  0.00    -0.200 F 
ATOM     66  F   UNL A   1      40.861  25.250  25.928  1.00  0.00    -0.200 F 
ENDBRANCH  42  56
BRANCH  43  67
ATOM     67  C   UNL A   1      39.587  33.876  37.019  1.00  0.00     0.064 A 
ATOM     68  C   UNL A   1      40.228  35.121  37.070  1.00  0.00     0.173 A 
ATOM     69  C   UNL A   1      38.790  33.505  38.112  1.00  0.00     0.173 A 
ATOM     70  F   UNL A   1      41.019  35.508  36.058  1.00  0.00    -0.203 F 
ATOM     71  C   UNL A   1      40.093  35.955  38.178  1.00  0.00     0.198 A 
ATOM     72  C   UNL A   1      38.637  34.351  39.209  1.00  0.00     0.198 A 
ATOM     73  F   UNL A   1      38.155  32.325  38.110  1.00  0.00    -0.203 F 
ATOM     74  F   UNL A   1      40.749  37.122  38.219  1.00  0.00    -0.200 F 
ATOM     75  C   UNL A   1      39.293  35.572  39.244  1.00  0.00     0.200 A 
ATOM     76  F   UNL A   1      37.855  33.981  40.232  1.00  0.00    -0.200 F 
ATOM     77  F   UNL A   1      39.160  36.376  40.308  1.00  0.00    -0.200 F 
ENDBRANCH  43  67
BRANCH  55  78
ATOM     78  C   UNL A   1      44.005  28.698  35.555  1.00  0.00     0.064 A 
ATOM     79  C   UNL A   1      45.314  29.163  35.369  1.00  0.00     0.173 A 
ATOM     80  C   UNL A   1      43.794  27.683  36.501  1.00  0.00     0.173 A 
ATOM     81  F   UNL A   1      45.568  30.120  34.464  1.00  0.00    -0.203 F 
ATOM     82  C   UNL A   1      46.375  28.619  36.089  1.00  0.00     0.198 A 
ATOM     83  C   UNL A   1      44.852  27.159  37.236  1.00  0.00     0.198 A 
ATOM     84  F   UNL A   1      42.558  27.207  36.718  1.00  0.00    -0.203 F 
ATOM     85  F   UNL A   1      47.624  29.051  35.867  1.00  0.00    -0.200 F 
ATOM     86  C   UNL A   1      46.142  27.622  37.026  1.00  0.00     0.200 A 
ATOM     87  F   UNL A   1      44.626  26.203  38.149  1.00  0.00    -0.200 F 
ATOM     88  F   UNL A   1      47.165  27.104  37.722  1.00  0.00    -0.200 F 
ENDBRANCH  55  78
ENDBRANCH  29  30
ENDBRANCH  21  24
ENDBRANCH  19  20
ENDBRANCH  18  19
ENDBRANCH   1  18
TORSDOF 15
ENDMDL
