MODEL 1
REMARK VINA RESULT:     -11.3      0.000      0.000
REMARK SMILES CCCN(CCC)c1cc(C(=O)NCCCNC(=O)c2ccc(-c3c4nc(c(-c5c(F)c(F)c(F)c(F)c5F)c5ccc([nH]5)c(-c5c(F)c(F)c(F)c(F)c5F)c5nc(c(-c6c(F)c(F)c(F)c(F)c6F)c6ccc3[nH]6)C=C5)C=C4)cc2)cc(C(F)(F)F)c1
REMARK SMILES IDX 14 1 13 2 11 3 12 4 10 6 8 7 9 8 89 9 84 10 83 11 4 12 3 13
REMARK SMILES IDX 2 14 1 15 5 16 6 17 7 18 85 19 86 20 87 21 88 22 15 23 16 24
REMARK SMILES IDX 17 25 18 26 19 28 20 29 21 30 82 31 22 32 81 33 23 34 24 35
REMARK SMILES IDX 25 36 75 37 26 38 80 39 74 40 76 41 27 42 79 43 73 44 72 45
REMARK SMILES IDX 28 47 60 48 40 49 59 50 41 51 44 52 58 53 77 54 42 55 43 56
REMARK SMILES IDX 57 58 78 59 45 60 29 61 30 62 38 63 31 64 32 65 36 66 39 67
REMARK SMILES IDX 33 68 34 69 37 70 35 71 61 72 62 73 70 74 63 75 64 76 68 77
REMARK SMILES IDX 71 78 65 79 66 80 69 81 67 82 46 83 47 84 55 85 48 86 49 87
REMARK SMILES IDX 53 88 56 89 50 90 51 91 54 92 52 93
REMARK H PARENT 13 5 17 27 76 46 44 57
REMARK Flexibility Score: inf
ROOT
ATOM      1  C   UNL A   1      32.715  28.763  22.927  1.00  0.00     0.118 C 
ENDROOT
BRANCH   1   2
ATOM      2  N   UNL A   1      33.091  27.850  21.855  1.00  0.00    -0.352 N 
ATOM      3  C   UNL A   1      32.985  26.481  21.706  1.00  0.00     0.251 C 
ATOM      4  O   UNL A   1      33.293  25.989  20.621  1.00  0.00    -0.269 OA
ATOM      5  H   UNL A   1      33.505  28.298  21.082  1.00  0.00     0.163 HD
BRANCH   3   6
ATOM      6  C   UNL A   1      32.657  25.589  22.851  1.00  0.00     0.042 A 
ATOM      7  C   UNL A   1      33.589  24.161  24.588  1.00  0.00     0.038 A 
ATOM      8  C   UNL A   1      33.644  24.707  23.305  1.00  0.00     0.039 A 
ATOM      9  C   UNL A   1      32.550  24.597  25.416  1.00  0.00     0.039 A 
ATOM     10  C   UNL A   1      31.453  25.293  24.906  1.00  0.00     0.058 A 
ATOM     11  C   UNL A   1      31.477  25.683  23.570  1.00  0.00     0.027 A 
BRANCH   7  12
ATOM     12  N   UNL A   1      34.489  23.218  25.045  1.00  0.00    -0.372 N 
BRANCH  12  13
ATOM     13  C   UNL A   1      34.609  21.946  24.305  1.00  0.00     0.116 C 
BRANCH  13  14
ATOM     14  C   UNL A   1      33.338  21.082  24.363  1.00  0.00     0.018 C 
ATOM     15  C   UNL A   1      33.601  19.628  24.758  1.00  0.00     0.006 C 
ENDBRANCH  13  14
ENDBRANCH  12  13
BRANCH  12  16
ATOM     16  C   UNL A   1      35.420  23.507  26.145  1.00  0.00     0.116 C 
BRANCH  16  17
ATOM     17  C   UNL A   1      36.848  23.006  25.902  1.00  0.00     0.018 C 
ATOM     18  C   UNL A   1      37.905  24.074  26.174  1.00  0.00     0.006 C 
ENDBRANCH  16  17
ENDBRANCH  12  16
ENDBRANCH   7  12
BRANCH  10  19
ATOM     19  C   UNL A   1      30.310  25.704  25.790  1.00  0.00     0.416 C 
ATOM     20  F   UNL A   1      29.238  26.123  25.060  1.00  0.00    -0.166 F 
ATOM     21  F   UNL A   1      29.849  24.685  26.567  1.00  0.00    -0.166 F 
ATOM     22  F   UNL A   1      30.610  26.722  26.639  1.00  0.00    -0.166 F 
ENDBRANCH  10  19
ENDBRANCH   3   6
ENDBRANCH   1   2
BRANCH   1  23
ATOM     23  C   UNL A   1      33.654  28.798  24.117  1.00  0.00     0.042 C 
BRANCH  23  24
ATOM     24  C   UNL A   1      32.962  28.826  25.465  1.00  0.00     0.118 C 
BRANCH  24  25
ATOM     25  N   UNL A   1      32.583  30.171  25.879  1.00  0.00    -0.352 N 
ATOM     26  C   UNL A   1      33.094  31.014  26.836  1.00  0.00     0.251 C 
ATOM     27  H   UNL A   1      31.819  30.544  25.382  1.00  0.00     0.163 HD
ATOM     28  O   UNL A   1      32.465  32.022  27.142  1.00  0.00    -0.269 OA
BRANCH  26  29
ATOM     29  C   UNL A   1      34.375  30.719  27.516  1.00  0.00     0.039 A 
ATOM     30  C   UNL A   1      35.317  31.743  27.661  1.00  0.00     0.014 A 
ATOM     31  C   UNL A   1      34.677  29.438  27.975  1.00  0.00     0.014 A 
ATOM     32  C   UNL A   1      36.518  31.497  28.331  1.00  0.00     0.010 A 
ATOM     33  C   UNL A   1      35.816  29.222  28.740  1.00  0.00     0.010 A 
ATOM     34  C   UNL A   1      36.757  30.245  28.917  1.00  0.00    -0.014 A 
BRANCH  34  35
ATOM     35  C   UNL A   1      37.987  29.973  29.706  1.00  0.00     0.031 A 
ATOM     36  C   UNL A   1      39.044  29.050  29.162  1.00  0.00     0.074 A 
ATOM     37  C   UNL A   1      38.114  30.489  30.943  1.00  0.00     0.049 A 
ATOM     38  N   UNL A   1      40.141  28.617  29.731  1.00  0.00    -0.248 NA
ATOM     39  C   UNL A   1      38.822  28.513  27.809  1.00  0.00     0.031 C 
ATOM     40  C   UNL A   1      37.136  31.356  31.603  1.00  0.00     0.029 A 
ATOM     41  N   UNL A   1      39.114  30.352  31.873  1.00  0.00    -0.354 N 
ATOM     42  C   UNL A   1      40.720  27.742  28.821  1.00  0.00     0.074 A 
ATOM     43  C   UNL A   1      39.826  27.659  27.688  1.00  0.00     0.031 C 
ATOM     44  C   UNL A   1      37.601  31.702  32.814  1.00  0.00     0.029 A 
ATOM     45  C   UNL A   1      38.883  31.044  33.037  1.00  0.00     0.049 A 
ATOM     46  H   UNL A   1      39.921  29.809  31.720  1.00  0.00     0.167 HD
ATOM     47  C   UNL A   1      41.902  27.085  28.912  1.00  0.00     0.037 A 
ATOM     48  C   UNL A   1      39.620  31.131  34.159  1.00  0.00     0.037 A 
ATOM     49  C   UNL A   1      42.802  27.199  30.028  1.00  0.00     0.049 A 
ATOM     50  C   UNL A   1      40.925  30.384  34.239  1.00  0.00     0.074 A 
ATOM     51  C   UNL A   1      44.059  26.641  30.183  1.00  0.00     0.029 A 
ATOM     52  N   UNL A   1      42.537  27.918  31.186  1.00  0.00    -0.354 N 
ATOM     53  N   UNL A   1      41.502  29.625  33.339  1.00  0.00    -0.248 NA
ATOM     54  C   UNL A   1      41.683  30.510  35.491  1.00  0.00     0.031 C 
ATOM     55  C   UNL A   1      44.529  26.973  31.458  1.00  0.00     0.029 A 
ATOM     56  C   UNL A   1      43.595  27.790  32.073  1.00  0.00     0.049 A 
ATOM     57  H   UNL A   1      41.721  28.442  31.351  1.00  0.00     0.167 HD
ATOM     58  C   UNL A   1      42.703  29.212  33.901  1.00  0.00     0.074 A 
ATOM     59  C   UNL A   1      42.777  29.817  35.214  1.00  0.00     0.031 C 
ATOM     60  C   UNL A   1      43.659  28.407  33.374  1.00  0.00     0.037 A 
BRANCH  47  61
ATOM     61  C   UNL A   1      42.285  26.181  27.775  1.00  0.00     0.064 A 
ATOM     62  C   UNL A   1      43.219  26.567  26.801  1.00  0.00     0.173 A 
ATOM     63  C   UNL A   1      41.728  24.897  27.671  1.00  0.00     0.173 A 
ATOM     64  F   UNL A   1      43.776  27.787  26.847  1.00  0.00    -0.203 F 
ATOM     65  C   UNL A   1      43.552  25.719  25.747  1.00  0.00     0.198 A 
ATOM     66  C   UNL A   1      42.089  24.038  26.636  1.00  0.00     0.198 A 
ATOM     67  F   UNL A   1      40.834  24.471  28.576  1.00  0.00    -0.203 F 
ATOM     68  F   UNL A   1      44.401  26.135  24.797  1.00  0.00    -0.200 F 
ATOM     69  C   UNL A   1      42.992  24.454  25.669  1.00  0.00     0.200 A 
ATOM     70  F   UNL A   1      41.559  22.808  26.571  1.00  0.00    -0.200 F 
ATOM     71  F   UNL A   1      43.317  23.636  24.658  1.00  0.00    -0.200 F 
ENDBRANCH  47  61
BRANCH  48  72
ATOM     72  C   UNL A   1      39.163  31.985  35.288  1.00  0.00     0.064 A 
ATOM     73  C   UNL A   1      39.495  33.347  35.335  1.00  0.00     0.173 A 
ATOM     74  C   UNL A   1      38.398  31.464  36.342  1.00  0.00     0.173 A 
ATOM     75  F   UNL A   1      40.242  33.887  34.360  1.00  0.00    -0.203 F 
ATOM     76  C   UNL A   1      39.097  34.149  36.402  1.00  0.00     0.198 A 
ATOM     77  C   UNL A   1      37.975  32.275  37.392  1.00  0.00     0.198 A 
ATOM     78  F   UNL A   1      38.049  30.169  36.343  1.00  0.00    -0.203 F 
ATOM     79  F   UNL A   1      39.470  35.435  36.444  1.00  0.00    -0.200 F 
ATOM     80  C   UNL A   1      38.332  33.614  37.427  1.00  0.00     0.200 A 
ATOM     81  F   UNL A   1      37.224  31.758  38.375  1.00  0.00    -0.200 F 
ATOM     82  F   UNL A   1      37.949  34.387  38.452  1.00  0.00    -0.200 F 
ENDBRANCH  48  72
BRANCH  60  83
ATOM     83  C   UNL A   1      44.889  28.167  34.201  1.00  0.00     0.064 A 
ATOM     84  C   UNL A   1      44.991  27.076  35.077  1.00  0.00     0.173 A 
ATOM     85  C   UNL A   1      45.997  29.021  34.085  1.00  0.00     0.173 A 
ATOM     86  F   UNL A   1      43.955  26.238  35.236  1.00  0.00    -0.203 F 
ATOM     87  C   UNL A   1      46.146  26.867  35.827  1.00  0.00     0.198 A 
ATOM     88  C   UNL A   1      47.162  28.788  34.810  1.00  0.00     0.198 A 
ATOM     89  F   UNL A   1      45.955  30.075  33.255  1.00  0.00    -0.203 F 
ATOM     90  F   UNL A   1      46.201  25.848  36.697  1.00  0.00    -0.200 F 
ATOM     91  C   UNL A   1      47.232  27.717  35.686  1.00  0.00     0.200 A 
ATOM     92  F   UNL A   1      48.217  29.601  34.659  1.00  0.00    -0.200 F 
ATOM     93  F   UNL A   1      48.346  27.507  36.402  1.00  0.00    -0.200 F 
ENDBRANCH  60  83
ENDBRANCH  34  35
ENDBRANCH  26  29
ENDBRANCH  24  25
ENDBRANCH  23  24
ENDBRANCH   1  23
TORSDOF 16
ENDMDL
MODEL 2
REMARK VINA RESULT:     -11.2      2.247      3.951
REMARK SMILES CCCN(CCC)c1cc(C(=O)NCCCNC(=O)c2ccc(-c3c4nc(c(-c5c(F)c(F)c(F)c(F)c5F)c5ccc([nH]5)c(-c5c(F)c(F)c(F)c(F)c5F)c5nc(c(-c6c(F)c(F)c(F)c(F)c6F)c6ccc3[nH]6)C=C5)C=C4)cc2)cc(C(F)(F)F)c1
REMARK SMILES IDX 14 1 13 2 11 3 12 4 10 6 8 7 9 8 89 9 84 10 83 11 4 12 3 13
REMARK SMILES IDX 2 14 1 15 5 16 6 17 7 18 85 19 86 20 87 21 88 22 15 23 16 24
REMARK SMILES IDX 17 25 18 26 19 28 20 29 21 30 82 31 22 32 81 33 23 34 24 35
REMARK SMILES IDX 25 36 75 37 26 38 80 39 74 40 76 41 27 42 79 43 73 44 72 45
REMARK SMILES IDX 28 47 60 48 40 49 59 50 41 51 44 52 58 53 77 54 42 55 43 56
REMARK SMILES IDX 57 58 78 59 45 60 29 61 30 62 38 63 31 64 32 65 36 66 39 67
REMARK SMILES IDX 33 68 34 69 37 70 35 71 61 72 62 73 70 74 63 75 64 76 68 77
REMARK SMILES IDX 71 78 65 79 66 80 69 81 67 82 46 83 47 84 55 85 48 86 49 87
REMARK SMILES IDX 53 88 56 89 50 90 51 91 54 92 52 93
REMARK H PARENT 13 5 17 27 76 46 44 57
REMARK Flexibility Score: inf
ROOT
ATOM      1  C   UNL A   1      33.799  30.526  27.031  1.00  0.00     0.118 C 
ENDROOT
BRANCH   1   2
ATOM      2  N   UNL A   1      32.751  29.718  27.643  1.00  0.00    -0.352 N 
ATOM      3  C   UNL A   1      31.904  28.745  27.146  1.00  0.00     0.251 C 
ATOM      4  O   UNL A   1      31.183  28.144  27.940  1.00  0.00    -0.269 OA
ATOM      5  H   UNL A   1      32.619  29.902  28.601  1.00  0.00     0.163 HD
BRANCH   3   6
ATOM      6  C   UNL A   1      31.740  28.517  25.685  1.00  0.00     0.042 A 
ATOM      7  C   UNL A   1      31.725  26.835  23.926  1.00  0.00     0.038 A 
ATOM      8  C   UNL A   1      32.200  27.309  25.150  1.00  0.00     0.039 A 
ATOM      9  C   UNL A   1      30.718  27.582  23.307  1.00  0.00     0.039 A 
ATOM     10  C   UNL A   1      30.417  28.882  23.716  1.00  0.00     0.058 A 
ATOM     11  C   UNL A   1      31.038  29.379  24.859  1.00  0.00     0.027 A 
BRANCH   7  12
ATOM     12  N   UNL A   1      32.216  25.697  23.317  1.00  0.00    -0.372 N 
BRANCH  12  13
ATOM     13  C   UNL A   1      33.655  25.639  22.993  1.00  0.00     0.116 C 
BRANCH  13  14
ATOM     14  C   UNL A   1      34.389  24.471  23.672  1.00  0.00     0.018 C 
ATOM     15  C   UNL A   1      34.680  24.708  25.155  1.00  0.00     0.006 C 
ENDBRANCH  13  14
ENDBRANCH  12  13
BRANCH  12  16
ATOM     16  C   UNL A   1      31.381  24.502  23.121  1.00  0.00     0.116 C 
BRANCH  16  17
ATOM     17  C   UNL A   1      30.729  23.979  24.405  1.00  0.00     0.018 C 
ATOM     18  C   UNL A   1      31.433  22.745  24.967  1.00  0.00     0.006 C 
ENDBRANCH  16  17
ENDBRANCH  12  16
ENDBRANCH   7  12
BRANCH  10  19
ATOM     19  C   UNL A   1      29.378  29.703  23.007  1.00  0.00     0.416 C 
ATOM     20  F   UNL A   1      29.548  29.668  21.655  1.00  0.00    -0.166 F 
ATOM     21  F   UNL A   1      28.111  29.259  23.230  1.00  0.00    -0.166 F 
ATOM     22  F   UNL A   1      29.386  31.018  23.355  1.00  0.00    -0.166 F 
ENDBRANCH  10  19
ENDBRANCH   3   6
ENDBRANCH   1   2
BRANCH   1  23
ATOM     23  C   UNL A   1      33.711  32.018  27.294  1.00  0.00     0.042 C 
BRANCH  23  24
ATOM     24  C   UNL A   1      32.299  32.566  27.348  1.00  0.00     0.118 C 
BRANCH  24  25
ATOM     25  N   UNL A   1      32.257  33.998  27.618  1.00  0.00    -0.352 N 
ATOM     26  C   UNL A   1      32.960  34.787  28.496  1.00  0.00     0.251 C 
ATOM     27  H   UNL A   1      31.604  34.490  27.070  1.00  0.00     0.163 HD
ATOM     28  O   UNL A   1      32.594  35.942  28.687  1.00  0.00    -0.269 OA
BRANCH  26  29
ATOM     29  C   UNL A   1      34.134  34.264  29.229  1.00  0.00     0.039 A 
ATOM     30  C   UNL A   1      33.929  33.499  30.382  1.00  0.00     0.014 A 
ATOM     31  C   UNL A   1      35.436  34.551  28.819  1.00  0.00     0.014 A 
ATOM     32  C   UNL A   1      35.022  32.965  31.070  1.00  0.00     0.010 A 
ATOM     33  C   UNL A   1      36.515  33.927  29.433  1.00  0.00     0.010 A 
ATOM     34  C   UNL A   1      36.322  33.136  30.573  1.00  0.00    -0.014 A 
BRANCH  34  35
ATOM     35  C   UNL A   1      37.500  32.515  31.233  1.00  0.00     0.031 A 
ATOM     36  C   UNL A   1      38.238  31.389  30.560  1.00  0.00     0.074 A 
ATOM     37  C   UNL A   1      37.853  32.906  32.473  1.00  0.00     0.049 A 
ATOM     38  N   UNL A   1      39.228  30.660  31.009  1.00  0.00    -0.248 NA
ATOM     39  C   UNL A   1      37.779  31.008  29.214  1.00  0.00     0.031 C 
ATOM     40  C   UNL A   1      37.187  33.951  33.252  1.00  0.00     0.029 A 
ATOM     41  N   UNL A   1      38.855  32.465  33.300  1.00  0.00    -0.354 N 
ATOM     42  C   UNL A   1      39.489  29.723  30.016  1.00  0.00     0.074 A 
ATOM     43  C   UNL A   1      38.517  29.937  28.968  1.00  0.00     0.031 C 
ATOM     44  C   UNL A   1      37.819  34.095  34.428  1.00  0.00     0.029 A 
ATOM     45  C   UNL A   1      38.903  33.121  34.505  1.00  0.00     0.049 A 
ATOM     46  H   UNL A   1      39.481  31.746  33.053  1.00  0.00     0.167 HD
ATOM     47  C   UNL A   1      40.466  28.786  29.972  1.00  0.00     0.037 A 
ATOM     48  C   UNL A   1      39.725  32.952  35.558  1.00  0.00     0.037 A 
ATOM     49  C   UNL A   1      41.452  28.601  31.004  1.00  0.00     0.049 A 
ATOM     50  C   UNL A   1      40.797  31.897  35.488  1.00  0.00     0.074 A 
ATOM     51  C   UNL A   1      42.531  27.736  31.021  1.00  0.00     0.029 A 
ATOM     52  N   UNL A   1      41.473  29.293  32.207  1.00  0.00    -0.354 N 
ATOM     53  N   UNL A   1      41.085  31.072  34.511  1.00  0.00    -0.248 NA
ATOM     54  C   UNL A   1      41.658  31.752  36.669  1.00  0.00     0.031 C 
ATOM     55  C   UNL A   1      43.170  27.860  32.258  1.00  0.00     0.029 A 
ATOM     56  C   UNL A   1      42.529  28.849  32.988  1.00  0.00     0.049 A 
ATOM     57  H   UNL A   1      40.834  29.994  32.467  1.00  0.00     0.167 HD
ATOM     58  C   UNL A   1      42.181  30.336  34.943  1.00  0.00     0.074 A 
ATOM     59  C   UNL A   1      42.513  30.822  36.266  1.00  0.00     0.031 C 
ATOM     60  C   UNL A   1      42.853  29.349  34.300  1.00  0.00     0.037 A 
BRANCH  47  61
ATOM     61  C   UNL A   1      40.512  27.884  28.771  1.00  0.00     0.064 A 
ATOM     62  C   UNL A   1      39.807  26.671  28.726  1.00  0.00     0.173 A 
ATOM     63  C   UNL A   1      41.252  28.250  27.636  1.00  0.00     0.173 A 
ATOM     64  F   UNL A   1      39.091  26.267  29.787  1.00  0.00    -0.203 F 
ATOM     65  C   UNL A   1      39.872  25.843  27.609  1.00  0.00     0.198 A 
ATOM     66  C   UNL A   1      41.287  27.436  26.506  1.00  0.00     0.198 A 
ATOM     67  F   UNL A   1      41.941  29.402  27.620  1.00  0.00    -0.203 F 
ATOM     68  F   UNL A   1      39.239  24.661  27.615  1.00  0.00    -0.200 F 
ATOM     69  C   UNL A   1      40.606  26.229  26.498  1.00  0.00     0.200 A 
ATOM     70  F   UNL A   1      41.984  27.819  25.427  1.00  0.00    -0.200 F 
ATOM     71  F   UNL A   1      40.664  25.433  25.421  1.00  0.00    -0.200 F 
ENDBRANCH  47  61
BRANCH  48  72
ATOM     72  C   UNL A   1      39.594  33.824  36.756  1.00  0.00     0.064 A 
ATOM     73  C   UNL A   1      38.811  33.425  37.849  1.00  0.00     0.173 A 
ATOM     74  C   UNL A   1      40.236  35.068  36.833  1.00  0.00     0.173 A 
ATOM     75  F   UNL A   1      38.162  32.252  37.814  1.00  0.00    -0.203 F 
ATOM     76  C   UNL A   1      38.658  34.247  38.964  1.00  0.00     0.198 A 
ATOM     77  C   UNL A   1      40.106  35.875  37.962  1.00  0.00     0.198 A 
ATOM     78  F   UNL A   1      41.000  35.495  35.817  1.00  0.00    -0.203 F 
ATOM     79  F   UNL A   1      37.864  33.861  39.972  1.00  0.00    -0.200 F 
ATOM     80  C   UNL A   1      39.310  35.469  39.021  1.00  0.00     0.200 A 
ATOM     81  F   UNL A   1      40.749  37.050  38.020  1.00  0.00    -0.200 F 
ATOM     82  F   UNL A   1      39.164  36.258  40.095  1.00  0.00    -0.200 F 
ENDBRANCH  48  72
BRANCH  60  83
ATOM     83  C   UNL A   1      44.043  28.757  35.000  1.00  0.00     0.064 A 
ATOM     84  C   UNL A   1      45.325  29.309  34.874  1.00  0.00     0.173 A 
ATOM     85  C   UNL A   1      43.887  27.645  35.841  1.00  0.00     0.173 A 
ATOM     86  F   UNL A   1      45.531  30.364  34.070  1.00  0.00    -0.203 F 
ATOM     87  C   UNL A   1      46.413  28.750  35.540  1.00  0.00     0.198 A 
ATOM     88  C   UNL A   1      44.970  27.111  36.533  1.00  0.00     0.198 A 
ATOM     89  F   UNL A   1      42.679  27.083  36.003  1.00  0.00    -0.203 F 
ATOM     90  F   UNL A   1      47.640  29.262  35.362  1.00  0.00    -0.200 F 
ATOM     91  C   UNL A   1      46.233  27.658  36.375  1.00  0.00     0.200 A 
ATOM     92  F   UNL A   1      44.790  26.066  37.353  1.00  0.00    -0.200 F 
ATOM     93  F   UNL A   1      47.280  27.128  37.023  1.00  0.00    -0.200 F 
ENDBRANCH  60  83
ENDBRANCH  34  35
ENDBRANCH  26  29
ENDBRANCH  24  25
ENDBRANCH  23  24
ENDBRANCH   1  23
TORSDOF 16
ENDMDL
MODEL 3
REMARK VINA RESULT:     -11.1      4.892     10.076
REMARK SMILES CCCN(CCC)c1cc(C(=O)NCCCNC(=O)c2ccc(-c3c4nc(c(-c5c(F)c(F)c(F)c(F)c5F)c5ccc([nH]5)c(-c5c(F)c(F)c(F)c(F)c5F)c5nc(c(-c6c(F)c(F)c(F)c(F)c6F)c6ccc3[nH]6)C=C5)C=C4)cc2)cc(C(F)(F)F)c1
REMARK SMILES IDX 14 1 13 2 11 3 12 4 10 6 8 7 9 8 89 9 84 10 83 11 4 12 3 13
REMARK SMILES IDX 2 14 1 15 5 16 6 17 7 18 85 19 86 20 87 21 88 22 15 23 16 24
REMARK SMILES IDX 17 25 18 26 19 28 20 29 21 30 82 31 22 32 81 33 23 34 24 35
REMARK SMILES IDX 25 36 75 37 26 38 80 39 74 40 76 41 27 42 79 43 73 44 72 45
REMARK SMILES IDX 28 47 60 48 40 49 59 50 41 51 44 52 58 53 77 54 42 55 43 56
REMARK SMILES IDX 57 58 78 59 45 60 29 61 30 62 38 63 31 64 32 65 36 66 39 67
REMARK SMILES IDX 33 68 34 69 37 70 35 71 61 72 62 73 70 74 63 75 64 76 68 77
REMARK SMILES IDX 71 78 65 79 66 80 69 81 67 82 46 83 47 84 55 85 48 86 49 87
REMARK SMILES IDX 53 88 56 89 50 90 51 91 54 92 52 93
REMARK H PARENT 13 5 17 27 76 46 44 57
REMARK Flexibility Score: inf
ROOT
ATOM      1  C   UNL A   1      38.025  22.216  26.004  1.00  0.00     0.118 C 
ENDROOT
BRANCH   1   2
ATOM      2  N   UNL A   1      37.783  22.513  24.598  1.00  0.00    -0.352 N 
ATOM      3  C   UNL A   1      36.636  22.558  23.830  1.00  0.00     0.251 C 
ATOM      4  O   UNL A   1      36.728  22.957  22.671  1.00  0.00    -0.269 OA
ATOM      5  H   UNL A   1      38.602  22.725  24.093  1.00  0.00     0.163 HD
BRANCH   3   6
ATOM      6  C   UNL A   1      35.343  22.004  24.316  1.00  0.00     0.042 A 
ATOM      7  C   UNL A   1      32.926  22.284  24.289  1.00  0.00     0.038 A 
ATOM      8  C   UNL A   1      34.211  22.825  24.265  1.00  0.00     0.039 A 
ATOM      9  C   UNL A   1      32.827  20.889  24.288  1.00  0.00     0.039 A 
ATOM     10  C   UNL A   1      33.930  20.079  24.561  1.00  0.00     0.058 A 
ATOM     11  C   UNL A   1      35.180  20.680  24.689  1.00  0.00     0.027 A 
BRANCH   7  12
ATOM     12  N   UNL A   1      31.783  23.058  24.332  1.00  0.00    -0.372 N 
BRANCH  12  13
ATOM     13  C   UNL A   1      30.864  22.892  25.477  1.00  0.00     0.116 C 
BRANCH  13  14
ATOM     14  C   UNL A   1      31.488  23.293  26.824  1.00  0.00     0.018 C 
ATOM     15  C   UNL A   1      32.153  24.671  26.806  1.00  0.00     0.006 C 
ENDBRANCH  13  14
ENDBRANCH  12  13
BRANCH  12  16
ATOM     16  C   UNL A   1      31.537  24.131  23.357  1.00  0.00     0.116 C 
BRANCH  16  17
ATOM     17  C   UNL A   1      30.267  24.943  23.628  1.00  0.00     0.018 C 
ATOM     18  C   UNL A   1      30.554  26.417  23.908  1.00  0.00     0.006 C 
ENDBRANCH  16  17
ENDBRANCH  12  16
ENDBRANCH   7  12
BRANCH  10  19
ATOM     19  C   UNL A   1      33.805  18.583  24.621  1.00  0.00     0.416 C 
ATOM     20  F   UNL A   1      33.136  18.092  23.540  1.00  0.00    -0.166 F 
ATOM     21  F   UNL A   1      35.011  17.952  24.625  1.00  0.00    -0.166 F 
ATOM     22  F   UNL A   1      33.137  18.132  25.716  1.00  0.00    -0.166 F 
ENDBRANCH  10  19
ENDBRANCH   3   6
ENDBRANCH   1   2
BRANCH   1  23
ATOM     23  C   UNL A   1      39.169  21.259  26.283  1.00  0.00     0.042 C 
BRANCH  23  24
ATOM     24  C   UNL A   1      39.224  20.058  25.362  1.00  0.00     0.118 C 
BRANCH  24  25
ATOM     25  N   UNL A   1      40.239  19.088  25.755  1.00  0.00    -0.352 N 
ATOM     26  C   UNL A   1      41.554  19.236  26.126  1.00  0.00     0.251 C 
ATOM     27  H   UNL A   1      39.924  18.156  25.755  1.00  0.00     0.163 HD
ATOM     28  O   UNL A   1      42.267  18.241  26.209  1.00  0.00    -0.269 OA
BRANCH  26  29
ATOM     29  C   UNL A   1      42.129  20.570  26.404  1.00  0.00     0.039 A 
ATOM     30  C   UNL A   1      42.547  21.366  25.332  1.00  0.00     0.014 A 
ATOM     31  C   UNL A   1      42.301  21.031  27.709  1.00  0.00     0.014 A 
ATOM     32  C   UNL A   1      43.060  22.644  25.569  1.00  0.00     0.010 A 
ATOM     33  C   UNL A   1      42.702  22.342  27.939  1.00  0.00     0.010 A 
ATOM     34  C   UNL A   1      43.098  23.161  26.873  1.00  0.00    -0.014 A 
BRANCH  34  35
ATOM     35  C   UNL A   1      43.562  24.544  27.153  1.00  0.00     0.031 A 
ATOM     36  C   UNL A   1      42.599  25.570  27.688  1.00  0.00     0.074 A 
ATOM     37  C   UNL A   1      44.825  24.899  26.847  1.00  0.00     0.049 A 
ATOM     38  N   UNL A   1      42.786  26.847  27.912  1.00  0.00    -0.248 NA
ATOM     39  C   UNL A   1      41.232  25.107  27.980  1.00  0.00     0.031 C 
ATOM     40  C   UNL A   1      45.839  24.011  26.276  1.00  0.00     0.029 A 
ATOM     41  N   UNL A   1      45.470  26.104  26.965  1.00  0.00    -0.354 N 
ATOM     42  C   UNL A   1      41.560  27.339  28.341  1.00  0.00     0.074 A 
ATOM     43  C   UNL A   1      40.622  26.240  28.291  1.00  0.00     0.031 C 
ATOM     44  C   UNL A   1      46.986  24.691  26.127  1.00  0.00     0.029 A 
ATOM     45  C   UNL A   1      46.777  26.073  26.546  1.00  0.00     0.049 A 
ATOM     46  H   UNL A   1      45.037  26.915  27.318  1.00  0.00     0.167 HD
ATOM     47  C   UNL A   1      41.250  28.589  28.762  1.00  0.00     0.037 A 
ATOM     48  C   UNL A   1      47.701  27.051  26.497  1.00  0.00     0.037 A 
ATOM     49  C   UNL A   1      42.197  29.670  28.841  1.00  0.00     0.049 A 
ATOM     50  C   UNL A   1      47.329  28.433  26.962  1.00  0.00     0.074 A 
ATOM     51  C   UNL A   1      42.005  30.950  29.329  1.00  0.00     0.029 A 
ATOM     52  N   UNL A   1      43.516  29.596  28.415  1.00  0.00    -0.354 N 
ATOM     53  N   UNL A   1      46.189  28.867  27.442  1.00  0.00    -0.248 NA
ATOM     54  C   UNL A   1      48.374  29.462  26.878  1.00  0.00     0.031 C 
ATOM     55  C   UNL A   1      43.190  31.669  29.143  1.00  0.00     0.029 A 
ATOM     56  C   UNL A   1      44.140  30.820  28.599  1.00  0.00     0.049 A 
ATOM     57  H   UNL A   1      43.944  28.794  28.040  1.00  0.00     0.167 HD
ATOM     58  C   UNL A   1      46.390  30.206  27.751  1.00  0.00     0.074 A 
ATOM     59  C   UNL A   1      47.765  30.509  27.415  1.00  0.00     0.031 C 
ATOM     60  C   UNL A   1      45.514  31.103  28.269  1.00  0.00     0.037 A 
BRANCH  47  61
ATOM     61  C   UNL A   1      39.826  28.856  29.162  1.00  0.00     0.064 A 
ATOM     62  C   UNL A   1      38.874  29.331  28.247  1.00  0.00     0.173 A 
ATOM     63  C   UNL A   1      39.401  28.608  30.476  1.00  0.00     0.173 A 
ATOM     64  F   UNL A   1      39.229  29.595  26.980  1.00  0.00    -0.203 F 
ATOM     65  C   UNL A   1      37.563  29.585  28.640  1.00  0.00     0.198 A 
ATOM     66  C   UNL A   1      38.079  28.829  30.858  1.00  0.00     0.198 A 
ATOM     67  F   UNL A   1      40.265  28.147  31.393  1.00  0.00    -0.203 F 
ATOM     68  F   UNL A   1      36.689  30.096  27.762  1.00  0.00    -0.200 F 
ATOM     69  C   UNL A   1      37.165  29.327  29.942  1.00  0.00     0.200 A 
ATOM     70  F   UNL A   1      37.693  28.563  32.114  1.00  0.00    -0.200 F 
ATOM     71  F   UNL A   1      35.901  29.566  30.319  1.00  0.00    -0.200 F 
ENDBRANCH  47  61
BRANCH  48  72
ATOM     72  C   UNL A   1      49.079  26.753  26.025  1.00  0.00     0.064 A 
ATOM     73  C   UNL A   1      50.040  26.232  26.904  1.00  0.00     0.173 A 
ATOM     74  C   UNL A   1      49.469  26.987  24.698  1.00  0.00     0.173 A 
ATOM     75  F   UNL A   1      49.721  26.010  28.188  1.00  0.00    -0.203 F 
ATOM     76  C   UNL A   1      51.342  25.977  26.480  1.00  0.00     0.198 A 
ATOM     77  C   UNL A   1      50.763  26.702  24.268  1.00  0.00     0.198 A 
ATOM     78  F   UNL A   1      48.588  27.479  23.815  1.00  0.00    -0.203 F 
ATOM     79  F   UNL A   1      52.252  25.526  27.354  1.00  0.00    -0.200 F 
ATOM     80  C   UNL A   1      51.701  26.206  25.161  1.00  0.00     0.200 A 
ATOM     81  F   UNL A   1      51.103  26.912  22.988  1.00  0.00    -0.200 F 
ATOM     82  F   UNL A   1      52.954  25.959  24.753  1.00  0.00    -0.200 F 
ENDBRANCH  48  72
BRANCH  60  83
ATOM     83  C   UNL A   1      46.029  32.487  28.545  1.00  0.00     0.064 A 
ATOM     84  C   UNL A   1      45.932  33.515  27.597  1.00  0.00     0.173 A 
ATOM     85  C   UNL A   1      46.591  32.796  29.794  1.00  0.00     0.173 A 
ATOM     86  F   UNL A   1      45.416  33.269  26.383  1.00  0.00    -0.203 F 
ATOM     87  C   UNL A   1      46.406  34.794  27.878  1.00  0.00     0.198 A 
ATOM     88  C   UNL A   1      47.031  34.084  30.084  1.00  0.00     0.198 A 
ATOM     89  F   UNL A   1      46.700  31.850  30.740  1.00  0.00    -0.203 F 
ATOM     90  F   UNL A   1      46.352  35.749  26.937  1.00  0.00    -0.200 F 
ATOM     91  C   UNL A   1      46.947  35.079  29.123  1.00  0.00     0.200 A 
ATOM     92  F   UNL A   1      47.537  34.361  31.293  1.00  0.00    -0.200 F 
ATOM     93  F   UNL A   1      47.393  36.314  29.395  1.00  0.00    -0.200 F 
ENDBRANCH  60  83
ENDBRANCH  34  35
ENDBRANCH  26  29
ENDBRANCH  24  25
ENDBRANCH  23  24
ENDBRANCH   1  23
TORSDOF 16
ENDMDL
