MODEL 1
REMARK VINA RESULT:     -12.7      0.000      0.000
REMARK SMILES O=C(NCCCNC(=O)c1[nH]nc2ncc(F)cc12)c1ccc(-c2c3nc(c(-c4c(F)c(F)c(F)c(F)c4F)c4ccc([nH]4)c(-c4c(F)c(F)c(F)c(F)c4F)c4nc(c(-c5c(F)c(F)c(F)c(F)c5F)c5ccc2[nH]5)C=C4)C=C3)cc1
REMARK SMILES IDX 4 1 3 2 1 3 2 4 20 6 21 7 82 8 22 9 81 10 23 11 24 12 25 13
REMARK SMILES IDX 75 14 26 15 80 16 74 17 76 18 27 19 79 20 73 21 72 22 28 24
REMARK SMILES IDX 60 25 40 26 59 27 41 28 44 29 58 30 77 31 42 32 43 33 57 35
REMARK SMILES IDX 78 36 45 37 29 38 30 39 38 40 31 41 32 42 36 43 39 44 33 45
REMARK SMILES IDX 34 46 37 47 35 48 61 49 62 50 70 51 63 52 64 53 68 54 71 55
REMARK SMILES IDX 65 56 66 57 69 58 67 59 46 60 47 61 55 62 48 63 49 64 53 65
REMARK SMILES IDX 56 66 50 67 51 68 54 69 52 70 5 71 6 72 7 73 8 74 9 76 10 77
REMARK SMILES IDX 11 78 19 79 12 80 13 82 18 83 14 84 16 85 15 86 17 87
REMARK H PARENT 3 5 76 23 44 34 7 75 11 81
REMARK Flexibility Score: inf
ROOT
ATOM      1  C   UNL A   1      41.947  20.426  27.142  1.00  0.00     0.118 C 
ENDROOT
BRANCH   1   2
ATOM      2  N   UNL A   1      40.596  20.718  26.703  1.00  0.00    -0.352 N 
ATOM      3  O   UNL A   1      38.706  21.681  26.106  1.00  0.00    -0.269 OA
ATOM      4  C   UNL A   1      39.816  21.839  26.621  1.00  0.00     0.251 C 
ATOM      5  H   UNL A   1      40.125  19.913  26.388  1.00  0.00     0.163 HD
BRANCH   4   6
ATOM      6  C   UNL A   1      40.181  23.194  27.126  1.00  0.00     0.039 A 
ATOM      7  C   UNL A   1      41.302  23.503  27.892  1.00  0.00     0.014 A 
ATOM      8  C   UNL A   1      39.297  24.243  26.797  1.00  0.00     0.014 A 
ATOM      9  C   UNL A   1      41.505  24.799  28.372  1.00  0.00     0.010 A 
ATOM     10  C   UNL A   1      39.510  25.547  27.252  1.00  0.00     0.010 A 
ATOM     11  C   UNL A   1      40.604  25.825  28.070  1.00  0.00    -0.014 A 
BRANCH  11  12
ATOM     12  C   UNL A   1      40.882  27.159  28.610  1.00  0.00     0.031 A 
ATOM     13  C   UNL A   1      42.125  27.858  28.162  1.00  0.00     0.074 A 
ATOM     14  C   UNL A   1      40.034  27.861  29.389  1.00  0.00     0.049 A 
ATOM     15  N   UNL A   1      43.081  28.351  28.887  1.00  0.00    -0.248 NA
ATOM     16  C   UNL A   1      42.302  28.066  26.718  1.00  0.00     0.031 C 
ATOM     17  C   UNL A   1      38.632  27.574  29.689  1.00  0.00     0.029 A 
ATOM     18  N   UNL A   1      40.255  29.062  30.010  1.00  0.00    -0.354 N 
ATOM     19  C   UNL A   1      43.915  29.049  28.014  1.00  0.00     0.074 A 
ATOM     20  C   UNL A   1      43.415  28.802  26.684  1.00  0.00     0.031 C 
ATOM     21  C   UNL A   1      38.074  28.661  30.264  1.00  0.00     0.029 A 
ATOM     22  C   UNL A   1      39.107  29.661  30.493  1.00  0.00     0.049 A 
ATOM     23  H   UNL A   1      41.149  29.462  30.103  1.00  0.00     0.167 HD
ATOM     24  C   UNL A   1      44.891  29.898  28.440  1.00  0.00     0.037 A 
ATOM     25  C   UNL A   1      38.993  30.909  31.001  1.00  0.00     0.037 A 
ATOM     26  C   UNL A   1      45.244  29.696  29.816  1.00  0.00     0.049 A 
ATOM     27  C   UNL A   1      40.330  31.381  31.430  1.00  0.00     0.074 A 
ATOM     28  C   UNL A   1      45.774  28.657  30.553  1.00  0.00     0.029 A 
ATOM     29  N   UNL A   1      44.865  30.640  30.734  1.00  0.00    -0.354 N 
ATOM     30  N   UNL A   1      40.985  30.933  32.463  1.00  0.00    -0.248 NA
ATOM     31  C   UNL A   1      41.085  32.251  30.540  1.00  0.00     0.031 C 
ATOM     32  C   UNL A   1      45.290  28.841  31.881  1.00  0.00     0.029 A 
ATOM     33  C   UNL A   1      44.466  29.965  31.857  1.00  0.00     0.049 A 
ATOM     34  H   UNL A   1      44.879  31.617  30.610  1.00  0.00     0.167 HD
ATOM     35  C   UNL A   1      42.317  31.148  32.155  1.00  0.00     0.074 A 
ATOM     36  C   UNL A   1      42.305  32.100  31.057  1.00  0.00     0.031 C 
ATOM     37  C   UNL A   1      43.288  30.309  32.617  1.00  0.00     0.037 A 
BRANCH  24  38
ATOM     38  C   UNL A   1      45.389  31.095  27.672  1.00  0.00     0.064 A 
ATOM     39  C   UNL A   1      46.734  31.156  27.252  1.00  0.00     0.173 A 
ATOM     40  C   UNL A   1      44.663  32.299  27.577  1.00  0.00     0.173 A 
ATOM     41  F   UNL A   1      47.528  30.079  27.344  1.00  0.00    -0.203 F 
ATOM     42  C   UNL A   1      47.315  32.345  26.801  1.00  0.00     0.198 A 
ATOM     43  C   UNL A   1      45.232  33.473  27.081  1.00  0.00     0.198 A 
ATOM     44  F   UNL A   1      43.415  32.400  28.056  1.00  0.00    -0.203 F 
ATOM     45  F   UNL A   1      48.622  32.378  26.508  1.00  0.00    -0.200 F 
ATOM     46  C   UNL A   1      46.562  33.501  26.713  1.00  0.00     0.200 A 
ATOM     47  F   UNL A   1      44.498  34.593  27.025  1.00  0.00    -0.200 F 
ATOM     48  F   UNL A   1      47.128  34.651  26.321  1.00  0.00    -0.200 F 
ENDBRANCH  24  38
BRANCH  25  49
ATOM     49  C   UNL A   1      37.812  31.801  30.995  1.00  0.00     0.064 A 
ATOM     50  C   UNL A   1      37.438  32.505  29.840  1.00  0.00     0.173 A 
ATOM     51  C   UNL A   1      36.884  31.791  32.053  1.00  0.00     0.173 A 
ATOM     52  F   UNL A   1      38.240  32.519  28.766  1.00  0.00    -0.203 F 
ATOM     53  C   UNL A   1      36.204  33.154  29.746  1.00  0.00     0.198 A 
ATOM     54  C   UNL A   1      35.660  32.453  31.966  1.00  0.00     0.198 A 
ATOM     55  F   UNL A   1      37.109  31.068  33.160  1.00  0.00    -0.203 F 
ATOM     56  F   UNL A   1      35.857  33.767  28.606  1.00  0.00    -0.200 F 
ATOM     57  C   UNL A   1      35.315  33.125  30.809  1.00  0.00     0.200 A 
ATOM     58  F   UNL A   1      34.795  32.388  32.987  1.00  0.00    -0.200 F 
ATOM     59  F   UNL A   1      34.113  33.708  30.702  1.00  0.00    -0.200 F 
ENDBRANCH  25  49
BRANCH  37  60
ATOM     60  C   UNL A   1      42.954  29.437  33.788  1.00  0.00     0.064 A 
ATOM     61  C   UNL A   1      42.219  28.247  33.676  1.00  0.00     0.173 A 
ATOM     62  C   UNL A   1      43.508  29.749  35.036  1.00  0.00     0.173 A 
ATOM     63  F   UNL A   1      41.754  27.835  32.488  1.00  0.00    -0.203 F 
ATOM     64  C   UNL A   1      42.004  27.430  34.784  1.00  0.00     0.198 A 
ATOM     65  C   UNL A   1      43.320  28.914  36.134  1.00  0.00     0.198 A 
ATOM     66  F   UNL A   1      44.274  30.843  35.179  1.00  0.00    -0.203 F 
ATOM     67  F   UNL A   1      41.291  26.302  34.658  1.00  0.00    -0.200 F 
ATOM     68  C   UNL A   1      42.560  27.762  36.010  1.00  0.00     0.200 A 
ATOM     69  F   UNL A   1      43.900  29.210  37.305  1.00  0.00    -0.200 F 
ATOM     70  F   UNL A   1      42.386  26.956  37.066  1.00  0.00    -0.200 F 
ENDBRANCH  37  60
ENDBRANCH  11  12
ENDBRANCH   4   6
ENDBRANCH   1   2
BRANCH   1  71
ATOM     71  C   UNL A   1      42.428  19.003  26.850  1.00  0.00     0.042 C 
BRANCH  71  72
ATOM     72  C   UNL A   1      43.201  18.835  25.543  1.00  0.00     0.118 C 
BRANCH  72  73
ATOM     73  N   UNL A   1      44.640  18.885  25.731  1.00  0.00    -0.351 N 
ATOM     74  C   UNL A   1      45.597  19.751  25.271  1.00  0.00     0.270 C 
ATOM     75  H   UNL A   1      44.995  18.160  26.295  1.00  0.00     0.163 HD
ATOM     76  O   UNL A   1      46.765  19.379  25.352  1.00  0.00    -0.268 OA
BRANCH  74  77
ATOM     77  C   UNL A   1      45.225  21.029  24.734  1.00  0.00     0.132 A 
ATOM     78  N   UNL A   1      44.836  21.268  23.438  1.00  0.00    -0.270 N 
ATOM     79  C   UNL A   1      45.018  22.241  25.360  1.00  0.00     0.055 A 
ATOM     80  N   UNL A   1      44.512  22.544  23.159  1.00  0.00    -0.154 NA
ATOM     81  H   UNL A   1      44.796  20.554  22.761  1.00  0.00     0.190 HD
ATOM     82  C   UNL A   1      44.588  23.151  24.341  1.00  0.00     0.181 A 
ATOM     83  C   UNL A   1      45.191  22.515  26.715  1.00  0.00     0.055 A 
ATOM     84  N   UNL A   1      44.298  24.451  24.613  1.00  0.00    -0.232 NA
ATOM     85  C   UNL A   1      44.875  23.850  26.970  1.00  0.00     0.142 A 
ATOM     86  C   UNL A   1      44.459  24.733  25.946  1.00  0.00     0.152 A 
ATOM     87  F   UNL A   1      44.970  24.311  28.225  1.00  0.00    -0.205 F 
ENDBRANCH  74  77
ENDBRANCH  72  73
ENDBRANCH  71  72
ENDBRANCH   1  71
TORSDOF 10
ENDMDL
MODEL 2
REMARK VINA RESULT:     -12.5      3.897     11.331
REMARK SMILES O=C(NCCCNC(=O)c1[nH]nc2ncc(F)cc12)c1ccc(-c2c3nc(c(-c4c(F)c(F)c(F)c(F)c4F)c4ccc([nH]4)c(-c4c(F)c(F)c(F)c(F)c4F)c4nc(c(-c5c(F)c(F)c(F)c(F)c5F)c5ccc2[nH]5)C=C4)C=C3)cc1
REMARK SMILES IDX 4 1 3 2 1 3 2 4 20 6 21 7 82 8 22 9 81 10 23 11 24 12 25 13
REMARK SMILES IDX 75 14 26 15 80 16 74 17 76 18 27 19 79 20 73 21 72 22 28 24
REMARK SMILES IDX 60 25 40 26 59 27 41 28 44 29 58 30 77 31 42 32 43 33 57 35
REMARK SMILES IDX 78 36 45 37 29 38 30 39 38 40 31 41 32 42 36 43 39 44 33 45
REMARK SMILES IDX 34 46 37 47 35 48 61 49 62 50 70 51 63 52 64 53 68 54 71 55
REMARK SMILES IDX 65 56 66 57 69 58 67 59 46 60 47 61 55 62 48 63 49 64 53 65
REMARK SMILES IDX 56 66 50 67 51 68 54 69 52 70 5 71 6 72 7 73 8 74 9 76 10 77
REMARK SMILES IDX 11 78 19 79 12 80 13 82 18 83 14 84 16 85 15 86 17 87
REMARK H PARENT 3 5 76 23 44 34 7 75 11 81
REMARK Flexibility Score: inf
ROOT
ATOM      1  C   UNL A   1      34.785  34.468  28.830  1.00  0.00     0.118 C 
ENDROOT
BRANCH   1   2
ATOM      2  N   UNL A   1      34.208  33.308  28.178  1.00  0.00    -0.352 N 
ATOM      3  O   UNL A   1      33.756  31.289  27.421  1.00  0.00    -0.269 OA
ATOM      4  C   UNL A   1      34.587  32.009  27.981  1.00  0.00     0.251 C 
ATOM      5  H   UNL A   1      33.329  33.504  27.779  1.00  0.00     0.163 HD
BRANCH   4   6
ATOM      6  C   UNL A   1      35.907  31.420  28.349  1.00  0.00     0.039 A 
ATOM      7  C   UNL A   1      36.955  32.096  28.969  1.00  0.00     0.014 A 
ATOM      8  C   UNL A   1      36.096  30.060  28.028  1.00  0.00     0.014 A 
ATOM      9  C   UNL A   1      38.177  31.460  29.201  1.00  0.00     0.010 A 
ATOM     10  C   UNL A   1      37.308  29.412  28.283  1.00  0.00     0.010 A 
ATOM     11  C   UNL A   1      38.367  30.121  28.846  1.00  0.00    -0.014 A 
BRANCH  11  12
ATOM     12  C   UNL A   1      39.677  29.522  29.120  1.00  0.00     0.031 A 
ATOM     13  C   UNL A   1      40.036  29.225  30.541  1.00  0.00     0.074 A 
ATOM     14  C   UNL A   1      40.538  29.098  28.173  1.00  0.00     0.049 A 
ATOM     15  N   UNL A   1      41.078  29.613  31.209  1.00  0.00    -0.248 NA
ATOM     16  C   UNL A   1      39.131  28.350  31.299  1.00  0.00     0.031 C 
ATOM     17  C   UNL A   1      40.301  28.945  26.738  1.00  0.00     0.029 A 
ATOM     18  N   UNL A   1      41.811  28.621  28.339  1.00  0.00    -0.354 N 
ATOM     19  C   UNL A   1      41.041  28.931  32.424  1.00  0.00     0.074 A 
ATOM     20  C   UNL A   1      39.796  28.202  32.447  1.00  0.00     0.031 C 
ATOM     21  C   UNL A   1      41.315  28.233  26.198  1.00  0.00     0.029 A 
ATOM     22  C   UNL A   1      42.327  28.001  27.217  1.00  0.00     0.049 A 
ATOM     23  H   UNL A   1      42.312  28.711  29.181  1.00  0.00     0.167 HD
ATOM     24  C   UNL A   1      42.092  28.897  33.289  1.00  0.00     0.037 A 
ATOM     25  C   UNL A   1      43.481  27.300  27.134  1.00  0.00     0.037 A 
ATOM     26  C   UNL A   1      43.054  29.931  33.037  1.00  0.00     0.049 A 
ATOM     27  C   UNL A   1      44.365  27.687  28.258  1.00  0.00     0.074 A 
ATOM     28  C   UNL A   1      43.041  31.310  33.048  1.00  0.00     0.029 A 
ATOM     29  N   UNL A   1      44.266  29.580  32.502  1.00  0.00    -0.354 N 
ATOM     30  N   UNL A   1      44.974  28.832  28.370  1.00  0.00    -0.248 NA
ATOM     31  C   UNL A   1      44.409  26.837  29.440  1.00  0.00     0.031 C 
ATOM     32  C   UNL A   1      44.051  31.712  32.125  1.00  0.00     0.029 A 
ATOM     33  C   UNL A   1      44.590  30.545  31.585  1.00  0.00     0.049 A 
ATOM     34  H   UNL A   1      44.801  28.786  32.732  1.00  0.00     0.167 HD
ATOM     35  C   UNL A   1      45.145  29.008  29.732  1.00  0.00     0.074 A 
ATOM     36  C   UNL A   1      44.936  27.693  30.315  1.00  0.00     0.031 C 
ATOM     37  C   UNL A   1      45.143  30.255  30.284  1.00  0.00     0.037 A 
BRANCH  24  38
ATOM     38  C   UNL A   1      42.385  27.771  34.248  1.00  0.00     0.064 A 
ATOM     39  C   UNL A   1      42.996  26.588  33.783  1.00  0.00     0.173 A 
ATOM     40  C   UNL A   1      41.835  27.708  35.543  1.00  0.00     0.173 A 
ATOM     41  F   UNL A   1      43.509  26.526  32.545  1.00  0.00    -0.203 F 
ATOM     42  C   UNL A   1      43.026  25.420  34.550  1.00  0.00     0.198 A 
ATOM     43  C   UNL A   1      41.908  26.555  36.326  1.00  0.00     0.198 A 
ATOM     44  F   UNL A   1      41.123  28.725  36.049  1.00  0.00    -0.203 F 
ATOM     45  F   UNL A   1      43.527  24.293  34.028  1.00  0.00    -0.200 F 
ATOM     46  C   UNL A   1      42.483  25.405  35.821  1.00  0.00     0.200 A 
ATOM     47  F   UNL A   1      41.356  26.546  37.548  1.00  0.00    -0.200 F 
ATOM     48  F   UNL A   1      42.473  24.275  36.542  1.00  0.00    -0.200 F 
ENDBRANCH  24  38
BRANCH  25  49
ATOM     49  C   UNL A   1      43.815  26.182  26.224  1.00  0.00     0.064 A 
ATOM     50  C   UNL A   1      45.088  26.071  25.643  1.00  0.00     0.173 A 
ATOM     51  C   UNL A   1      42.967  25.065  26.097  1.00  0.00     0.173 A 
ATOM     52  F   UNL A   1      45.977  27.067  25.765  1.00  0.00    -0.203 F 
ATOM     53  C   UNL A   1      45.492  24.908  24.983  1.00  0.00     0.198 A 
ATOM     54  C   UNL A   1      43.364  23.911  25.423  1.00  0.00     0.198 A 
ATOM     55  F   UNL A   1      41.768  25.039  26.699  1.00  0.00    -0.203 F 
ATOM     56  F   UNL A   1      46.735  24.816  24.493  1.00  0.00    -0.200 F 
ATOM     57  C   UNL A   1      44.630  23.828  24.876  1.00  0.00     0.200 A 
ATOM     58  F   UNL A   1      42.534  22.861  25.357  1.00  0.00    -0.200 F 
ATOM     59  F   UNL A   1      45.034  22.696  24.283  1.00  0.00    -0.200 F 
ENDBRANCH  25  49
BRANCH  37  60
ATOM     60  C   UNL A   1      45.389  31.419  29.374  1.00  0.00     0.064 A 
ATOM     61  C   UNL A   1      44.379  32.030  28.616  1.00  0.00     0.173 A 
ATOM     62  C   UNL A   1      46.658  32.013  29.373  1.00  0.00     0.173 A 
ATOM     63  F   UNL A   1      43.118  31.577  28.658  1.00  0.00    -0.203 F 
ATOM     64  C   UNL A   1      44.644  33.160  27.846  1.00  0.00     0.198 A 
ATOM     65  C   UNL A   1      46.912  33.162  28.629  1.00  0.00     0.198 A 
ATOM     66  F   UNL A   1      47.641  31.504  30.133  1.00  0.00    -0.203 F 
ATOM     67  F   UNL A   1      43.667  33.723  27.121  1.00  0.00    -0.200 F 
ATOM     68  C   UNL A   1      45.909  33.728  27.858  1.00  0.00     0.200 A 
ATOM     69  F   UNL A   1      48.121  33.738  28.682  1.00  0.00    -0.200 F 
ATOM     70  F   UNL A   1      46.154  34.837  27.148  1.00  0.00    -0.200 F 
ENDBRANCH  37  60
ENDBRANCH  11  12
ENDBRANCH   4   6
ENDBRANCH   1   2
BRANCH   1  71
ATOM     71  C   UNL A   1      33.994  35.767  28.656  1.00  0.00     0.042 C 
BRANCH  71  72
ATOM     72  C   UNL A   1      32.928  36.024  29.721  1.00  0.00     0.118 C 
BRANCH  72  73
ATOM     73  N   UNL A   1      33.407  36.863  30.805  1.00  0.00    -0.351 N 
ATOM     74  C   UNL A   1      33.739  36.585  32.104  1.00  0.00     0.270 C 
ATOM     75  H   UNL A   1      33.514  37.811  30.559  1.00  0.00     0.163 HD
ATOM     76  O   UNL A   1      33.834  37.542  32.869  1.00  0.00    -0.268 OA
BRANCH  74  77
ATOM     77  C   UNL A   1      33.967  35.231  32.525  1.00  0.00     0.132 A 
ATOM     78  N   UNL A   1      32.992  34.331  32.883  1.00  0.00    -0.270 N 
ATOM     79  C   UNL A   1      35.120  34.474  32.528  1.00  0.00     0.055 A 
ATOM     80  N   UNL A   1      33.434  33.107  33.225  1.00  0.00    -0.154 NA
ATOM     81  H   UNL A   1      32.036  34.566  32.888  1.00  0.00     0.190 HD
ATOM     82  C   UNL A   1      34.741  33.167  32.980  1.00  0.00     0.181 A 
ATOM     83  C   UNL A   1      36.394  34.900  32.161  1.00  0.00     0.055 A 
ATOM     84  N   UNL A   1      35.645  32.162  33.110  1.00  0.00    -0.232 NA
ATOM     85  C   UNL A   1      37.300  33.846  32.290  1.00  0.00     0.142 A 
ATOM     86  C   UNL A   1      36.904  32.567  32.744  1.00  0.00     0.152 A 
ATOM     87  F   UNL A   1      38.586  34.054  31.973  1.00  0.00    -0.205 F 
ENDBRANCH  74  77
ENDBRANCH  72  73
ENDBRANCH  71  72
ENDBRANCH   1  71
TORSDOF 10
ENDMDL
MODEL 3
REMARK VINA RESULT:     -12.4      1.829      3.261
REMARK SMILES O=C(NCCCNC(=O)c1[nH]nc2ncc(F)cc12)c1ccc(-c2c3nc(c(-c4c(F)c(F)c(F)c(F)c4F)c4ccc([nH]4)c(-c4c(F)c(F)c(F)c(F)c4F)c4nc(c(-c5c(F)c(F)c(F)c(F)c5F)c5ccc2[nH]5)C=C4)C=C3)cc1
REMARK SMILES IDX 4 1 3 2 1 3 2 4 20 6 21 7 82 8 22 9 81 10 23 11 24 12 25 13
REMARK SMILES IDX 75 14 26 15 80 16 74 17 76 18 27 19 79 20 73 21 72 22 28 24
REMARK SMILES IDX 60 25 40 26 59 27 41 28 44 29 58 30 77 31 42 32 43 33 57 35
REMARK SMILES IDX 78 36 45 37 29 38 30 39 38 40 31 41 32 42 36 43 39 44 33 45
REMARK SMILES IDX 34 46 37 47 35 48 61 49 62 50 70 51 63 52 64 53 68 54 71 55
REMARK SMILES IDX 65 56 66 57 69 58 67 59 46 60 47 61 55 62 48 63 49 64 53 65
REMARK SMILES IDX 56 66 50 67 51 68 54 69 52 70 5 71 6 72 7 73 8 74 9 76 10 77
REMARK SMILES IDX 11 78 19 79 12 80 13 82 18 83 14 84 16 85 15 86 17 87
REMARK H PARENT 3 5 76 23 44 34 7 75 11 81
REMARK Flexibility Score: inf
ROOT
ATOM      1  C   UNL A   1      42.965  22.367  25.011  1.00  0.00     0.118 C 
ENDROOT
BRANCH   1   2
ATOM      2  N   UNL A   1      41.795  21.949  25.759  1.00  0.00    -0.352 N 
ATOM      3  O   UNL A   1      39.972  21.852  26.993  1.00  0.00    -0.269 OA
ATOM      4  C   UNL A   1      40.907  22.556  26.604  1.00  0.00     0.251 C 
ATOM      5  H   UNL A   1      41.591  20.994  25.628  1.00  0.00     0.163 HD
BRANCH   4   6
ATOM      6  C   UNL A   1      41.000  23.957  27.107  1.00  0.00     0.039 A 
ATOM      7  C   UNL A   1      41.871  24.412  28.094  1.00  0.00     0.014 A 
ATOM      8  C   UNL A   1      40.117  24.890  26.525  1.00  0.00     0.014 A 
ATOM      9  C   UNL A   1      41.819  25.736  28.538  1.00  0.00     0.010 A 
ATOM     10  C   UNL A   1      40.080  26.222  26.947  1.00  0.00     0.010 A 
ATOM     11  C   UNL A   1      40.914  26.644  27.980  1.00  0.00    -0.014 A 
BRANCH  11  12
ATOM     12  C   UNL A   1      40.918  28.016  28.498  1.00  0.00     0.031 A 
ATOM     13  C   UNL A   1      42.015  28.933  28.062  1.00  0.00     0.074 A 
ATOM     14  C   UNL A   1      39.932  28.555  29.242  1.00  0.00     0.049 A 
ATOM     15  N   UNL A   1      42.840  29.612  28.798  1.00  0.00    -0.248 NA
ATOM     16  C   UNL A   1      42.186  29.147  26.618  1.00  0.00     0.031 C 
ATOM     17  C   UNL A   1      38.603  28.009  29.516  1.00  0.00     0.029 A 
ATOM     18  N   UNL A   1      39.902  29.786  29.842  1.00  0.00    -0.354 N 
ATOM     19  C   UNL A   1      43.547  30.443  27.929  1.00  0.00     0.074 A 
ATOM     20  C   UNL A   1      43.138  30.082  26.594  1.00  0.00     0.031 C 
ATOM     21  C   UNL A   1      37.832  28.979  30.056  1.00  0.00     0.029 A 
ATOM     22  C   UNL A   1      38.648  30.161  30.286  1.00  0.00     0.049 A 
ATOM     23  H   UNL A   1      40.700  30.352  29.947  1.00  0.00     0.167 HD
ATOM     24  C   UNL A   1      44.331  31.471  28.359  1.00  0.00     0.037 A 
ATOM     25  C   UNL A   1      38.284  31.373  30.765  1.00  0.00     0.037 A 
ATOM     26  C   UNL A   1      44.681  31.363  29.746  1.00  0.00     0.049 A 
ATOM     27  C   UNL A   1      39.494  32.100  31.214  1.00  0.00     0.074 A 
ATOM     28  C   UNL A   1      45.380  30.458  30.516  1.00  0.00     0.029 A 
ATOM     29  N   UNL A   1      44.104  32.232  30.634  1.00  0.00    -0.354 N 
ATOM     30  N   UNL A   1      40.196  31.803  32.270  1.00  0.00    -0.248 NA
ATOM     31  C   UNL A   1      40.092  33.084  30.322  1.00  0.00     0.031 C 
ATOM     32  C   UNL A   1      44.836  30.567  31.829  1.00  0.00     0.029 A 
ATOM     33  C   UNL A   1      43.812  31.512  31.763  1.00  0.00     0.049 A 
ATOM     34  H   UNL A   1      43.933  33.191  30.490  1.00  0.00     0.167 HD
ATOM     35  C   UNL A   1      41.469  32.265  31.987  1.00  0.00     0.074 A 
ATOM     36  C   UNL A   1      41.304  33.179  30.870  1.00  0.00     0.031 C 
ATOM     37  C   UNL A   1      42.571  31.636  32.489  1.00  0.00     0.037 A 
BRANCH  24  38
ATOM     38  C   UNL A   1      44.610  32.728  27.576  1.00  0.00     0.064 A 
ATOM     39  C   UNL A   1      45.814  32.857  26.852  1.00  0.00     0.173 A 
ATOM     40  C   UNL A   1      43.864  33.912  27.739  1.00  0.00     0.173 A 
ATOM     41  F   UNL A   1      46.624  31.803  26.680  1.00  0.00    -0.203 F 
ATOM     42  C   UNL A   1      46.250  34.090  26.357  1.00  0.00     0.198 A 
ATOM     43  C   UNL A   1      44.278  35.131  27.201  1.00  0.00     0.198 A 
ATOM     44  F   UNL A   1      42.766  33.943  28.507  1.00  0.00    -0.203 F 
ATOM     45  F   UNL A   1      47.448  34.183  25.763  1.00  0.00    -0.200 F 
ATOM     46  C   UNL A   1      45.480  35.225  26.530  1.00  0.00     0.200 A 
ATOM     47  F   UNL A   1      43.534  36.229  27.398  1.00  0.00    -0.200 F 
ATOM     48  F   UNL A   1      45.916  36.414  26.092  1.00  0.00    -0.200 F 
ENDBRANCH  24  38
BRANCH  25  49
ATOM     49  C   UNL A   1      36.955  32.021  30.713  1.00  0.00     0.064 A 
ATOM     50  C   UNL A   1      36.114  32.048  31.837  1.00  0.00     0.173 A 
ATOM     51  C   UNL A   1      36.583  32.841  29.631  1.00  0.00     0.173 A 
ATOM     52  F   UNL A   1      36.424  31.339  32.932  1.00  0.00    -0.203 F 
ATOM     53  C   UNL A   1      34.974  32.854  31.878  1.00  0.00     0.198 A 
ATOM     54  C   UNL A   1      35.436  33.632  29.666  1.00  0.00     0.198 A 
ATOM     55  F   UNL A   1      37.372  32.956  28.552  1.00  0.00    -0.203 F 
ATOM     56  F   UNL A   1      34.227  32.898  32.991  1.00  0.00    -0.200 F 
ATOM     57  C   UNL A   1      34.637  33.648  30.794  1.00  0.00     0.200 A 
ATOM     58  F   UNL A   1      35.141  34.421  28.624  1.00  0.00    -0.200 F 
ATOM     59  F   UNL A   1      33.570  34.455  30.851  1.00  0.00    -0.200 F 
ENDBRANCH  25  49
BRANCH  37  60
ATOM     60  C   UNL A   1      42.380  30.736  33.670  1.00  0.00     0.064 A 
ATOM     61  C   UNL A   1      42.458  31.182  34.999  1.00  0.00     0.173 A 
ATOM     62  C   UNL A   1      41.977  29.413  33.447  1.00  0.00     0.173 A 
ATOM     63  F   UNL A   1      42.733  32.464  35.278  1.00  0.00    -0.203 F 
ATOM     64  C   UNL A   1      42.194  30.321  36.061  1.00  0.00     0.198 A 
ATOM     65  C   UNL A   1      41.681  28.564  34.510  1.00  0.00     0.198 A 
ATOM     66  F   UNL A   1      41.823  28.958  32.193  1.00  0.00    -0.203 F 
ATOM     67  F   UNL A   1      42.285  30.764  37.323  1.00  0.00    -0.200 F 
ATOM     68  C   UNL A   1      41.801  29.015  35.815  1.00  0.00     0.200 A 
ATOM     69  F   UNL A   1      41.251  27.318  34.269  1.00  0.00    -0.200 F 
ATOM     70  F   UNL A   1      41.508  28.198  36.836  1.00  0.00    -0.200 F 
ENDBRANCH  37  60
ENDBRANCH  11  12
ENDBRANCH   4   6
ENDBRANCH   1   2
BRANCH   1  71
ATOM     71  C   UNL A   1      44.205  22.656  25.860  1.00  0.00     0.042 C 
BRANCH  71  72
ATOM     72  C   UNL A   1      44.738  24.086  25.763  1.00  0.00     0.118 C 
BRANCH  72  73
ATOM     73  N   UNL A   1      43.787  24.999  25.154  1.00  0.00    -0.351 N 
ATOM     74  C   UNL A   1      43.771  26.364  25.036  1.00  0.00     0.270 C 
ATOM     75  H   UNL A   1      43.007  24.554  24.749  1.00  0.00     0.163 HD
ATOM     76  O   UNL A   1      42.699  26.880  24.729  1.00  0.00    -0.268 OA
BRANCH  74  77
ATOM     77  C   UNL A   1      44.964  27.129  25.259  1.00  0.00     0.132 A 
ATOM     78  N   UNL A   1      45.641  27.850  24.305  1.00  0.00    -0.270 N 
ATOM     79  C   UNL A   1      45.616  27.456  26.430  1.00  0.00     0.055 A 
ATOM     80  N   UNL A   1      46.728  28.511  24.743  1.00  0.00    -0.154 NA
ATOM     81  H   UNL A   1      45.349  27.883  23.365  1.00  0.00     0.190 HD
ATOM     82  C   UNL A   1      46.709  28.305  26.059  1.00  0.00     0.181 A 
ATOM     83  C   UNL A   1      45.271  27.043  27.715  1.00  0.00     0.055 A 
ATOM     84  N   UNL A   1      47.572  28.811  26.979  1.00  0.00    -0.232 NA
ATOM     85  C   UNL A   1      46.163  27.586  28.641  1.00  0.00     0.142 A 
ATOM     86  C   UNL A   1      47.239  28.416  28.250  1.00  0.00     0.152 A 
ATOM     87  F   UNL A   1      45.994  27.312  29.942  1.00  0.00    -0.205 F 
ENDBRANCH  74  77
ENDBRANCH  72  73
ENDBRANCH  71  72
ENDBRANCH   1  71
TORSDOF 10
ENDMDL
