MODEL 1
REMARK VINA RESULT:     -14.9      0.000      0.000
REMARK SMILES Cc1cc(N2CC[NH+]([C@@H](C(=O)NCCCNC(=O)c3ccc(-c4c5nc(c(-c6c(F)c(F)c(F)c(F)c6F)c6ccc([nH]6)c(-c6c(F)c(F)c(F)c(F)c6F)c6nc(c(-c7c(F)c(F)c(F)c(F)c7F)c7ccc4[nH]7)C=C6)C=C5)cc3)c3c[nH]c4ccccc34)CC2)nc2ccccc12
REMARK SMILES IDX 14 1 13 2 12 3 10 4 11 5 9 7 8 8 5 9 6 10 92 11 7 12 91 13
REMARK SMILES IDX 4 15 1 16 2 17 3 18 99 19 94 20 98 21 93 22 95 23 97 24
REMARK SMILES IDX 96 25 82 26 83 27 90 28 84 29 85 30 89 31 86 33 88 34 87 35
REMARK SMILES IDX 15 36 16 37 17 38 18 40 19 41 20 42 81 43 21 44 80 45 22 46
REMARK SMILES IDX 23 47 24 48 74 49 25 50 79 51 73 52 75 53 26 54 78 55 72 56
REMARK SMILES IDX 71 57 27 59 59 60 39 61 58 62 40 63 43 64 57 65 76 66 41 67
REMARK SMILES IDX 42 68 56 70 77 71 44 72 28 73 29 74 37 75 30 76 31 77 35 78
REMARK SMILES IDX 38 79 32 80 33 81 36 82 34 83 60 84 61 85 69 86 62 87 63 88
REMARK SMILES IDX 67 89 70 90 64 91 65 92 68 93 66 94 45 95 46 96 54 97 47 98
REMARK SMILES IDX 48 99 52 100 55 101 49 102 50 103 53 104 51 105
REMARK H PARENT 12 6 8 14 84 32 16 39 75 58 43 69
REMARK Flexibility Score: inf
ROOT
ATOM      1  C   UNL A   1      32.205  30.782  26.004  1.00  0.00     0.042 C 
ENDROOT
BRANCH   1   2
ATOM      2  C   UNL A   1      32.763  29.340  26.126  1.00  0.00     0.118 C 
BRANCH   2   3
ATOM      3  N   UNL A   1      31.783  28.295  26.374  1.00  0.00    -0.351 N 
ATOM      4  C   UNL A   1      31.325  27.188  25.707  1.00  0.00     0.283 C 
ATOM      5  O   UNL A   1      30.613  26.485  26.431  1.00  0.00    -0.268 OA
ATOM      6  H   UNL A   1      31.333  28.413  27.241  1.00  0.00     0.163 HD
BRANCH   4   7
ATOM      7  C   UNL A   1      31.695  26.825  24.236  1.00  0.00     0.307 C 
BRANCH   7   8
ATOM      8  N   UNL A   1      33.158  26.631  23.918  1.00  0.00    -0.318 N 
ATOM      9  N   UNL A   1      34.250  23.926  24.169  1.00  0.00    -0.345 N 
ATOM     10  C   UNL A   1      33.892  24.683  25.365  1.00  0.00     0.179 C 
ATOM     11  C   UNL A   1      33.537  24.302  22.949  1.00  0.00     0.179 C 
ATOM     12  C   UNL A   1      34.048  26.169  25.012  1.00  0.00     0.284 C 
ATOM     13  C   UNL A   1      33.494  25.837  22.737  1.00  0.00     0.284 C 
ATOM     14  H   UNL A   1      33.346  27.615  23.728  1.00  0.00     0.349 HD
BRANCH   9  15
ATOM     15  C   UNL A   1      34.372  22.552  24.339  1.00  0.00     0.129 A 
ATOM     16  C   UNL A   1      37.223  20.194  24.986  1.00  0.00     0.045 C 
ATOM     17  C   UNL A   1      35.830  20.685  24.738  1.00  0.00    -0.038 A 
ATOM     18  C   UNL A   1      35.640  22.052  24.576  1.00  0.00     0.051 A 
ATOM     19  C   UNL A   1      34.712  19.830  24.653  1.00  0.00     0.003 A 
ATOM     20  C   UNL A   1      33.460  20.421  24.369  1.00  0.00     0.073 A 
ATOM     21  C   UNL A   1      34.795  18.427  24.802  1.00  0.00     0.010 A 
ATOM     22  N   UNL A   1      33.298  21.748  24.228  1.00  0.00    -0.231 NA
ATOM     23  C   UNL A   1      32.357  19.592  24.206  1.00  0.00     0.029 A 
ATOM     24  C   UNL A   1      33.674  17.618  24.625  1.00  0.00     0.001 A 
ATOM     25  C   UNL A   1      32.453  18.201  24.319  1.00  0.00     0.002 A 
ENDBRANCH   9  15
ENDBRANCH   7   8
BRANCH   7  26
ATOM     26  C   UNL A   1      31.163  27.765  23.120  1.00  0.00     0.044 A 
ATOM     27  C   UNL A   1      31.994  28.657  22.446  1.00  0.00     0.094 A 
ATOM     28  C   UNL A   1      29.809  28.240  22.868  1.00  0.00     0.009 A 
ATOM     29  N   UNL A   1      31.256  29.771  22.138  1.00  0.00    -0.361 N 
ATOM     30  C   UNL A   1      29.944  29.586  22.501  1.00  0.00     0.046 A 
ATOM     31  C   UNL A   1      28.499  27.786  23.142  1.00  0.00     0.011 A 
ATOM     32  H   UNL A   1      31.613  30.586  21.717  1.00  0.00     0.166 HD
ATOM     33  C   UNL A   1      28.897  30.514  22.614  1.00  0.00     0.026 A 
ATOM     34  C   UNL A   1      27.429  28.686  23.198  1.00  0.00     0.001 A 
ATOM     35  C   UNL A   1      27.640  30.042  22.998  1.00  0.00     0.002 A 
ENDBRANCH   7  26
ENDBRANCH   4   7
ENDBRANCH   2   3
ENDBRANCH   1   2
BRANCH   1  36
ATOM     36  C   UNL A   1      31.827  31.539  27.296  1.00  0.00     0.118 C 
BRANCH  36  37
ATOM     37  N   UNL A   1      32.259  32.929  27.251  1.00  0.00    -0.352 N 
ATOM     38  C   UNL A   1      33.396  33.550  27.687  1.00  0.00     0.251 C 
ATOM     39  H   UNL A   1      31.609  33.534  26.826  1.00  0.00     0.163 HD
ATOM     40  O   UNL A   1      33.400  34.794  27.688  1.00  0.00    -0.269 OA
BRANCH  38  41
ATOM     41  C   UNL A   1      34.629  32.851  28.141  1.00  0.00     0.039 A 
ATOM     42  C   UNL A   1      34.483  31.610  28.785  1.00  0.00     0.014 A 
ATOM     43  C   UNL A   1      35.891  33.443  28.130  1.00  0.00     0.014 A 
ATOM     44  C   UNL A   1      35.569  30.974  29.410  1.00  0.00     0.010 A 
ATOM     45  C   UNL A   1      36.980  32.791  28.742  1.00  0.00     0.010 A 
ATOM     46  C   UNL A   1      36.843  31.557  29.403  1.00  0.00    -0.014 A 
BRANCH  46  47
ATOM     47  C   UNL A   1      37.999  30.908  30.111  1.00  0.00     0.031 A 
ATOM     48  C   UNL A   1      38.327  31.246  31.549  1.00  0.00     0.074 A 
ATOM     49  C   UNL A   1      38.800  30.027  29.472  1.00  0.00     0.049 A 
ATOM     50  N   UNL A   1      39.303  30.799  32.309  1.00  0.00    -0.248 NA
ATOM     51  C   UNL A   1      37.457  32.224  32.216  1.00  0.00     0.031 C 
ATOM     52  C   UNL A   1      38.664  29.617  28.074  1.00  0.00     0.029 A 
ATOM     53  N   UNL A   1      39.912  29.338  29.908  1.00  0.00    -0.354 N 
ATOM     54  C   UNL A   1      39.160  31.438  33.536  1.00  0.00     0.074 A 
ATOM     55  C   UNL A   1      38.044  32.351  33.399  1.00  0.00     0.031 C 
ATOM     56  C   UNL A   1      39.652  28.760  27.766  1.00  0.00     0.029 A 
ATOM     57  C   UNL A   1      40.498  28.556  28.940  1.00  0.00     0.049 A 
ATOM     58  H   UNL A   1      40.255  29.399  30.829  1.00  0.00     0.167 HD
ATOM     59  C   UNL A   1      39.862  31.263  34.684  1.00  0.00     0.037 A 
ATOM     60  C   UNL A   1      41.586  27.760  28.982  1.00  0.00     0.037 A 
ATOM     61  C   UNL A   1      40.950  30.336  34.862  1.00  0.00     0.049 A 
ATOM     62  C   UNL A   1      42.354  27.582  30.267  1.00  0.00     0.074 A 
ATOM     63  C   UNL A   1      41.668  30.058  36.016  1.00  0.00     0.029 A 
ATOM     64  N   UNL A   1      41.480  29.533  33.865  1.00  0.00    -0.354 N 
ATOM     65  N   UNL A   1      42.149  28.134  31.436  1.00  0.00    -0.248 NA
ATOM     66  C   UNL A   1      43.492  26.649  30.238  1.00  0.00     0.031 C 
ATOM     67  C   UNL A   1      42.654  29.113  35.708  1.00  0.00     0.029 A 
ATOM     68  C   UNL A   1      42.523  28.772  34.374  1.00  0.00     0.049 A 
ATOM     69  H   UNL A   1      41.164  29.507  32.933  1.00  0.00     0.167 HD
ATOM     70  C   UNL A   1      43.096  27.581  32.290  1.00  0.00     0.074 A 
ATOM     71  C   UNL A   1      43.879  26.651  31.507  1.00  0.00     0.031 C 
ATOM     72  C   UNL A   1      43.288  27.822  33.610  1.00  0.00     0.037 A 
BRANCH  59  73
ATOM     73  C   UNL A   1      39.458  32.087  35.874  1.00  0.00     0.064 A 
ATOM     74  C   UNL A   1      40.019  33.351  36.112  1.00  0.00     0.173 A 
ATOM     75  C   UNL A   1      38.459  31.637  36.751  1.00  0.00     0.173 A 
ATOM     76  F   UNL A   1      40.980  33.825  35.304  1.00  0.00    -0.203 F 
ATOM     77  C   UNL A   1      39.619  34.119  37.201  1.00  0.00     0.198 A 
ATOM     78  C   UNL A   1      38.039  32.422  37.822  1.00  0.00     0.198 A 
ATOM     79  F   UNL A   1      37.879  30.443  36.559  1.00  0.00    -0.203 F 
ATOM     80  F   UNL A   1      40.202  35.304  37.435  1.00  0.00    -0.200 F 
ATOM     81  C   UNL A   1      38.625  33.657  38.052  1.00  0.00     0.200 A 
ATOM     82  F   UNL A   1      37.068  31.981  38.633  1.00  0.00    -0.200 F 
ATOM     83  F   UNL A   1      38.235  34.402  39.095  1.00  0.00    -0.200 F 
ENDBRANCH  59  73
BRANCH  60  84
ATOM     84  C   UNL A   1      42.003  27.013  27.766  1.00  0.00     0.064 A 
ATOM     85  C   UNL A   1      41.490  25.736  27.497  1.00  0.00     0.173 A 
ATOM     86  C   UNL A   1      42.942  27.544  26.870  1.00  0.00     0.173 A 
ATOM     87  F   UNL A   1      40.613  25.177  28.342  1.00  0.00    -0.203 F 
ATOM     88  C   UNL A   1      41.916  25.009  26.387  1.00  0.00     0.198 A 
ATOM     89  C   UNL A   1      43.348  26.826  25.747  1.00  0.00     0.198 A 
ATOM     90  F   UNL A   1      43.461  28.762  27.086  1.00  0.00    -0.203 F 
ATOM     91  F   UNL A   1      41.446  23.772  26.180  1.00  0.00    -0.200 F 
ATOM     92  C   UNL A   1      42.842  25.556  25.511  1.00  0.00     0.200 A 
ATOM     93  F   UNL A   1      44.237  27.359  24.899  1.00  0.00    -0.200 F 
ATOM     94  F   UNL A   1      43.252  24.856  24.446  1.00  0.00    -0.200 F 
ENDBRANCH  60  84
BRANCH  72  95
ATOM     95  C   UNL A   1      44.346  27.027  34.320  1.00  0.00     0.064 A 
ATOM     96  C   UNL A   1      45.661  27.494  34.453  1.00  0.00     0.173 A 
ATOM     97  C   UNL A   1      44.027  25.791  34.905  1.00  0.00     0.173 A 
ATOM     98  F   UNL A   1      46.022  28.661  33.899  1.00  0.00    -0.203 F 
ATOM     99  C   UNL A   1      46.623  26.744  35.127  1.00  0.00     0.198 A 
ATOM    100  C   UNL A   1      44.985  25.056  35.601  1.00  0.00     0.198 A 
ATOM    101  F   UNL A   1      42.782  25.299  34.812  1.00  0.00    -0.203 F 
ATOM    102  F   UNL A   1      47.884  27.191  35.206  1.00  0.00    -0.200 F 
ATOM    103  C   UNL A   1      46.284  25.530  35.706  1.00  0.00     0.200 A 
ATOM    104  F   UNL A   1      44.650  23.888  36.167  1.00  0.00    -0.200 F 
ATOM    105  F   UNL A   1      47.209  24.814  36.358  1.00  0.00    -0.200 F 
ENDBRANCH  72  95
ENDBRANCH  46  47
ENDBRANCH  38  41
ENDBRANCH  36  37
ENDBRANCH   1  36
TORSDOF 13
ENDMDL
MODEL 2
REMARK VINA RESULT:     -14.7      0.982      2.195
REMARK SMILES Cc1cc(N2CC[NH+]([C@@H](C(=O)NCCCNC(=O)c3ccc(-c4c5nc(c(-c6c(F)c(F)c(F)c(F)c6F)c6ccc([nH]6)c(-c6c(F)c(F)c(F)c(F)c6F)c6nc(c(-c7c(F)c(F)c(F)c(F)c7F)c7ccc4[nH]7)C=C6)C=C5)cc3)c3c[nH]c4ccccc34)CC2)nc2ccccc12
REMARK SMILES IDX 14 1 13 2 12 3 10 4 11 5 9 7 8 8 5 9 6 10 92 11 7 12 91 13
REMARK SMILES IDX 4 15 1 16 2 17 3 18 99 19 94 20 98 21 93 22 95 23 97 24
REMARK SMILES IDX 96 25 82 26 83 27 90 28 84 29 85 30 89 31 86 33 88 34 87 35
REMARK SMILES IDX 15 36 16 37 17 38 18 40 19 41 20 42 81 43 21 44 80 45 22 46
REMARK SMILES IDX 23 47 24 48 74 49 25 50 79 51 73 52 75 53 26 54 78 55 72 56
REMARK SMILES IDX 71 57 27 59 59 60 39 61 58 62 40 63 43 64 57 65 76 66 41 67
REMARK SMILES IDX 42 68 56 70 77 71 44 72 28 73 29 74 37 75 30 76 31 77 35 78
REMARK SMILES IDX 38 79 32 80 33 81 36 82 34 83 60 84 61 85 69 86 62 87 63 88
REMARK SMILES IDX 67 89 70 90 64 91 65 92 68 93 66 94 45 95 46 96 54 97 47 98
REMARK SMILES IDX 48 99 52 100 55 101 49 102 50 103 53 104 51 105
REMARK H PARENT 12 6 8 14 84 32 16 39 75 58 43 69
REMARK Flexibility Score: inf
ROOT
ATOM      1  C   UNL A   1      31.717  29.731  27.144  1.00  0.00     0.042 C 
ENDROOT
BRANCH   1   2
ATOM      2  C   UNL A   1      32.296  28.365  27.601  1.00  0.00     0.118 C 
BRANCH   2   3
ATOM      3  N   UNL A   1      32.864  27.531  26.555  1.00  0.00    -0.351 N 
ATOM      4  C   UNL A   1      32.440  27.020  25.355  1.00  0.00     0.283 C 
ATOM      5  O   UNL A   1      33.374  26.523  24.718  1.00  0.00    -0.268 OA
ATOM      6  H   UNL A   1      33.789  27.265  26.760  1.00  0.00     0.163 HD
BRANCH   4   7
ATOM      7  C   UNL A   1      30.974  27.098  24.828  1.00  0.00     0.307 C 
BRANCH   7   8
ATOM      8  N   UNL A   1      30.199  25.805  24.744  1.00  0.00    -0.318 N 
ATOM      9  N   UNL A   1      31.732  23.312  24.665  1.00  0.00    -0.345 N 
ATOM     10  C   UNL A   1      31.727  24.203  23.508  1.00  0.00     0.179 C 
ATOM     11  C   UNL A   1      31.465  23.950  25.953  1.00  0.00     0.179 C 
ATOM     12  C   UNL A   1      30.392  24.961  23.538  1.00  0.00     0.284 C 
ATOM     13  C   UNL A   1      30.248  24.910  25.899  1.00  0.00     0.284 C 
ATOM     14  H   UNL A   1      29.281  26.247  24.698  1.00  0.00     0.349 HD
BRANCH   9  15
ATOM     15  C   UNL A   1      32.767  22.386  24.710  1.00  0.00     0.129 A 
ATOM     16  C   UNL A   1      32.994  18.670  25.216  1.00  0.00     0.045 C 
ATOM     17  C   UNL A   1      33.416  20.089  24.986  1.00  0.00    -0.038 A 
ATOM     18  C   UNL A   1      32.425  21.061  24.915  1.00  0.00     0.051 A 
ATOM     19  C   UNL A   1      34.763  20.482  24.848  1.00  0.00     0.003 A 
ATOM     20  C   UNL A   1      35.024  21.861  24.680  1.00  0.00     0.073 A 
ATOM     21  C   UNL A   1      35.846  19.576  24.904  1.00  0.00     0.010 A 
ATOM     22  N   UNL A   1      34.049  22.783  24.603  1.00  0.00    -0.231 NA
ATOM     23  C   UNL A   1      36.348  22.282  24.618  1.00  0.00     0.029 A 
ATOM     24  C   UNL A   1      37.163  20.026  24.847  1.00  0.00     0.001 A 
ATOM     25  C   UNL A   1      37.415  21.384  24.710  1.00  0.00     0.002 A 
ENDBRANCH   9  15
ENDBRANCH   7   8
BRANCH   7  26
ATOM     26  C   UNL A   1      30.753  27.789  23.455  1.00  0.00     0.044 A 
ATOM     27  C   UNL A   1      31.811  28.285  22.697  1.00  0.00     0.094 A 
ATOM     28  C   UNL A   1      29.563  28.433  22.917  1.00  0.00     0.009 A 
ATOM     29  N   UNL A   1      31.366  29.397  22.028  1.00  0.00    -0.361 N 
ATOM     30  C   UNL A   1      30.022  29.577  22.250  1.00  0.00     0.046 A 
ATOM     31  C   UNL A   1      28.167  28.336  23.119  1.00  0.00     0.011 A 
ATOM     32  H   UNL A   1      31.927  29.982  21.470  1.00  0.00     0.166 HD
ATOM     33  C   UNL A   1      29.204  30.687  21.991  1.00  0.00     0.026 A 
ATOM     34  C   UNL A   1      27.324  29.409  22.809  1.00  0.00     0.001 A 
ATOM     35  C   UNL A   1      27.847  30.592  22.310  1.00  0.00     0.002 A 
ENDBRANCH   7  26
ENDBRANCH   4   7
ENDBRANCH   2   3
ENDBRANCH   1   2
BRANCH   1  36
ATOM     36  C   UNL A   1      32.574  30.624  26.221  1.00  0.00     0.118 C 
BRANCH  36  37
ATOM     37  N   UNL A   1      32.639  31.994  26.709  1.00  0.00    -0.352 N 
ATOM     38  C   UNL A   1      33.502  32.624  27.563  1.00  0.00     0.251 C 
ATOM     39  H   UNL A   1      31.928  32.577  26.358  1.00  0.00     0.163 HD
ATOM     40  O   UNL A   1      33.190  33.763  27.952  1.00  0.00    -0.269 OA
BRANCH  38  41
ATOM     41  C   UNL A   1      34.791  32.055  28.045  1.00  0.00     0.039 A 
ATOM     42  C   UNL A   1      34.772  30.767  28.608  1.00  0.00     0.014 A 
ATOM     43  C   UNL A   1      35.966  32.798  28.138  1.00  0.00     0.014 A 
ATOM     44  C   UNL A   1      35.899  30.232  29.257  1.00  0.00     0.010 A 
ATOM     45  C   UNL A   1      37.098  32.249  28.772  1.00  0.00     0.010 A 
ATOM     46  C   UNL A   1      37.087  30.968  29.354  1.00  0.00    -0.014 A 
BRANCH  46  47
ATOM     47  C   UNL A   1      38.281  30.423  30.087  1.00  0.00     0.031 A 
ATOM     48  C   UNL A   1      38.586  30.843  31.508  1.00  0.00     0.074 A 
ATOM     49  C   UNL A   1      39.136  29.566  29.486  1.00  0.00     0.049 A 
ATOM     50  N   UNL A   1      39.587  30.491  32.285  1.00  0.00    -0.248 NA
ATOM     51  C   UNL A   1      37.657  31.793  32.134  1.00  0.00     0.031 C 
ATOM     52  C   UNL A   1      39.027  29.089  28.107  1.00  0.00     0.029 A 
ATOM     53  N   UNL A   1      40.288  28.967  29.950  1.00  0.00    -0.354 N 
ATOM     54  C   UNL A   1      39.404  31.173  33.484  1.00  0.00     0.074 A 
ATOM     55  C   UNL A   1      38.233  32.008  33.309  1.00  0.00     0.031 C 
ATOM     56  C   UNL A   1      40.067  28.281  27.836  1.00  0.00     0.029 A 
ATOM     57  C   UNL A   1      40.922  28.182  29.016  1.00  0.00     0.049 A 
ATOM     58  H   UNL A   1      40.626  29.090  30.867  1.00  0.00     0.167 HD
ATOM     59  C   UNL A   1      40.114  31.092  34.637  1.00  0.00     0.037 A 
ATOM     60  C   UNL A   1      42.057  27.457  29.091  1.00  0.00     0.037 A 
ATOM     61  C   UNL A   1      41.257  30.243  34.854  1.00  0.00     0.049 A 
ATOM     62  C   UNL A   1      42.834  27.384  30.380  1.00  0.00     0.074 A 
ATOM     63  C   UNL A   1      41.990  30.060  36.017  1.00  0.00     0.029 A 
ATOM     64  N   UNL A   1      41.837  29.432  33.892  1.00  0.00    -0.354 N 
ATOM     65  N   UNL A   1      42.593  27.972  31.525  1.00  0.00    -0.248 NA
ATOM     66  C   UNL A   1      44.027  26.522  30.391  1.00  0.00     0.031 C 
ATOM     67  C   UNL A   1      43.033  29.166  35.749  1.00  0.00     0.029 A 
ATOM     68  C   UNL A   1      42.924  28.759  34.432  1.00  0.00     0.049 A 
ATOM     69  H   UNL A   1      41.524  29.346  32.962  1.00  0.00     0.167 HD
ATOM     70  C   UNL A   1      43.573  27.517  32.401  1.00  0.00     0.074 A 
ATOM     71  C   UNL A   1      44.412  26.604  31.657  1.00  0.00     0.031 C 
ATOM     72  C   UNL A   1      43.748  27.826  33.708  1.00  0.00     0.037 A 
BRANCH  59  73
ATOM     73  C   UNL A   1      39.658  31.941  35.791  1.00  0.00     0.064 A 
ATOM     74  C   UNL A   1      40.236  33.193  36.050  1.00  0.00     0.173 A 
ATOM     75  C   UNL A   1      38.596  31.527  36.609  1.00  0.00     0.173 A 
ATOM     76  F   UNL A   1      41.257  33.633  35.298  1.00  0.00    -0.203 F 
ATOM     77  C   UNL A   1      39.789  33.984  37.104  1.00  0.00     0.198 A 
ATOM     78  C   UNL A   1      38.131  32.334  37.643  1.00  0.00     0.198 A 
ATOM     79  F   UNL A   1      37.998  30.345  36.394  1.00  0.00    -0.203 F 
ATOM     80  F   UNL A   1      40.387  35.157  37.360  1.00  0.00    -0.200 F 
ATOM     81  C   UNL A   1      38.733  33.558  37.896  1.00  0.00     0.200 A 
ATOM     82  F   UNL A   1      37.100  31.929  38.397  1.00  0.00    -0.200 F 
ATOM     83  F   UNL A   1      38.298  34.325  38.905  1.00  0.00    -0.200 F 
ENDBRANCH  59  73
BRANCH  60  84
ATOM     84  C   UNL A   1      42.521  26.685  27.908  1.00  0.00     0.064 A 
ATOM     85  C   UNL A   1      43.416  27.250  26.988  1.00  0.00     0.173 A 
ATOM     86  C   UNL A   1      42.059  25.385  27.658  1.00  0.00     0.173 A 
ATOM     87  F   UNL A   1      43.861  28.501  27.172  1.00  0.00    -0.203 F 
ATOM     88  C   UNL A   1      43.815  26.552  25.850  1.00  0.00     0.198 A 
ATOM     89  C   UNL A   1      42.478  24.679  26.532  1.00  0.00     0.198 A 
ATOM     90  F   UNL A   1      41.202  24.803  28.509  1.00  0.00    -0.203 F 
ATOM     91  F   UNL A   1      44.633  27.134  24.963  1.00  0.00    -0.200 F 
ATOM     92  C   UNL A   1      43.348  25.265  25.625  1.00  0.00     0.200 A 
ATOM     93  F   UNL A   1      42.031  23.434  26.320  1.00  0.00    -0.200 F 
ATOM     94  F   UNL A   1      43.731  24.595  24.530  1.00  0.00    -0.200 F 
ENDBRANCH  60  84
BRANCH  72  95
ATOM     95  C   UNL A   1      44.852  27.130  34.451  1.00  0.00     0.064 A 
ATOM     96  C   UNL A   1      44.642  25.921  35.130  1.00  0.00     0.173 A 
ATOM     97  C   UNL A   1      46.149  27.666  34.453  1.00  0.00     0.173 A 
ATOM     98  F   UNL A   1      43.418  25.375  35.172  1.00  0.00    -0.203 F 
ATOM     99  C   UNL A   1      45.685  25.287  35.803  1.00  0.00     0.198 A 
ATOM    100  C   UNL A   1      47.195  27.016  35.105  1.00  0.00     0.198 A 
ATOM    101  F   UNL A   1      46.407  28.818  33.815  1.00  0.00    -0.203 F 
ATOM    102  F   UNL A   1      45.451  24.155  36.481  1.00  0.00    -0.200 F 
ATOM    103  C   UNL A   1      46.960  25.830  35.785  1.00  0.00     0.200 A 
ATOM    104  F   UNL A   1      48.429  27.538  35.077  1.00  0.00    -0.200 F 
ATOM    105  F   UNL A   1      47.962  25.215  36.428  1.00  0.00    -0.200 F 
ENDBRANCH  72  95
ENDBRANCH  46  47
ENDBRANCH  38  41
ENDBRANCH  36  37
ENDBRANCH   1  36
TORSDOF 13
ENDMDL
MODEL 3
REMARK VINA RESULT:     -14.6      4.308     10.661
REMARK SMILES Cc1cc(N2CC[NH+]([C@@H](C(=O)NCCCNC(=O)c3ccc(-c4c5nc(c(-c6c(F)c(F)c(F)c(F)c6F)c6ccc([nH]6)c(-c6c(F)c(F)c(F)c(F)c6F)c6nc(c(-c7c(F)c(F)c(F)c(F)c7F)c7ccc4[nH]7)C=C6)C=C5)cc3)c3c[nH]c4ccccc34)CC2)nc2ccccc12
REMARK SMILES IDX 14 1 13 2 12 3 10 4 11 5 9 7 8 8 5 9 6 10 92 11 7 12 91 13
REMARK SMILES IDX 4 15 1 16 2 17 3 18 99 19 94 20 98 21 93 22 95 23 97 24
REMARK SMILES IDX 96 25 82 26 83 27 90 28 84 29 85 30 89 31 86 33 88 34 87 35
REMARK SMILES IDX 15 36 16 37 17 38 18 40 19 41 20 42 81 43 21 44 80 45 22 46
REMARK SMILES IDX 23 47 24 48 74 49 25 50 79 51 73 52 75 53 26 54 78 55 72 56
REMARK SMILES IDX 71 57 27 59 59 60 39 61 58 62 40 63 43 64 57 65 76 66 41 67
REMARK SMILES IDX 42 68 56 70 77 71 44 72 28 73 29 74 37 75 30 76 31 77 35 78
REMARK SMILES IDX 38 79 32 80 33 81 36 82 34 83 60 84 61 85 69 86 62 87 63 88
REMARK SMILES IDX 67 89 70 90 64 91 65 92 68 93 66 94 45 95 46 96 54 97 47 98
REMARK SMILES IDX 48 99 52 100 55 101 49 102 50 103 53 104 51 105
REMARK H PARENT 12 6 8 14 84 32 16 39 75 58 43 69
REMARK Flexibility Score: inf
ROOT
ATOM      1  C   UNL A   1      37.328  20.308  25.006  1.00  0.00     0.042 C 
ENDROOT
BRANCH   1   2
ATOM      2  C   UNL A   1      36.162  21.285  25.311  1.00  0.00     0.118 C 
BRANCH   2   3
ATOM      3  N   UNL A   1      35.593  21.977  24.165  1.00  0.00    -0.351 N 
ATOM      4  C   UNL A   1      34.373  22.509  23.835  1.00  0.00     0.283 C 
ATOM      5  O   UNL A   1      34.438  23.186  22.804  1.00  0.00    -0.268 OA
ATOM      6  H   UNL A   1      36.251  22.092  23.442  1.00  0.00     0.163 HD
BRANCH   4   7
ATOM      7  C   UNL A   1      33.072  22.331  24.676  1.00  0.00     0.307 C 
BRANCH   7   8
ATOM      8  N   UNL A   1      32.959  23.130  25.952  1.00  0.00    -0.318 N 
ATOM      9  N   UNL A   1      32.027  25.897  25.738  1.00  0.00    -0.345 N 
ATOM     10  C   UNL A   1      33.358  25.535  25.259  1.00  0.00     0.179 C 
ATOM     11  C   UNL A   1      31.050  24.810  25.762  1.00  0.00     0.179 C 
ATOM     12  C   UNL A   1      33.818  24.332  26.094  1.00  0.00     0.284 C 
ATOM     13  C   UNL A   1      31.620  23.514  26.394  1.00  0.00     0.284 C 
ATOM     14  H   UNL A   1      33.317  22.392  26.559  1.00  0.00     0.349 HD
BRANCH   9  15
ATOM     15  C   UNL A   1      31.514  27.093  25.250  1.00  0.00     0.129 A 
ATOM     16  C   UNL A   1      31.905  30.719  26.149  1.00  0.00     0.045 C 
ATOM     17  C   UNL A   1      31.434  29.487  25.440  1.00  0.00    -0.038 A 
ATOM     18  C   UNL A   1      31.924  28.259  25.871  1.00  0.00     0.051 A 
ATOM     19  C   UNL A   1      30.517  29.513  24.369  1.00  0.00     0.003 A 
ATOM     20  C   UNL A   1      30.123  28.271  23.819  1.00  0.00     0.073 A 
ATOM     21  C   UNL A   1      29.959  30.705  23.854  1.00  0.00     0.010 A 
ATOM     22  N   UNL A   1      30.619  27.097  24.245  1.00  0.00    -0.231 NA
ATOM     23  C   UNL A   1      29.164  28.267  22.814  1.00  0.00     0.029 A 
ATOM     24  C   UNL A   1      28.993  30.670  22.851  1.00  0.00     0.001 A 
ATOM     25  C   UNL A   1      28.589  29.448  22.333  1.00  0.00     0.002 A 
ENDBRANCH   9  15
ENDBRANCH   7   8
BRANCH   7  26
ATOM     26  C   UNL A   1      32.680  20.882  25.074  1.00  0.00     0.044 A 
ATOM     27  C   UNL A   1      32.874  20.391  26.364  1.00  0.00     0.094 A 
ATOM     28  C   UNL A   1      32.500  19.702  24.239  1.00  0.00     0.009 A 
ATOM     29  N   UNL A   1      33.164  19.054  26.266  1.00  0.00    -0.361 N 
ATOM     30  C   UNL A   1      33.064  18.641  24.960  1.00  0.00     0.046 A 
ATOM     31  C   UNL A   1      32.169  19.446  22.890  1.00  0.00     0.011 A 
ATOM     32  H   UNL A   1      33.410  18.473  27.022  1.00  0.00     0.166 HD
ATOM     33  C   UNL A   1      33.503  17.455  24.350  1.00  0.00     0.026 A 
ATOM     34  C   UNL A   1      32.540  18.243  22.279  1.00  0.00     0.001 A 
ATOM     35  C   UNL A   1      33.255  17.288  22.986  1.00  0.00     0.002 A 
ENDBRANCH   7  26
ENDBRANCH   4   7
ENDBRANCH   2   3
ENDBRANCH   1   2
BRANCH   1  36
ATOM     36  C   UNL A   1      38.776  20.837  25.097  1.00  0.00     0.118 C 
BRANCH  36  37
ATOM     37  N   UNL A   1      39.570  20.068  26.045  1.00  0.00    -0.352 N 
ATOM     38  C   UNL A   1      40.529  20.436  26.948  1.00  0.00     0.251 C 
ATOM     39  H   UNL A   1      39.381  19.102  26.033  1.00  0.00     0.163 HD
ATOM     40  O   UNL A   1      41.181  19.526  27.489  1.00  0.00    -0.269 OA
BRANCH  38  41
ATOM     41  C   UNL A   1      40.837  21.838  27.341  1.00  0.00     0.039 A 
ATOM     42  C   UNL A   1      40.380  22.872  26.505  1.00  0.00     0.014 A 
ATOM     43  C   UNL A   1      41.704  22.167  28.382  1.00  0.00     0.014 A 
ATOM     44  C   UNL A   1      40.785  24.205  26.696  1.00  0.00     0.010 A 
ATOM     45  C   UNL A   1      42.089  23.508  28.581  1.00  0.00     0.010 A 
ATOM     46  C   UNL A   1      41.653  24.548  27.741  1.00  0.00    -0.014 A 
BRANCH  46  47
ATOM     47  C   UNL A   1      42.128  25.962  27.923  1.00  0.00     0.031 A 
ATOM     48  C   UNL A   1      43.471  26.412  27.393  1.00  0.00     0.074 A 
ATOM     49  C   UNL A   1      41.382  26.866  28.596  1.00  0.00     0.049 A 
ATOM     50  N   UNL A   1      44.052  27.589  27.481  1.00  0.00    -0.248 NA
ATOM     51  C   UNL A   1      44.276  25.407  26.685  1.00  0.00     0.031 C 
ATOM     52  C   UNL A   1      40.084  26.599  29.217  1.00  0.00     0.029 A 
ATOM     53  N   UNL A   1      41.624  28.189  28.900  1.00  0.00    -0.354 N 
ATOM     54  C   UNL A   1      45.280  27.463  26.841  1.00  0.00     0.074 A 
ATOM     55  C   UNL A   1      45.390  26.080  26.426  1.00  0.00     0.031 C 
ATOM     56  C   UNL A   1      39.649  27.713  29.830  1.00  0.00     0.029 A 
ATOM     57  C   UNL A   1      40.634  28.777  29.652  1.00  0.00     0.049 A 
ATOM     58  H   UNL A   1      42.431  28.669  28.604  1.00  0.00     0.167 HD
ATOM     59  C   UNL A   1      46.218  28.410  26.586  1.00  0.00     0.037 A 
ATOM     60  C   UNL A   1      40.520  30.028  30.144  1.00  0.00     0.037 A 
ATOM     61  C   UNL A   1      46.120  29.800  26.951  1.00  0.00     0.049 A 
ATOM     62  C   UNL A   1      41.576  31.063  29.852  1.00  0.00     0.074 A 
ATOM     63  C   UNL A   1      47.003  30.832  26.669  1.00  0.00     0.029 A 
ATOM     64  N   UNL A   1      45.079  30.359  27.674  1.00  0.00    -0.354 N 
ATOM     65  N   UNL A   1      42.688  30.941  29.174  1.00  0.00    -0.248 NA
ATOM     66  C   UNL A   1      41.342  32.419  30.377  1.00  0.00     0.031 C 
ATOM     67  C   UNL A   1      46.514  32.006  27.252  1.00  0.00     0.029 A 
ATOM     68  C   UNL A   1      45.306  31.716  27.859  1.00  0.00     0.049 A 
ATOM     69  H   UNL A   1      44.295  29.867  28.008  1.00  0.00     0.167 HD
ATOM     70  C   UNL A   1      43.261  32.208  29.149  1.00  0.00     0.074 A 
ATOM     71  C   UNL A   1      42.375  33.086  29.881  1.00  0.00     0.031 C 
ATOM     72  C   UNL A   1      44.415  32.603  28.561  1.00  0.00     0.037 A 
BRANCH  59  73
ATOM     73  C   UNL A   1      47.451  27.979  25.842  1.00  0.00     0.064 A 
ATOM     74  C   UNL A   1      48.635  27.650  26.519  1.00  0.00     0.173 A 
ATOM     75  C   UNL A   1      47.432  27.836  24.446  1.00  0.00     0.173 A 
ATOM     76  F   UNL A   1      48.705  27.771  27.854  1.00  0.00    -0.203 F 
ATOM     77  C   UNL A   1      49.763  27.224  25.825  1.00  0.00     0.198 A 
ATOM     78  C   UNL A   1      48.553  27.381  23.757  1.00  0.00     0.198 A 
ATOM     79  F   UNL A   1      46.320  28.122  23.752  1.00  0.00    -0.203 F 
ATOM     80  F   UNL A   1      50.898  26.959  26.488  1.00  0.00    -0.200 F 
ATOM     81  C   UNL A   1      49.720  27.085  24.445  1.00  0.00     0.200 A 
ATOM     82  F   UNL A   1      48.505  27.231  22.426  1.00  0.00    -0.200 F 
ATOM     83  F   UNL A   1      50.806  26.667  23.778  1.00  0.00    -0.200 F 
ENDBRANCH  59  73
BRANCH  60  84
ATOM     84  C   UNL A   1      39.321  30.404  30.939  1.00  0.00     0.064 A 
ATOM     85  C   UNL A   1      38.198  30.971  30.319  1.00  0.00     0.173 A 
ATOM     86  C   UNL A   1      39.285  30.234  32.331  1.00  0.00     0.173 A 
ATOM     87  F   UNL A   1      38.200  31.179  28.995  1.00  0.00    -0.203 F 
ATOM     88  C   UNL A   1      37.091  31.373  31.064  1.00  0.00     0.198 A 
ATOM     89  C   UNL A   1      38.168  30.615  33.071  1.00  0.00     0.198 A 
ATOM     90  F   UNL A   1      40.336  29.697  32.968  1.00  0.00    -0.203 F 
ATOM     91  F   UNL A   1      36.052  31.955  30.453  1.00  0.00    -0.200 F 
ATOM     92  C   UNL A   1      37.076  31.191  32.440  1.00  0.00     0.200 A 
ATOM     93  F   UNL A   1      38.152  30.431  34.398  1.00  0.00    -0.200 F 
ATOM     94  F   UNL A   1      36.012  31.580  33.155  1.00  0.00    -0.200 F 
ENDBRANCH  60  84
BRANCH  72  95
ATOM     95  C   UNL A   1      44.770  34.061  28.622  1.00  0.00     0.064 A 
ATOM     96  C   UNL A   1      45.610  34.579  29.619  1.00  0.00     0.173 A 
ATOM     97  C   UNL A   1      44.287  34.948  27.647  1.00  0.00     0.173 A 
ATOM     98  F   UNL A   1      46.086  33.778  30.583  1.00  0.00    -0.203 F 
ATOM     99  C   UNL A   1      45.935  35.934  29.649  1.00  0.00     0.198 A 
ATOM    100  C   UNL A   1      44.635  36.296  27.666  1.00  0.00     0.198 A 
ATOM    101  F   UNL A   1      43.483  34.505  26.668  1.00  0.00    -0.203 F 
ATOM    102  F   UNL A   1      46.705  36.414  30.635  1.00  0.00    -0.200 F 
ATOM    103  C   UNL A   1      45.454  36.790  28.670  1.00  0.00     0.200 A 
ATOM    104  F   UNL A   1      44.176  37.119  26.712  1.00  0.00    -0.200 F 
ATOM    105  F   UNL A   1      45.772  38.091  28.699  1.00  0.00    -0.200 F 
ENDBRANCH  72  95
ENDBRANCH  46  47
ENDBRANCH  38  41
ENDBRANCH  36  37
ENDBRANCH   1  36
TORSDOF 13
ENDMDL
