MODEL 1
REMARK VINA RESULT:     -12.4      0.000      0.000
REMARK SMILES CC(=O)O[C@@H]1[C@H](O)C(C)=C(CC[C@@H](C)CC(=O)NCCCNC(=O)c2ccc(-c3c4nc(c(-c5c(F)c(F)c(F)c(F)c5F)c5ccc([nH]5)c(-c5c(F)c(F)c(F)c(F)c5F)c5nc(c(-c6c(F)c(F)c(F)c(F)c6F)c6ccc3[nH]6)C=C5)C=C4)cc2)[C@@]2(C)CCCC(C)(C)[C@H]12
REMARK SMILES IDX 16 1 17 2 18 3 15 5 13 6 14 7 12 8 11 9 10 10 5 11 6 12
REMARK SMILES IDX 96 13 8 14 88 15 93 16 9 17 90 18 89 19 92 20 94 21 95 22
REMARK SMILES IDX 91 23 4 24 2 25 1 26 3 27 7 28 19 30 20 31 21 32 22 33 23 34
REMARK SMILES IDX 24 36 25 37 26 38 87 39 27 40 86 41 28 42 29 43 30 44 80 45
REMARK SMILES IDX 31 46 85 47 79 48 81 49 32 50 84 51 78 52 77 53 33 55 65 56
REMARK SMILES IDX 45 57 64 58 46 59 49 60 63 61 82 62 47 63 48 64 62 66 83 67
REMARK SMILES IDX 50 68 34 69 35 70 43 71 36 72 37 73 41 74 44 75 38 76 39 77
REMARK SMILES IDX 42 78 40 79 66 80 67 81 75 82 68 83 69 84 73 85 76 86 70 87
REMARK SMILES IDX 71 88 74 89 72 90 51 91 52 92 60 93 53 94 54 95 58 96 61 97
REMARK SMILES IDX 55 98 56 99 59 100 57 101
REMARK H PARENT 18 4 7 29 22 35 81 54 49 65
REMARK Flexibility Score: inf
ROOT
ATOM      1  C   UNL A   1      34.581  32.606  29.303  1.00  0.00     0.220 C 
ATOM      2  O   UNL A   1      34.667  31.969  30.358  1.00  0.00    -0.275 OA
ATOM      3  N   UNL A   1      34.250  33.924  29.406  1.00  0.00    -0.356 N 
ATOM      4  H   UNL A   1      34.053  34.214  30.325  1.00  0.00     0.163 HD
ENDROOT
BRANCH   1   5
ATOM      5  C   UNL A   1      34.848  31.923  27.967  1.00  0.00     0.103 C 
BRANCH   5   6
ATOM      6  C   UNL A   1      35.103  30.393  28.078  1.00  0.00    -0.005 C 
ATOM      7  C   UNL A   1      36.432  30.033  27.404  1.00  0.00     0.008 C 
BRANCH   6   8
ATOM      8  C   UNL A   1      33.964  29.589  27.422  1.00  0.00     0.008 C 
BRANCH   8   9
ATOM      9  C   UNL A   1      34.340  28.282  26.673  1.00  0.00     0.032 C 
BRANCH   9  10
ATOM     10  C   UNL A   1      33.934  27.865  25.222  1.00  0.00    -0.062 C 
ATOM     11  C   UNL A   1      30.987  27.705  24.733  1.00  0.00     0.213 C 
ATOM     12  C   UNL A   1      31.785  29.021  24.955  1.00  0.00     0.181 C 
ATOM     13  C   UNL A   1      31.794  26.535  25.399  1.00  0.00     0.049 C 
ATOM     14  C   UNL A   1      33.252  28.860  24.560  1.00  0.00    -0.042 C 
ATOM     15  C   UNL A   1      33.316  26.424  24.972  1.00  0.00    -0.004 C 
ATOM     16  C   UNL A   1      31.011  25.200  25.514  1.00  0.00    -0.028 C 
ATOM     17  C   UNL A   1      33.488  29.208  23.105  1.00  0.00     0.042 C 
ATOM     18  C   UNL A   1      33.986  25.275  25.774  1.00  0.00     0.011 C 
ATOM     19  C   UNL A   1      33.600  26.028  23.497  1.00  0.00     0.016 C 
ATOM     20  C   UNL A   1      31.817  24.229  26.382  1.00  0.00     0.007 C 
ATOM     21  C   UNL A   1      30.730  24.457  24.196  1.00  0.00     0.011 C 
ATOM     22  C   UNL A   1      29.717  25.487  26.320  1.00  0.00     0.011 C 
ATOM     23  C   UNL A   1      33.220  23.969  25.873  1.00  0.00     0.001 C 
BRANCH  11  24
ATOM     24  O   UNL A   1      30.695  27.428  23.344  1.00  0.00    -0.459 OA
BRANCH  24  25
ATOM     25  C   UNL A   1      29.692  28.141  22.755  1.00  0.00     0.303 C 
ATOM     26  C   UNL A   1      28.295  27.783  23.202  1.00  0.00     0.139 C 
ATOM     27  O   UNL A   1      29.879  28.857  21.773  1.00  0.00    -0.253 OA
ENDBRANCH  24  25
ENDBRANCH  11  24
BRANCH  12  28
ATOM     28  O   UNL A   1      31.160  30.134  24.339  1.00  0.00    -0.385 OA
ATOM     29  H   UNL A   1      30.705  29.845  23.533  1.00  0.00     0.211 HD
ENDBRANCH  12  28
ENDBRANCH   9  10
ENDBRANCH   8   9
ENDBRANCH   6   8
ENDBRANCH   5   6
ENDBRANCH   1   5
BRANCH   3  30
ATOM     30  C   UNL A   1      34.132  34.986  28.418  1.00  0.00     0.117 C 
BRANCH  30  31
ATOM     31  C   UNL A   1      33.054  36.038  28.743  1.00  0.00     0.042 C 
BRANCH  31  32
ATOM     32  C   UNL A   1      33.283  36.865  30.028  1.00  0.00     0.118 C 
BRANCH  32  33
ATOM     33  N   UNL A   1      32.421  36.447  31.126  1.00  0.00    -0.352 N 
ATOM     34  C   UNL A   1      32.545  35.606  32.205  1.00  0.00     0.251 C 
ATOM     35  H   UNL A   1      31.534  36.873  31.087  1.00  0.00     0.163 HD
ATOM     36  O   UNL A   1      31.514  35.397  32.852  1.00  0.00    -0.269 OA
BRANCH  34  37
ATOM     37  C   UNL A   1      33.787  34.916  32.669  1.00  0.00     0.039 A 
ATOM     38  C   UNL A   1      35.008  35.528  32.340  1.00  0.00     0.014 A 
ATOM     39  C   UNL A   1      33.840  33.634  33.212  1.00  0.00     0.014 A 
ATOM     40  C   UNL A   1      36.244  34.892  32.559  1.00  0.00     0.010 A 
ATOM     41  C   UNL A   1      35.091  33.010  33.469  1.00  0.00     0.010 A 
ATOM     42  C   UNL A   1      36.321  33.624  33.151  1.00  0.00    -0.014 A 
BRANCH  42  43
ATOM     43  C   UNL A   1      37.674  32.986  33.382  1.00  0.00     0.031 A 
ATOM     44  C   UNL A   1      38.472  33.245  34.646  1.00  0.00     0.074 A 
ATOM     45  C   UNL A   1      38.199  32.110  32.491  1.00  0.00     0.049 A 
ATOM     46  N   UNL A   1      39.579  32.669  35.065  1.00  0.00    -0.248 NA
ATOM     47  C   UNL A   1      37.978  34.293  35.545  1.00  0.00     0.031 C 
ATOM     48  C   UNL A   1      37.618  31.770  31.192  1.00  0.00     0.029 A 
ATOM     49  N   UNL A   1      39.334  31.323  32.552  1.00  0.00    -0.354 N 
ATOM     50  C   UNL A   1      39.904  33.283  36.271  1.00  0.00     0.074 A 
ATOM     51  C   UNL A   1      38.918  34.324  36.479  1.00  0.00     0.031 C 
ATOM     52  C   UNL A   1      38.360  30.814  30.608  1.00  0.00     0.029 A 
ATOM     53  C   UNL A   1      39.491  30.480  31.473  1.00  0.00     0.049 A 
ATOM     54  H   UNL A   1      39.974  31.362  33.299  1.00  0.00     0.167 HD
ATOM     55  C   UNL A   1      40.899  33.000  37.150  1.00  0.00     0.037 A 
ATOM     56  C   UNL A   1      40.417  29.533  31.205  1.00  0.00     0.037 A 
ATOM     57  C   UNL A   1      41.884  31.960  36.989  1.00  0.00     0.049 A 
ATOM     58  C   UNL A   1      41.516  29.234  32.195  1.00  0.00     0.074 A 
ATOM     59  C   UNL A   1      42.884  31.575  37.870  1.00  0.00     0.029 A 
ATOM     60  N   UNL A   1      42.006  31.145  35.876  1.00  0.00    -0.354 N 
ATOM     61  N   UNL A   1      41.737  29.758  33.374  1.00  0.00    -0.248 NA
ATOM     62  C   UNL A   1      42.488  28.195  31.816  1.00  0.00     0.031 C 
ATOM     63  C   UNL A   1      43.641  30.564  37.270  1.00  0.00     0.029 A 
ATOM     64  C   UNL A   1      43.078  30.278  36.038  1.00  0.00     0.049 A 
ATOM     65  H   UNL A   1      41.419  31.176  35.087  1.00  0.00     0.167 HD
ATOM     66  C   UNL A   1      42.847  29.094  33.887  1.00  0.00     0.074 A 
ATOM     67  C   UNL A   1      43.242  28.111  32.903  1.00  0.00     0.031 C 
ATOM     68  C   UNL A   1      43.480  29.289  35.070  1.00  0.00     0.037 A 
BRANCH  55  69
ATOM     69  C   UNL A   1      40.971  33.832  38.402  1.00  0.00     0.064 A 
ATOM     70  C   UNL A   1      41.806  34.957  38.487  1.00  0.00     0.173 A 
ATOM     71  C   UNL A   1      40.161  33.533  39.508  1.00  0.00     0.173 A 
ATOM     72  F   UNL A   1      42.604  35.285  37.459  1.00  0.00    -0.203 F 
ATOM     73  C   UNL A   1      41.855  35.729  39.645  1.00  0.00     0.198 A 
ATOM     74  C   UNL A   1      40.188  34.326  40.652  1.00  0.00     0.198 A 
ATOM     75  F   UNL A   1      39.333  32.478  39.476  1.00  0.00    -0.203 F 
ATOM     76  F   UNL A   1      42.700  36.766  39.721  1.00  0.00    -0.200 F 
ATOM     77  C   UNL A   1      41.042  35.417  40.724  1.00  0.00     0.200 A 
ATOM     78  F   UNL A   1      39.389  34.035  41.687  1.00  0.00    -0.200 F 
ATOM     79  F   UNL A   1      41.086  36.164  41.835  1.00  0.00    -0.200 F 
ENDBRANCH  55  69
BRANCH  56  80
ATOM     80  C   UNL A   1      40.343  28.750  29.938  1.00  0.00     0.064 A 
ATOM     81  C   UNL A   1      39.642  27.535  29.875  1.00  0.00     0.173 A 
ATOM     82  C   UNL A   1      41.014  29.171  28.781  1.00  0.00     0.173 A 
ATOM     83  F   UNL A   1      39.010  27.070  30.963  1.00  0.00    -0.203 F 
ATOM     84  C   UNL A   1      39.636  26.764  28.714  1.00  0.00     0.198 A 
ATOM     85  C   UNL A   1      40.982  28.413  27.612  1.00  0.00     0.198 A 
ATOM     86  F   UNL A   1      41.702  30.322  28.789  1.00  0.00    -0.203 F 
ATOM     87  F   UNL A   1      39.006  25.580  28.702  1.00  0.00    -0.200 F 
ATOM     88  C   UNL A   1      40.301  27.205  27.581  1.00  0.00     0.200 A 
ATOM     89  F   UNL A   1      41.616  28.849  26.515  1.00  0.00    -0.200 F 
ATOM     90  F   UNL A   1      40.295  26.464  26.466  1.00  0.00    -0.200 F 
ENDBRANCH  56  80
BRANCH  68  91
ATOM     91  C   UNL A   1      44.648  28.398  35.393  1.00  0.00     0.064 A 
ATOM     92  C   UNL A   1      44.488  27.175  36.064  1.00  0.00     0.173 A 
ATOM     93  C   UNL A   1      45.951  28.765  35.015  1.00  0.00     0.173 A 
ATOM     94  F   UNL A   1      43.268  26.778  36.458  1.00  0.00    -0.203 F 
ATOM     95  C   UNL A   1      45.586  26.376  36.378  1.00  0.00     0.198 A 
ATOM     96  C   UNL A   1      47.043  27.949  35.303  1.00  0.00     0.198 A 
ATOM     97  F   UNL A   1      46.167  29.918  34.365  1.00  0.00    -0.203 F 
ATOM     98  F   UNL A   1      45.410  25.244  37.073  1.00  0.00    -0.200 F 
ATOM     99  C   UNL A   1      46.861  26.761  35.994  1.00  0.00     0.200 A 
ATOM    100  F   UNL A   1      48.273  28.316  34.917  1.00  0.00    -0.200 F 
ATOM    101  F   UNL A   1      47.915  25.992  36.298  1.00  0.00    -0.200 F 
ENDBRANCH  68  91
ENDBRANCH  42  43
ENDBRANCH  34  37
ENDBRANCH  32  33
ENDBRANCH  31  32
ENDBRANCH  30  31
ENDBRANCH   3  30
TORSDOF 17
ENDMDL
MODEL 2
REMARK VINA RESULT:     -12.3      0.983      7.072
REMARK SMILES CC(=O)O[C@@H]1[C@H](O)C(C)=C(CC[C@@H](C)CC(=O)NCCCNC(=O)c2ccc(-c3c4nc(c(-c5c(F)c(F)c(F)c(F)c5F)c5ccc([nH]5)c(-c5c(F)c(F)c(F)c(F)c5F)c5nc(c(-c6c(F)c(F)c(F)c(F)c6F)c6ccc3[nH]6)C=C5)C=C4)cc2)[C@@]2(C)CCCC(C)(C)[C@H]12
REMARK SMILES IDX 16 1 17 2 18 3 15 5 13 6 14 7 12 8 11 9 10 10 5 11 6 12
REMARK SMILES IDX 96 13 8 14 88 15 93 16 9 17 90 18 89 19 92 20 94 21 95 22
REMARK SMILES IDX 91 23 4 24 2 25 1 26 3 27 7 28 19 30 20 31 21 32 22 33 23 34
REMARK SMILES IDX 24 36 25 37 26 38 87 39 27 40 86 41 28 42 29 43 30 44 80 45
REMARK SMILES IDX 31 46 85 47 79 48 81 49 32 50 84 51 78 52 77 53 33 55 65 56
REMARK SMILES IDX 45 57 64 58 46 59 49 60 63 61 82 62 47 63 48 64 62 66 83 67
REMARK SMILES IDX 50 68 34 69 35 70 43 71 36 72 37 73 41 74 44 75 38 76 39 77
REMARK SMILES IDX 42 78 40 79 66 80 67 81 75 82 68 83 69 84 73 85 76 86 70 87
REMARK SMILES IDX 71 88 74 89 72 90 51 91 52 92 60 93 53 94 54 95 58 96 61 97
REMARK SMILES IDX 55 98 56 99 59 100 57 101
REMARK H PARENT 18 4 7 29 22 35 81 54 49 65
REMARK Flexibility Score: inf
ROOT
ATOM      1  C   UNL A   1      35.789  32.388  28.219  1.00  0.00     0.220 C 
ATOM      2  O   UNL A   1      36.955  31.983  28.162  1.00  0.00    -0.275 OA
ATOM      3  N   UNL A   1      35.583  33.707  27.940  1.00  0.00    -0.356 N 
ATOM      4  H   UNL A   1      36.411  34.214  27.780  1.00  0.00     0.163 HD
ENDROOT
BRANCH   1   5
ATOM      5  C   UNL A   1      34.658  31.434  28.578  1.00  0.00     0.103 C 
BRANCH   5   6
ATOM      6  C   UNL A   1      33.915  30.841  27.347  1.00  0.00    -0.005 C 
ATOM      7  C   UNL A   1      32.567  31.545  27.159  1.00  0.00     0.008 C 
BRANCH   6   8
ATOM      8  C   UNL A   1      33.682  29.327  27.512  1.00  0.00     0.008 C 
BRANCH   8   9
ATOM      9  C   UNL A   1      34.430  28.371  26.544  1.00  0.00     0.032 C 
BRANCH   9  10
ATOM     10  C   UNL A   1      33.982  27.917  25.117  1.00  0.00    -0.062 C 
ATOM     11  C   UNL A   1      31.022  27.716  24.728  1.00  0.00     0.213 C 
ATOM     12  C   UNL A   1      31.813  29.044  24.894  1.00  0.00     0.181 C 
ATOM     13  C   UNL A   1      31.863  26.570  25.393  1.00  0.00     0.049 C 
ATOM     14  C   UNL A   1      33.268  28.890  24.455  1.00  0.00    -0.042 C 
ATOM     15  C   UNL A   1      33.372  26.464  24.919  1.00  0.00    -0.004 C 
ATOM     16  C   UNL A   1      31.099  25.230  25.564  1.00  0.00    -0.028 C 
ATOM     17  C   UNL A   1      33.453  29.207  22.986  1.00  0.00     0.042 C 
ATOM     18  C   UNL A   1      34.080  25.341  25.724  1.00  0.00     0.011 C 
ATOM     19  C   UNL A   1      33.612  26.038  23.445  1.00  0.00     0.016 C 
ATOM     20  C   UNL A   1      31.943  24.287  26.426  1.00  0.00     0.007 C 
ATOM     21  C   UNL A   1      30.783  24.455  24.273  1.00  0.00     0.011 C 
ATOM     22  C   UNL A   1      29.829  25.522  26.405  1.00  0.00     0.011 C 
ATOM     23  C   UNL A   1      33.331  24.030  25.878  1.00  0.00     0.001 C 
BRANCH  11  24
ATOM     24  O   UNL A   1      30.688  27.405  23.356  1.00  0.00    -0.459 OA
BRANCH  24  25
ATOM     25  C   UNL A   1      29.607  28.033  22.811  1.00  0.00     0.303 C 
ATOM     26  C   UNL A   1      28.263  27.555  23.306  1.00  0.00     0.139 C 
ATOM     27  O   UNL A   1      29.695  28.768  21.829  1.00  0.00    -0.253 OA
ENDBRANCH  24  25
ENDBRANCH  11  24
BRANCH  12  28
ATOM     28  O   UNL A   1      31.156  30.137  24.274  1.00  0.00    -0.385 OA
ATOM     29  H   UNL A   1      31.667  30.426  23.502  1.00  0.00     0.211 HD
ENDBRANCH  12  28
ENDBRANCH   9  10
ENDBRANCH   8   9
ENDBRANCH   6   8
ENDBRANCH   5   6
ENDBRANCH   1   5
BRANCH   3  30
ATOM     30  C   UNL A   1      34.373  34.510  27.834  1.00  0.00     0.117 C 
BRANCH  30  31
ATOM     31  C   UNL A   1      33.706  34.831  29.185  1.00  0.00     0.042 C 
BRANCH  31  32
ATOM     32  C   UNL A   1      33.371  36.318  29.437  1.00  0.00     0.118 C 
BRANCH  32  33
ATOM     33  N   UNL A   1      32.541  36.515  30.618  1.00  0.00    -0.352 N 
ATOM     34  C   UNL A   1      32.543  36.043  31.908  1.00  0.00     0.251 C 
ATOM     35  H   UNL A   1      31.799  37.140  30.453  1.00  0.00     0.163 HD
ATOM     36  O   UNL A   1      31.563  36.340  32.596  1.00  0.00    -0.269 OA
BRANCH  34  37
ATOM     37  C   UNL A   1      33.599  35.206  32.556  1.00  0.00     0.039 A 
ATOM     38  C   UNL A   1      34.889  35.758  32.621  1.00  0.00     0.014 A 
ATOM     39  C   UNL A   1      33.457  33.866  32.912  1.00  0.00     0.014 A 
ATOM     40  C   UNL A   1      36.002  35.005  33.042  1.00  0.00     0.010 A 
ATOM     41  C   UNL A   1      34.575  33.120  33.373  1.00  0.00     0.010 A 
ATOM     42  C   UNL A   1      35.871  33.671  33.451  1.00  0.00    -0.014 A 
BRANCH  42  43
ATOM     43  C   UNL A   1      37.093  32.905  33.911  1.00  0.00     0.031 A 
ATOM     44  C   UNL A   1      37.787  31.898  33.013  1.00  0.00     0.074 A 
ATOM     45  C   UNL A   1      37.650  33.133  35.125  1.00  0.00     0.049 A 
ATOM     46  N   UNL A   1      38.924  31.263  33.197  1.00  0.00    -0.248 NA
ATOM     47  C   UNL A   1      37.113  31.545  31.759  1.00  0.00     0.031 C 
ATOM     48  C   UNL A   1      37.106  34.018  36.156  1.00  0.00     0.029 A 
ATOM     49  N   UNL A   1      38.817  32.656  35.694  1.00  0.00    -0.354 N 
ATOM     50  C   UNL A   1      39.096  30.445  32.085  1.00  0.00     0.074 A 
ATOM     51  C   UNL A   1      37.913  30.611  31.267  1.00  0.00     0.031 C 
ATOM     52  C   UNL A   1      37.955  34.064  37.197  1.00  0.00     0.029 A 
ATOM     53  C   UNL A   1      39.099  33.194  36.931  1.00  0.00     0.049 A 
ATOM     54  H   UNL A   1      39.394  31.990  35.254  1.00  0.00     0.167 HD
ATOM     55  C   UNL A   1      40.145  29.653  31.742  1.00  0.00     0.037 A 
ATOM     56  C   UNL A   1      40.157  33.033  37.756  1.00  0.00     0.037 A 
ATOM     57  C   UNL A   1      41.348  29.479  32.517  1.00  0.00     0.049 A 
ATOM     58  C   UNL A   1      41.312  32.148  37.357  1.00  0.00     0.074 A 
ATOM     59  C   UNL A   1      42.479  28.741  32.201  1.00  0.00     0.029 A 
ATOM     60  N   UNL A   1      41.579  30.035  33.765  1.00  0.00    -0.354 N 
ATOM     61  N   UNL A   1      41.496  31.470  36.252  1.00  0.00    -0.248 NA
ATOM     62  C   UNL A   1      42.418  32.021  38.322  1.00  0.00     0.031 C 
ATOM     63  C   UNL A   1      43.371  28.809  33.276  1.00  0.00     0.029 A 
ATOM     64  C   UNL A   1      42.821  29.637  34.240  1.00  0.00     0.049 A 
ATOM     65  H   UNL A   1      40.953  30.626  34.243  1.00  0.00     0.167 HD
ATOM     66  C   UNL A   1      42.743  30.865  36.377  1.00  0.00     0.074 A 
ATOM     67  C   UNL A   1      43.285  31.275  37.653  1.00  0.00     0.031 C 
ATOM     68  C   UNL A   1      43.377  30.042  35.505  1.00  0.00     0.037 A 
BRANCH  55  69
ATOM     69  C   UNL A   1      40.050  28.907  30.439  1.00  0.00     0.064 A 
ATOM     70  C   UNL A   1      40.569  29.442  29.249  1.00  0.00     0.173 A 
ATOM     71  C   UNL A   1      39.483  27.625  30.387  1.00  0.00     0.173 A 
ATOM     72  F   UNL A   1      41.119  30.665  29.243  1.00  0.00    -0.203 F 
ATOM     73  C   UNL A   1      40.489  28.737  28.050  1.00  0.00     0.198 A 
ATOM     74  C   UNL A   1      39.434  26.909  29.193  1.00  0.00     0.198 A 
ATOM     75  F   UNL A   1      38.985  27.059  31.497  1.00  0.00    -0.203 F 
ATOM     76  F   UNL A   1      40.942  29.292  26.918  1.00  0.00    -0.200 F 
ATOM     77  C   UNL A   1      39.928  27.470  28.025  1.00  0.00     0.200 A 
ATOM     78  F   UNL A   1      38.908  25.677  29.173  1.00  0.00    -0.200 F 
ATOM     79  F   UNL A   1      39.857  26.790  26.872  1.00  0.00    -0.200 F 
ENDBRANCH  55  69
BRANCH  56  80
ATOM     80  C   UNL A   1      40.208  33.756  39.060  1.00  0.00     0.064 A 
ATOM     81  C   UNL A   1      40.949  34.940  39.206  1.00  0.00     0.173 A 
ATOM     82  C   UNL A   1      39.562  33.251  40.197  1.00  0.00     0.173 A 
ATOM     83  F   UNL A   1      41.613  35.447  38.156  1.00  0.00    -0.203 F 
ATOM     84  C   UNL A   1      41.060  35.574  40.441  1.00  0.00     0.198 A 
ATOM     85  C   UNL A   1      39.649  33.904  41.426  1.00  0.00     0.198 A 
ATOM     86  F   UNL A   1      38.845  32.122  40.114  1.00  0.00    -0.203 F 
ATOM     87  F   UNL A   1      41.822  36.671  40.563  1.00  0.00    -0.200 F 
ATOM     88  C   UNL A   1      40.406  35.060  41.550  1.00  0.00     0.200 A 
ATOM     89  F   UNL A   1      39.006  33.410  42.493  1.00  0.00    -0.200 F 
ATOM     90  F   UNL A   1      40.513  35.670  42.737  1.00  0.00    -0.200 F 
ENDBRANCH  56  80
BRANCH  68  91
ATOM     91  C   UNL A   1      44.749  29.552  35.879  1.00  0.00     0.064 A 
ATOM     92  C   UNL A   1      44.944  28.357  36.590  1.00  0.00     0.173 A 
ATOM     93  C   UNL A   1      45.892  30.281  35.509  1.00  0.00     0.173 A 
ATOM     94  F   UNL A   1      43.889  27.625  36.979  1.00  0.00    -0.203 F 
ATOM     95  C   UNL A   1      46.222  27.933  36.951  1.00  0.00     0.198 A 
ATOM     96  C   UNL A   1      47.170  29.838  35.842  1.00  0.00     0.198 A 
ATOM     97  F   UNL A   1      45.771  31.426  34.820  1.00  0.00    -0.203 F 
ATOM     98  F   UNL A   1      46.374  26.821  37.683  1.00  0.00    -0.200 F 
ATOM     99  C   UNL A   1      47.333  28.670  36.573  1.00  0.00     0.200 A 
ATOM    100  F   UNL A   1      48.244  30.544  35.463  1.00  0.00    -0.200 F 
ATOM    101  F   UNL A   1      48.561  28.262  36.921  1.00  0.00    -0.200 F 
ENDBRANCH  68  91
ENDBRANCH  42  43
ENDBRANCH  34  37
ENDBRANCH  32  33
ENDBRANCH  31  32
ENDBRANCH  30  31
ENDBRANCH   3  30
TORSDOF 17
ENDMDL
MODEL 3
REMARK VINA RESULT:     -12.1      6.014     10.947
REMARK SMILES CC(=O)O[C@@H]1[C@H](O)C(C)=C(CC[C@@H](C)CC(=O)NCCCNC(=O)c2ccc(-c3c4nc(c(-c5c(F)c(F)c(F)c(F)c5F)c5ccc([nH]5)c(-c5c(F)c(F)c(F)c(F)c5F)c5nc(c(-c6c(F)c(F)c(F)c(F)c6F)c6ccc3[nH]6)C=C5)C=C4)cc2)[C@@]2(C)CCCC(C)(C)[C@H]12
REMARK SMILES IDX 16 1 17 2 18 3 15 5 13 6 14 7 12 8 11 9 10 10 5 11 6 12
REMARK SMILES IDX 96 13 8 14 88 15 93 16 9 17 90 18 89 19 92 20 94 21 95 22
REMARK SMILES IDX 91 23 4 24 2 25 1 26 3 27 7 28 19 30 20 31 21 32 22 33 23 34
REMARK SMILES IDX 24 36 25 37 26 38 87 39 27 40 86 41 28 42 29 43 30 44 80 45
REMARK SMILES IDX 31 46 85 47 79 48 81 49 32 50 84 51 78 52 77 53 33 55 65 56
REMARK SMILES IDX 45 57 64 58 46 59 49 60 63 61 82 62 47 63 48 64 62 66 83 67
REMARK SMILES IDX 50 68 34 69 35 70 43 71 36 72 37 73 41 74 44 75 38 76 39 77
REMARK SMILES IDX 42 78 40 79 66 80 67 81 75 82 68 83 69 84 73 85 76 86 70 87
REMARK SMILES IDX 71 88 74 89 72 90 51 91 52 92 60 93 53 94 54 95 58 96 61 97
REMARK SMILES IDX 55 98 56 99 59 100 57 101
REMARK H PARENT 18 4 7 29 22 35 81 54 49 65
REMARK Flexibility Score: inf
ROOT
ATOM      1  C   UNL A   1      37.721  23.149  25.780  1.00  0.00     0.220 C 
ATOM      2  O   UNL A   1      38.178  23.861  26.680  1.00  0.00    -0.275 OA
ATOM      3  N   UNL A   1      38.066  21.830  25.804  1.00  0.00    -0.356 N 
ATOM      4  H   UNL A   1      38.705  21.599  26.516  1.00  0.00     0.163 HD
ENDROOT
BRANCH   1   5
ATOM      5  C   UNL A   1      36.809  23.744  24.714  1.00  0.00     0.103 C 
BRANCH   5   6
ATOM      6  C   UNL A   1      35.292  23.602  25.027  1.00  0.00    -0.005 C 
ATOM      7  C   UNL A   1      35.099  23.075  26.453  1.00  0.00     0.008 C 
BRANCH   6   8
ATOM      8  C   UNL A   1      34.604  22.648  24.032  1.00  0.00     0.008 C 
BRANCH   8   9
ATOM      9  C   UNL A   1      34.085  23.247  22.697  1.00  0.00     0.032 C 
BRANCH   9  10
ATOM     10  C   UNL A   1      32.761  24.045  22.462  1.00  0.00    -0.062 C 
ATOM     11  C   UNL A   1      32.692  26.767  23.700  1.00  0.00     0.213 C 
ATOM     12  C   UNL A   1      33.568  26.364  22.481  1.00  0.00     0.181 C 
ATOM     13  C   UNL A   1      32.371  25.465  24.514  1.00  0.00     0.049 C 
ATOM     14  C   UNL A   1      32.960  25.187  21.719  1.00  0.00    -0.042 C 
ATOM     15  C   UNL A   1      31.761  24.266  23.676  1.00  0.00    -0.004 C 
ATOM     16  C   UNL A   1      31.742  25.719  25.910  1.00  0.00    -0.028 C 
ATOM     17  C   UNL A   1      32.019  25.646  20.626  1.00  0.00     0.042 C 
ATOM     18  C   UNL A   1      31.578  23.037  24.606  1.00  0.00     0.011 C 
ATOM     19  C   UNL A   1      30.337  24.476  23.093  1.00  0.00     0.016 C 
ATOM     20  C   UNL A   1      31.701  24.396  26.680  1.00  0.00     0.007 C 
ATOM     21  C   UNL A   1      30.303  26.262  25.921  1.00  0.00     0.011 C 
ATOM     22  C   UNL A   1      32.722  26.621  26.705  1.00  0.00     0.011 C 
ATOM     23  C   UNL A   1      30.952  23.291  25.964  1.00  0.00     0.001 C 
BRANCH  11  24
ATOM     24  O   UNL A   1      31.488  27.482  23.342  1.00  0.00    -0.459 OA
BRANCH  24  25
ATOM     25  C   UNL A   1      31.389  28.787  23.728  1.00  0.00     0.303 C 
ATOM     26  C   UNL A   1      32.601  29.347  24.432  1.00  0.00     0.139 C 
ATOM     27  O   UNL A   1      30.323  29.400  23.717  1.00  0.00    -0.253 OA
ENDBRANCH  24  25
ENDBRANCH  11  24
BRANCH  12  28
ATOM     28  O   UNL A   1      33.868  27.471  21.649  1.00  0.00    -0.385 OA
ATOM     29  H   UNL A   1      34.825  27.516  21.502  1.00  0.00     0.211 HD
ENDBRANCH  12  28
ENDBRANCH   9  10
ENDBRANCH   8   9
ENDBRANCH   6   8
ENDBRANCH   5   6
ENDBRANCH   1   5
BRANCH   3  30
ATOM     30  C   UNL A   1      37.673  20.698  24.978  1.00  0.00     0.117 C 
BRANCH  30  31
ATOM     31  C   UNL A   1      38.674  19.528  24.989  1.00  0.00     0.042 C 
BRANCH  31  32
ATOM     32  C   UNL A   1      39.603  19.445  26.221  1.00  0.00     0.118 C 
BRANCH  32  33
ATOM     33  N   UNL A   1      40.876  18.801  25.924  1.00  0.00    -0.352 N 
ATOM     34  C   UNL A   1      42.188  19.202  25.867  1.00  0.00     0.251 C 
ATOM     35  H   UNL A   1      40.770  17.845  25.713  1.00  0.00     0.163 HD
ATOM     36  O   UNL A   1      42.991  18.374  25.426  1.00  0.00    -0.269 OA
BRANCH  34  37
ATOM     37  C   UNL A   1      42.740  20.530  26.273  1.00  0.00     0.039 A 
ATOM     38  C   UNL A   1      42.452  20.960  27.579  1.00  0.00     0.014 A 
ATOM     39  C   UNL A   1      43.333  21.452  25.412  1.00  0.00     0.014 A 
ATOM     40  C   UNL A   1      42.759  22.261  28.021  1.00  0.00     0.010 A 
ATOM     41  C   UNL A   1      43.677  22.752  25.872  1.00  0.00     0.010 A 
ATOM     42  C   UNL A   1      43.400  23.186  27.186  1.00  0.00    -0.014 A 
BRANCH  42  43
ATOM     43  C   UNL A   1      43.724  24.569  27.710  1.00  0.00     0.031 A 
ATOM     44  C   UNL A   1      45.150  25.081  27.779  1.00  0.00     0.074 A 
ATOM     45  C   UNL A   1      42.743  25.426  28.084  1.00  0.00     0.049 A 
ATOM     46  N   UNL A   1      45.589  26.288  28.066  1.00  0.00    -0.248 NA
ATOM     47  C   UNL A   1      46.221  24.115  27.510  1.00  0.00     0.031 C 
ATOM     48  C   UNL A   1      41.317  25.109  28.145  1.00  0.00     0.029 A 
ATOM     49  N   UNL A   1      42.794  26.755  28.463  1.00  0.00    -0.354 N 
ATOM     50  C   UNL A   1      46.978  26.220  28.008  1.00  0.00     0.074 A 
ATOM     51  C   UNL A   1      47.309  24.839  27.728  1.00  0.00     0.031 C 
ATOM     52  C   UNL A   1      40.628  26.213  28.480  1.00  0.00     0.029 A 
ATOM     53  C   UNL A   1      41.558  27.322  28.686  1.00  0.00     0.049 A 
ATOM     54  H   UNL A   1      43.638  27.251  28.566  1.00  0.00     0.167 HD
ATOM     55  C   UNL A   1      47.902  27.207  28.135  1.00  0.00     0.037 A 
ATOM     56  C   UNL A   1      41.197  28.586  29.000  1.00  0.00     0.037 A 
ATOM     57  C   UNL A   1      47.611  28.596  28.391  1.00  0.00     0.049 A 
ATOM     58  C   UNL A   1      42.240  29.668  29.137  1.00  0.00     0.074 A 
ATOM     59  C   UNL A   1      48.494  29.662  28.469  1.00  0.00     0.029 A 
ATOM     60  N   UNL A   1      46.347  29.115  28.620  1.00  0.00    -0.354 N 
ATOM     61  N   UNL A   1      43.537  29.598  28.973  1.00  0.00    -0.248 NA
ATOM     62  C   UNL A   1      41.759  31.015  29.492  1.00  0.00     0.031 C 
ATOM     63  C   UNL A   1      47.773  30.815  28.796  1.00  0.00     0.029 A 
ATOM     64  C   UNL A   1      46.431  30.479  28.863  1.00  0.00     0.049 A 
ATOM     65  H   UNL A   1      45.513  28.593  28.610  1.00  0.00     0.167 HD
ATOM     66  C   UNL A   1      44.019  30.888  29.172  1.00  0.00     0.074 A 
ATOM     67  C   UNL A   1      42.875  31.728  29.445  1.00  0.00     0.031 C 
ATOM     68  C   UNL A   1      45.301  31.330  29.131  1.00  0.00     0.037 A 
BRANCH  55  69
ATOM     69  C   UNL A   1      49.348  26.822  27.983  1.00  0.00     0.064 A 
ATOM     70  C   UNL A   1      50.155  26.548  29.099  1.00  0.00     0.173 A 
ATOM     71  C   UNL A   1      49.921  26.673  26.710  1.00  0.00     0.173 A 
ATOM     72  F   UNL A   1      49.658  26.678  30.339  1.00  0.00    -0.203 F 
ATOM     73  C   UNL A   1      51.489  26.178  28.948  1.00  0.00     0.198 A 
ATOM     74  C   UNL A   1      51.246  26.271  26.562  1.00  0.00     0.198 A 
ATOM     75  F   UNL A   1      49.191  26.907  25.609  1.00  0.00    -0.203 F 
ATOM     76  F   UNL A   1      52.253  25.975  30.030  1.00  0.00    -0.200 F 
ATOM     77  C   UNL A   1      52.031  26.034  27.680  1.00  0.00     0.200 A 
ATOM     78  F   UNL A   1      51.764  26.114  25.336  1.00  0.00    -0.200 F 
ATOM     79  F   UNL A   1      53.313  25.671  27.535  1.00  0.00    -0.200 F 
ENDBRANCH  55  69
BRANCH  56  80
ATOM     80  C   UNL A   1      39.758  28.932  29.182  1.00  0.00     0.064 A 
ATOM     81  C   UNL A   1      39.140  28.830  30.438  1.00  0.00     0.173 A 
ATOM     82  C   UNL A   1      38.960  29.319  28.096  1.00  0.00     0.173 A 
ATOM     83  F   UNL A   1      39.852  28.432  31.504  1.00  0.00    -0.203 F 
ATOM     84  C   UNL A   1      37.778  29.079  30.596  1.00  0.00     0.198 A 
ATOM     85  C   UNL A   1      37.603  29.597  28.261  1.00  0.00     0.198 A 
ATOM     86  F   UNL A   1      39.499  29.427  26.874  1.00  0.00    -0.203 F 
ATOM     87  F   UNL A   1      37.204  28.917  31.796  1.00  0.00    -0.200 F 
ATOM     88  C   UNL A   1      37.011  29.467  29.508  1.00  0.00     0.200 A 
ATOM     89  F   UNL A   1      36.867  29.983  27.210  1.00  0.00    -0.200 F 
ATOM     90  F   UNL A   1      35.702  29.706  29.659  1.00  0.00    -0.200 F 
ENDBRANCH  56  80
BRANCH  68  91
ATOM     91  C   UNL A   1      45.541  32.799  29.352  1.00  0.00     0.064 A 
ATOM     92  C   UNL A   1      45.803  33.326  30.626  1.00  0.00     0.173 A 
ATOM     93  C   UNL A   1      45.522  33.695  28.270  1.00  0.00     0.173 A 
ATOM     94  F   UNL A   1      45.824  32.519  31.698  1.00  0.00    -0.203 F 
ATOM     95  C   UNL A   1      45.997  34.694  30.815  1.00  0.00     0.198 A 
ATOM     96  C   UNL A   1      45.748  35.057  28.457  1.00  0.00     0.198 A 
ATOM     97  F   UNL A   1      45.285  33.250  27.027  1.00  0.00    -0.203 F 
ATOM     98  F   UNL A   1      46.184  35.177  32.051  1.00  0.00    -0.200 F 
ATOM     99  C   UNL A   1      45.973  35.557  29.731  1.00  0.00     0.200 A 
ATOM    100  F   UNL A   1      45.740  35.888  27.405  1.00  0.00    -0.200 F 
ATOM    101  F   UNL A   1      46.159  36.871  29.914  1.00  0.00    -0.200 F 
ENDBRANCH  68  91
ENDBRANCH  42  43
ENDBRANCH  34  37
ENDBRANCH  32  33
ENDBRANCH  31  32
ENDBRANCH  30  31
ENDBRANCH   3  30
TORSDOF 17
ENDMDL
