MODEL 1
REMARK VINA RESULT:     -12.5      0.000      0.000
REMARK SMILES O=C(NCCCNC(=O)[C@@H](NC(=O)[C@H]1CC[C@@H]2CCCC[C@H]2[NH2+]1)C1CC1)c1ccc(-c2c3nc(c(-c4c(F)c(F)c(F)c(F)c4F)c4ccc([nH]4)c(-c4c(F)c(F)c(F)c(F)c4F)c4nc(c(-c5c(F)c(F)c(F)c(F)c5F)c5ccc2[nH]5)C=C4)C=C3)cc1
REMARK SMILES IDX 5 1 4 2 3 3 1 4 2 5 27 7 28 8 89 9 29 10 88 11 30 12 31 13
REMARK SMILES IDX 32 14 82 15 33 16 87 17 81 18 83 19 34 20 86 21 80 22 79 23
REMARK SMILES IDX 35 25 67 26 47 27 66 28 48 29 51 30 65 31 84 32 49 33 50 34
REMARK SMILES IDX 64 36 85 37 52 38 36 39 37 40 45 41 38 42 39 43 43 44 46 45
REMARK SMILES IDX 40 46 41 47 44 48 42 49 68 50 69 51 77 52 70 53 71 54 75 55
REMARK SMILES IDX 78 56 72 57 73 58 76 59 74 60 53 61 54 62 62 63 55 64 56 65
REMARK SMILES IDX 60 66 63 67 57 68 58 69 61 70 59 71 6 72 7 73 8 74 9 76
REMARK SMILES IDX 10 77 11 78 12 79 13 81 14 82 15 83 23 84 16 85 22 86 17 89
REMARK SMILES IDX 21 90 18 91 20 92 19 93 24 94 25 95 26 96
REMARK H PARENT 3 6 83 24 51 35 7 75 11 80 23 87 23 88
REMARK Flexibility Score: inf
ROOT
ATOM      1  C   UNL A   1      31.548  32.059  26.874  1.00  0.00     0.042 C 
ENDROOT
BRANCH   1   2
ATOM      2  C   UNL A   1      32.804  32.889  27.063  1.00  0.00     0.118 C 
BRANCH   2   3
ATOM      3  N   UNL A   1      32.522  34.206  27.628  1.00  0.00    -0.352 N 
ATOM      4  O   UNL A   1      32.583  35.852  29.169  1.00  0.00    -0.269 OA
ATOM      5  C   UNL A   1      33.068  34.812  28.732  1.00  0.00     0.251 C 
ATOM      6  H   UNL A   1      31.844  34.734  27.147  1.00  0.00     0.163 HD
BRANCH   5   7
ATOM      7  C   UNL A   1      34.231  34.197  29.402  1.00  0.00     0.039 A 
ATOM      8  C   UNL A   1      35.525  34.527  28.999  1.00  0.00     0.014 A 
ATOM      9  C   UNL A   1      34.028  33.275  30.434  1.00  0.00     0.014 A 
ATOM     10  C   UNL A   1      36.604  33.818  29.503  1.00  0.00     0.010 A 
ATOM     11  C   UNL A   1      35.127  32.643  31.021  1.00  0.00     0.010 A 
ATOM     12  C   UNL A   1      36.420  32.888  30.539  1.00  0.00    -0.014 A 
BRANCH  12  13
ATOM     13  C   UNL A   1      37.620  32.254  31.136  1.00  0.00     0.031 A 
ATOM     14  C   UNL A   1      38.072  32.586  32.529  1.00  0.00     0.074 A 
ATOM     15  C   UNL A   1      38.264  31.315  30.415  1.00  0.00     0.049 A 
ATOM     16  N   UNL A   1      39.070  32.080  33.210  1.00  0.00    -0.248 NA
ATOM     17  C   UNL A   1      37.317  33.620  33.250  1.00  0.00     0.031 C 
ATOM     18  C   UNL A   1      37.917  30.927  29.044  1.00  0.00     0.029 A 
ATOM     19  N   UNL A   1      39.313  30.494  30.735  1.00  0.00    -0.354 N 
ATOM     20  C   UNL A   1      39.069  32.740  34.432  1.00  0.00     0.074 A 
ATOM     21  C   UNL A   1      37.991  33.706  34.389  1.00  0.00     0.031 C 
ATOM     22  C   UNL A   1      38.695  29.905  28.664  1.00  0.00     0.029 A 
ATOM     23  C   UNL A   1      39.640  29.612  29.734  1.00  0.00     0.049 A 
ATOM     24  H   UNL A   1      39.785  30.532  31.597  1.00  0.00     0.167 HD
ATOM     25  C   UNL A   1      39.888  32.546  35.494  1.00  0.00     0.037 A 
ATOM     26  C   UNL A   1      40.606  28.678  29.677  1.00  0.00     0.037 A 
ATOM     27  C   UNL A   1      40.953  31.574  35.529  1.00  0.00     0.049 A 
ATOM     28  C   UNL A   1      41.500  28.492  30.867  1.00  0.00     0.074 A 
ATOM     29  C   UNL A   1      41.841  31.300  36.555  1.00  0.00     0.029 A 
ATOM     30  N   UNL A   1      41.270  30.712  34.488  1.00  0.00    -0.354 N 
ATOM     31  N   UNL A   1      41.482  29.116  32.019  1.00  0.00    -0.248 NA
ATOM     32  C   UNL A   1      42.549  27.472  30.750  1.00  0.00     0.031 C 
ATOM     33  C   UNL A   1      42.716  30.297  36.124  1.00  0.00     0.029 A 
ATOM     34  C   UNL A   1      42.346  29.913  34.846  1.00  0.00     0.049 A 
ATOM     35  H   UNL A   1      40.800  30.673  33.625  1.00  0.00     0.167 HD
ATOM     36  C   UNL A   1      42.510  28.565  32.767  1.00  0.00     0.074 A 
ATOM     37  C   UNL A   1      43.110  27.529  31.950  1.00  0.00     0.031 C 
ATOM     38  C   UNL A   1      42.929  28.892  34.014  1.00  0.00     0.037 A 
BRANCH  25  39
ATOM     39  C   UNL A   1      39.675  33.404  36.707  1.00  0.00     0.064 A 
ATOM     40  C   UNL A   1      40.307  34.649  36.846  1.00  0.00     0.173 A 
ATOM     41  C   UNL A   1      38.784  33.006  37.715  1.00  0.00     0.173 A 
ATOM     42  F   UNL A   1      41.175  35.072  35.915  1.00  0.00    -0.203 F 
ATOM     43  C   UNL A   1      40.068  35.456  37.957  1.00  0.00     0.198 A 
ATOM     44  C   UNL A   1      38.528  33.826  38.811  1.00  0.00     0.198 A 
ATOM     45  F   UNL A   1      38.147  31.828  37.628  1.00  0.00    -0.203 F 
ATOM     46  F   UNL A   1      40.709  36.625  38.084  1.00  0.00    -0.200 F 
ATOM     47  C   UNL A   1      39.172  35.046  38.934  1.00  0.00     0.200 A 
ATOM     48  F   UNL A   1      37.653  33.435  39.749  1.00  0.00    -0.200 F 
ATOM     49  F   UNL A   1      38.934  35.829  39.996  1.00  0.00    -0.200 F 
ENDBRANCH  25  39
BRANCH  26  50
ATOM     50  C   UNL A   1      40.776  27.866  28.445  1.00  0.00     0.064 A 
ATOM     51  C   UNL A   1      41.591  28.305  27.393  1.00  0.00     0.173 A 
ATOM     52  C   UNL A   1      40.135  26.627  28.303  1.00  0.00     0.173 A 
ATOM     53  F   UNL A   1      42.213  29.490  27.477  1.00  0.00    -0.203 F 
ATOM     54  C   UNL A   1      41.742  27.543  26.236  1.00  0.00     0.198 A 
ATOM     55  C   UNL A   1      40.313  25.851  27.161  1.00  0.00     0.198 A 
ATOM     56  F   UNL A   1      39.352  26.157  29.285  1.00  0.00    -0.203 F 
ATOM     57  F   UNL A   1      42.490  28.005  25.225  1.00  0.00    -0.200 F 
ATOM     58  C   UNL A   1      41.108  26.314  26.124  1.00  0.00     0.200 A 
ATOM     59  F   UNL A   1      39.716  24.655  27.065  1.00  0.00    -0.200 F 
ATOM     60  F   UNL A   1      41.260  25.579  25.014  1.00  0.00    -0.200 F 
ENDBRANCH  26  50
BRANCH  38  61
ATOM     61  C   UNL A   1      44.079  28.104  34.565  1.00  0.00     0.064 A 
ATOM     62  C   UNL A   1      45.405  28.530  34.398  1.00  0.00     0.173 A 
ATOM     63  C   UNL A   1      43.853  26.915  35.274  1.00  0.00     0.173 A 
ATOM     64  F   UNL A   1      45.672  29.651  33.711  1.00  0.00    -0.203 F 
ATOM     65  C   UNL A   1      46.465  27.776  34.891  1.00  0.00     0.198 A 
ATOM     66  C   UNL A   1      44.914  26.179  35.791  1.00  0.00     0.198 A 
ATOM     67  F   UNL A   1      42.602  26.468  35.465  1.00  0.00    -0.203 F 
ATOM     68  F   UNL A   1      47.726  28.171  34.669  1.00  0.00    -0.200 F 
ATOM     69  C   UNL A   1      46.219  26.604  35.591  1.00  0.00     0.200 A 
ATOM     70  F   UNL A   1      44.675  25.051  36.475  1.00  0.00    -0.200 F 
ATOM     71  F   UNL A   1      47.241  25.877  36.062  1.00  0.00    -0.200 F 
ENDBRANCH  38  61
ENDBRANCH  12  13
ENDBRANCH   5   7
ENDBRANCH   2   3
ENDBRANCH   1   2
BRANCH   1  72
ATOM     72  C   UNL A   1      31.828  30.569  26.874  1.00  0.00     0.117 C 
BRANCH  72  73
ATOM     73  N   UNL A   1      33.214  30.260  27.185  1.00  0.00    -0.354 N 
ATOM     74  C   UNL A   1      33.987  29.208  26.756  1.00  0.00     0.242 C 
ATOM     75  H   UNL A   1      33.664  30.894  27.790  1.00  0.00     0.163 HD
ATOM     76  O   UNL A   1      35.166  29.168  27.113  1.00  0.00    -0.273 OA
BRANCH  74  77
ATOM     77  C   UNL A   1      33.374  28.122  25.824  1.00  0.00     0.174 C 
BRANCH  77  78
ATOM     78  N   UNL A   1      33.910  28.430  24.488  1.00  0.00    -0.339 N 
ATOM     79  C   UNL A   1      33.479  28.650  23.224  1.00  0.00     0.278 C 
ATOM     80  H   UNL A   1      34.892  28.498  24.526  1.00  0.00     0.164 HD
ATOM     81  O   UNL A   1      34.362  28.797  22.373  1.00  0.00    -0.268 OA
BRANCH  79  82
ATOM     82  C   UNL A   1      31.994  28.674  22.873  1.00  0.00     0.272 C 
ATOM     83  C   UNL A   1      31.340  27.345  23.244  1.00  0.00     0.076 C 
ATOM     84  N   UNL A   1      31.287  29.746  23.613  1.00  0.00    -0.333 N 
ATOM     85  C   UNL A   1      29.895  27.338  22.752  1.00  0.00     0.016 C 
ATOM     86  C   UNL A   1      29.911  29.867  23.132  1.00  0.00     0.186 C 
ATOM     87  H   UNL A   1      31.773  30.631  23.470  1.00  0.00     0.347 HD
ATOM     88  H   UNL A   1      31.274  29.512  24.605  1.00  0.00     0.347 HD
ATOM     89  C   UNL A   1      29.133  28.544  23.313  1.00  0.00     0.048 C 
ATOM     90  C   UNL A   1      29.166  30.985  23.875  1.00  0.00     0.065 C 
ATOM     91  C   UNL A   1      27.753  28.686  22.663  1.00  0.00     0.010 C 
ATOM     92  C   UNL A   1      27.748  31.146  23.321  1.00  0.00     0.006 C 
ATOM     93  C   UNL A   1      26.967  29.831  23.301  1.00  0.00     0.001 C 
ENDBRANCH  79  82
ENDBRANCH  77  78
BRANCH  77  94
ATOM     94  C   UNL A   1      33.548  26.759  26.447  1.00  0.00     0.021 C 
ATOM     95  C   UNL A   1      32.367  25.810  26.379  1.00  0.00     0.006 C 
ATOM     96  C   UNL A   1      33.653  25.445  25.714  1.00  0.00     0.006 C 
ENDBRANCH  77  94
ENDBRANCH  74  77
ENDBRANCH  72  73
ENDBRANCH   1  72
TORSDOF 13
ENDMDL
MODEL 2
REMARK VINA RESULT:     -12.5      0.152      2.022
REMARK SMILES O=C(NCCCNC(=O)[C@@H](NC(=O)[C@H]1CC[C@@H]2CCCC[C@H]2[NH2+]1)C1CC1)c1ccc(-c2c3nc(c(-c4c(F)c(F)c(F)c(F)c4F)c4ccc([nH]4)c(-c4c(F)c(F)c(F)c(F)c4F)c4nc(c(-c5c(F)c(F)c(F)c(F)c5F)c5ccc2[nH]5)C=C4)C=C3)cc1
REMARK SMILES IDX 5 1 4 2 3 3 1 4 2 5 27 7 28 8 89 9 29 10 88 11 30 12 31 13
REMARK SMILES IDX 32 14 82 15 33 16 87 17 81 18 83 19 34 20 86 21 80 22 79 23
REMARK SMILES IDX 35 25 67 26 47 27 66 28 48 29 51 30 65 31 84 32 49 33 50 34
REMARK SMILES IDX 64 36 85 37 52 38 36 39 37 40 45 41 38 42 39 43 43 44 46 45
REMARK SMILES IDX 40 46 41 47 44 48 42 49 68 50 69 51 77 52 70 53 71 54 75 55
REMARK SMILES IDX 78 56 72 57 73 58 76 59 74 60 53 61 54 62 62 63 55 64 56 65
REMARK SMILES IDX 60 66 63 67 57 68 58 69 61 70 59 71 6 72 7 73 8 74 9 76
REMARK SMILES IDX 10 77 11 78 12 79 13 81 14 82 15 83 23 84 16 85 22 86 17 89
REMARK SMILES IDX 21 90 18 91 20 92 19 93 24 94 25 95 26 96
REMARK H PARENT 3 6 83 24 51 35 7 75 11 80 23 87 23 88
REMARK Flexibility Score: inf
ROOT
ATOM      1  C   UNL A   1      31.465  31.995  26.846  1.00  0.00     0.042 C 
ENDROOT
BRANCH   1   2
ATOM      2  C   UNL A   1      32.677  32.904  26.893  1.00  0.00     0.118 C 
BRANCH   2   3
ATOM      3  N   UNL A   1      32.404  34.163  27.579  1.00  0.00    -0.352 N 
ATOM      4  O   UNL A   1      32.526  35.683  29.243  1.00  0.00    -0.269 OA
ATOM      5  C   UNL A   1      33.005  34.694  28.695  1.00  0.00     0.251 C 
ATOM      6  H   UNL A   1      31.686  34.711  27.186  1.00  0.00     0.163 HD
BRANCH   5   7
ATOM      7  C   UNL A   1      34.220  34.058  29.240  1.00  0.00     0.039 A 
ATOM      8  C   UNL A   1      34.110  32.984  30.123  1.00  0.00     0.014 A 
ATOM      9  C   UNL A   1      35.479  34.542  28.874  1.00  0.00     0.014 A 
ATOM     10  C   UNL A   1      35.239  32.507  30.770  1.00  0.00     0.010 A 
ATOM     11  C   UNL A   1      36.627  33.982  29.442  1.00  0.00     0.010 A 
ATOM     12  C   UNL A   1      36.512  32.981  30.417  1.00  0.00    -0.014 A 
BRANCH  12  13
ATOM     13  C   UNL A   1      37.699  32.345  31.040  1.00  0.00     0.031 A 
ATOM     14  C   UNL A   1      38.130  32.689  32.436  1.00  0.00     0.074 A 
ATOM     15  C   UNL A   1      38.347  31.395  30.338  1.00  0.00     0.049 A 
ATOM     16  N   UNL A   1      39.114  32.184  33.138  1.00  0.00    -0.248 NA
ATOM     17  C   UNL A   1      37.370  33.735  33.134  1.00  0.00     0.031 C 
ATOM     18  C   UNL A   1      38.020  30.995  28.966  1.00  0.00     0.029 A 
ATOM     19  N   UNL A   1      39.386  30.571  30.683  1.00  0.00    -0.354 N 
ATOM     20  C   UNL A   1      39.097  32.856  34.353  1.00  0.00     0.074 A 
ATOM     21  C   UNL A   1      38.027  33.828  34.283  1.00  0.00     0.031 C 
ATOM     22  C   UNL A   1      38.797  29.964  28.609  1.00  0.00     0.029 A 
ATOM     23  C   UNL A   1      39.723  29.676  29.697  1.00  0.00     0.049 A 
ATOM     24  H   UNL A   1      39.844  30.614  31.553  1.00  0.00     0.167 HD
ATOM     25  C   UNL A   1      39.899  32.668  35.430  1.00  0.00     0.037 A 
ATOM     26  C   UNL A   1      40.684  28.736  29.665  1.00  0.00     0.037 A 
ATOM     27  C   UNL A   1      40.956  31.690  35.492  1.00  0.00     0.049 A 
ATOM     28  C   UNL A   1      41.558  28.557  30.871  1.00  0.00     0.074 A 
ATOM     29  C   UNL A   1      41.826  31.422  36.535  1.00  0.00     0.029 A 
ATOM     30  N   UNL A   1      41.284  30.815  34.465  1.00  0.00    -0.354 N 
ATOM     31  N   UNL A   1      41.525  29.193  32.016  1.00  0.00    -0.248 NA
ATOM     32  C   UNL A   1      42.602  27.529  30.781  1.00  0.00     0.031 C 
ATOM     33  C   UNL A   1      42.701  30.409  36.128  1.00  0.00     0.029 A 
ATOM     34  C   UNL A   1      42.349  30.013  34.848  1.00  0.00     0.049 A 
ATOM     35  H   UNL A   1      40.828  30.771  33.595  1.00  0.00     0.167 HD
ATOM     36  C   UNL A   1      42.537  28.643  32.787  1.00  0.00     0.074 A 
ATOM     37  C   UNL A   1      43.143  27.594  31.990  1.00  0.00     0.031 C 
ATOM     38  C   UNL A   1      42.939  28.980  34.036  1.00  0.00     0.037 A 
BRANCH  25  39
ATOM     39  C   UNL A   1      39.671  33.540  36.630  1.00  0.00     0.064 A 
ATOM     40  C   UNL A   1      38.812  33.150  37.669  1.00  0.00     0.173 A 
ATOM     41  C   UNL A   1      40.363  34.752  36.773  1.00  0.00     0.173 A 
ATOM     42  F   UNL A   1      38.120  32.005  37.577  1.00  0.00    -0.203 F 
ATOM     43  C   UNL A   1      38.642  33.949  38.798  1.00  0.00     0.198 A 
ATOM     44  C   UNL A   1      40.210  35.536  37.914  1.00  0.00     0.198 A 
ATOM     45  F   UNL A   1      41.203  35.170  35.813  1.00  0.00    -0.203 F 
ATOM     46  F   UNL A   1      37.790  33.572  39.762  1.00  0.00    -0.200 F 
ATOM     47  C   UNL A   1      39.347  35.137  38.923  1.00  0.00     0.200 A 
ATOM     48  F   UNL A   1      40.901  36.677  38.040  1.00  0.00    -0.200 F 
ATOM     49  F   UNL A   1      39.191  35.898  40.015  1.00  0.00    -0.200 F 
ENDBRANCH  25  39
BRANCH  26  50
ATOM     50  C   UNL A   1      40.869  27.910  28.445  1.00  0.00     0.064 A 
ATOM     51  C   UNL A   1      40.227  26.673  28.300  1.00  0.00     0.173 A 
ATOM     52  C   UNL A   1      41.684  28.352  27.391  1.00  0.00     0.173 A 
ATOM     53  F   UNL A   1      39.450  26.202  29.286  1.00  0.00    -0.203 F 
ATOM     54  C   UNL A   1      40.411  25.899  27.156  1.00  0.00     0.198 A 
ATOM     55  C   UNL A   1      41.839  27.593  26.234  1.00  0.00     0.198 A 
ATOM     56  F   UNL A   1      42.312  29.533  27.476  1.00  0.00    -0.203 F 
ATOM     57  F   UNL A   1      39.823  24.699  27.061  1.00  0.00    -0.200 F 
ATOM     58  C   UNL A   1      41.211  26.363  26.122  1.00  0.00     0.200 A 
ATOM     59  F   UNL A   1      42.596  28.054  25.229  1.00  0.00    -0.200 F 
ATOM     60  F   UNL A   1      41.380  25.620  25.019  1.00  0.00    -0.200 F 
ENDBRANCH  26  50
BRANCH  38  61
ATOM     61  C   UNL A   1      44.075  28.191  34.614  1.00  0.00     0.064 A 
ATOM     62  C   UNL A   1      43.854  27.001  35.323  1.00  0.00     0.173 A 
ATOM     63  C   UNL A   1      45.398  28.626  34.452  1.00  0.00     0.173 A 
ATOM     64  F   UNL A   1      42.604  26.555  35.520  1.00  0.00    -0.203 F 
ATOM     65  C   UNL A   1      44.915  26.293  35.878  1.00  0.00     0.198 A 
ATOM     66  C   UNL A   1      46.459  27.900  34.984  1.00  0.00     0.198 A 
ATOM     67  F   UNL A   1      45.661  29.756  33.778  1.00  0.00    -0.203 F 
ATOM     68  F   UNL A   1      44.677  25.190  36.601  1.00  0.00    -0.200 F 
ATOM     69  C   UNL A   1      46.217  26.740  35.704  1.00  0.00     0.200 A 
ATOM     70  F   UNL A   1      47.717  28.327  34.807  1.00  0.00    -0.200 F 
ATOM     71  F   UNL A   1      47.237  26.058  36.242  1.00  0.00    -0.200 F 
ENDBRANCH  38  61
ENDBRANCH  12  13
ENDBRANCH   5   7
ENDBRANCH   2   3
ENDBRANCH   1   2
BRANCH   1  72
ATOM     72  C   UNL A   1      31.836  30.525  26.870  1.00  0.00     0.117 C 
BRANCH  72  73
ATOM     73  N   UNL A   1      33.255  30.310  27.102  1.00  0.00    -0.354 N 
ATOM     74  C   UNL A   1      34.070  29.310  26.631  1.00  0.00     0.242 C 
ATOM     75  H   UNL A   1      33.696  30.976  27.678  1.00  0.00     0.163 HD
ATOM     76  O   UNL A   1      35.267  29.349  26.919  1.00  0.00    -0.273 OA
BRANCH  74  77
ATOM     77  C   UNL A   1      33.478  28.180  25.737  1.00  0.00     0.174 C 
BRANCH  77  78
ATOM     78  N   UNL A   1      33.992  28.462  24.387  1.00  0.00    -0.339 N 
ATOM     79  C   UNL A   1      33.540  28.658  23.127  1.00  0.00     0.278 C 
ATOM     80  H   UNL A   1      34.975  28.531  24.408  1.00  0.00     0.164 HD
ATOM     81  O   UNL A   1      34.409  28.789  22.258  1.00  0.00    -0.268 OA
BRANCH  79  82
ATOM     82  C   UNL A   1      32.049  28.675  22.799  1.00  0.00     0.272 C 
ATOM     83  C   UNL A   1      31.406  27.347  23.191  1.00  0.00     0.076 C 
ATOM     84  N   UNL A   1      31.351  29.750  23.542  1.00  0.00    -0.333 N 
ATOM     85  C   UNL A   1      29.953  27.331  22.722  1.00  0.00     0.016 C 
ATOM     86  C   UNL A   1      29.967  29.863  23.083  1.00  0.00     0.186 C 
ATOM     87  H   UNL A   1      31.832  30.636  23.384  1.00  0.00     0.347 HD
ATOM     88  H   UNL A   1      31.355  29.524  24.536  1.00  0.00     0.347 HD
ATOM     89  C   UNL A   1      29.197  28.539  23.286  1.00  0.00     0.048 C 
ATOM     90  C   UNL A   1      29.231  30.985  23.828  1.00  0.00     0.065 C 
ATOM     91  C   UNL A   1      27.805  28.672  22.657  1.00  0.00     0.010 C 
ATOM     92  C   UNL A   1      27.804  31.137  23.296  1.00  0.00     0.006 C 
ATOM     93  C   UNL A   1      27.026  29.819  23.298  1.00  0.00     0.001 C 
ENDBRANCH  79  82
ENDBRANCH  77  78
BRANCH  77  94
ATOM     94  C   UNL A   1      33.695  26.841  26.398  1.00  0.00     0.021 C 
ATOM     95  C   UNL A   1      32.552  25.845  26.340  1.00  0.00     0.006 C 
ATOM     96  C   UNL A   1      33.861  25.514  25.702  1.00  0.00     0.006 C 
ENDBRANCH  77  94
ENDBRANCH  74  77
ENDBRANCH  72  73
ENDBRANCH   1  72
TORSDOF 13
ENDMDL
MODEL 3
REMARK VINA RESULT:     -12.5      5.932     11.312
REMARK SMILES O=C(NCCCNC(=O)[C@@H](NC(=O)[C@H]1CC[C@@H]2CCCC[C@H]2[NH2+]1)C1CC1)c1ccc(-c2c3nc(c(-c4c(F)c(F)c(F)c(F)c4F)c4ccc([nH]4)c(-c4c(F)c(F)c(F)c(F)c4F)c4nc(c(-c5c(F)c(F)c(F)c(F)c5F)c5ccc2[nH]5)C=C4)C=C3)cc1
REMARK SMILES IDX 5 1 4 2 3 3 1 4 2 5 27 7 28 8 89 9 29 10 88 11 30 12 31 13
REMARK SMILES IDX 32 14 82 15 33 16 87 17 81 18 83 19 34 20 86 21 80 22 79 23
REMARK SMILES IDX 35 25 67 26 47 27 66 28 48 29 51 30 65 31 84 32 49 33 50 34
REMARK SMILES IDX 64 36 85 37 52 38 36 39 37 40 45 41 38 42 39 43 43 44 46 45
REMARK SMILES IDX 40 46 41 47 44 48 42 49 68 50 69 51 77 52 70 53 71 54 75 55
REMARK SMILES IDX 78 56 72 57 73 58 76 59 74 60 53 61 54 62 62 63 55 64 56 65
REMARK SMILES IDX 60 66 63 67 57 68 58 69 61 70 59 71 6 72 7 73 8 74 9 76
REMARK SMILES IDX 10 77 11 78 12 79 13 81 14 82 15 83 23 84 16 85 22 86 17 89
REMARK SMILES IDX 21 90 18 91 20 92 19 93 24 94 25 95 26 96
REMARK H PARENT 3 6 83 24 51 35 7 75 11 80 23 87 23 88
REMARK Flexibility Score: inf
ROOT
ATOM      1  C   UNL A   1      38.177  19.875  24.930  1.00  0.00     0.042 C 
ENDROOT
BRANCH   1   2
ATOM      2  C   UNL A   1      39.202  20.124  26.020  1.00  0.00     0.118 C 
BRANCH   2   3
ATOM      3  N   UNL A   1      40.303  19.167  25.979  1.00  0.00    -0.352 N 
ATOM      4  O   UNL A   1      42.447  18.485  25.810  1.00  0.00    -0.269 OA
ATOM      5  C   UNL A   1      41.656  19.395  26.040  1.00  0.00     0.251 C 
ATOM      6  H   UNL A   1      40.038  18.222  25.896  1.00  0.00     0.163 HD
BRANCH   5   7
ATOM      7  C   UNL A   1      42.152  20.746  26.368  1.00  0.00     0.039 A 
ATOM      8  C   UNL A   1      42.439  21.084  27.691  1.00  0.00     0.014 A 
ATOM      9  C   UNL A   1      42.325  21.687  25.347  1.00  0.00     0.014 A 
ATOM     10  C   UNL A   1      42.731  22.399  28.016  1.00  0.00     0.010 A 
ATOM     11  C   UNL A   1      42.731  22.985  25.666  1.00  0.00     0.010 A 
ATOM     12  C   UNL A   1      42.907  23.358  27.006  1.00  0.00    -0.014 A 
BRANCH  12  13
ATOM     13  C   UNL A   1      43.350  24.719  27.396  1.00  0.00     0.031 A 
ATOM     14  C   UNL A   1      44.749  25.194  27.132  1.00  0.00     0.074 A 
ATOM     15  C   UNL A   1      42.438  25.548  27.940  1.00  0.00     0.049 A 
ATOM     16  N   UNL A   1      45.274  26.371  27.368  1.00  0.00    -0.248 NA
ATOM     17  C   UNL A   1      45.684  24.229  26.535  1.00  0.00     0.031 C 
ATOM     18  C   UNL A   1      41.053  25.182  28.254  1.00  0.00     0.029 A 
ATOM     19  N   UNL A   1      42.518  26.869  28.294  1.00  0.00    -0.354 N 
ATOM     20  C   UNL A   1      46.599  26.285  26.959  1.00  0.00     0.074 A 
ATOM     21  C   UNL A   1      46.808  24.932  26.489  1.00  0.00     0.031 C 
ATOM     22  C   UNL A   1      40.399  26.264  28.694  1.00  0.00     0.029 A 
ATOM     23  C   UNL A   1      41.332  27.382  28.760  1.00  0.00     0.049 A 
ATOM     24  H   UNL A   1      43.344  27.399  28.219  1.00  0.00     0.167 HD
ATOM     25  C   UNL A   1      47.546  27.254  26.966  1.00  0.00     0.037 A 
ATOM     26  C   UNL A   1      41.031  28.614  29.207  1.00  0.00     0.037 A 
ATOM     27  C   UNL A   1      47.323  28.602  27.428  1.00  0.00     0.049 A 
ATOM     28  C   UNL A   1      42.105  29.663  29.208  1.00  0.00     0.074 A 
ATOM     29  C   UNL A   1      48.217  29.657  27.479  1.00  0.00     0.029 A 
ATOM     30  N   UNL A   1      46.114  29.081  27.914  1.00  0.00    -0.354 N 
ATOM     31  N   UNL A   1      43.350  29.570  28.810  1.00  0.00    -0.248 NA
ATOM     32  C   UNL A   1      41.731  30.987  29.720  1.00  0.00     0.031 C 
ATOM     33  C   UNL A   1      47.560  30.764  28.027  1.00  0.00     0.029 A 
ATOM     34  C   UNL A   1      46.243  30.413  28.276  1.00  0.00     0.049 A 
ATOM     35  H   UNL A   1      45.288  28.552  27.990  1.00  0.00     0.167 HD
ATOM     36  C   UNL A   1      43.909  30.821  29.017  1.00  0.00     0.074 A 
ATOM     37  C   UNL A   1      42.856  31.666  29.543  1.00  0.00     0.031 C 
ATOM     38  C   UNL A   1      45.182  31.232  28.802  1.00  0.00     0.037 A 
BRANCH  25  39
ATOM     39  C   UNL A   1      48.916  26.895  26.468  1.00  0.00     0.064 A 
ATOM     40  C   UNL A   1      49.887  26.348  27.320  1.00  0.00     0.173 A 
ATOM     41  C   UNL A   1      49.244  27.044  25.112  1.00  0.00     0.173 A 
ATOM     42  F   UNL A   1      49.627  26.194  28.627  1.00  0.00    -0.203 F 
ATOM     43  C   UNL A   1      51.141  25.980  26.837  1.00  0.00     0.198 A 
ATOM     44  C   UNL A   1      50.489  26.651  24.627  1.00  0.00     0.198 A 
ATOM     45  F   UNL A   1      48.350  27.555  24.252  1.00  0.00    -0.203 F 
ATOM     46  F   UNL A   1      52.064  25.491  27.676  1.00  0.00    -0.200 F 
ATOM     47  C   UNL A   1      51.437  26.124  25.489  1.00  0.00     0.200 A 
ATOM     48  F   UNL A   1      50.770  26.779  23.323  1.00  0.00    -0.200 F 
ATOM     49  F   UNL A   1      52.640  25.758  25.024  1.00  0.00    -0.200 F 
ENDBRANCH  25  39
BRANCH  26  50
ATOM     50  C   UNL A   1      39.661  28.907  29.698  1.00  0.00     0.064 A 
ATOM     51  C   UNL A   1      38.684  29.442  28.849  1.00  0.00     0.173 A 
ATOM     52  C   UNL A   1      39.299  28.645  31.029  1.00  0.00     0.173 A 
ATOM     53  F   UNL A   1      38.985  29.723  27.573  1.00  0.00    -0.203 F 
ATOM     54  C   UNL A   1      37.401  29.722  29.317  1.00  0.00     0.198 A 
ATOM     55  C   UNL A   1      38.009  28.894  31.486  1.00  0.00     0.198 A 
ATOM     56  F   UNL A   1      40.196  28.124  31.879  1.00  0.00    -0.203 F 
ATOM     57  F   UNL A   1      36.498  30.277  28.498  1.00  0.00    -0.200 F 
ATOM     58  C   UNL A   1      37.064  29.442  30.633  1.00  0.00     0.200 A 
ATOM     59  F   UNL A   1      37.681  28.602  32.752  1.00  0.00    -0.200 F 
ATOM     60  F   UNL A   1      35.827  29.705  31.080  1.00  0.00    -0.200 F 
ENDBRANCH  26  50
BRANCH  38  61
ATOM     61  C   UNL A   1      45.490  32.664  29.124  1.00  0.00     0.064 A 
ATOM     62  C   UNL A   1      45.965  33.044  30.387  1.00  0.00     0.173 A 
ATOM     63  C   UNL A   1      45.314  33.665  28.157  1.00  0.00     0.173 A 
ATOM     64  F   UNL A   1      46.132  32.126  31.351  1.00  0.00    -0.203 F 
ATOM     65  C   UNL A   1      46.221  34.380  30.682  1.00  0.00     0.198 A 
ATOM     66  C   UNL A   1      45.598  34.995  28.446  1.00  0.00     0.198 A 
ATOM     67  F   UNL A   1      44.865  33.350  26.932  1.00  0.00    -0.203 F 
ATOM     68  F   UNL A   1      46.619  34.728  31.913  1.00  0.00    -0.200 F 
ATOM     69  C   UNL A   1      46.042  35.354  29.710  1.00  0.00     0.200 A 
ATOM     70  F   UNL A   1      45.434  35.934  27.504  1.00  0.00    -0.200 F 
ATOM     71  F   UNL A   1      46.286  36.640  29.997  1.00  0.00    -0.200 F 
ENDBRANCH  38  61
ENDBRANCH  12  13
ENDBRANCH   5   7
ENDBRANCH   2   3
ENDBRANCH   1   2
BRANCH   1  72
ATOM     72  C   UNL A   1      37.435  21.135  24.529  1.00  0.00     0.117 C 
BRANCH  72  73
ATOM     73  N   UNL A   1      37.881  22.307  25.265  1.00  0.00    -0.354 N 
ATOM     74  C   UNL A   1      37.147  23.366  25.739  1.00  0.00     0.242 C 
ATOM     75  H   UNL A   1      38.847  22.346  25.452  1.00  0.00     0.163 HD
ATOM     76  O   UNL A   1      37.731  24.238  26.385  1.00  0.00    -0.273 OA
BRANCH  74  77
ATOM     77  C   UNL A   1      35.613  23.430  25.476  1.00  0.00     0.174 C 
BRANCH  77  78
ATOM     78  N   UNL A   1      34.998  22.964  26.729  1.00  0.00    -0.339 N 
ATOM     79  C   UNL A   1      34.117  22.036  27.169  1.00  0.00     0.278 C 
ATOM     80  H   UNL A   1      35.335  23.496  27.488  1.00  0.00     0.164 HD
ATOM     81  O   UNL A   1      33.840  22.085  28.372  1.00  0.00    -0.268 OA
BRANCH  79  82
ATOM     82  C   UNL A   1      33.479  21.021  26.224  1.00  0.00     0.272 C 
ATOM     83  C   UNL A   1      32.841  21.734  25.033  1.00  0.00     0.076 C 
ATOM     84  N   UNL A   1      34.489  20.076  25.694  1.00  0.00    -0.333 N 
ATOM     85  C   UNL A   1      32.085  20.717  24.182  1.00  0.00     0.016 C 
ATOM     86  C   UNL A   1      33.833  19.009  24.937  1.00  0.00     0.186 C 
ATOM     87  H   UNL A   1      35.008  19.666  26.471  1.00  0.00     0.347 HD
ATOM     88  H   UNL A   1      35.125  20.579  25.077  1.00  0.00     0.347 HD
ATOM     89  C   UNL A   1      33.018  19.579  23.754  1.00  0.00     0.048 C 
ATOM     90  C   UNL A   1      34.862  18.008  24.394  1.00  0.00     0.065 C 
ATOM     91  C   UNL A   1      32.241  18.438  23.090  1.00  0.00     0.010 C 
ATOM     92  C   UNL A   1      34.161  16.864  23.658  1.00  0.00     0.006 C 
ATOM     93  C   UNL A   1      33.193  17.356  22.580  1.00  0.00     0.001 C 
ENDBRANCH  79  82
ENDBRANCH  77  78
BRANCH  77  94
ATOM     94  C   UNL A   1      35.255  24.766  24.872  1.00  0.00     0.021 C 
ATOM     95  C   UNL A   1      34.231  24.768  23.752  1.00  0.00     0.006 C 
ATOM     96  C   UNL A   1      33.945  25.496  25.024  1.00  0.00     0.006 C 
ENDBRANCH  77  94
ENDBRANCH  74  77
ENDBRANCH  72  73
ENDBRANCH   1  72
TORSDOF 13
ENDMDL
