MODEL 1
REMARK VINA RESULT:     -14.3      0.000      0.000
REMARK SMILES Cc1cc(NC(=O)c2ccc(Br)cc2N)ccc1C(=O)NCCCNC(=O)c1ccc(-c2c3nc(c(-c4c(F)c(F)c(F)c(F)c4F)c4ccc([nH]4)c(-c4c(F)c(F)c(F)c(F)c4F)c4nc(c(-c5c(F)c(F)c(F)c(F)c5F)c5ccc2[nH]5)C=C4)C=C3)cc1
REMARK SMILES IDX 22 1 21 2 19 3 20 4 18 6 1 7 2 8 3 9 4 10 17 11 16 12 5 13
REMARK SMILES IDX 6 14 7 16 8 17 9 18 14 19 10 20 13 21 11 22 12 23 15 24
REMARK SMILES IDX 23 27 24 28 25 29 26 30 27 32 28 33 29 34 90 35 30 36 89 37
REMARK SMILES IDX 31 38 32 39 33 40 83 41 34 42 88 43 82 44 84 45 35 46 87 47
REMARK SMILES IDX 81 48 80 49 36 51 68 52 48 53 67 54 49 55 52 56 66 57 85 58
REMARK SMILES IDX 50 59 51 60 65 62 86 63 53 64 37 65 38 66 46 67 39 68 40 69
REMARK SMILES IDX 44 70 47 71 41 72 42 73 45 74 43 75 69 76 70 77 78 78 71 79
REMARK SMILES IDX 72 80 76 81 79 82 73 83 74 84 77 85 75 86 54 87 55 88 63 89
REMARK SMILES IDX 56 90 57 91 61 92 64 93 58 94 59 95 62 96 60 97
REMARK H PARENT 21 5 5 15 15 25 15 26 25 31 84 50 52 61
REMARK Flexibility Score: inf
ROOT
ATOM      1  C   UNL A   1      32.036  30.686  26.511  1.00  0.00     0.118 C 
ENDROOT
BRANCH   1   2
ATOM      2  N   UNL A   1      32.543  30.197  25.239  1.00  0.00    -0.352 N 
ATOM      3  C   UNL A   1      32.465  29.004  24.565  1.00  0.00     0.251 C 
ATOM      4  O   UNL A   1      33.011  28.981  23.457  1.00  0.00    -0.269 OA
ATOM      5  H   UNL A   1      33.062  30.876  24.750  1.00  0.00     0.163 HD
BRANCH   3   6
ATOM      6  C   UNL A   1      31.711  27.779  24.994  1.00  0.00     0.042 A 
ATOM      7  C   UNL A   1      29.660  27.857  23.414  1.00  0.00     0.045 C 
ATOM      8  C   UNL A   1      30.506  27.268  24.487  1.00  0.00    -0.036 A 
ATOM      9  C   UNL A   1      29.988  26.075  25.019  1.00  0.00     0.030 A 
ATOM     10  C   UNL A   1      30.596  25.404  26.071  1.00  0.00     0.041 A 
ATOM     11  C   UNL A   1      32.247  27.147  26.144  1.00  0.00     0.016 A 
ATOM     12  C   UNL A   1      31.680  25.992  26.701  1.00  0.00     0.027 A 
BRANCH  10  13
ATOM     13  N   UNL A   1      30.141  24.138  26.470  1.00  0.00    -0.322 N 
ATOM     14  C   UNL A   1      30.658  22.905  26.099  1.00  0.00     0.257 C 
ATOM     15  H   UNL A   1      29.370  24.124  27.083  1.00  0.00     0.170 HD
ATOM     16  O   UNL A   1      29.973  21.889  26.209  1.00  0.00    -0.269 OA
BRANCH  14  17
ATOM     17  C   UNL A   1      32.073  22.784  25.624  1.00  0.00     0.063 A 
ATOM     18  C   UNL A   1      32.321  23.110  24.279  1.00  0.00     0.017 A 
ATOM     19  C   UNL A   1      33.135  22.366  26.460  1.00  0.00     0.045 A 
ATOM     20  C   UNL A   1      33.618  23.042  23.762  1.00  0.00     0.016 A 
ATOM     21  C   UNL A   1      34.426  22.289  25.915  1.00  0.00     0.042 A 
ATOM     22  C   UNL A   1      34.663  22.634  24.585  1.00  0.00     0.020 A 
ATOM     23  Br  UNL A   1      36.419  22.517  23.891  1.00  0.00    -0.051 Br
BRANCH  19  24
ATOM     24  N   UNL A   1      32.951  21.884  27.756  1.00  0.00    -0.398 N 
ATOM     25  H   UNL A   1      32.198  21.283  27.954  1.00  0.00     0.156 HD
ATOM     26  H   UNL A   1      33.574  22.146  28.472  1.00  0.00     0.156 HD
ENDBRANCH  19  24
ENDBRANCH  14  17
ENDBRANCH  10  13
ENDBRANCH   3   6
ENDBRANCH   1   2
BRANCH   1  27
ATOM     27  C   UNL A   1      33.116  31.445  27.283  1.00  0.00     0.042 C 
BRANCH  27  28
ATOM     28  C   UNL A   1      34.163  30.618  28.004  1.00  0.00     0.118 C 
BRANCH  28  29
ATOM     29  N   UNL A   1      34.937  31.431  28.951  1.00  0.00    -0.352 N 
ATOM     30  C   UNL A   1      36.119  31.117  29.602  1.00  0.00     0.251 C 
ATOM     31  H   UNL A   1      34.566  32.321  29.149  1.00  0.00     0.163 HD
ATOM     32  O   UNL A   1      36.707  31.919  30.302  1.00  0.00    -0.269 OA
BRANCH  30  33
ATOM     33  C   UNL A   1      36.693  29.790  29.311  1.00  0.00     0.039 A 
ATOM     34  C   UNL A   1      37.217  29.097  30.403  1.00  0.00     0.014 A 
ATOM     35  C   UNL A   1      37.104  29.528  28.007  1.00  0.00     0.014 A 
ATOM     36  C   UNL A   1      38.364  28.337  30.218  1.00  0.00     0.010 A 
ATOM     37  C   UNL A   1      38.291  28.840  27.840  1.00  0.00     0.010 A 
ATOM     38  C   UNL A   1      38.964  28.322  28.956  1.00  0.00    -0.014 A 
BRANCH  38  39
ATOM     39  C   UNL A   1      40.334  27.863  28.755  1.00  0.00     0.031 A 
ATOM     40  C   UNL A   1      40.581  26.450  28.414  1.00  0.00     0.074 A 
ATOM     41  C   UNL A   1      41.392  28.696  28.897  1.00  0.00     0.049 A 
ATOM     42  N   UNL A   1      41.650  25.806  28.742  1.00  0.00    -0.248 NA
ATOM     43  C   UNL A   1      39.605  25.636  27.706  1.00  0.00     0.031 C 
ATOM     44  C   UNL A   1      42.786  28.401  28.564  1.00  0.00     0.029 A 
ATOM     45  N   UNL A   1      41.454  29.922  29.580  1.00  0.00    -0.354 N 
ATOM     46  C   UNL A   1      41.626  24.598  28.091  1.00  0.00     0.074 A 
ATOM     47  C   UNL A   1      40.306  24.517  27.502  1.00  0.00     0.031 C 
ATOM     48  C   UNL A   1      43.581  29.194  29.295  1.00  0.00     0.029 A 
ATOM     49  C   UNL A   1      42.736  29.958  30.190  1.00  0.00     0.049 A 
ATOM     50  H   UNL A   1      40.753  30.612  29.626  1.00  0.00     0.167 HD
ATOM     51  C   UNL A   1      42.762  23.847  28.022  1.00  0.00     0.037 A 
ATOM     52  C   UNL A   1      42.880  30.052  31.542  1.00  0.00     0.037 A 
ATOM     53  C   UNL A   1      43.874  24.468  28.743  1.00  0.00     0.049 A 
ATOM     54  C   UNL A   1      43.570  28.871  32.185  1.00  0.00     0.074 A 
ATOM     55  C   UNL A   1      44.972  25.222  28.362  1.00  0.00     0.029 A 
ATOM     56  N   UNL A   1      43.793  24.593  30.119  1.00  0.00    -0.354 N 
ATOM     57  N   UNL A   1      44.043  27.844  31.535  1.00  0.00    -0.248 NA
ATOM     58  C   UNL A   1      43.661  28.702  33.637  1.00  0.00     0.031 C 
ATOM     59  C   UNL A   1      45.564  25.778  29.532  1.00  0.00     0.029 A 
ATOM     60  C   UNL A   1      44.821  25.367  30.624  1.00  0.00     0.049 A 
ATOM     61  H   UNL A   1      43.090  24.181  30.671  1.00  0.00     0.167 HD
ATOM     62  C   UNL A   1      44.414  26.875  32.432  1.00  0.00     0.074 A 
ATOM     63  C   UNL A   1      44.153  27.458  33.734  1.00  0.00     0.031 C 
ATOM     64  C   UNL A   1      44.858  25.642  32.049  1.00  0.00     0.037 A 
BRANCH  51  65
ATOM     65  C   UNL A   1      42.922  22.671  27.087  1.00  0.00     0.064 A 
ATOM     66  C   UNL A   1      42.207  21.474  27.299  1.00  0.00     0.173 A 
ATOM     67  C   UNL A   1      43.804  22.643  25.992  1.00  0.00     0.173 A 
ATOM     68  F   UNL A   1      41.236  21.390  28.216  1.00  0.00    -0.203 F 
ATOM     69  C   UNL A   1      42.467  20.309  26.573  1.00  0.00     0.198 A 
ATOM     70  C   UNL A   1      44.116  21.463  25.310  1.00  0.00     0.198 A 
ATOM     71  F   UNL A   1      44.350  23.768  25.510  1.00  0.00    -0.203 F 
ATOM     72  F   UNL A   1      41.761  19.199  26.825  1.00  0.00    -0.200 F 
ATOM     73  C   UNL A   1      43.457  20.290  25.612  1.00  0.00     0.200 A 
ATOM     74  F   UNL A   1      45.060  21.474  24.358  1.00  0.00    -0.200 F 
ATOM     75  F   UNL A   1      43.750  19.158  24.960  1.00  0.00    -0.200 F 
ENDBRANCH  51  65
BRANCH  52  76
ATOM     76  C   UNL A   1      41.799  30.862  32.161  1.00  0.00     0.064 A 
ATOM     77  C   UNL A   1      41.858  32.260  31.999  1.00  0.00     0.173 A 
ATOM     78  C   UNL A   1      40.564  30.293  32.485  1.00  0.00     0.173 A 
ATOM     79  F   UNL A   1      43.026  32.853  31.702  1.00  0.00    -0.203 F 
ATOM     80  C   UNL A   1      40.700  33.027  31.976  1.00  0.00     0.198 A 
ATOM     81  C   UNL A   1      39.411  31.074  32.501  1.00  0.00     0.198 A 
ATOM     82  F   UNL A   1      40.447  28.968  32.652  1.00  0.00    -0.203 F 
ATOM     83  F   UNL A   1      40.763  34.324  31.641  1.00  0.00    -0.200 F 
ATOM     84  C   UNL A   1      39.471  32.425  32.190  1.00  0.00     0.200 A 
ATOM     85  F   UNL A   1      38.222  30.493  32.713  1.00  0.00    -0.200 F 
ATOM     86  F   UNL A   1      38.345  33.136  32.043  1.00  0.00    -0.200 F 
ENDBRANCH  52  76
BRANCH  64  87
ATOM     87  C   UNL A   1      45.332  24.592  33.018  1.00  0.00     0.064 A 
ATOM     88  C   UNL A   1      46.618  24.612  33.586  1.00  0.00     0.173 A 
ATOM     89  C   UNL A   1      44.541  23.466  33.339  1.00  0.00     0.173 A 
ATOM     90  F   UNL A   1      47.497  25.572  33.263  1.00  0.00    -0.203 F 
ATOM     91  C   UNL A   1      47.045  23.633  34.485  1.00  0.00     0.198 A 
ATOM     92  C   UNL A   1      44.991  22.460  34.192  1.00  0.00     0.198 A 
ATOM     93  F   UNL A   1      43.301  23.317  32.853  1.00  0.00    -0.203 F 
ATOM     94  F   UNL A   1      48.251  23.738  35.057  1.00  0.00    -0.200 F 
ATOM     95  C   UNL A   1      46.233  22.555  34.785  1.00  0.00     0.200 A 
ATOM     96  F   UNL A   1      44.205  21.402  34.444  1.00  0.00    -0.200 F 
ATOM     97  F   UNL A   1      46.648  21.609  35.638  1.00  0.00    -0.200 F 
ENDBRANCH  64  87
ENDBRANCH  38  39
ENDBRANCH  30  33
ENDBRANCH  28  29
ENDBRANCH  27  28
ENDBRANCH   1  27
TORSDOF 13
ENDMDL
MODEL 2
REMARK VINA RESULT:     -14.2      0.619      1.699
REMARK SMILES Cc1cc(NC(=O)c2ccc(Br)cc2N)ccc1C(=O)NCCCNC(=O)c1ccc(-c2c3nc(c(-c4c(F)c(F)c(F)c(F)c4F)c4ccc([nH]4)c(-c4c(F)c(F)c(F)c(F)c4F)c4nc(c(-c5c(F)c(F)c(F)c(F)c5F)c5ccc2[nH]5)C=C4)C=C3)cc1
REMARK SMILES IDX 22 1 21 2 19 3 20 4 18 6 1 7 2 8 3 9 4 10 17 11 16 12 5 13
REMARK SMILES IDX 6 14 7 16 8 17 9 18 14 19 10 20 13 21 11 22 12 23 15 24
REMARK SMILES IDX 23 27 24 28 25 29 26 30 27 32 28 33 29 34 90 35 30 36 89 37
REMARK SMILES IDX 31 38 32 39 33 40 83 41 34 42 88 43 82 44 84 45 35 46 87 47
REMARK SMILES IDX 81 48 80 49 36 51 68 52 48 53 67 54 49 55 52 56 66 57 85 58
REMARK SMILES IDX 50 59 51 60 65 62 86 63 53 64 37 65 38 66 46 67 39 68 40 69
REMARK SMILES IDX 44 70 47 71 41 72 42 73 45 74 43 75 69 76 70 77 78 78 71 79
REMARK SMILES IDX 72 80 76 81 79 82 73 83 74 84 77 85 75 86 54 87 55 88 63 89
REMARK SMILES IDX 56 90 57 91 61 92 64 93 58 94 59 95 62 96 60 97
REMARK H PARENT 21 5 5 15 15 25 15 26 25 31 84 50 52 61
REMARK Flexibility Score: inf
ROOT
ATOM      1  C   UNL A   1      32.155  30.610  26.482  1.00  0.00     0.118 C 
ENDROOT
BRANCH   1   2
ATOM      2  N   UNL A   1      32.665  30.106  25.217  1.00  0.00    -0.352 N 
ATOM      3  C   UNL A   1      32.566  28.913  24.545  1.00  0.00     0.251 C 
ATOM      4  O   UNL A   1      33.124  28.875  23.443  1.00  0.00    -0.269 OA
ATOM      5  H   UNL A   1      33.205  30.771  24.732  1.00  0.00     0.163 HD
BRANCH   3   6
ATOM      6  C   UNL A   1      31.779  27.707  24.968  1.00  0.00     0.042 A 
ATOM      7  C   UNL A   1      29.745  27.832  23.368  1.00  0.00     0.045 C 
ATOM      8  C   UNL A   1      30.567  27.225  24.451  1.00  0.00    -0.036 A 
ATOM      9  C   UNL A   1      30.016  26.045  24.979  1.00  0.00     0.030 A 
ATOM     10  C   UNL A   1      30.597  25.361  26.037  1.00  0.00     0.041 A 
ATOM     11  C   UNL A   1      32.289  27.064  26.124  1.00  0.00     0.016 A 
ATOM     12  C   UNL A   1      31.689  25.923  26.676  1.00  0.00     0.027 A 
BRANCH  10  13
ATOM     13  N   UNL A   1      30.109  24.107  26.433  1.00  0.00    -0.322 N 
ATOM     14  C   UNL A   1      30.636  22.863  26.118  1.00  0.00     0.257 C 
ATOM     15  H   UNL A   1      29.302  24.111  26.999  1.00  0.00     0.170 HD
ATOM     16  O   UNL A   1      29.937  21.854  26.207  1.00  0.00    -0.269 OA
BRANCH  14  17
ATOM     17  C   UNL A   1      32.076  22.721  25.732  1.00  0.00     0.063 A 
ATOM     18  C   UNL A   1      32.391  22.914  24.376  1.00  0.00     0.017 A 
ATOM     19  C   UNL A   1      33.098  22.412  26.660  1.00  0.00     0.045 A 
ATOM     20  C   UNL A   1      33.714  22.819  23.935  1.00  0.00     0.016 A 
ATOM     21  C   UNL A   1      34.417  22.304  26.193  1.00  0.00     0.042 A 
ATOM     22  C   UNL A   1      34.720  22.517  24.848  1.00  0.00     0.020 A 
ATOM     23  Br  UNL A   1      36.512  22.364  24.262  1.00  0.00    -0.051 Br
BRANCH  19  24
ATOM     24  N   UNL A   1      32.852  22.060  27.987  1.00  0.00    -0.398 N 
ATOM     25  H   UNL A   1      32.578  22.747  28.635  1.00  0.00     0.156 HD
ATOM     26  H   UNL A   1      32.954  21.123  28.275  1.00  0.00     0.156 HD
ENDBRANCH  19  24
ENDBRANCH  14  17
ENDBRANCH  10  13
ENDBRANCH   3   6
ENDBRANCH   1   2
BRANCH   1  27
ATOM     27  C   UNL A   1      33.240  31.357  27.258  1.00  0.00     0.042 C 
BRANCH  27  28
ATOM     28  C   UNL A   1      34.211  30.522  28.070  1.00  0.00     0.118 C 
BRANCH  28  29
ATOM     29  N   UNL A   1      35.105  31.364  28.877  1.00  0.00    -0.352 N 
ATOM     30  C   UNL A   1      36.382  31.085  29.336  1.00  0.00     0.251 C 
ATOM     31  H   UNL A   1      34.748  32.247  29.125  1.00  0.00     0.163 HD
ATOM     32  O   UNL A   1      37.053  31.907  29.928  1.00  0.00    -0.269 OA
BRANCH  30  33
ATOM     33  C   UNL A   1      36.936  29.768  28.968  1.00  0.00     0.039 A 
ATOM     34  C   UNL A   1      37.369  28.968  30.026  1.00  0.00     0.014 A 
ATOM     35  C   UNL A   1      37.421  29.602  27.674  1.00  0.00     0.014 A 
ATOM     36  C   UNL A   1      38.503  28.188  29.847  1.00  0.00     0.010 A 
ATOM     37  C   UNL A   1      38.597  28.891  27.521  1.00  0.00     0.010 A 
ATOM     38  C   UNL A   1      39.182  28.258  28.628  1.00  0.00    -0.014 A 
BRANCH  38  39
ATOM     39  C   UNL A   1      40.548  27.772  28.473  1.00  0.00     0.031 A 
ATOM     40  C   UNL A   1      40.779  26.349  28.160  1.00  0.00     0.074 A 
ATOM     41  C   UNL A   1      41.617  28.587  28.631  1.00  0.00     0.049 A 
ATOM     42  N   UNL A   1      41.826  25.692  28.529  1.00  0.00    -0.248 NA
ATOM     43  C   UNL A   1      39.808  25.541  27.439  1.00  0.00     0.031 C 
ATOM     44  C   UNL A   1      43.014  28.263  28.342  1.00  0.00     0.029 A 
ATOM     45  N   UNL A   1      41.682  29.824  29.297  1.00  0.00    -0.354 N 
ATOM     46  C   UNL A   1      41.798  24.474  27.896  1.00  0.00     0.074 A 
ATOM     47  C   UNL A   1      40.494  24.407  27.272  1.00  0.00     0.031 C 
ATOM     48  C   UNL A   1      43.803  29.053  29.082  1.00  0.00     0.029 A 
ATOM     49  C   UNL A   1      42.948  29.846  29.941  1.00  0.00     0.049 A 
ATOM     50  H   UNL A   1      40.993  30.527  29.312  1.00  0.00     0.167 HD
ATOM     51  C   UNL A   1      42.922  23.702  27.872  1.00  0.00     0.037 A 
ATOM     52  C   UNL A   1      43.056  29.960  31.295  1.00  0.00     0.037 A 
ATOM     53  C   UNL A   1      44.024  24.315  28.613  1.00  0.00     0.049 A 
ATOM     54  C   UNL A   1      43.706  28.776  31.976  1.00  0.00     0.074 A 
ATOM     55  C   UNL A   1      45.146  25.042  28.251  1.00  0.00     0.029 A 
ATOM     56  N   UNL A   1      43.907  24.462  29.984  1.00  0.00    -0.354 N 
ATOM     57  N   UNL A   1      44.177  27.731  31.356  1.00  0.00    -0.248 NA
ATOM     58  C   UNL A   1      43.753  28.630  33.432  1.00  0.00     0.031 C 
ATOM     59  C   UNL A   1      45.716  25.606  29.429  1.00  0.00     0.029 A 
ATOM     60  C   UNL A   1      44.935  25.227  30.506  1.00  0.00     0.049 A 
ATOM     61  H   UNL A   1      43.182  24.072  30.522  1.00  0.00     0.167 HD
ATOM     62  C   UNL A   1      44.506  26.770  32.278  1.00  0.00     0.074 A 
ATOM     63  C   UNL A   1      44.219  27.379  33.563  1.00  0.00     0.031 C 
ATOM     64  C   UNL A   1      44.937  25.524  31.927  1.00  0.00     0.037 A 
BRANCH  51  65
ATOM     65  C   UNL A   1      43.086  22.508  26.960  1.00  0.00     0.064 A 
ATOM     66  C   UNL A   1      42.353  21.323  27.178  1.00  0.00     0.173 A 
ATOM     67  C   UNL A   1      43.989  22.452  25.882  1.00  0.00     0.173 A 
ATOM     68  F   UNL A   1      41.364  21.265  28.078  1.00  0.00    -0.203 F 
ATOM     69  C   UNL A   1      42.614  20.143  26.477  1.00  0.00     0.198 A 
ATOM     70  C   UNL A   1      44.299  21.256  25.226  1.00  0.00     0.198 A 
ATOM     71  F   UNL A   1      44.556  23.562  25.392  1.00  0.00    -0.203 F 
ATOM     72  F   UNL A   1      41.891  19.045  26.734  1.00  0.00    -0.200 F 
ATOM     73  C   UNL A   1      43.621  20.096  25.536  1.00  0.00     0.200 A 
ATOM     74  F   UNL A   1      45.261  21.240  24.293  1.00  0.00    -0.200 F 
ATOM     75  F   UNL A   1      43.914  18.949  24.909  1.00  0.00    -0.200 F 
ENDBRANCH  51  65
BRANCH  52  76
ATOM     76  C   UNL A   1      41.973  30.798  31.871  1.00  0.00     0.064 A 
ATOM     77  C   UNL A   1      40.890  30.135  32.481  1.00  0.00     0.173 A 
ATOM     78  C   UNL A   1      42.197  32.135  32.214  1.00  0.00     0.173 A 
ATOM     79  F   UNL A   1      40.627  28.854  32.172  1.00  0.00    -0.203 F 
ATOM     80  C   UNL A   1      40.184  30.725  33.523  1.00  0.00     0.198 A 
ATOM     81  C   UNL A   1      41.459  32.736  33.231  1.00  0.00     0.198 A 
ATOM     82  F   UNL A   1      43.212  32.818  31.666  1.00  0.00    -0.203 F 
ATOM     83  F   UNL A   1      39.280  30.009  34.207  1.00  0.00    -0.200 F 
ATOM     84  C   UNL A   1      40.496  32.014  33.922  1.00  0.00     0.200 A 
ATOM     85  F   UNL A   1      41.756  33.985  33.615  1.00  0.00    -0.200 F 
ATOM     86  F   UNL A   1      39.906  32.538  35.005  1.00  0.00    -0.200 F 
ENDBRANCH  52  76
BRANCH  64  87
ATOM     87  C   UNL A   1      45.364  24.481  32.925  1.00  0.00     0.064 A 
ATOM     88  C   UNL A   1      44.522  23.430  33.327  1.00  0.00     0.173 A 
ATOM     89  C   UNL A   1      46.608  24.555  33.592  1.00  0.00     0.173 A 
ATOM     90  F   UNL A   1      43.274  23.325  32.846  1.00  0.00    -0.203 F 
ATOM     91  C   UNL A   1      44.930  22.468  34.253  1.00  0.00     0.198 A 
ATOM     92  C   UNL A   1      46.990  23.626  34.558  1.00  0.00     0.198 A 
ATOM     93  F   UNL A   1      47.498  25.517  33.313  1.00  0.00    -0.203 F 
ATOM     94  F   UNL A   1      44.119  21.443  34.546  1.00  0.00    -0.200 F 
ATOM     95  C   UNL A   1      46.163  22.568  34.871  1.00  0.00     0.200 A 
ATOM     96  F   UNL A   1      48.174  23.759  35.175  1.00  0.00    -0.200 F 
ATOM     97  F   UNL A   1      46.549  21.651  35.768  1.00  0.00    -0.200 F 
ENDBRANCH  64  87
ENDBRANCH  38  39
ENDBRANCH  30  33
ENDBRANCH  28  29
ENDBRANCH  27  28
ENDBRANCH   1  27
TORSDOF 13
ENDMDL
MODEL 3
REMARK VINA RESULT:     -14.1      3.486     10.027
REMARK SMILES Cc1cc(NC(=O)c2ccc(Br)cc2N)ccc1C(=O)NCCCNC(=O)c1ccc(-c2c3nc(c(-c4c(F)c(F)c(F)c(F)c4F)c4ccc([nH]4)c(-c4c(F)c(F)c(F)c(F)c4F)c4nc(c(-c5c(F)c(F)c(F)c(F)c5F)c5ccc2[nH]5)C=C4)C=C3)cc1
REMARK SMILES IDX 22 1 21 2 19 3 20 4 18 6 1 7 2 8 3 9 4 10 17 11 16 12 5 13
REMARK SMILES IDX 6 14 7 16 8 17 9 18 14 19 10 20 13 21 11 22 12 23 15 24
REMARK SMILES IDX 23 27 24 28 25 29 26 30 27 32 28 33 29 34 90 35 30 36 89 37
REMARK SMILES IDX 31 38 32 39 33 40 83 41 34 42 88 43 82 44 84 45 35 46 87 47
REMARK SMILES IDX 81 48 80 49 36 51 68 52 48 53 67 54 49 55 52 56 66 57 85 58
REMARK SMILES IDX 50 59 51 60 65 62 86 63 53 64 37 65 38 66 46 67 39 68 40 69
REMARK SMILES IDX 44 70 47 71 41 72 42 73 45 74 43 75 69 76 70 77 78 78 71 79
REMARK SMILES IDX 72 80 76 81 79 82 73 83 74 84 77 85 75 86 54 87 55 88 63 89
REMARK SMILES IDX 56 90 57 91 61 92 64 93 58 94 59 95 62 96 60 97
REMARK H PARENT 21 5 5 15 15 25 15 26 25 31 84 50 52 61
REMARK Flexibility Score: inf
ROOT
ATOM      1  C   UNL A   1      37.453  20.970  25.081  1.00  0.00     0.118 C 
ENDROOT
BRANCH   1   2
ATOM      2  N   UNL A   1      36.347  21.070  26.019  1.00  0.00    -0.352 N 
ATOM      3  C   UNL A   1      35.088  21.615  25.970  1.00  0.00     0.251 C 
ATOM      4  O   UNL A   1      34.402  21.464  26.987  1.00  0.00    -0.269 OA
ATOM      5  H   UNL A   1      36.545  20.650  26.888  1.00  0.00     0.163 HD
BRANCH   3   6
ATOM      6  C   UNL A   1      34.444  22.279  24.789  1.00  0.00     0.042 A 
ATOM      7  C   UNL A   1      32.625  20.548  24.152  1.00  0.00     0.045 C 
ATOM      8  C   UNL A   1      33.367  21.831  24.009  1.00  0.00    -0.036 A 
ATOM      9  C   UNL A   1      32.897  22.636  22.958  1.00  0.00     0.030 A 
ATOM     10  C   UNL A   1      33.493  23.843  22.622  1.00  0.00     0.041 A 
ATOM     11  C   UNL A   1      35.112  23.452  24.353  1.00  0.00     0.016 A 
ATOM     12  C   UNL A   1      34.666  24.209  23.261  1.00  0.00     0.027 A 
BRANCH  10  13
ATOM     13  N   UNL A   1      32.904  24.693  21.674  1.00  0.00    -0.322 N 
ATOM     14  C   UNL A   1      31.966  25.689  21.908  1.00  0.00     0.257 C 
ATOM     15  H   UNL A   1      33.188  24.569  20.739  1.00  0.00     0.170 HD
ATOM     16  O   UNL A   1      31.266  26.109  20.987  1.00  0.00    -0.269 OA
BRANCH  14  17
ATOM     17  C   UNL A   1      31.841  26.315  23.263  1.00  0.00     0.063 A 
ATOM     18  C   UNL A   1      32.822  27.256  23.621  1.00  0.00     0.017 A 
ATOM     19  C   UNL A   1      30.798  26.000  24.166  1.00  0.00     0.045 A 
ATOM     20  C   UNL A   1      32.767  27.900  24.860  1.00  0.00     0.016 A 
ATOM     21  C   UNL A   1      30.772  26.646  25.412  1.00  0.00     0.042 A 
ATOM     22  C   UNL A   1      31.740  27.593  25.746  1.00  0.00     0.020 A 
ATOM     23  Br  UNL A   1      31.667  28.442  27.435  1.00  0.00    -0.051 Br
BRANCH  19  24
ATOM     24  N   UNL A   1      29.877  24.975  23.951  1.00  0.00    -0.398 N 
ATOM     25  H   UNL A   1      29.678  24.334  24.670  1.00  0.00     0.156 HD
ATOM     26  H   UNL A   1      29.427  24.892  23.078  1.00  0.00     0.156 HD
ENDBRANCH  19  24
ENDBRANCH  14  17
ENDBRANCH  10  13
ENDBRANCH   3   6
ENDBRANCH   1   2
BRANCH   1  27
ATOM     27  C   UNL A   1      38.786  21.281  25.763  1.00  0.00     0.042 C 
BRANCH  27  28
ATOM     28  C   UNL A   1      39.067  22.730  26.109  1.00  0.00     0.118 C 
BRANCH  28  29
ATOM     29  N   UNL A   1      40.503  22.973  26.299  1.00  0.00    -0.352 N 
ATOM     30  C   UNL A   1      41.153  24.162  26.589  1.00  0.00     0.251 C 
ATOM     31  H   UNL A   1      41.083  22.183  26.208  1.00  0.00     0.163 HD
ATOM     32  O   UNL A   1      42.347  24.213  26.805  1.00  0.00    -0.269 OA
BRANCH  30  33
ATOM     33  C   UNL A   1      40.298  25.355  26.735  1.00  0.00     0.039 A 
ATOM     34  C   UNL A   1      40.840  26.557  26.277  1.00  0.00     0.014 A 
ATOM     35  C   UNL A   1      39.287  25.321  27.691  1.00  0.00     0.014 A 
ATOM     36  C   UNL A   1      40.570  27.719  26.987  1.00  0.00     0.010 A 
ATOM     37  C   UNL A   1      39.085  26.462  28.446  1.00  0.00     0.010 A 
ATOM     38  C   UNL A   1      39.794  27.634  28.146  1.00  0.00    -0.014 A 
BRANCH  38  39
ATOM     39  C   UNL A   1      39.758  28.706  29.135  1.00  0.00     0.031 A 
ATOM     40  C   UNL A   1      38.734  29.761  29.022  1.00  0.00     0.074 A 
ATOM     41  C   UNL A   1      40.657  28.774  30.145  1.00  0.00     0.049 A 
ATOM     42  N   UNL A   1      38.904  30.975  29.425  1.00  0.00    -0.248 NA
ATOM     43  C   UNL A   1      37.442  29.531  28.394  1.00  0.00     0.031 C 
ATOM     44  C   UNL A   1      40.626  29.694  31.282  1.00  0.00     0.029 A 
ATOM     45  N   UNL A   1      41.916  28.156  30.237  1.00  0.00    -0.354 N 
ATOM     46  C   UNL A   1      37.690  31.612  29.349  1.00  0.00     0.074 A 
ATOM     47  C   UNL A   1      36.825  30.687  28.650  1.00  0.00     0.031 C 
ATOM     48  C   UNL A   1      41.872  29.841  31.753  1.00  0.00     0.029 A 
ATOM     49  C   UNL A   1      42.760  29.100  30.882  1.00  0.00     0.049 A 
ATOM     50  H   UNL A   1      42.161  27.256  29.921  1.00  0.00     0.167 HD
ATOM     51  C   UNL A   1      37.516  32.806  29.987  1.00  0.00     0.037 A 
ATOM     52  C   UNL A   1      43.878  29.588  30.272  1.00  0.00     0.037 A 
ATOM     53  C   UNL A   1      38.742  33.261  30.643  1.00  0.00     0.049 A 
ATOM     54  C   UNL A   1      43.859  31.081  30.028  1.00  0.00     0.074 A 
ATOM     55  C   UNL A   1      39.210  33.227  31.945  1.00  0.00     0.029 A 
ATOM     56  N   UNL A   1      39.831  33.603  29.861  1.00  0.00    -0.354 N 
ATOM     57  N   UNL A   1      42.894  31.879  30.390  1.00  0.00    -0.248 NA
ATOM     58  C   UNL A   1      44.881  31.764  29.232  1.00  0.00     0.031 C 
ATOM     59  C   UNL A   1      40.590  33.581  31.937  1.00  0.00     0.029 A 
ATOM     60  C   UNL A   1      40.961  33.823  30.627  1.00  0.00     0.049 A 
ATOM     61  H   UNL A   1      39.805  33.682  28.880  1.00  0.00     0.167 HD
ATOM     62  C   UNL A   1      43.103  33.117  29.838  1.00  0.00     0.074 A 
ATOM     63  C   UNL A   1      44.357  32.994  29.120  1.00  0.00     0.031 C 
ATOM     64  C   UNL A   1      42.210  34.142  29.959  1.00  0.00     0.037 A 
BRANCH  51  65
ATOM     65  C   UNL A   1      36.159  33.428  30.219  1.00  0.00     0.064 A 
ATOM     66  C   UNL A   1      35.424  33.984  29.151  1.00  0.00     0.173 A 
ATOM     67  C   UNL A   1      35.550  33.556  31.481  1.00  0.00     0.173 A 
ATOM     68  F   UNL A   1      35.807  33.825  27.878  1.00  0.00    -0.203 F 
ATOM     69  C   UNL A   1      34.261  34.731  29.353  1.00  0.00     0.198 A 
ATOM     70  C   UNL A   1      34.426  34.360  31.693  1.00  0.00     0.198 A 
ATOM     71  F   UNL A   1      35.991  32.860  32.538  1.00  0.00    -0.203 F 
ATOM     72  F   UNL A   1      33.609  35.243  28.299  1.00  0.00    -0.200 F 
ATOM     73  C   UNL A   1      33.790  34.962  30.628  1.00  0.00     0.200 A 
ATOM     74  F   UNL A   1      33.967  34.545  32.939  1.00  0.00    -0.200 F 
ATOM     75  F   UNL A   1      32.712  35.731  30.827  1.00  0.00    -0.200 F 
ENDBRANCH  51  65
BRANCH  52  76
ATOM     76  C   UNL A   1      44.518  28.578  29.392  1.00  0.00     0.064 A 
ATOM     77  C   UNL A   1      45.232  27.533  30.011  1.00  0.00     0.173 A 
ATOM     78  C   UNL A   1      44.083  28.383  28.078  1.00  0.00     0.173 A 
ATOM     79  F   UNL A   1      45.684  27.681  31.267  1.00  0.00    -0.203 F 
ATOM     80  C   UNL A   1      45.338  26.285  29.410  1.00  0.00     0.198 A 
ATOM     81  C   UNL A   1      44.228  27.141  27.464  1.00  0.00     0.198 A 
ATOM     82  F   UNL A   1      43.399  29.341  27.437  1.00  0.00    -0.203 F 
ATOM     83  F   UNL A   1      45.863  25.257  30.093  1.00  0.00    -0.200 F 
ATOM     84  C   UNL A   1      44.802  26.080  28.150  1.00  0.00     0.200 A 
ATOM     85  F   UNL A   1      43.714  26.943  26.242  1.00  0.00    -0.200 F 
ATOM     86  F   UNL A   1      44.790  24.848  27.622  1.00  0.00    -0.200 F 
ENDBRANCH  52  76
BRANCH  64  87
ATOM     87  C   UNL A   1      42.454  35.526  29.415  1.00  0.00     0.064 A 
ATOM     88  C   UNL A   1      41.923  35.959  28.188  1.00  0.00     0.173 A 
ATOM     89  C   UNL A   1      43.316  36.438  30.064  1.00  0.00     0.173 A 
ATOM     90  F   UNL A   1      41.185  35.137  27.428  1.00  0.00    -0.203 F 
ATOM     91  C   UNL A   1      42.156  37.245  27.695  1.00  0.00     0.198 A 
ATOM     92  C   UNL A   1      43.591  37.700  29.541  1.00  0.00     0.198 A 
ATOM     93  F   UNL A   1      43.899  36.143  31.233  1.00  0.00    -0.203 F 
ATOM     94  F   UNL A   1      41.565  37.636  26.558  1.00  0.00    -0.200 F 
ATOM     95  C   UNL A   1      42.993  38.114  28.370  1.00  0.00     0.200 A 
ATOM     96  F   UNL A   1      44.435  38.517  30.190  1.00  0.00    -0.200 F 
ATOM     97  F   UNL A   1      43.225  39.343  27.890  1.00  0.00    -0.200 F 
ENDBRANCH  64  87
ENDBRANCH  38  39
ENDBRANCH  30  33
ENDBRANCH  28  29
ENDBRANCH  27  28
ENDBRANCH   1  27
TORSDOF 13
ENDMDL
