MODEL 1
REMARK VINA RESULT:     -14.6      0.000      0.000
REMARK SMILES Cc1cccc(CC(=O)N2CCC3(CCC(=O)N([C@H](C)C(=O)NCCCNC(=O)c4ccc(-c5c6nc(c(-c7c(F)c(F)c(F)c(F)c7F)c7ccc([nH]7)c(-c7c(F)c(F)c(F)c(F)c7F)c7nc(c(-c8c(F)c(F)c(F)c(F)c8F)c8ccc5[nH]8)C=C7)C=C6)cc4)C3)CC2)c1
REMARK SMILES IDX 24 1 23 2 21 3 22 4 19 6 20 7 18 8 8 9 9 10 10 11 11 12
REMARK SMILES IDX 95 13 12 14 94 15 13 16 14 17 93 18 15 19 16 20 17 21 7 22
REMARK SMILES IDX 6 23 1 24 2 25 3 26 96 27 4 28 5 29 25 30 26 31 27 32 28 33
REMARK SMILES IDX 29 35 30 36 31 37 92 38 32 39 91 40 33 41 34 42 35 43 85 44
REMARK SMILES IDX 36 45 90 46 84 47 86 48 37 49 89 50 83 51 82 52 38 54 70 55
REMARK SMILES IDX 50 56 69 57 51 58 54 59 68 60 87 61 52 62 53 63 67 65 88 66
REMARK SMILES IDX 55 67 39 68 40 69 48 70 41 71 42 72 46 73 49 74 43 75 44 76
REMARK SMILES IDX 47 77 45 78 71 79 72 80 80 81 73 82 74 83 78 84 81 85 75 86
REMARK SMILES IDX 76 87 79 88 77 89 56 90 57 91 65 92 58 93 59 94 63 95 66 96
REMARK SMILES IDX 60 97 61 98 64 99 62 100
REMARK H PARENT 23 5 27 34 86 53 54 64
REMARK Flexibility Score: inf
ROOT
ATOM      1  C   UNL A   1      31.884  30.380  26.030  1.00  0.00     0.117 C 
ENDROOT
BRANCH   1   2
ATOM      2  N   UNL A   1      31.362  29.139  26.578  1.00  0.00    -0.354 N 
ATOM      3  C   UNL A   1      31.749  27.852  26.317  1.00  0.00     0.242 C 
ATOM      4  O   UNL A   1      31.285  26.959  27.035  1.00  0.00    -0.273 OA
ATOM      5  H   UNL A   1      30.627  29.238  27.226  1.00  0.00     0.163 HD
BRANCH   3   6
ATOM      6  C   UNL A   1      32.648  27.499  25.101  1.00  0.00     0.171 C 
ATOM      7  C   UNL A   1      34.086  27.219  25.551  1.00  0.00     0.042 C 
BRANCH   6   8
ATOM      8  N   UNL A   1      32.171  26.504  24.117  1.00  0.00    -0.330 N 
ATOM      9  C   UNL A   1      33.170  20.158  25.336  1.00  0.00     0.226 C 
ATOM     10  O   UNL A   1      32.919  19.750  26.477  1.00  0.00    -0.275 OA
ATOM     11  N   UNL A   1      32.446  21.211  24.795  1.00  0.00    -0.342 N 
ATOM     12  C   UNL A   1      31.688  22.099  25.674  1.00  0.00     0.120 C 
ATOM     13  C   UNL A   1      32.322  21.547  23.388  1.00  0.00     0.120 C 
ATOM     14  C   UNL A   1      32.128  23.558  25.455  1.00  0.00     0.030 C 
ATOM     15  C   UNL A   1      32.938  22.913  23.149  1.00  0.00     0.030 C 
ATOM     16  C   UNL A   1      32.183  23.995  23.959  1.00  0.00    -0.008 C 
ATOM     17  C   UNL A   1      30.766  24.142  23.341  1.00  0.00     0.019 C 
ATOM     18  C   UNL A   1      32.966  25.325  23.827  1.00  0.00     0.127 C 
ATOM     19  C   UNL A   1      30.068  25.423  23.724  1.00  0.00     0.101 C 
ATOM     20  C   UNL A   1      30.959  26.611  23.468  1.00  0.00     0.223 C 
ATOM     21  O   UNL A   1      30.562  27.613  22.888  1.00  0.00    -0.275 OA
BRANCH   9  22
ATOM     22  C   UNL A   1      34.437  19.642  24.648  1.00  0.00     0.135 C 
BRANCH  22  23
ATOM     23  C   UNL A   1      35.767  20.262  24.989  1.00  0.00    -0.038 A 
ATOM     24  C   UNL A   1      37.106  23.717  25.914  1.00  0.00     0.044 C 
ATOM     25  C   UNL A   1      37.049  22.258  25.572  1.00  0.00    -0.051 A 
ATOM     26  C   UNL A   1      38.231  21.536  25.374  1.00  0.00     0.003 A 
ATOM     27  C   UNL A   1      35.822  21.607  25.405  1.00  0.00     0.007 A 
ATOM     28  C   UNL A   1      38.187  20.187  25.016  1.00  0.00     0.001 A 
ATOM     29  C   UNL A   1      36.960  19.549  24.826  1.00  0.00     0.004 A 
ENDBRANCH  22  23
ENDBRANCH   9  22
ENDBRANCH   6   8
ENDBRANCH   3   6
ENDBRANCH   1   2
BRANCH   1  30
ATOM     30  C   UNL A   1      32.456  31.313  27.073  1.00  0.00     0.042 C 
BRANCH  30  31
ATOM     31  C   UNL A   1      33.770  30.799  27.625  1.00  0.00     0.118 C 
BRANCH  31  32
ATOM     32  N   UNL A   1      34.408  31.689  28.597  1.00  0.00    -0.352 N 
ATOM     33  C   UNL A   1      35.583  31.476  29.310  1.00  0.00     0.251 C 
ATOM     34  H   UNL A   1      33.950  32.544  28.767  1.00  0.00     0.163 HD
ATOM     35  O   UNL A   1      36.037  32.318  30.059  1.00  0.00    -0.269 OA
BRANCH  33  36
ATOM     36  C   UNL A   1      36.334  30.229  29.024  1.00  0.00     0.039 A 
ATOM     37  C   UNL A   1      36.640  29.396  30.101  1.00  0.00     0.014 A 
ATOM     38  C   UNL A   1      37.006  30.112  27.811  1.00  0.00     0.014 A 
ATOM     39  C   UNL A   1      37.809  28.645  30.051  1.00  0.00     0.010 A 
ATOM     40  C   UNL A   1      38.233  29.479  27.816  1.00  0.00     0.010 A 
ATOM     41  C   UNL A   1      38.670  28.811  28.967  1.00  0.00    -0.014 A 
BRANCH  41  42
ATOM     42  C   UNL A   1      40.080  28.430  29.002  1.00  0.00     0.031 A 
ATOM     43  C   UNL A   1      40.479  27.040  28.698  1.00  0.00     0.074 A 
ATOM     44  C   UNL A   1      41.034  29.364  29.236  1.00  0.00     0.049 A 
ATOM     45  N   UNL A   1      41.647  26.561  28.963  1.00  0.00    -0.248 NA
ATOM     46  C   UNL A   1      39.571  26.040  28.133  1.00  0.00     0.031 C 
ATOM     47  C   UNL A   1      42.476  29.230  29.018  1.00  0.00     0.029 A 
ATOM     48  N   UNL A   1      40.910  30.566  29.958  1.00  0.00    -0.354 N 
ATOM     49  C   UNL A   1      41.746  25.347  28.339  1.00  0.00     0.074 A 
ATOM     50  C   UNL A   1      40.401  25.005  27.958  1.00  0.00     0.031 C 
ATOM     51  C   UNL A   1      43.118  30.074  29.838  1.00  0.00     0.029 A 
ATOM     52  C   UNL A   1      42.119  30.683  30.695  1.00  0.00     0.049 A 
ATOM     53  H   UNL A   1      40.150  31.192  29.953  1.00  0.00     0.167 HD
ATOM     54  C   UNL A   1      42.983  24.833  28.103  1.00  0.00     0.037 A 
ATOM     55  C   UNL A   1      42.123  30.648  32.059  1.00  0.00     0.037 A 
ATOM     56  C   UNL A   1      44.002  25.482  28.925  1.00  0.00     0.049 A 
ATOM     57  C   UNL A   1      42.906  29.503  32.667  1.00  0.00     0.074 A 
ATOM     58  C   UNL A   1      45.084  26.313  28.704  1.00  0.00     0.029 A 
ATOM     59  N   UNL A   1      43.826  25.446  30.298  1.00  0.00    -0.354 N 
ATOM     60  N   UNL A   1      43.541  28.592  31.981  1.00  0.00    -0.248 NA
ATOM     61  C   UNL A   1      42.939  29.233  34.108  1.00  0.00     0.031 C 
ATOM     62  C   UNL A   1      45.501  26.834  29.971  1.00  0.00     0.029 A 
ATOM     63  C   UNL A   1      44.695  26.288  30.954  1.00  0.00     0.049 A 
ATOM     64  H   UNL A   1      43.156  24.883  30.752  1.00  0.00     0.167 HD
ATOM     65  C   UNL A   1      43.965  27.604  32.829  1.00  0.00     0.074 A 
ATOM     66  C   UNL A   1      43.581  28.055  34.152  1.00  0.00     0.031 C 
ATOM     67  C   UNL A   1      44.546  26.452  32.390  1.00  0.00     0.037 A 
BRANCH  54  68
ATOM     68  C   UNL A   1      43.285  23.795  27.053  1.00  0.00     0.064 A 
ATOM     69  C   UNL A   1      42.905  22.453  27.251  1.00  0.00     0.173 A 
ATOM     70  C   UNL A   1      44.058  24.033  25.894  1.00  0.00     0.173 A 
ATOM     71  F   UNL A   1      42.196  22.087  28.328  1.00  0.00    -0.203 F 
ATOM     72  C   UNL A   1      43.260  21.438  26.355  1.00  0.00     0.198 A 
ATOM     73  C   UNL A   1      44.358  23.030  24.970  1.00  0.00     0.198 A 
ATOM     74  F   UNL A   1      44.615  25.223  25.642  1.00  0.00    -0.203 F 
ATOM     75  F   UNL A   1      42.923  20.168  26.621  1.00  0.00    -0.200 F 
ATOM     76  C   UNL A   1      43.970  21.730  25.207  1.00  0.00     0.200 A 
ATOM     77  F   UNL A   1      45.055  23.334  23.865  1.00  0.00    -0.200 F 
ATOM     78  F   UNL A   1      44.301  20.760  24.344  1.00  0.00    -0.200 F 
ENDBRANCH  54  68
BRANCH  55  79
ATOM     79  C   UNL A   1      40.903  31.259  32.647  1.00  0.00     0.064 A 
ATOM     80  C   UNL A   1      40.811  32.665  32.685  1.00  0.00     0.173 A 
ATOM     81  C   UNL A   1      39.723  30.528  32.810  1.00  0.00     0.173 A 
ATOM     82  F   UNL A   1      41.917  33.411  32.539  1.00  0.00    -0.203 F 
ATOM     83  C   UNL A   1      39.577  33.306  32.751  1.00  0.00     0.198 A 
ATOM     84  C   UNL A   1      38.490  31.175  32.894  1.00  0.00     0.198 A 
ATOM     85  F   UNL A   1      39.741  29.187  32.760  1.00  0.00    -0.203 F 
ATOM     86  F   UNL A   1      39.511  34.643  32.668  1.00  0.00    -0.200 F 
ATOM     87  C   UNL A   1      38.414  32.559  32.826  1.00  0.00     0.200 A 
ATOM     88  F   UNL A   1      37.362  30.450  32.936  1.00  0.00    -0.200 F 
ATOM     89  F   UNL A   1      37.221  33.166  32.787  1.00  0.00    -0.200 F 
ENDBRANCH  55  79
BRANCH  67  90
ATOM     90  C   UNL A   1      44.986  25.363  33.320  1.00  0.00     0.064 A 
ATOM     91  C   UNL A   1      46.336  25.000  33.448  1.00  0.00     0.173 A 
ATOM     92  C   UNL A   1      44.053  24.574  34.022  1.00  0.00     0.173 A 
ATOM     93  F   UNL A   1      47.290  25.687  32.801  1.00  0.00    -0.203 F 
ATOM     94  C   UNL A   1      46.727  23.918  34.237  1.00  0.00     0.198 A 
ATOM     95  C   UNL A   1      44.442  23.465  34.771  1.00  0.00     0.198 A 
ATOM     96  F   UNL A   1      42.746  24.876  34.017  1.00  0.00    -0.203 F 
ATOM     97  F   UNL A   1      48.029  23.625  34.367  1.00  0.00    -0.200 F 
ATOM     98  C   UNL A   1      45.780  23.141  34.883  1.00  0.00     0.200 A 
ATOM     99  F   UNL A   1      43.514  22.718  35.386  1.00  0.00    -0.200 F 
ATOM    100  F   UNL A   1      46.156  22.085  35.617  1.00  0.00    -0.200 F 
ENDBRANCH  67  90
ENDBRANCH  41  42
ENDBRANCH  33  36
ENDBRANCH  31  32
ENDBRANCH  30  31
ENDBRANCH   1  30
TORSDOF 13
ENDMDL
MODEL 2
REMARK VINA RESULT:     -14.5      3.068      9.728
REMARK SMILES Cc1cccc(CC(=O)N2CCC3(CCC(=O)N([C@H](C)C(=O)NCCCNC(=O)c4ccc(-c5c6nc(c(-c7c(F)c(F)c(F)c(F)c7F)c7ccc([nH]7)c(-c7c(F)c(F)c(F)c(F)c7F)c7nc(c(-c8c(F)c(F)c(F)c(F)c8F)c8ccc5[nH]8)C=C7)C=C6)cc4)C3)CC2)c1
REMARK SMILES IDX 24 1 23 2 21 3 22 4 19 6 20 7 18 8 8 9 9 10 10 11 11 12
REMARK SMILES IDX 95 13 12 14 94 15 13 16 14 17 93 18 15 19 16 20 17 21 7 22
REMARK SMILES IDX 6 23 1 24 2 25 3 26 96 27 4 28 5 29 25 30 26 31 27 32 28 33
REMARK SMILES IDX 29 35 30 36 31 37 92 38 32 39 91 40 33 41 34 42 35 43 85 44
REMARK SMILES IDX 36 45 90 46 84 47 86 48 37 49 89 50 83 51 82 52 38 54 70 55
REMARK SMILES IDX 50 56 69 57 51 58 54 59 68 60 87 61 52 62 53 63 67 65 88 66
REMARK SMILES IDX 55 67 39 68 40 69 48 70 41 71 42 72 46 73 49 74 43 75 44 76
REMARK SMILES IDX 47 77 45 78 71 79 72 80 80 81 73 82 74 83 78 84 81 85 75 86
REMARK SMILES IDX 76 87 79 88 77 89 56 90 57 91 65 92 58 93 59 94 63 95 66 96
REMARK SMILES IDX 60 97 61 98 64 99 62 100
REMARK H PARENT 23 5 27 34 86 53 54 64
REMARK Flexibility Score: inf
ROOT
ATOM      1  C   UNL A   1      36.601  20.970  25.158  1.00  0.00     0.117 C 
ENDROOT
BRANCH   1   2
ATOM      2  N   UNL A   1      36.145  21.674  23.970  1.00  0.00    -0.354 N 
ATOM      3  C   UNL A   1      35.379  22.805  23.881  1.00  0.00     0.242 C 
ATOM      4  O   UNL A   1      35.264  23.330  22.768  1.00  0.00    -0.273 OA
ATOM      5  H   UNL A   1      36.428  21.283  23.112  1.00  0.00     0.163 HD
BRANCH   3   6
ATOM      6  C   UNL A   1      34.587  23.354  25.098  1.00  0.00     0.171 C 
ATOM      7  C   UNL A   1      35.217  24.653  25.615  1.00  0.00     0.042 C 
BRANCH   6   8
ATOM      8  N   UNL A   1      33.114  23.446  25.018  1.00  0.00    -0.330 N 
ATOM      9  C   UNL A   1      30.434  28.960  22.744  1.00  0.00     0.226 C 
ATOM     10  O   UNL A   1      30.925  29.453  21.721  1.00  0.00    -0.275 OA
ATOM     11  N   UNL A   1      30.452  27.586  22.935  1.00  0.00    -0.342 N 
ATOM     12  C   UNL A   1      31.384  26.759  22.171  1.00  0.00     0.120 C 
ATOM     13  C   UNL A   1      29.603  26.822  23.832  1.00  0.00     0.120 C 
ATOM     14  C   UNL A   1      32.262  25.932  23.130  1.00  0.00     0.030 C 
ATOM     15  C   UNL A   1      30.467  26.167  24.894  1.00  0.00     0.030 C 
ATOM     16  C   UNL A   1      31.469  25.182  24.242  1.00  0.00    -0.008 C 
ATOM     17  C   UNL A   1      30.653  23.989  23.675  1.00  0.00     0.019 C 
ATOM     18  C   UNL A   1      32.441  24.691  25.343  1.00  0.00     0.127 C 
ATOM     19  C   UNL A   1      31.487  22.763  23.396  1.00  0.00     0.101 C 
ATOM     20  C   UNL A   1      32.317  22.401  24.600  1.00  0.00     0.223 C 
ATOM     21  O   UNL A   1      32.384  21.256  25.029  1.00  0.00    -0.275 OA
BRANCH   9  22
ATOM     22  C   UNL A   1      30.032  29.905  23.879  1.00  0.00     0.135 C 
BRANCH  22  23
ATOM     23  C   UNL A   1      31.037  30.238  24.952  1.00  0.00    -0.038 A 
ATOM     24  C   UNL A   1      34.030  28.555  26.624  1.00  0.00     0.044 C 
ATOM     25  C   UNL A   1      32.958  29.552  26.296  1.00  0.00    -0.051 A 
ATOM     26  C   UNL A   1      32.770  30.676  27.107  1.00  0.00     0.003 A 
ATOM     27  C   UNL A   1      32.104  29.354  25.205  1.00  0.00     0.007 A 
ATOM     28  C   UNL A   1      31.749  31.587  26.832  1.00  0.00     0.001 A 
ATOM     29  C   UNL A   1      30.885  31.372  25.757  1.00  0.00     0.004 A 
ENDBRANCH  22  23
ENDBRANCH   9  22
ENDBRANCH   6   8
ENDBRANCH   3   6
ENDBRANCH   1   2
BRANCH   1  30
ATOM     30  C   UNL A   1      38.104  20.954  25.318  1.00  0.00     0.042 C 
BRANCH  30  31
ATOM     31  C   UNL A   1      38.630  22.288  25.806  1.00  0.00     0.118 C 
BRANCH  31  32
ATOM     32  N   UNL A   1      40.060  22.297  26.120  1.00  0.00    -0.352 N 
ATOM     33  C   UNL A   1      40.833  23.368  26.558  1.00  0.00     0.251 C 
ATOM     34  H   UNL A   1      40.534  21.442  26.007  1.00  0.00     0.163 HD
ATOM     35  O   UNL A   1      42.010  23.236  26.830  1.00  0.00    -0.269 OA
BRANCH  33  36
ATOM     36  C   UNL A   1      40.135  24.653  26.806  1.00  0.00     0.039 A 
ATOM     37  C   UNL A   1      40.630  25.792  26.168  1.00  0.00     0.014 A 
ATOM     38  C   UNL A   1      39.283  24.756  27.900  1.00  0.00     0.014 A 
ATOM     39  C   UNL A   1      40.501  27.021  26.805  1.00  0.00     0.010 A 
ATOM     40  C   UNL A   1      39.276  25.947  28.598  1.00  0.00     0.010 A 
ATOM     41  C   UNL A   1      39.953  27.061  28.087  1.00  0.00    -0.014 A 
BRANCH  41  42
ATOM     42  C   UNL A   1      40.155  28.178  29.005  1.00  0.00     0.031 A 
ATOM     43  C   UNL A   1      39.226  29.328  28.987  1.00  0.00     0.074 A 
ATOM     44  C   UNL A   1      41.143  28.132  29.931  1.00  0.00     0.049 A 
ATOM     45  N   UNL A   1      39.478  30.455  29.563  1.00  0.00    -0.248 NA
ATOM     46  C   UNL A   1      37.959  29.336  28.255  1.00  0.00     0.031 C 
ATOM     47  C   UNL A   1      41.304  28.999  31.100  1.00  0.00     0.029 A 
ATOM     48  N   UNL A   1      42.359  27.424  29.865  1.00  0.00    -0.354 N 
ATOM     49  C   UNL A   1      38.324  31.190  29.552  1.00  0.00     0.074 A 
ATOM     50  C   UNL A   1      37.457  30.522  28.618  1.00  0.00     0.031 C 
ATOM     51  C   UNL A   1      42.601  29.038  31.436  1.00  0.00     0.029 A 
ATOM     52  C   UNL A   1      43.329  28.300  30.422  1.00  0.00     0.049 A 
ATOM     53  H   UNL A   1      42.506  26.518  29.509  1.00  0.00     0.167 HD
ATOM     54  C   UNL A   1      38.192  32.211  30.441  1.00  0.00     0.037 A 
ATOM     55  C   UNL A   1      44.352  28.796  29.667  1.00  0.00     0.037 A 
ATOM     56  C   UNL A   1      39.483  32.613  30.994  1.00  0.00     0.049 A 
ATOM     57  C   UNL A   1      44.371  30.305  29.529  1.00  0.00     0.074 A 
ATOM     58  C   UNL A   1      40.101  32.562  32.230  1.00  0.00     0.029 A 
ATOM     59  N   UNL A   1      40.462  33.008  30.097  1.00  0.00    -0.354 N 
ATOM     60  N   UNL A   1      43.496  31.110  30.066  1.00  0.00    -0.248 NA
ATOM     61  C   UNL A   1      45.324  31.016  28.671  1.00  0.00     0.031 C 
ATOM     62  C   UNL A   1      41.488  32.858  32.037  1.00  0.00     0.029 A 
ATOM     63  C   UNL A   1      41.696  33.124  30.696  1.00  0.00     0.049 A 
ATOM     64  H   UNL A   1      40.294  33.184  29.142  1.00  0.00     0.167 HD
ATOM     65  C   UNL A   1      43.688  32.375  29.579  1.00  0.00     0.074 A 
ATOM     66  C   UNL A   1      44.853  32.273  28.722  1.00  0.00     0.031 C 
ATOM     67  C   UNL A   1      42.846  33.410  29.855  1.00  0.00     0.037 A 
BRANCH  54  68
ATOM     68  C   UNL A   1      36.871  32.789  30.880  1.00  0.00     0.064 A 
ATOM     69  C   UNL A   1      36.134  33.616  30.010  1.00  0.00     0.173 A 
ATOM     70  C   UNL A   1      36.343  32.674  32.185  1.00  0.00     0.173 A 
ATOM     71  F   UNL A   1      36.543  33.836  28.752  1.00  0.00    -0.203 F 
ATOM     72  C   UNL A   1      34.959  34.262  30.413  1.00  0.00     0.198 A 
ATOM     73  C   UNL A   1      35.139  33.268  32.566  1.00  0.00     0.198 A 
ATOM     74  F   UNL A   1      37.001  32.043  33.166  1.00  0.00    -0.203 F 
ATOM     75  F   UNL A   1      34.328  35.084  29.563  1.00  0.00    -0.200 F 
ATOM     76  C   UNL A   1      34.453  34.073  31.683  1.00  0.00     0.200 A 
ATOM     77  F   UNL A   1      34.669  33.078  33.808  1.00  0.00    -0.200 F 
ATOM     78  F   UNL A   1      33.323  34.683  32.066  1.00  0.00    -0.200 F 
ENDBRANCH  54  68
BRANCH  55  79
ATOM     79  C   UNL A   1      44.814  27.835  28.633  1.00  0.00     0.064 A 
ATOM     80  C   UNL A   1      45.612  26.747  29.040  1.00  0.00     0.173 A 
ATOM     81  C   UNL A   1      44.198  27.754  27.380  1.00  0.00     0.173 A 
ATOM     82  F   UNL A   1      46.229  26.779  30.232  1.00  0.00    -0.203 F 
ATOM     83  C   UNL A   1      45.683  25.580  28.284  1.00  0.00     0.198 A 
ATOM     84  C   UNL A   1      44.286  26.589  26.618  1.00  0.00     0.198 A 
ATOM     85  F   UNL A   1      43.407  28.746  26.946  1.00  0.00    -0.203 F 
ATOM     86  F   UNL A   1      46.355  24.518  28.751  1.00  0.00    -0.200 F 
ATOM     87  C   UNL A   1      44.994  25.492  27.087  1.00  0.00     0.200 A 
ATOM     88  F   UNL A   1      43.595  26.493  25.473  1.00  0.00    -0.200 F 
ATOM     89  F   UNL A   1      44.974  24.338  26.405  1.00  0.00    -0.200 F 
ENDBRANCH  55  79
BRANCH  67  90
ATOM     90  C   UNL A   1      43.047  34.787  29.299  1.00  0.00     0.064 A 
ATOM     91  C   UNL A   1      43.319  35.886  30.128  1.00  0.00     0.173 A 
ATOM     92  C   UNL A   1      42.857  35.061  27.930  1.00  0.00     0.173 A 
ATOM     93  F   UNL A   1      43.497  35.718  31.447  1.00  0.00    -0.203 F 
ATOM     94  C   UNL A   1      43.403  37.182  29.614  1.00  0.00     0.198 A 
ATOM     95  C   UNL A   1      42.895  36.360  27.428  1.00  0.00     0.198 A 
ATOM     96  F   UNL A   1      42.656  34.073  27.045  1.00  0.00    -0.203 F 
ATOM     97  F   UNL A   1      43.702  38.202  30.429  1.00  0.00    -0.200 F 
ATOM     98  C   UNL A   1      43.173  37.420  28.270  1.00  0.00     0.200 A 
ATOM     99  F   UNL A   1      42.664  36.578  26.125  1.00  0.00    -0.200 F 
ATOM    100  F   UNL A   1      43.226  38.668  27.784  1.00  0.00    -0.200 F 
ENDBRANCH  67  90
ENDBRANCH  41  42
ENDBRANCH  33  36
ENDBRANCH  31  32
ENDBRANCH  30  31
ENDBRANCH   1  30
TORSDOF 13
ENDMDL
MODEL 3
REMARK VINA RESULT:     -14.1      1.430      2.418
REMARK SMILES Cc1cccc(CC(=O)N2CCC3(CCC(=O)N([C@H](C)C(=O)NCCCNC(=O)c4ccc(-c5c6nc(c(-c7c(F)c(F)c(F)c(F)c7F)c7ccc([nH]7)c(-c7c(F)c(F)c(F)c(F)c7F)c7nc(c(-c8c(F)c(F)c(F)c(F)c8F)c8ccc5[nH]8)C=C7)C=C6)cc4)C3)CC2)c1
REMARK SMILES IDX 24 1 23 2 21 3 22 4 19 6 20 7 18 8 8 9 9 10 10 11 11 12
REMARK SMILES IDX 95 13 12 14 94 15 13 16 14 17 93 18 15 19 16 20 17 21 7 22
REMARK SMILES IDX 6 23 1 24 2 25 3 26 96 27 4 28 5 29 25 30 26 31 27 32 28 33
REMARK SMILES IDX 29 35 30 36 31 37 92 38 32 39 91 40 33 41 34 42 35 43 85 44
REMARK SMILES IDX 36 45 90 46 84 47 86 48 37 49 89 50 83 51 82 52 38 54 70 55
REMARK SMILES IDX 50 56 69 57 51 58 54 59 68 60 87 61 52 62 53 63 67 65 88 66
REMARK SMILES IDX 55 67 39 68 40 69 48 70 41 71 42 72 46 73 49 74 43 75 44 76
REMARK SMILES IDX 47 77 45 78 71 79 72 80 80 81 73 82 74 83 78 84 81 85 75 86
REMARK SMILES IDX 76 87 79 88 77 89 56 90 57 91 65 92 58 93 59 94 63 95 66 96
REMARK SMILES IDX 60 97 61 98 64 99 62 100
REMARK H PARENT 23 5 27 34 86 53 54 64
REMARK Flexibility Score: inf
ROOT
ATOM      1  C   UNL A   1      31.999  29.974  26.574  1.00  0.00     0.117 C 
ENDROOT
BRANCH   1   2
ATOM      2  N   UNL A   1      31.401  30.226  25.273  1.00  0.00    -0.354 N 
ATOM      3  C   UNL A   1      30.798  29.344  24.417  1.00  0.00     0.242 C 
ATOM      4  O   UNL A   1      30.199  29.812  23.442  1.00  0.00    -0.273 OA
ATOM      5  H   UNL A   1      31.434  31.161  24.965  1.00  0.00     0.163 HD
BRANCH   3   6
ATOM      6  C   UNL A   1      30.947  27.808  24.588  1.00  0.00     0.171 C 
ATOM      7  C   UNL A   1      29.846  27.066  23.822  1.00  0.00     0.042 C 
BRANCH   6   8
ATOM      8  N   UNL A   1      32.273  27.186  24.392  1.00  0.00    -0.330 N 
ATOM      9  C   UNL A   1      32.613  20.705  23.592  1.00  0.00     0.226 C 
ATOM     10  O   UNL A   1      31.803  20.183  22.814  1.00  0.00    -0.275 OA
ATOM     11  N   UNL A   1      33.059  22.000  23.369  1.00  0.00    -0.342 N 
ATOM     12  C   UNL A   1      32.301  22.889  22.492  1.00  0.00     0.120 C 
ATOM     13  C   UNL A   1      34.261  22.609  23.911  1.00  0.00     0.120 C 
ATOM     14  C   UNL A   1      31.927  24.180  23.247  1.00  0.00     0.030 C 
ATOM     15  C   UNL A   1      33.867  23.765  24.813  1.00  0.00     0.030 C 
ATOM     16  C   UNL A   1      33.115  24.849  24.003  1.00  0.00    -0.008 C 
ATOM     17  C   UNL A   1      34.134  25.501  23.030  1.00  0.00     0.019 C 
ATOM     18  C   UNL A   1      32.576  25.903  25.001  1.00  0.00     0.127 C 
ATOM     19  C   UNL A   1      33.685  26.834  22.487  1.00  0.00     0.101 C 
ATOM     20  C   UNL A   1      33.258  27.748  23.606  1.00  0.00     0.223 C 
ATOM     21  O   UNL A   1      33.635  28.910  23.682  1.00  0.00    -0.275 OA
BRANCH   9  22
ATOM     22  C   UNL A   1      32.913  19.986  24.910  1.00  0.00     0.135 C 
BRANCH  22  23
ATOM     23  C   UNL A   1      33.419  18.567  24.877  1.00  0.00    -0.038 A 
ATOM     24  C   UNL A   1      32.167  15.107  25.898  1.00  0.00     0.044 C 
ATOM     25  C   UNL A   1      33.052  16.208  25.393  1.00  0.00    -0.051 A 
ATOM     26  C   UNL A   1      34.393  15.950  25.090  1.00  0.00     0.003 A 
ATOM     27  C   UNL A   1      32.566  17.514  25.258  1.00  0.00     0.007 A 
ATOM     28  C   UNL A   1      35.233  16.978  24.658  1.00  0.00     0.001 A 
ATOM     29  C   UNL A   1      34.750  18.283  24.549  1.00  0.00     0.004 A 
ENDBRANCH  22  23
ENDBRANCH   9  22
ENDBRANCH   6   8
ENDBRANCH   3   6
ENDBRANCH   1   2
BRANCH   1  30
ATOM     30  C   UNL A   1      33.222  30.818  26.855  1.00  0.00     0.042 C 
BRANCH  30  31
ATOM     31  C   UNL A   1      34.079  30.215  27.948  1.00  0.00     0.118 C 
BRANCH  31  32
ATOM     32  N   UNL A   1      34.817  31.194  28.750  1.00  0.00    -0.352 N 
ATOM     33  C   UNL A   1      36.085  31.064  29.304  1.00  0.00     0.251 C 
ATOM     34  H   UNL A   1      34.358  32.049  28.918  1.00  0.00     0.163 HD
ATOM     35  O   UNL A   1      36.610  31.974  29.916  1.00  0.00    -0.269 OA
BRANCH  33  36
ATOM     36  C   UNL A   1      36.832  29.817  29.010  1.00  0.00     0.039 A 
ATOM     37  C   UNL A   1      37.150  28.984  30.084  1.00  0.00     0.014 A 
ATOM     38  C   UNL A   1      37.487  29.696  27.789  1.00  0.00     0.014 A 
ATOM     39  C   UNL A   1      38.318  28.232  30.020  1.00  0.00     0.010 A 
ATOM     40  C   UNL A   1      38.714  29.063  27.779  1.00  0.00     0.010 A 
ATOM     41  C   UNL A   1      39.165  28.395  28.925  1.00  0.00    -0.014 A 
BRANCH  41  42
ATOM     42  C   UNL A   1      40.574  28.013  28.942  1.00  0.00     0.031 A 
ATOM     43  C   UNL A   1      40.975  26.645  28.551  1.00  0.00     0.074 A 
ATOM     44  C   UNL A   1      41.527  28.929  29.239  1.00  0.00     0.049 A 
ATOM     45  N   UNL A   1      42.142  26.150  28.790  1.00  0.00    -0.248 NA
ATOM     46  C   UNL A   1      40.070  25.684  27.919  1.00  0.00     0.031 C 
ATOM     47  C   UNL A   1      42.970  28.810  29.020  1.00  0.00     0.029 A 
ATOM     48  N   UNL A   1      41.400  30.084  30.036  1.00  0.00    -0.354 N 
ATOM     49  C   UNL A   1      42.244  24.979  28.090  1.00  0.00     0.074 A 
ATOM     50  C   UNL A   1      40.901  24.662  27.682  1.00  0.00     0.031 C 
ATOM     51  C   UNL A   1      43.608  29.599  29.895  1.00  0.00     0.029 A 
ATOM     52  C   UNL A   1      42.605  30.152  30.785  1.00  0.00     0.049 A 
ATOM     53  H   UNL A   1      40.640  30.708  30.068  1.00  0.00     0.167 HD
ATOM     54  C   UNL A   1      43.482  24.480  27.828  1.00  0.00     0.037 A 
ATOM     55  C   UNL A   1      42.603  30.030  32.144  1.00  0.00     0.037 A 
ATOM     56  C   UNL A   1      44.497  25.075  28.694  1.00  0.00     0.049 A 
ATOM     57  C   UNL A   1      43.384  28.848  32.681  1.00  0.00     0.074 A 
ATOM     58  C   UNL A   1      45.580  25.918  28.532  1.00  0.00     0.029 A 
ATOM     59  N   UNL A   1      44.314  24.951  30.062  1.00  0.00    -0.354 N 
ATOM     60  N   UNL A   1      44.022  27.983  31.942  1.00  0.00    -0.248 NA
ATOM     61  C   UNL A   1      43.409  28.487  34.102  1.00  0.00     0.031 C 
ATOM     62  C   UNL A   1      45.991  26.357  29.832  1.00  0.00     0.029 A 
ATOM     63  C   UNL A   1      45.181  25.750  30.774  1.00  0.00     0.049 A 
ATOM     64  H   UNL A   1      43.642  24.361  30.476  1.00  0.00     0.167 HD
ATOM     65  C   UNL A   1      44.442  26.943  32.726  1.00  0.00     0.074 A 
ATOM     66  C   UNL A   1      44.052  27.308  34.074  1.00  0.00     0.031 C 
ATOM     67  C   UNL A   1      45.024  25.821  32.217  1.00  0.00     0.037 A 
BRANCH  54  68
ATOM     68  C   UNL A   1      43.789  23.512  26.715  1.00  0.00     0.064 A 
ATOM     69  C   UNL A   1      43.371  22.169  26.806  1.00  0.00     0.173 A 
ATOM     70  C   UNL A   1      44.600  23.810  25.597  1.00  0.00     0.173 A 
ATOM     71  F   UNL A   1      42.624  21.746  27.836  1.00  0.00    -0.203 F 
ATOM     72  C   UNL A   1      43.728  21.211  25.850  1.00  0.00     0.198 A 
ATOM     73  C   UNL A   1      44.902  22.868  24.612  1.00  0.00     0.198 A 
ATOM     74  F   UNL A   1      45.193  25.001  25.445  1.00  0.00    -0.203 F 
ATOM     75  F   UNL A   1      43.353  19.935  26.016  1.00  0.00    -0.200 F 
ATOM     76  C   UNL A   1      44.477  21.565  24.745  1.00  0.00     0.200 A 
ATOM     77  F   UNL A   1      45.638  23.231  23.551  1.00  0.00    -0.200 F 
ATOM     78  F   UNL A   1      44.810  20.650  23.824  1.00  0.00    -0.200 F 
ENDBRANCH  54  68
BRANCH  55  79
ATOM     79  C   UNL A   1      41.380  30.603  32.765  1.00  0.00     0.064 A 
ATOM     80  C   UNL A   1      41.264  32.005  32.844  1.00  0.00     0.173 A 
ATOM     81  C   UNL A   1      40.214  29.846  32.920  1.00  0.00     0.173 A 
ATOM     82  F   UNL A   1      42.355  32.774  32.707  1.00  0.00    -0.203 F 
ATOM     83  C   UNL A   1      40.021  32.622  32.944  1.00  0.00     0.198 A 
ATOM     84  C   UNL A   1      38.972  30.469  33.038  1.00  0.00     0.198 A 
ATOM     85  F   UNL A   1      40.255  28.509  32.831  1.00  0.00    -0.203 F 
ATOM     86  F   UNL A   1      39.931  33.959  32.900  1.00  0.00    -0.200 F 
ATOM     87  C   UNL A   1      38.872  31.853  33.011  1.00  0.00     0.200 A 
ATOM     88  F   UNL A   1      37.858  29.724  33.073  1.00  0.00    -0.200 F 
ATOM     89  F   UNL A   1      37.668  32.439  33.004  1.00  0.00    -0.200 F 
ENDBRANCH  55  79
BRANCH  67  90
ATOM     90  C   UNL A   1      45.461  24.675  33.078  1.00  0.00     0.064 A 
ATOM     91  C   UNL A   1      44.608  23.598  33.363  1.00  0.00     0.173 A 
ATOM     92  C   UNL A   1      46.708  24.682  33.735  1.00  0.00     0.173 A 
ATOM     93  F   UNL A   1      43.395  23.519  32.795  1.00  0.00    -0.203 F 
ATOM     94  C   UNL A   1      44.984  22.585  34.248  1.00  0.00     0.198 A 
ATOM     95  C   UNL A   1      47.061  23.696  34.653  1.00  0.00     0.198 A 
ATOM     96  F   UNL A   1      47.620  25.633  33.481  1.00  0.00    -0.203 F 
ATOM     97  F   UNL A   1      44.159  21.552  34.467  1.00  0.00    -0.200 F 
ATOM     98  C   UNL A   1      46.202  22.644  34.905  1.00  0.00     0.200 A 
ATOM     99  F   UNL A   1      48.241  23.768  35.286  1.00  0.00    -0.200 F 
ATOM    100  F   UNL A   1      46.549  21.686  35.775  1.00  0.00    -0.200 F 
ENDBRANCH  67  90
ENDBRANCH  41  42
ENDBRANCH  33  36
ENDBRANCH  31  32
ENDBRANCH  30  31
ENDBRANCH   1  30
TORSDOF 13
ENDMDL
