MODEL 1
REMARK VINA RESULT:     -14.1      0.000      0.000
REMARK SMILES Cc1cc(C(=O)N[C@H]2C=C[C@H](C(=O)NCCCNC(=O)c3ccc(-c4c5nc(c(-c6c(F)c(F)c(F)c(F)c6F)c6ccc([nH]6)c(-c6c(F)c(F)c(F)c(F)c6F)c6nc(c(-c7c(F)c(F)c(F)c(F)c7F)c7ccc4[nH]7)C=C6)C=C5)cc3)C2)ccc1F
REMARK SMILES IDX 16 1 15 2 14 3 12 4 13 5 11 7 8 8 9 9 84 10 10 11 7 12 5 13
REMARK SMILES IDX 6 14 4 16 1 17 2 18 3 19 87 20 86 21 88 22 85 23 17 24 18 25
REMARK SMILES IDX 19 26 20 28 21 29 22 30 83 31 23 32 82 33 24 34 25 35 26 36
REMARK SMILES IDX 76 37 27 38 81 39 75 40 77 41 28 42 80 43 74 44 73 45 29 47
REMARK SMILES IDX 61 48 41 49 60 50 42 51 45 52 59 53 78 54 43 55 44 56 58 58
REMARK SMILES IDX 79 59 46 60 30 61 31 62 39 63 32 64 33 65 37 66 40 67 34 68
REMARK SMILES IDX 35 69 38 70 36 71 62 72 63 73 71 74 64 75 65 76 69 77 72 78
REMARK SMILES IDX 66 79 67 80 70 81 68 82 47 83 48 84 56 85 49 86 50 87 54 88
REMARK SMILES IDX 57 89 51 90 52 91 55 92 53 93
REMARK H PARENT 14 6 7 15 18 27 77 46 45 57
REMARK Flexibility Score: inf
ROOT
ATOM      1  C   UNL A   1      33.032  28.537  27.418  1.00  0.00     0.042 C 
ENDROOT
BRANCH   1   2
ATOM      2  C   UNL A   1      31.768  28.201  26.628  1.00  0.00     0.117 C 
BRANCH   2   3
ATOM      3  N   UNL A   1      31.391  26.815  26.821  1.00  0.00    -0.356 N 
ATOM      4  C   UNL A   1      30.546  26.017  26.122  1.00  0.00     0.227 C 
ATOM      5  O   UNL A   1      30.251  24.942  26.658  1.00  0.00    -0.274 OA
ATOM      6  H   UNL A   1      31.823  26.379  27.590  1.00  0.00     0.163 HD
BRANCH   4   7
ATOM      7  C   UNL A   1      30.023  26.343  24.705  1.00  0.00     0.103 C 
ATOM      8  C   UNL A   1      31.790  25.497  23.323  1.00  0.00     0.106 C 
ATOM      9  C   UNL A   1      31.619  26.964  23.089  1.00  0.00    -0.006 C 
ATOM     10  C   UNL A   1      30.390  25.139  23.824  1.00  0.00     0.047 C 
ATOM     11  C   UNL A   1      30.641  27.437  23.880  1.00  0.00    -0.016 C 
BRANCH   8  12
ATOM     12  N   UNL A   1      32.199  24.806  22.134  1.00  0.00    -0.346 N 
ATOM     13  C   UNL A   1      33.114  23.790  21.980  1.00  0.00     0.251 C 
ATOM     14  O   UNL A   1      33.286  23.328  20.853  1.00  0.00    -0.269 OA
ATOM     15  H   UNL A   1      31.759  25.104  21.306  1.00  0.00     0.164 HD
BRANCH  13  16
ATOM     16  C   UNL A   1      33.841  23.177  23.131  1.00  0.00     0.040 A 
ATOM     17  C   UNL A   1      36.847  23.703  25.418  1.00  0.00     0.047 C 
ATOM     18  C   UNL A   1      35.623  23.100  24.798  1.00  0.00    -0.015 A 
ATOM     19  C   UNL A   1      35.070  23.636  23.624  1.00  0.00     0.020 A 
ATOM     20  C   UNL A   1      34.999  22.005  25.393  1.00  0.00     0.126 A 
ATOM     21  C   UNL A   1      33.829  21.472  24.865  1.00  0.00     0.040 A 
ATOM     22  F   UNL A   1      35.529  21.451  26.492  1.00  0.00    -0.207 F 
ATOM     23  C   UNL A   1      33.241  22.066  23.746  1.00  0.00     0.017 A 
ENDBRANCH  13  16
ENDBRANCH   8  12
ENDBRANCH   4   7
ENDBRANCH   2   3
ENDBRANCH   1   2
BRANCH   1  24
ATOM     24  C   UNL A   1      33.977  29.325  26.537  1.00  0.00     0.118 C 
BRANCH  24  25
ATOM     25  N   UNL A   1      34.129  30.701  27.019  1.00  0.00    -0.352 N 
ATOM     26  C   UNL A   1      35.023  31.203  27.936  1.00  0.00     0.251 C 
ATOM     27  H   UNL A   1      33.503  31.357  26.634  1.00  0.00     0.163 HD
ATOM     28  O   UNL A   1      34.874  32.317  28.414  1.00  0.00    -0.269 OA
BRANCH  26  29
ATOM     29  C   UNL A   1      36.178  30.377  28.307  1.00  0.00     0.039 A 
ATOM     30  C   UNL A   1      36.228  29.684  29.523  1.00  0.00     0.014 A 
ATOM     31  C   UNL A   1      37.248  30.344  27.421  1.00  0.00     0.014 A 
ATOM     32  C   UNL A   1      37.370  28.953  29.840  1.00  0.00     0.010 A 
ATOM     33  C   UNL A   1      38.263  29.467  27.626  1.00  0.00     0.010 A 
ATOM     34  C   UNL A   1      38.380  28.872  28.883  1.00  0.00    -0.014 A 
BRANCH  34  35
ATOM     35  C   UNL A   1      39.718  28.366  29.104  1.00  0.00     0.031 A 
ATOM     36  C   UNL A   1      40.085  27.005  28.714  1.00  0.00     0.074 A 
ATOM     37  C   UNL A   1      40.619  29.341  29.359  1.00  0.00     0.049 A 
ATOM     38  N   UNL A   1      41.143  26.406  29.126  1.00  0.00    -0.248 NA
ATOM     39  C   UNL A   1      39.279  26.205  27.799  1.00  0.00     0.031 C 
ATOM     40  C   UNL A   1      42.059  29.349  29.178  1.00  0.00     0.029 A 
ATOM     41  N   UNL A   1      40.338  30.609  29.901  1.00  0.00    -0.354 N 
ATOM     42  C   UNL A   1      41.341  25.323  28.299  1.00  0.00     0.074 A 
ATOM     43  C   UNL A   1      40.098  25.169  27.576  1.00  0.00     0.031 C 
ATOM     44  C   UNL A   1      42.569  30.394  29.859  1.00  0.00     0.029 A 
ATOM     45  C   UNL A   1      41.478  30.987  30.623  1.00  0.00     0.049 A 
ATOM     46  H   UNL A   1      39.508  31.126  29.794  1.00  0.00     0.167 HD
ATOM     47  C   UNL A   1      42.600  24.806  28.192  1.00  0.00     0.037 A 
ATOM     48  C   UNL A   1      41.387  31.010  31.986  1.00  0.00     0.037 A 
ATOM     49  C   UNL A   1      43.532  25.576  29.021  1.00  0.00     0.049 A 
ATOM     50  C   UNL A   1      42.231  29.930  32.614  1.00  0.00     0.074 A 
ATOM     51  C   UNL A   1      44.405  26.607  28.710  1.00  0.00     0.029 A 
ATOM     52  N   UNL A   1      43.365  25.612  30.403  1.00  0.00    -0.354 N 
ATOM     53  N   UNL A   1      42.573  28.828  32.003  1.00  0.00    -0.248 NA
ATOM     54  C   UNL A   1      42.807  30.035  33.948  1.00  0.00     0.031 C 
ATOM     55  C   UNL A   1      44.700  27.313  29.905  1.00  0.00     0.029 A 
ATOM     56  C   UNL A   1      44.022  26.701  30.947  1.00  0.00     0.049 A 
ATOM     57  H   UNL A   1      42.851  24.952  30.922  1.00  0.00     0.167 HD
ATOM     58  C   UNL A   1      43.434  28.117  32.792  1.00  0.00     0.074 A 
ATOM     59  C   UNL A   1      43.538  28.908  34.007  1.00  0.00     0.031 C 
ATOM     60  C   UNL A   1      44.007  26.948  32.381  1.00  0.00     0.037 A 
BRANCH  47  61
ATOM     61  C   UNL A   1      43.039  23.851  27.101  1.00  0.00     0.064 A 
ATOM     62  C   UNL A   1      42.732  22.474  27.171  1.00  0.00     0.173 A 
ATOM     63  C   UNL A   1      43.784  24.227  25.965  1.00  0.00     0.173 A 
ATOM     64  F   UNL A   1      41.946  21.978  28.135  1.00  0.00    -0.203 F 
ATOM     65  C   UNL A   1      43.218  21.542  26.248  1.00  0.00     0.198 A 
ATOM     66  C   UNL A   1      44.310  23.290  25.067  1.00  0.00     0.198 A 
ATOM     67  F   UNL A   1      43.981  25.516  25.661  1.00  0.00    -0.203 F 
ATOM     68  F   UNL A   1      42.894  20.248  26.378  1.00  0.00    -0.200 F 
ATOM     69  C   UNL A   1      44.034  21.945  25.214  1.00  0.00     0.200 A 
ATOM     70  F   UNL A   1      45.084  23.702  24.053  1.00  0.00    -0.200 F 
ATOM     71  F   UNL A   1      44.526  21.050  24.348  1.00  0.00    -0.200 F 
ENDBRANCH  47  61
BRANCH  48  72
ATOM     72  C   UNL A   1      40.046  31.486  32.449  1.00  0.00     0.064 A 
ATOM     73  C   UNL A   1      39.684  32.809  32.114  1.00  0.00     0.173 A 
ATOM     74  C   UNL A   1      39.001  30.599  32.756  1.00  0.00     0.173 A 
ATOM     75  F   UNL A   1      40.639  33.702  31.808  1.00  0.00    -0.203 F 
ATOM     76  C   UNL A   1      38.351  33.186  31.958  1.00  0.00     0.198 A 
ATOM     77  C   UNL A   1      37.663  30.987  32.610  1.00  0.00     0.198 A 
ATOM     78  F   UNL A   1      39.267  29.324  33.074  1.00  0.00    -0.203 F 
ATOM     79  F   UNL A   1      38.052  34.417  31.515  1.00  0.00    -0.200 F 
ATOM     80  C   UNL A   1      37.341  32.265  32.175  1.00  0.00     0.200 A 
ATOM     81  F   UNL A   1      36.682  30.095  32.816  1.00  0.00    -0.200 F 
ATOM     82  F   UNL A   1      36.066  32.600  31.934  1.00  0.00    -0.200 F 
ENDBRANCH  48  72
BRANCH  60  83
ATOM     83  C   UNL A   1      44.699  25.957  33.281  1.00  0.00     0.064 A 
ATOM     84  C   UNL A   1      44.015  25.099  34.155  1.00  0.00     0.173 A 
ATOM     85  C   UNL A   1      46.088  25.714  33.145  1.00  0.00     0.173 A 
ATOM     86  F   UNL A   1      42.682  25.150  34.285  1.00  0.00    -0.203 F 
ATOM     87  C   UNL A   1      44.676  24.108  34.881  1.00  0.00     0.198 A 
ATOM     88  C   UNL A   1      46.730  24.677  33.814  1.00  0.00     0.198 A 
ATOM     89  F   UNL A   1      46.857  26.451  32.330  1.00  0.00    -0.203 F 
ATOM     90  F   UNL A   1      43.984  23.343  35.736  1.00  0.00    -0.200 F 
ATOM     91  C   UNL A   1      46.028  23.884  34.695  1.00  0.00     0.200 A 
ATOM     92  F   UNL A   1      48.027  24.435  33.576  1.00  0.00    -0.200 F 
ATOM     93  F   UNL A   1      46.645  22.891  35.347  1.00  0.00    -0.200 F 
ENDBRANCH  60  83
ENDBRANCH  34  35
ENDBRANCH  26  29
ENDBRANCH  24  25
ENDBRANCH   1  24
TORSDOF 12
ENDMDL
MODEL 2
REMARK VINA RESULT:     -14.1      0.319      1.172
REMARK SMILES Cc1cc(C(=O)N[C@H]2C=C[C@H](C(=O)NCCCNC(=O)c3ccc(-c4c5nc(c(-c6c(F)c(F)c(F)c(F)c6F)c6ccc([nH]6)c(-c6c(F)c(F)c(F)c(F)c6F)c6nc(c(-c7c(F)c(F)c(F)c(F)c7F)c7ccc4[nH]7)C=C6)C=C5)cc3)C2)ccc1F
REMARK SMILES IDX 16 1 15 2 14 3 12 4 13 5 11 7 8 8 9 9 84 10 10 11 7 12 5 13
REMARK SMILES IDX 6 14 4 16 1 17 2 18 3 19 87 20 86 21 88 22 85 23 17 24 18 25
REMARK SMILES IDX 19 26 20 28 21 29 22 30 83 31 23 32 82 33 24 34 25 35 26 36
REMARK SMILES IDX 76 37 27 38 81 39 75 40 77 41 28 42 80 43 74 44 73 45 29 47
REMARK SMILES IDX 61 48 41 49 60 50 42 51 45 52 59 53 78 54 43 55 44 56 58 58
REMARK SMILES IDX 79 59 46 60 30 61 31 62 39 63 32 64 33 65 37 66 40 67 34 68
REMARK SMILES IDX 35 69 38 70 36 71 62 72 63 73 71 74 64 75 65 76 69 77 72 78
REMARK SMILES IDX 66 79 67 80 70 81 68 82 47 83 48 84 56 85 49 86 50 87 54 88
REMARK SMILES IDX 57 89 51 90 52 91 55 92 53 93
REMARK H PARENT 14 6 7 15 18 27 77 46 45 57
REMARK Flexibility Score: inf
ROOT
ATOM      1  C   UNL A   1      33.186  28.505  27.565  1.00  0.00     0.042 C 
ENDROOT
BRANCH   1   2
ATOM      2  C   UNL A   1      31.778  28.332  26.996  1.00  0.00     0.117 C 
BRANCH   2   3
ATOM      3  N   UNL A   1      31.401  26.933  26.965  1.00  0.00    -0.356 N 
ATOM      4  C   UNL A   1      30.681  26.225  26.060  1.00  0.00     0.227 C 
ATOM      5  O   UNL A   1      30.330  25.094  26.414  1.00  0.00    -0.274 OA
ATOM      6  H   UNL A   1      31.723  26.407  27.733  1.00  0.00     0.163 HD
BRANCH   4   7
ATOM      7  C   UNL A   1      30.366  26.719  24.630  1.00  0.00     0.103 C 
ATOM      8  C   UNL A   1      31.991  25.529  23.330  1.00  0.00     0.106 C 
ATOM      9  C   UNL A   1      32.188  27.003  23.166  1.00  0.00    -0.006 C 
ATOM     10  C   UNL A   1      30.510  25.496  23.711  1.00  0.00     0.047 C 
ATOM     11  C   UNL A   1      31.289  27.665  23.913  1.00  0.00    -0.016 C 
BRANCH   8  12
ATOM     12  N   UNL A   1      32.321  24.806  22.136  1.00  0.00    -0.346 N 
ATOM     13  C   UNL A   1      33.191  23.756  21.958  1.00  0.00     0.251 C 
ATOM     14  O   UNL A   1      33.296  23.270  20.832  1.00  0.00    -0.269 OA
ATOM     15  H   UNL A   1      31.856  25.108  21.322  1.00  0.00     0.164 HD
BRANCH  13  16
ATOM     16  C   UNL A   1      33.945  23.133  23.086  1.00  0.00     0.040 A 
ATOM     17  C   UNL A   1      36.999  23.647  25.313  1.00  0.00     0.047 C 
ATOM     18  C   UNL A   1      35.764  23.046  24.712  1.00  0.00    -0.015 A 
ATOM     19  C   UNL A   1      35.183  23.592  23.557  1.00  0.00     0.020 A 
ATOM     20  C   UNL A   1      35.158  21.941  25.308  1.00  0.00     0.126 A 
ATOM     21  C   UNL A   1      33.979  21.408  24.801  1.00  0.00     0.040 A 
ATOM     22  F   UNL A   1      35.715  21.377  26.390  1.00  0.00    -0.207 F 
ATOM     23  C   UNL A   1      33.365  22.012  23.701  1.00  0.00     0.017 A 
ENDBRANCH  13  16
ENDBRANCH   8  12
ENDBRANCH   4   7
ENDBRANCH   2   3
ENDBRANCH   1   2
BRANCH   1  24
ATOM     24  C   UNL A   1      34.035  29.269  26.572  1.00  0.00     0.118 C 
BRANCH  24  25
ATOM     25  N   UNL A   1      34.246  30.651  27.008  1.00  0.00    -0.352 N 
ATOM     26  C   UNL A   1      35.192  31.151  27.874  1.00  0.00     0.251 C 
ATOM     27  H   UNL A   1      33.625  31.316  26.631  1.00  0.00     0.163 HD
ATOM     28  O   UNL A   1      35.095  32.282  28.326  1.00  0.00    -0.269 OA
BRANCH  26  29
ATOM     29  C   UNL A   1      36.336  30.301  28.221  1.00  0.00     0.039 A 
ATOM     30  C   UNL A   1      36.383  29.583  29.424  1.00  0.00     0.014 A 
ATOM     31  C   UNL A   1      37.401  30.270  27.329  1.00  0.00     0.014 A 
ATOM     32  C   UNL A   1      37.516  28.830  29.719  1.00  0.00     0.010 A 
ATOM     33  C   UNL A   1      38.404  29.375  27.510  1.00  0.00     0.010 A 
ATOM     34  C   UNL A   1      38.519  28.753  28.754  1.00  0.00    -0.014 A 
BRANCH  34  35
ATOM     35  C   UNL A   1      39.851  28.223  28.956  1.00  0.00     0.031 A 
ATOM     36  C   UNL A   1      40.184  26.851  28.576  1.00  0.00     0.074 A 
ATOM     37  C   UNL A   1      40.776  29.182  29.183  1.00  0.00     0.049 A 
ATOM     38  N   UNL A   1      41.238  26.236  28.977  1.00  0.00    -0.248 NA
ATOM     39  C   UNL A   1      39.346  26.055  27.687  1.00  0.00     0.031 C 
ATOM     40  C   UNL A   1      42.212  29.160  28.975  1.00  0.00     0.029 A 
ATOM     41  N   UNL A   1      40.530  30.462  29.715  1.00  0.00    -0.354 N 
ATOM     42  C   UNL A   1      41.399  25.139  28.160  1.00  0.00     0.074 A 
ATOM     43  C   UNL A   1      40.140  25.002  27.461  1.00  0.00     0.031 C 
ATOM     44  C   UNL A   1      42.755  30.203  29.634  1.00  0.00     0.029 A 
ATOM     45  C   UNL A   1      41.690  30.826  30.411  1.00  0.00     0.049 A 
ATOM     46  H   UNL A   1      39.708  30.994  29.617  1.00  0.00     0.167 HD
ATOM     47  C   UNL A   1      42.646  24.596  28.035  1.00  0.00     0.037 A 
ATOM     48  C   UNL A   1      41.625  30.867  31.775  1.00  0.00     0.037 A 
ATOM     49  C   UNL A   1      43.607  25.357  28.838  1.00  0.00     0.049 A 
ATOM     50  C   UNL A   1      42.459  29.778  32.401  1.00  0.00     0.074 A 
ATOM     51  C   UNL A   1      44.495  26.367  28.498  1.00  0.00     0.029 A 
ATOM     52  N   UNL A   1      43.467  25.413  30.223  1.00  0.00    -0.354 N 
ATOM     53  N   UNL A   1      42.768  28.662  31.798  1.00  0.00    -0.248 NA
ATOM     54  C   UNL A   1      43.061  29.888  33.723  1.00  0.00     0.031 C 
ATOM     55  C   UNL A   1      44.826  27.081  29.679  1.00  0.00     0.029 A 
ATOM     56  C   UNL A   1      44.155  26.495  30.741  1.00  0.00     0.049 A 
ATOM     57  H   UNL A   1      42.949  24.769  30.758  1.00  0.00     0.167 HD
ATOM     58  C   UNL A   1      43.629  27.944  32.579  1.00  0.00     0.074 A 
ATOM     59  C   UNL A   1      43.772  28.747  33.782  1.00  0.00     0.031 C 
ATOM     60  C   UNL A   1      44.172  26.759  32.172  1.00  0.00     0.037 A 
BRANCH  47  61
ATOM     61  C   UNL A   1      43.045  23.620  26.948  1.00  0.00     0.064 A 
ATOM     62  C   UNL A   1      42.771  22.239  27.072  1.00  0.00     0.173 A 
ATOM     63  C   UNL A   1      43.720  23.978  25.765  1.00  0.00     0.173 A 
ATOM     64  F   UNL A   1      42.049  21.755  28.091  1.00  0.00    -0.203 F 
ATOM     65  C   UNL A   1      43.226  21.292  26.150  1.00  0.00     0.198 A 
ATOM     66  C   UNL A   1      44.217  23.026  24.865  1.00  0.00     0.198 A 
ATOM     67  F   UNL A   1      43.873  25.262  25.415  1.00  0.00    -0.203 F 
ATOM     68  F   UNL A   1      42.938  19.996  26.332  1.00  0.00    -0.200 F 
ATOM     69  C   UNL A   1      43.977  21.682  25.062  1.00  0.00     0.200 A 
ATOM     70  F   UNL A   1      44.926  23.426  23.799  1.00  0.00    -0.200 F 
ATOM     71  F   UNL A   1      44.441  20.772  24.195  1.00  0.00    -0.200 F 
ENDBRANCH  47  61
BRANCH  48  72
ATOM     72  C   UNL A   1      40.302  31.376  32.257  1.00  0.00     0.064 A 
ATOM     73  C   UNL A   1      39.958  32.699  31.908  1.00  0.00     0.173 A 
ATOM     74  C   UNL A   1      39.248  30.513  32.598  1.00  0.00     0.173 A 
ATOM     75  F   UNL A   1      40.923  33.569  31.567  1.00  0.00    -0.203 F 
ATOM     76  C   UNL A   1      38.629  33.098  31.771  1.00  0.00     0.198 A 
ATOM     77  C   UNL A   1      37.914  30.923  32.474  1.00  0.00     0.198 A 
ATOM     78  F   UNL A   1      39.497  29.238  32.932  1.00  0.00    -0.203 F 
ATOM     79  F   UNL A   1      38.344  34.327  31.314  1.00  0.00    -0.200 F 
ATOM     80  C   UNL A   1      37.607  32.200  32.024  1.00  0.00     0.200 A 
ATOM     81  F   UNL A   1      36.921  30.053  32.714  1.00  0.00    -0.200 F 
ATOM     82  F   UNL A   1      36.333  32.554  31.803  1.00  0.00    -0.200 F 
ENDBRANCH  48  72
BRANCH  60  83
ATOM     83  C   UNL A   1      44.861  25.766  33.071  1.00  0.00     0.064 A 
ATOM     84  C   UNL A   1      46.237  25.499  33.015  1.00  0.00     0.173 A 
ATOM     85  C   UNL A   1      44.167  25.181  34.158  1.00  0.00     0.173 A 
ATOM     86  F   UNL A   1      47.027  26.084  32.104  1.00  0.00    -0.203 F 
ATOM     87  C   UNL A   1      46.864  24.668  33.943  1.00  0.00     0.198 A 
ATOM     88  C   UNL A   1      44.809  24.413  35.124  1.00  0.00     0.198 A 
ATOM     89  F   UNL A   1      42.851  25.369  34.338  1.00  0.00    -0.203 F 
ATOM     90  F   UNL A   1      48.173  24.409  33.820  1.00  0.00    -0.200 F 
ATOM     91  C   UNL A   1      46.155  24.142  35.008  1.00  0.00     0.200 A 
ATOM     92  F   UNL A   1      44.120  23.963  36.182  1.00  0.00    -0.200 F 
ATOM     93  F   UNL A   1      46.774  23.396  35.931  1.00  0.00    -0.200 F 
ENDBRANCH  60  83
ENDBRANCH  34  35
ENDBRANCH  26  29
ENDBRANCH  24  25
ENDBRANCH   1  24
TORSDOF 12
ENDMDL
MODEL 3
REMARK VINA RESULT:     -14.0      1.110      1.661
REMARK SMILES Cc1cc(C(=O)N[C@H]2C=C[C@H](C(=O)NCCCNC(=O)c3ccc(-c4c5nc(c(-c6c(F)c(F)c(F)c(F)c6F)c6ccc([nH]6)c(-c6c(F)c(F)c(F)c(F)c6F)c6nc(c(-c7c(F)c(F)c(F)c(F)c7F)c7ccc4[nH]7)C=C6)C=C5)cc3)C2)ccc1F
REMARK SMILES IDX 16 1 15 2 14 3 12 4 13 5 11 7 8 8 9 9 84 10 10 11 7 12 5 13
REMARK SMILES IDX 6 14 4 16 1 17 2 18 3 19 87 20 86 21 88 22 85 23 17 24 18 25
REMARK SMILES IDX 19 26 20 28 21 29 22 30 83 31 23 32 82 33 24 34 25 35 26 36
REMARK SMILES IDX 76 37 27 38 81 39 75 40 77 41 28 42 80 43 74 44 73 45 29 47
REMARK SMILES IDX 61 48 41 49 60 50 42 51 45 52 59 53 78 54 43 55 44 56 58 58
REMARK SMILES IDX 79 59 46 60 30 61 31 62 39 63 32 64 33 65 37 66 40 67 34 68
REMARK SMILES IDX 35 69 38 70 36 71 62 72 63 73 71 74 64 75 65 76 69 77 72 78
REMARK SMILES IDX 66 79 67 80 70 81 68 82 47 83 48 84 56 85 49 86 50 87 54 88
REMARK SMILES IDX 57 89 51 90 52 91 55 92 53 93
REMARK H PARENT 14 6 7 15 18 27 77 46 45 57
REMARK Flexibility Score: inf
ROOT
ATOM      1  C   UNL A   1      33.978  28.496  25.939  1.00  0.00     0.042 C 
ENDROOT
BRANCH   1   2
ATOM      2  C   UNL A   1      33.249  29.406  24.952  1.00  0.00     0.117 C 
BRANCH   2   3
ATOM      3  N   UNL A   1      32.934  28.696  23.729  1.00  0.00    -0.356 N 
ATOM      4  C   UNL A   1      31.844  27.970  23.378  1.00  0.00     0.227 C 
ATOM      5  O   UNL A   1      31.954  27.291  22.350  1.00  0.00    -0.274 OA
ATOM      6  H   UNL A   1      33.630  28.750  23.035  1.00  0.00     0.163 HD
BRANCH   4   7
ATOM      7  C   UNL A   1      30.495  28.017  24.130  1.00  0.00     0.103 C 
ATOM      8  C   UNL A   1      30.334  25.786  24.993  1.00  0.00     0.106 C 
ATOM      9  C   UNL A   1      29.175  26.068  24.091  1.00  0.00    -0.006 C 
ATOM     10  C   UNL A   1      30.694  27.209  25.422  1.00  0.00     0.047 C 
ATOM     11  C   UNL A   1      29.280  27.312  23.595  1.00  0.00    -0.016 C 
BRANCH   8  12
ATOM     12  N   UNL A   1      29.979  24.905  26.067  1.00  0.00    -0.346 N 
ATOM     13  C   UNL A   1      30.596  23.754  26.499  1.00  0.00     0.251 C 
ATOM     14  O   UNL A   1      30.120  23.168  27.471  1.00  0.00    -0.269 OA
ATOM     15  H   UNL A   1      29.173  25.163  26.570  1.00  0.00     0.164 HD
BRANCH  13  16
ATOM     16  C   UNL A   1      31.857  23.236  25.890  1.00  0.00     0.040 A 
ATOM     17  C   UNL A   1      35.643  23.693  25.961  1.00  0.00     0.047 C 
ATOM     18  C   UNL A   1      34.280  23.180  25.602  1.00  0.00    -0.015 A 
ATOM     19  C   UNL A   1      33.122  23.804  26.091  1.00  0.00     0.020 A 
ATOM     20  C   UNL A   1      34.143  22.055  24.791  1.00  0.00     0.126 A 
ATOM     21  C   UNL A   1      32.890  21.529  24.499  1.00  0.00     0.040 A 
ATOM     22  F   UNL A   1      35.232  21.463  24.281  1.00  0.00    -0.207 F 
ATOM     23  C   UNL A   1      31.749  22.109  25.060  1.00  0.00     0.017 A 
ENDBRANCH  13  16
ENDBRANCH   8  12
ENDBRANCH   4   7
ENDBRANCH   2   3
ENDBRANCH   1   2
BRANCH   1  24
ATOM     24  C   UNL A   1      33.680  28.950  27.351  1.00  0.00     0.118 C 
BRANCH  24  25
ATOM     25  N   UNL A   1      33.926  30.386  27.510  1.00  0.00    -0.352 N 
ATOM     26  C   UNL A   1      34.979  31.020  28.127  1.00  0.00     0.251 C 
ATOM     27  H   UNL A   1      33.243  30.979  27.121  1.00  0.00     0.163 HD
ATOM     28  O   UNL A   1      34.929  32.213  28.389  1.00  0.00    -0.269 OA
BRANCH  26  29
ATOM     29  C   UNL A   1      36.179  30.235  28.440  1.00  0.00     0.039 A 
ATOM     30  C   UNL A   1      36.335  29.588  29.672  1.00  0.00     0.014 A 
ATOM     31  C   UNL A   1      37.182  30.195  27.480  1.00  0.00     0.014 A 
ATOM     32  C   UNL A   1      37.516  28.895  29.929  1.00  0.00     0.010 A 
ATOM     33  C   UNL A   1      38.232  29.350  27.639  1.00  0.00     0.010 A 
ATOM     34  C   UNL A   1      38.455  28.804  28.903  1.00  0.00    -0.014 A 
BRANCH  34  35
ATOM     35  C   UNL A   1      39.818  28.337  29.042  1.00  0.00     0.031 A 
ATOM     36  C   UNL A   1      40.184  26.962  28.704  1.00  0.00     0.074 A 
ATOM     37  C   UNL A   1      40.714  29.342  29.163  1.00  0.00     0.049 A 
ATOM     38  N   UNL A   1      41.287  26.409  29.062  1.00  0.00    -0.248 NA
ATOM     39  C   UNL A   1      39.326  26.092  27.909  1.00  0.00     0.031 C 
ATOM     40  C   UNL A   1      42.134  29.366  28.863  1.00  0.00     0.029 A 
ATOM     41  N   UNL A   1      40.449  30.635  29.650  1.00  0.00    -0.354 N 
ATOM     42  C   UNL A   1      41.442  25.281  28.288  1.00  0.00     0.074 A 
ATOM     43  C   UNL A   1      40.148  25.061  27.680  1.00  0.00     0.031 C 
ATOM     44  C   UNL A   1      42.673  30.460  29.436  1.00  0.00     0.029 A 
ATOM     45  C   UNL A   1      41.634  31.078  30.251  1.00  0.00     0.049 A 
ATOM     46  H   UNL A   1      39.600  31.129  29.582  1.00  0.00     0.167 HD
ATOM     47  C   UNL A   1      42.700  24.782  28.107  1.00  0.00     0.037 A 
ATOM     48  C   UNL A   1      41.655  31.183  31.613  1.00  0.00     0.037 A 
ATOM     49  C   UNL A   1      43.678  25.619  28.809  1.00  0.00     0.049 A 
ATOM     50  C   UNL A   1      42.572  30.159  32.233  1.00  0.00     0.074 A 
ATOM     51  C   UNL A   1      44.498  26.645  28.365  1.00  0.00     0.029 A 
ATOM     52  N   UNL A   1      43.624  25.736  30.196  1.00  0.00    -0.354 N 
ATOM     53  N   UNL A   1      42.889  29.028  31.662  1.00  0.00    -0.248 NA
ATOM     54  C   UNL A   1      43.252  30.357  33.506  1.00  0.00     0.031 C 
ATOM     55  C   UNL A   1      44.873  27.428  29.488  1.00  0.00     0.029 A 
ATOM     56  C   UNL A   1      44.297  26.868  30.617  1.00  0.00     0.049 A 
ATOM     57  H   UNL A   1      43.169  25.099  30.793  1.00  0.00     0.167 HD
ATOM     58  C   UNL A   1      43.828  28.384  32.417  1.00  0.00     0.074 A 
ATOM     59  C   UNL A   1      44.013  29.249  33.570  1.00  0.00     0.031 C 
ATOM     60  C   UNL A   1      44.394  27.202  32.031  1.00  0.00     0.037 A 
BRANCH  47  61
ATOM     61  C   UNL A   1      43.070  23.771  27.042  1.00  0.00     0.064 A 
ATOM     62  C   UNL A   1      42.796  22.396  27.216  1.00  0.00     0.173 A 
ATOM     63  C   UNL A   1      43.717  24.089  25.831  1.00  0.00     0.173 A 
ATOM     64  F   UNL A   1      42.098  21.947  28.267  1.00  0.00    -0.203 F 
ATOM     65  C   UNL A   1      43.226  21.418  26.313  1.00  0.00     0.198 A 
ATOM     66  C   UNL A   1      44.189  23.108  24.951  1.00  0.00     0.198 A 
ATOM     67  F   UNL A   1      43.865  25.361  25.438  1.00  0.00    -0.203 F 
ATOM     68  F   UNL A   1      42.939  20.130  26.543  1.00  0.00    -0.200 F 
ATOM     69  C   UNL A   1      43.952  21.771  25.196  1.00  0.00     0.200 A 
ATOM     70  F   UNL A   1      44.874  23.471  23.856  1.00  0.00    -0.200 F 
ATOM     71  F   UNL A   1      44.392  20.833  24.347  1.00  0.00    -0.200 F 
ENDBRANCH  47  61
BRANCH  48  72
ATOM     72  C   UNL A   1      40.344  31.662  32.157  1.00  0.00     0.064 A 
ATOM     73  C   UNL A   1      39.926  32.954  31.776  1.00  0.00     0.173 A 
ATOM     74  C   UNL A   1      39.350  30.775  32.600  1.00  0.00     0.173 A 
ATOM     75  F   UNL A   1      40.832  33.845  31.340  1.00  0.00    -0.203 F 
ATOM     76  C   UNL A   1      38.577  33.297  31.709  1.00  0.00     0.198 A 
ATOM     77  C   UNL A   1      37.995  31.129  32.544  1.00  0.00     0.198 A 
ATOM     78  F   UNL A   1      39.670  29.527  32.970  1.00  0.00    -0.203 F 
ATOM     79  F   UNL A   1      38.214  34.494  31.221  1.00  0.00    -0.200 F 
ATOM     80  C   UNL A   1      37.610  32.373  32.063  1.00  0.00     0.200 A 
ATOM     81  F   UNL A   1      37.055  30.233  32.882  1.00  0.00    -0.200 F 
ATOM     82  F   UNL A   1      36.311  32.669  31.909  1.00  0.00    -0.200 F 
ENDBRANCH  48  72
BRANCH  60  83
ATOM     83  C   UNL A   1      45.180  26.282  32.927  1.00  0.00     0.064 A 
ATOM     84  C   UNL A   1      44.586  25.432  33.872  1.00  0.00     0.173 A 
ATOM     85  C   UNL A   1      46.569  26.094  32.720  1.00  0.00     0.173 A 
ATOM     86  F   UNL A   1      43.262  25.429  34.077  1.00  0.00    -0.203 F 
ATOM     87  C   UNL A   1      45.332  24.502  34.597  1.00  0.00     0.198 A 
ATOM     88  C   UNL A   1      47.295  25.115  33.391  1.00  0.00     0.198 A 
ATOM     89  F   UNL A   1      47.256  26.829  31.834  1.00  0.00    -0.203 F 
ATOM     90  F   UNL A   1      44.725  23.744  35.520  1.00  0.00    -0.200 F 
ATOM     91  C   UNL A   1      46.680  24.330  34.342  1.00  0.00     0.200 A 
ATOM     92  F   UNL A   1      48.586  24.921  33.089  1.00  0.00    -0.200 F 
ATOM     93  F   UNL A   1      47.378  23.393  34.996  1.00  0.00    -0.200 F 
ENDBRANCH  60  83
ENDBRANCH  34  35
ENDBRANCH  26  29
ENDBRANCH  24  25
ENDBRANCH   1  24
TORSDOF 12
ENDMDL
