MODEL 1
REMARK VINA RESULT:     -11.6      0.000      0.000
REMARK SMILES COc1ccc(NC(C)(C)C2=N[C@@H](C(=O)NCCCNC(=O)c3ccc(-c4c5nc(c(-c6c(F)c(F)c(F)c(F)c6F)c6ccc([nH]6)c(-c6c(F)c(F)c(F)c(F)c6F)c6nc(c(-c7c(F)c(F)c(F)c(F)c7F)c7ccc4[nH]7)C=C6)C=C5)cc3)CS2)cc1
REMARK SMILES IDX 17 1 16 2 14 3 15 4 13 6 11 7 12 8 87 9 86 10 8 11 9 12
REMARK SMILES IDX 10 13 7 14 6 16 3 17 4 18 89 19 5 20 88 21 2 22 1 23 18 24
REMARK SMILES IDX 19 25 20 26 21 27 22 29 23 30 24 31 85 32 25 33 84 34 26 35
REMARK SMILES IDX 27 36 28 37 78 38 29 39 83 40 77 41 79 42 30 43 82 44 76 45
REMARK SMILES IDX 75 46 31 48 63 49 43 50 62 51 44 52 47 53 61 54 80 55 45 56
REMARK SMILES IDX 46 57 60 59 81 60 48 61 32 62 33 63 41 64 34 65 35 66 39 67
REMARK SMILES IDX 42 68 36 69 37 70 40 71 38 72 64 73 65 74 73 75 66 76 67 77
REMARK SMILES IDX 71 78 74 79 68 80 69 81 72 82 70 83 49 84 50 85 58 86 51 87
REMARK SMILES IDX 52 88 56 89 59 90 53 91 54 92 57 93 55 94
REMARK H PARENT 16 5 7 15 20 28 79 47 47 58
REMARK Flexibility Score: inf
ROOT
ATOM      1  C   UNL A   1      31.970  28.114  23.240  1.00  0.00     0.117 C 
ENDROOT
BRANCH   1   2
ATOM      2  N   UNL A   1      32.475  27.311  22.142  1.00  0.00    -0.354 N 
ATOM      3  C   UNL A   1      32.807  25.990  22.113  1.00  0.00     0.245 C 
ATOM      4  O   UNL A   1      33.278  25.551  21.059  1.00  0.00    -0.273 OA
ATOM      5  H   UNL A   1      32.596  27.792  21.291  1.00  0.00     0.163 HD
BRANCH   3   6
ATOM      6  C   UNL A   1      32.689  25.084  23.341  1.00  0.00     0.205 C 
ATOM      7  C   UNL A   1      33.881  23.486  24.443  1.00  0.00     0.094 C 
ATOM      8  N   UNL A   1      34.024  24.615  23.811  1.00  0.00    -0.266 NA
ATOM      9  S   UNL A   1      32.261  22.793  24.438  1.00  0.00    -0.106 SA
ATOM     10  C   UNL A   1      31.774  23.901  23.100  1.00  0.00     0.113 C 
BRANCH   7  11
ATOM     11  C   UNL A   1      35.046  22.769  25.179  1.00  0.00     0.080 C 
ATOM     12  C   UNL A   1      35.187  21.266  24.903  1.00  0.00     0.042 C 
ATOM     13  C   UNL A   1      34.733  22.928  26.687  1.00  0.00     0.042 C 
BRANCH  11  14
ATOM     14  N   UNL A   1      36.352  23.423  24.950  1.00  0.00    -0.374 N 
ATOM     15  H   UNL A   1      36.359  24.121  24.256  1.00  0.00     0.161 HD
BRANCH  14  16
ATOM     16  C   UNL A   1      37.564  23.194  25.567  1.00  0.00     0.035 A 
ATOM     17  C   UNL A   1      39.873  22.441  27.004  1.00  0.00     0.119 A 
ATOM     18  C   UNL A   1      39.318  23.705  27.182  1.00  0.00     0.048 A 
ATOM     19  C   UNL A   1      39.314  21.564  26.088  1.00  0.00     0.048 A 
ATOM     20  C   UNL A   1      38.176  24.076  26.461  1.00  0.00     0.029 A 
ATOM     21  C   UNL A   1      38.181  21.949  25.365  1.00  0.00     0.029 A 
BRANCH  17  22
ATOM     22  O   UNL A   1      40.827  21.949  27.847  1.00  0.00    -0.497 OA
ATOM     23  C   UNL A   1      41.153  20.588  27.609  1.00  0.00     0.278 C 
ENDBRANCH  17  22
ENDBRANCH  14  16
ENDBRANCH  11  14
ENDBRANCH   7  11
ENDBRANCH   3   6
ENDBRANCH   1   2
BRANCH   1  24
ATOM     24  C   UNL A   1      33.004  29.141  23.684  1.00  0.00     0.042 C 
BRANCH  24  25
ATOM     25  C   UNL A   1      33.270  29.180  25.183  1.00  0.00     0.118 C 
BRANCH  25  26
ATOM     26  N   UNL A   1      32.884  30.428  25.830  1.00  0.00    -0.352 N 
ATOM     27  C   UNL A   1      33.382  31.137  26.895  1.00  0.00     0.251 C 
ATOM     28  H   UNL A   1      32.099  30.853  25.414  1.00  0.00     0.163 HD
ATOM     29  O   UNL A   1      32.765  32.140  27.261  1.00  0.00    -0.269 OA
BRANCH  27  30
ATOM     30  C   UNL A   1      34.612  30.749  27.635  1.00  0.00     0.039 A 
ATOM     31  C   UNL A   1      35.573  31.741  27.885  1.00  0.00     0.014 A 
ATOM     32  C   UNL A   1      34.885  29.442  28.034  1.00  0.00     0.014 A 
ATOM     33  C   UNL A   1      36.751  31.439  28.581  1.00  0.00     0.010 A 
ATOM     34  C   UNL A   1      36.005  29.160  28.820  1.00  0.00     0.010 A 
ATOM     35  C   UNL A   1      36.961  30.149  29.086  1.00  0.00    -0.014 A 
BRANCH  35  36
ATOM     36  C   UNL A   1      38.191  29.798  29.845  1.00  0.00     0.031 A 
ATOM     37  C   UNL A   1      38.404  30.343  31.233  1.00  0.00     0.074 A 
ATOM     38  C   UNL A   1      39.154  29.052  29.268  1.00  0.00     0.049 A 
ATOM     39  N   UNL A   1      39.441  30.221  32.024  1.00  0.00    -0.248 NA
ATOM     40  C   UNL A   1      37.318  31.163  31.792  1.00  0.00     0.031 C 
ATOM     41  C   UNL A   1      39.104  28.514  27.909  1.00  0.00     0.029 A 
ATOM     42  N   UNL A   1      40.370  28.634  29.747  1.00  0.00    -0.354 N 
ATOM     43  C   UNL A   1      39.139  30.962  33.159  1.00  0.00     0.074 A 
ATOM     44  C   UNL A   1      37.854  31.585  32.926  1.00  0.00     0.031 C 
ATOM     45  C   UNL A   1      40.234  27.831  27.664  1.00  0.00     0.029 A 
ATOM     46  C   UNL A   1      41.096  27.901  28.841  1.00  0.00     0.049 A 
ATOM     47  H   UNL A   1      40.692  28.840  30.654  1.00  0.00     0.167 HD
ATOM     48  C   UNL A   1      39.849  31.088  34.307  1.00  0.00     0.037 A 
ATOM     49  C   UNL A   1      42.320  27.349  28.945  1.00  0.00     0.037 A 
ATOM     50  C   UNL A   1      41.114  30.448  34.553  1.00  0.00     0.049 A 
ATOM     51  C   UNL A   1      43.077  27.474  30.238  1.00  0.00     0.074 A 
ATOM     52  C   UNL A   1      41.888  30.472  35.700  1.00  0.00     0.029 A 
ATOM     53  N   UNL A   1      41.791  29.664  33.630  1.00  0.00    -0.354 N 
ATOM     54  N   UNL A   1      42.749  28.119  31.331  1.00  0.00    -0.248 NA
ATOM     55  C   UNL A   1      44.368  26.775  30.319  1.00  0.00     0.031 C 
ATOM     56  C   UNL A   1      43.050  29.729  35.460  1.00  0.00     0.029 A 
ATOM     57  C   UNL A   1      42.978  29.205  34.178  1.00  0.00     0.049 A 
ATOM     58  H   UNL A   1      41.474  29.463  32.720  1.00  0.00     0.167 HD
ATOM     59  C   UNL A   1      43.776  27.886  32.236  1.00  0.00     0.074 A 
ATOM     60  C   UNL A   1      44.730  27.023  31.570  1.00  0.00     0.031 C 
ATOM     61  C   UNL A   1      43.917  28.345  33.504  1.00  0.00     0.037 A 
BRANCH  48  62
ATOM     62  C   UNL A   1      39.253  31.947  35.387  1.00  0.00     0.064 A 
ATOM     63  C   UNL A   1      39.512  33.325  35.454  1.00  0.00     0.173 A 
ATOM     64  C   UNL A   1      38.419  31.389  36.366  1.00  0.00     0.173 A 
ATOM     65  F   UNL A   1      40.315  33.906  34.549  1.00  0.00    -0.203 F 
ATOM     66  C   UNL A   1      38.995  34.104  36.486  1.00  0.00     0.198 A 
ATOM     67  C   UNL A   1      37.876  32.178  37.378  1.00  0.00     0.198 A 
ATOM     68  F   UNL A   1      38.132  30.079  36.347  1.00  0.00    -0.203 F 
ATOM     69  F   UNL A   1      39.313  35.403  36.565  1.00  0.00    -0.200 F 
ATOM     70  C   UNL A   1      38.175  33.531  37.445  1.00  0.00     0.200 A 
ATOM     71  F   UNL A   1      37.074  31.626  38.299  1.00  0.00    -0.200 F 
ATOM     72  F   UNL A   1      37.682  34.280  38.440  1.00  0.00    -0.200 F 
ENDBRANCH  48  62
BRANCH  49  73
ATOM     73  C   UNL A   1      42.888  26.591  27.800  1.00  0.00     0.064 A 
ATOM     74  C   UNL A   1      42.734  25.201  27.711  1.00  0.00     0.173 A 
ATOM     75  C   UNL A   1      43.589  27.238  26.773  1.00  0.00     0.173 A 
ATOM     76  F   UNL A   1      42.086  24.536  28.679  1.00  0.00    -0.203 F 
ATOM     77  C   UNL A   1      43.277  24.483  26.647  1.00  0.00     0.198 A 
ATOM     78  C   UNL A   1      44.111  26.523  25.697  1.00  0.00     0.198 A 
ATOM     79  F   UNL A   1      43.757  28.568  26.809  1.00  0.00    -0.203 F 
ATOM     80  F   UNL A   1      43.151  23.150  26.608  1.00  0.00    -0.200 F 
ATOM     81  C   UNL A   1      43.961  25.145  25.638  1.00  0.00     0.200 A 
ATOM     82  F   UNL A   1      44.758  27.167  24.717  1.00  0.00    -0.200 F 
ATOM     83  F   UNL A   1      44.478  24.456  24.614  1.00  0.00    -0.200 F 
ENDBRANCH  49  73
BRANCH  61  84
ATOM     84  C   UNL A   1      45.132  27.898  34.263  1.00  0.00     0.064 A 
ATOM     85  C   UNL A   1      45.128  26.726  35.034  1.00  0.00     0.173 A 
ATOM     86  C   UNL A   1      46.320  28.642  34.204  1.00  0.00     0.173 A 
ATOM     87  F   UNL A   1      44.011  25.989  35.137  1.00  0.00    -0.203 F 
ATOM     88  C   UNL A   1      46.260  26.333  35.742  1.00  0.00     0.198 A 
ATOM     89  C   UNL A   1      47.458  28.229  34.890  1.00  0.00     0.198 A 
ATOM     90  F   UNL A   1      46.379  29.767  33.476  1.00  0.00    -0.203 F 
ATOM     91  F   UNL A   1      46.217  25.238  36.515  1.00  0.00    -0.200 F 
ATOM     92  C   UNL A   1      47.426  27.081  35.666  1.00  0.00     0.200 A 
ATOM     93  F   UNL A   1      48.588  28.947  34.804  1.00  0.00    -0.200 F 
ATOM     94  F   UNL A   1      48.514  26.699  36.348  1.00  0.00    -0.200 F 
ENDBRANCH  61  84
ENDBRANCH  35  36
ENDBRANCH  27  30
ENDBRANCH  25  26
ENDBRANCH  24  25
ENDBRANCH   1  24
TORSDOF 14
ENDMDL
MODEL 2
REMARK VINA RESULT:     -11.5      1.761      2.786
REMARK SMILES COc1ccc(NC(C)(C)C2=N[C@@H](C(=O)NCCCNC(=O)c3ccc(-c4c5nc(c(-c6c(F)c(F)c(F)c(F)c6F)c6ccc([nH]6)c(-c6c(F)c(F)c(F)c(F)c6F)c6nc(c(-c7c(F)c(F)c(F)c(F)c7F)c7ccc4[nH]7)C=C6)C=C5)cc3)CS2)cc1
REMARK SMILES IDX 17 1 16 2 14 3 15 4 13 6 11 7 12 8 87 9 86 10 8 11 9 12
REMARK SMILES IDX 10 13 7 14 6 16 3 17 4 18 89 19 5 20 88 21 2 22 1 23 18 24
REMARK SMILES IDX 19 25 20 26 21 27 22 29 23 30 24 31 85 32 25 33 84 34 26 35
REMARK SMILES IDX 27 36 28 37 78 38 29 39 83 40 77 41 79 42 30 43 82 44 76 45
REMARK SMILES IDX 75 46 31 48 63 49 43 50 62 51 44 52 47 53 61 54 80 55 45 56
REMARK SMILES IDX 46 57 60 59 81 60 48 61 32 62 33 63 41 64 34 65 35 66 39 67
REMARK SMILES IDX 42 68 36 69 37 70 40 71 38 72 64 73 65 74 73 75 66 76 67 77
REMARK SMILES IDX 71 78 74 79 68 80 69 81 72 82 70 83 49 84 50 85 58 86 51 87
REMARK SMILES IDX 52 88 56 89 59 90 53 91 54 92 57 93 55 94
REMARK H PARENT 16 5 7 15 20 28 79 47 47 58
REMARK Flexibility Score: inf
ROOT
ATOM      1  C   UNL A   1      32.053  28.230  23.071  1.00  0.00     0.117 C 
ENDROOT
BRANCH   1   2
ATOM      2  N   UNL A   1      32.548  27.284  22.088  1.00  0.00    -0.354 N 
ATOM      3  C   UNL A   1      32.921  25.983  22.247  1.00  0.00     0.245 C 
ATOM      4  O   UNL A   1      33.372  25.403  21.253  1.00  0.00    -0.273 OA
ATOM      5  H   UNL A   1      32.626  27.634  21.172  1.00  0.00     0.163 HD
BRANCH   3   6
ATOM      6  C   UNL A   1      32.871  25.271  23.600  1.00  0.00     0.205 C 
ATOM      7  C   UNL A   1      33.339  23.237  24.511  1.00  0.00     0.094 C 
ATOM      8  N   UNL A   1      33.784  24.093  23.638  1.00  0.00    -0.266 NA
ATOM      9  S   UNL A   1      31.789  23.621  25.257  1.00  0.00    -0.106 SA
ATOM     10  C   UNL A   1      31.464  24.855  23.982  1.00  0.00     0.113 C 
BRANCH   7  11
ATOM     11  C   UNL A   1      34.109  21.947  24.907  1.00  0.00     0.080 C 
ATOM     12  C   UNL A   1      34.173  21.640  26.409  1.00  0.00     0.042 C 
ATOM     13  C   UNL A   1      35.564  22.177  24.426  1.00  0.00     0.042 C 
BRANCH  11  14
ATOM     14  N   UNL A   1      33.617  20.749  24.193  1.00  0.00    -0.374 N 
ATOM     15  H   UNL A   1      33.233  20.916  23.303  1.00  0.00     0.161 HD
BRANCH  14  16
ATOM     16  C   UNL A   1      33.617  19.430  24.596  1.00  0.00     0.035 A 
ATOM     17  C   UNL A   1      33.661  16.646  25.059  1.00  0.00     0.119 A 
ATOM     18  C   UNL A   1      32.537  17.395  25.396  1.00  0.00     0.048 A 
ATOM     19  C   UNL A   1      34.778  17.275  24.531  1.00  0.00     0.048 A 
ATOM     20  C   UNL A   1      32.524  18.778  25.171  1.00  0.00     0.029 A 
ATOM     21  C   UNL A   1      34.757  18.657  24.321  1.00  0.00     0.029 A 
BRANCH  17  22
ATOM     22  O   UNL A   1      33.635  15.282  25.034  1.00  0.00    -0.497 OA
ATOM     23  C   UNL A   1      32.540  14.718  25.741  1.00  0.00     0.278 C 
ENDBRANCH  17  22
ENDBRANCH  14  16
ENDBRANCH  11  14
ENDBRANCH   7  11
ENDBRANCH   3   6
ENDBRANCH   1   2
BRANCH   1  24
ATOM     24  C   UNL A   1      33.194  29.048  23.663  1.00  0.00     0.042 C 
BRANCH  24  25
ATOM     25  C   UNL A   1      33.262  29.052  25.184  1.00  0.00     0.118 C 
BRANCH  25  26
ATOM     26  N   UNL A   1      32.915  30.328  25.799  1.00  0.00    -0.352 N 
ATOM     27  C   UNL A   1      33.430  31.044  26.850  1.00  0.00     0.251 C 
ATOM     28  H   UNL A   1      32.148  30.770  25.367  1.00  0.00     0.163 HD
ATOM     29  O   UNL A   1      32.845  32.076  27.188  1.00  0.00    -0.269 OA
BRANCH  27  30
ATOM     30  C   UNL A   1      34.641  30.632  27.608  1.00  0.00     0.039 A 
ATOM     31  C   UNL A   1      35.621  31.603  27.866  1.00  0.00     0.014 A 
ATOM     32  C   UNL A   1      34.878  29.322  28.019  1.00  0.00     0.014 A 
ATOM     33  C   UNL A   1      36.782  31.278  28.578  1.00  0.00     0.010 A 
ATOM     34  C   UNL A   1      35.981  29.019  28.820  1.00  0.00     0.010 A 
ATOM     35  C   UNL A   1      36.956  29.987  29.093  1.00  0.00    -0.014 A 
BRANCH  35  36
ATOM     36  C   UNL A   1      38.168  29.612  29.870  1.00  0.00     0.031 A 
ATOM     37  C   UNL A   1      38.393  30.188  31.244  1.00  0.00     0.074 A 
ATOM     38  C   UNL A   1      39.105  28.815  29.321  1.00  0.00     0.049 A 
ATOM     39  N   UNL A   1      39.421  30.050  32.045  1.00  0.00    -0.248 NA
ATOM     40  C   UNL A   1      37.336  31.064  31.771  1.00  0.00     0.031 C 
ATOM     41  C   UNL A   1      39.043  28.240  27.978  1.00  0.00     0.029 A 
ATOM     42  N   UNL A   1      40.302  28.365  29.820  1.00  0.00    -0.354 N 
ATOM     43  C   UNL A   1      39.140  30.834  33.157  1.00  0.00     0.074 A 
ATOM     44  C   UNL A   1      37.881  31.498  32.897  1.00  0.00     0.031 C 
ATOM     45  C   UNL A   1      40.148  27.508  27.760  1.00  0.00     0.029 A 
ATOM     46  C   UNL A   1      41.005  27.580  28.940  1.00  0.00     0.049 A 
ATOM     47  H   UNL A   1      40.626  28.585  30.724  1.00  0.00     0.167 HD
ATOM     48  C   UNL A   1      39.847  30.966  34.305  1.00  0.00     0.037 A 
ATOM     49  C   UNL A   1      42.207  26.985  29.069  1.00  0.00     0.037 A 
ATOM     50  C   UNL A   1      41.086  30.287  34.577  1.00  0.00     0.049 A 
ATOM     51  C   UNL A   1      42.961  27.118  30.363  1.00  0.00     0.074 A 
ATOM     52  C   UNL A   1      41.854  30.315  35.729  1.00  0.00     0.029 A 
ATOM     53  N   UNL A   1      41.738  29.452  33.683  1.00  0.00    -0.354 N 
ATOM     54  N   UNL A   1      42.651  27.807  31.435  1.00  0.00    -0.248 NA
ATOM     55  C   UNL A   1      44.224  26.375  30.472  1.00  0.00     0.031 C 
ATOM     56  C   UNL A   1      42.988  29.522  35.518  1.00  0.00     0.029 A 
ATOM     57  C   UNL A   1      42.904  28.965  34.251  1.00  0.00     0.049 A 
ATOM     58  H   UNL A   1      41.419  29.237  32.776  1.00  0.00     0.167 HD
ATOM     59  C   UNL A   1      43.663  27.561  32.353  1.00  0.00     0.074 A 
ATOM     60  C   UNL A   1      44.588  26.645  31.718  1.00  0.00     0.031 C 
ATOM     61  C   UNL A   1      43.814  28.051  33.608  1.00  0.00     0.037 A 
BRANCH  48  62
ATOM     62  C   UNL A   1      39.278  31.877  35.356  1.00  0.00     0.064 A 
ATOM     63  C   UNL A   1      39.581  33.248  35.380  1.00  0.00     0.173 A 
ATOM     64  C   UNL A   1      38.425  31.378  36.351  1.00  0.00     0.173 A 
ATOM     65  F   UNL A   1      40.403  33.774  34.459  1.00  0.00    -0.203 F 
ATOM     66  C   UNL A   1      39.088  34.075  36.386  1.00  0.00     0.198 A 
ATOM     67  C   UNL A   1      37.907  32.215  37.337  1.00  0.00     0.198 A 
ATOM     68  F   UNL A   1      38.097  30.078  36.373  1.00  0.00    -0.203 F 
ATOM     69  F   UNL A   1      39.447  35.365  36.425  1.00  0.00    -0.200 F 
ATOM     70  C   UNL A   1      38.249  33.559  37.361  1.00  0.00     0.200 A 
ATOM     71  F   UNL A   1      37.086  31.718  38.272  1.00  0.00    -0.200 F 
ATOM     72  F   UNL A   1      37.779  34.355  38.330  1.00  0.00    -0.200 F 
ENDBRANCH  48  62
BRANCH  49  73
ATOM     73  C   UNL A   1      42.752  26.174  27.950  1.00  0.00     0.064 A 
ATOM     74  C   UNL A   1      42.449  24.810  27.836  1.00  0.00     0.173 A 
ATOM     75  C   UNL A   1      43.581  26.744  26.972  1.00  0.00     0.173 A 
ATOM     76  F   UNL A   1      41.676  24.217  28.757  1.00  0.00    -0.203 F 
ATOM     77  C   UNL A   1      42.970  24.042  26.797  1.00  0.00     0.198 A 
ATOM     78  C   UNL A   1      44.081  25.979  25.919  1.00  0.00     0.198 A 
ATOM     79  F   UNL A   1      43.894  28.046  27.033  1.00  0.00    -0.203 F 
ATOM     80  F   UNL A   1      42.698  22.731  26.735  1.00  0.00    -0.200 F 
ATOM     81  C   UNL A   1      43.781  24.627  25.837  1.00  0.00     0.200 A 
ATOM     82  F   UNL A   1      44.852  26.552  24.986  1.00  0.00    -0.200 F 
ATOM     83  F   UNL A   1      44.277  23.890  24.836  1.00  0.00    -0.200 F 
ENDBRANCH  49  73
BRANCH  61  84
ATOM     84  C   UNL A   1      45.007  27.581  34.388  1.00  0.00     0.064 A 
ATOM     85  C   UNL A   1      46.223  28.278  34.365  1.00  0.00     0.173 A 
ATOM     86  C   UNL A   1      44.925  26.427  35.183  1.00  0.00     0.173 A 
ATOM     87  F   UNL A   1      46.358  29.377  33.607  1.00  0.00    -0.203 F 
ATOM     88  C   UNL A   1      47.324  27.820  35.085  1.00  0.00     0.198 A 
ATOM     89  C   UNL A   1      46.018  25.990  35.924  1.00  0.00     0.198 A 
ATOM     90  F   UNL A   1      43.782  25.728  35.245  1.00  0.00    -0.203 F 
ATOM     91  F   UNL A   1      48.492  28.472  35.005  1.00  0.00    -0.200 F 
ATOM     92  C   UNL A   1      47.219  26.680  35.868  1.00  0.00     0.200 A 
ATOM     93  F   UNL A   1      45.912  24.894  36.691  1.00  0.00    -0.200 F 
ATOM     94  F   UNL A   1      48.279  26.242  36.560  1.00  0.00    -0.200 F 
ENDBRANCH  61  84
ENDBRANCH  35  36
ENDBRANCH  27  30
ENDBRANCH  25  26
ENDBRANCH  24  25
ENDBRANCH   1  24
TORSDOF 14
ENDMDL
MODEL 3
REMARK VINA RESULT:     -11.5      4.393      8.409
REMARK SMILES COc1ccc(NC(C)(C)C2=N[C@@H](C(=O)NCCCNC(=O)c3ccc(-c4c5nc(c(-c6c(F)c(F)c(F)c(F)c6F)c6ccc([nH]6)c(-c6c(F)c(F)c(F)c(F)c6F)c6nc(c(-c7c(F)c(F)c(F)c(F)c7F)c7ccc4[nH]7)C=C6)C=C5)cc3)CS2)cc1
REMARK SMILES IDX 17 1 16 2 14 3 15 4 13 6 11 7 12 8 87 9 86 10 8 11 9 12
REMARK SMILES IDX 10 13 7 14 6 16 3 17 4 18 89 19 5 20 88 21 2 22 1 23 18 24
REMARK SMILES IDX 19 25 20 26 21 27 22 29 23 30 24 31 85 32 25 33 84 34 26 35
REMARK SMILES IDX 27 36 28 37 78 38 29 39 83 40 77 41 79 42 30 43 82 44 76 45
REMARK SMILES IDX 75 46 31 48 63 49 43 50 62 51 44 52 47 53 61 54 80 55 45 56
REMARK SMILES IDX 46 57 60 59 81 60 48 61 32 62 33 63 41 64 34 65 35 66 39 67
REMARK SMILES IDX 42 68 36 69 37 70 40 71 38 72 64 73 65 74 73 75 66 76 67 77
REMARK SMILES IDX 71 78 74 79 68 80 69 81 72 82 70 83 49 84 50 85 58 86 51 87
REMARK SMILES IDX 52 88 56 89 59 90 53 91 54 92 57 93 55 94
REMARK H PARENT 16 5 7 15 20 28 79 47 47 58
REMARK Flexibility Score: inf
ROOT
ATOM      1  C   UNL A   1      36.378  20.218  24.992  1.00  0.00     0.117 C 
ENDROOT
BRANCH   1   2
ATOM      2  N   UNL A   1      35.203  19.381  25.143  1.00  0.00    -0.354 N 
ATOM      3  C   UNL A   1      33.903  19.647  24.834  1.00  0.00     0.245 C 
ATOM      4  O   UNL A   1      33.069  18.780  25.119  1.00  0.00    -0.273 OA
ATOM      5  H   UNL A   1      35.369  18.489  25.525  1.00  0.00     0.163 HD
BRANCH   3   6
ATOM      6  C   UNL A   1      33.454  20.981  24.236  1.00  0.00     0.205 C 
ATOM      7  C   UNL A   1      31.986  22.670  24.660  1.00  0.00     0.094 C 
ATOM      8  N   UNL A   1      32.806  21.854  25.256  1.00  0.00    -0.266 NA
ATOM      9  S   UNL A   1      31.773  22.431  22.927  1.00  0.00    -0.106 SA
ATOM     10  C   UNL A   1      32.536  20.800  23.043  1.00  0.00     0.113 C 
BRANCH   7  11
ATOM     11  C   UNL A   1      31.231  23.809  25.400  1.00  0.00     0.080 C 
ATOM     12  C   UNL A   1      32.113  24.875  26.064  1.00  0.00     0.042 C 
ATOM     13  C   UNL A   1      30.439  23.105  26.530  1.00  0.00     0.042 C 
BRANCH  11  14
ATOM     14  N   UNL A   1      30.231  24.480  24.542  1.00  0.00    -0.374 N 
ATOM     15  H   UNL A   1      29.400  23.975  24.389  1.00  0.00     0.161 HD
BRANCH  14  16
ATOM     16  C   UNL A   1      30.295  25.710  23.924  1.00  0.00     0.035 A 
ATOM     17  C   UNL A   1      30.087  28.151  22.521  1.00  0.00     0.119 A 
ATOM     18  C   UNL A   1      31.106  27.253  22.218  1.00  0.00     0.048 A 
ATOM     19  C   UNL A   1      29.195  27.864  23.543  1.00  0.00     0.048 A 
ATOM     20  C   UNL A   1      31.209  26.046  22.922  1.00  0.00     0.029 A 
ATOM     21  C   UNL A   1      29.314  26.662  24.247  1.00  0.00     0.029 A 
BRANCH  17  22
ATOM     22  O   UNL A   1      29.801  29.213  21.714  1.00  0.00    -0.497 OA
ATOM     23  C   UNL A   1      28.513  29.768  21.935  1.00  0.00     0.278 C 
ENDBRANCH  17  22
ENDBRANCH  14  16
ENDBRANCH  11  14
ENDBRANCH   7  11
ENDBRANCH   3   6
ENDBRANCH   1   2
BRANCH   1  24
ATOM     24  C   UNL A   1      37.649  19.377  24.977  1.00  0.00     0.042 C 
BRANCH  24  25
ATOM     25  C   UNL A   1      38.888  20.073  25.523  1.00  0.00     0.118 C 
BRANCH  25  26
ATOM     26  N   UNL A   1      40.028  19.189  25.738  1.00  0.00    -0.352 N 
ATOM     27  C   UNL A   1      41.334  19.400  26.104  1.00  0.00     0.251 C 
ATOM     28  H   UNL A   1      39.815  18.240  25.588  1.00  0.00     0.163 HD
ATOM     29  O   UNL A   1      42.094  18.429  26.117  1.00  0.00    -0.269 OA
BRANCH  27  30
ATOM     30  C   UNL A   1      41.878  20.735  26.470  1.00  0.00     0.039 A 
ATOM     31  C   UNL A   1      42.068  21.674  25.444  1.00  0.00     0.014 A 
ATOM     32  C   UNL A   1      42.264  21.075  27.765  1.00  0.00     0.014 A 
ATOM     33  C   UNL A   1      42.573  22.950  25.726  1.00  0.00     0.010 A 
ATOM     34  C   UNL A   1      42.665  22.379  28.065  1.00  0.00     0.010 A 
ATOM     35  C   UNL A   1      42.844  23.326  27.048  1.00  0.00    -0.014 A 
BRANCH  35  36
ATOM     36  C   UNL A   1      43.363  24.679  27.385  1.00  0.00     0.031 A 
ATOM     37  C   UNL A   1      42.443  25.717  27.972  1.00  0.00     0.074 A 
ATOM     38  C   UNL A   1      44.638  25.005  27.099  1.00  0.00     0.049 A 
ATOM     39  N   UNL A   1      42.681  26.973  28.258  1.00  0.00    -0.248 NA
ATOM     40  C   UNL A   1      41.060  25.293  28.241  1.00  0.00     0.031 C 
ATOM     41  C   UNL A   1      45.618  24.118  26.473  1.00  0.00     0.029 A 
ATOM     42  N   UNL A   1      45.324  26.180  27.281  1.00  0.00    -0.354 N 
ATOM     43  C   UNL A   1      41.477  27.489  28.720  1.00  0.00     0.074 A 
ATOM     44  C   UNL A   1      40.496  26.432  28.612  1.00  0.00     0.031 C 
ATOM     45  C   UNL A   1      46.780  24.775  26.329  1.00  0.00     0.029 A 
ATOM     46  C   UNL A   1      46.622  26.136  26.833  1.00  0.00     0.049 A 
ATOM     47  H   UNL A   1      44.924  26.980  27.694  1.00  0.00     0.167 HD
ATOM     48  C   UNL A   1      41.217  28.721  29.222  1.00  0.00     0.037 A 
ATOM     49  C   UNL A   1      47.576  27.087  26.827  1.00  0.00     0.037 A 
ATOM     50  C   UNL A   1      42.197  29.766  29.356  1.00  0.00     0.049 A 
ATOM     51  C   UNL A   1      47.276  28.437  27.417  1.00  0.00     0.074 A 
ATOM     52  C   UNL A   1      42.046  31.031  29.897  1.00  0.00     0.029 A 
ATOM     53  N   UNL A   1      43.518  29.663  28.944  1.00  0.00    -0.354 N 
ATOM     54  N   UNL A   1      46.152  28.891  27.916  1.00  0.00    -0.248 NA
ATOM     55  C   UNL A   1      48.384  29.401  27.461  1.00  0.00     0.031 C 
ATOM     56  C   UNL A   1      43.267  31.705  29.782  1.00  0.00     0.029 A 
ATOM     57  C   UNL A   1      44.191  30.845  29.210  1.00  0.00     0.049 A 
ATOM     58  H   UNL A   1      43.917  28.868  28.524  1.00  0.00     0.167 HD
ATOM     59  C   UNL A   1      46.421  30.180  28.355  1.00  0.00     0.074 A 
ATOM     60  C   UNL A   1      47.822  30.429  28.080  1.00  0.00     0.031 C 
ATOM     61  C   UNL A   1      45.585  31.078  28.933  1.00  0.00     0.037 A 
BRANCH  48  62
ATOM     62  C   UNL A   1      39.810  28.991  29.673  1.00  0.00     0.064 A 
ATOM     63  C   UNL A   1      39.418  28.801  31.008  1.00  0.00     0.173 A 
ATOM     64  C   UNL A   1      38.840  29.440  28.764  1.00  0.00     0.173 A 
ATOM     65  F   UNL A   1      40.304  28.360  31.914  1.00  0.00    -0.203 F 
ATOM     66  C   UNL A   1      38.101  29.007  31.406  1.00  0.00     0.198 A 
ATOM     67  C   UNL A   1      37.530  29.678  29.174  1.00  0.00     0.198 A 
ATOM     68  F   UNL A   1      39.159  29.645  27.478  1.00  0.00    -0.203 F 
ATOM     69  F   UNL A   1      37.738  28.753  32.671  1.00  0.00    -0.200 F 
ATOM     70  C   UNL A   1      37.158  29.448  30.491  1.00  0.00     0.200 A 
ATOM     71  F   UNL A   1      36.622  30.116  28.291  1.00  0.00    -0.200 F 
ATOM     72  F   UNL A   1      35.890  29.642  30.874  1.00  0.00    -0.200 F 
ENDBRANCH  48  62
BRANCH  49  73
ATOM     73  C   UNL A   1      48.921  26.777  26.278  1.00  0.00     0.064 A 
ATOM     74  C   UNL A   1      49.242  27.081  24.948  1.00  0.00     0.173 A 
ATOM     75  C   UNL A   1      49.912  26.177  27.069  1.00  0.00     0.173 A 
ATOM     76  F   UNL A   1      48.322  27.639  24.148  1.00  0.00    -0.203 F 
ATOM     77  C   UNL A   1      50.497  26.780  24.423  1.00  0.00     0.198 A 
ATOM     78  C   UNL A   1      51.175  25.898  26.550  1.00  0.00     0.198 A 
ATOM     79  F   UNL A   1      49.656  25.874  28.350  1.00  0.00    -0.203 F 
ATOM     80  F   UNL A   1      50.764  27.043  23.137  1.00  0.00    -0.200 F 
ATOM     81  C   UNL A   1      51.464  26.193  25.226  1.00  0.00     0.200 A 
ATOM     82  F   UNL A   1      52.111  25.345  27.332  1.00  0.00    -0.200 F 
ATOM     83  F   UNL A   1      52.672  25.907  24.723  1.00  0.00    -0.200 F 
ENDBRANCH  49  73
BRANCH  61  84
ATOM     84  C   UNL A   1      46.171  32.400  29.334  1.00  0.00     0.064 A 
ATOM     85  C   UNL A   1      46.167  33.501  28.466  1.00  0.00     0.173 A 
ATOM     86  C   UNL A   1      46.728  32.572  30.611  1.00  0.00     0.173 A 
ATOM     87  F   UNL A   1      45.662  33.383  27.228  1.00  0.00    -0.203 F 
ATOM     88  C   UNL A   1      46.726  34.717  28.850  1.00  0.00     0.198 A 
ATOM     89  C   UNL A   1      47.259  33.797  31.002  1.00  0.00     0.198 A 
ATOM     90  F   UNL A   1      46.751  31.551  31.482  1.00  0.00    -0.203 F 
ATOM     91  F   UNL A   1      46.759  35.740  27.984  1.00  0.00    -0.200 F 
ATOM     92  C   UNL A   1      47.267  34.866  30.119  1.00  0.00     0.200 A 
ATOM     93  F   UNL A   1      47.770  33.942  32.233  1.00  0.00    -0.200 F 
ATOM     94  F   UNL A   1      47.804  36.037  30.486  1.00  0.00    -0.200 F 
ENDBRANCH  61  84
ENDBRANCH  35  36
ENDBRANCH  27  30
ENDBRANCH  25  26
ENDBRANCH  24  25
ENDBRANCH   1  24
TORSDOF 14
ENDMDL
