MODEL 1
REMARK VINA RESULT:     -12.9      0.000      0.000
REMARK SMILES C[C@@H](c1cccc(O)c1)[N@H+]1[C@@H]2CC[C@H]1C[C@H](CC(=O)NCCCNC(=O)c1ccc(-c3c4nc(c(-c5c(F)c(F)c(F)c(F)c5F)c5ccc([nH]5)c(-c5c(F)c(F)c(F)c(F)c5F)c5nc(c(-c6c(F)c(F)c(F)c(F)c6F)c6ccc3[nH]6)C=C5)C=C4)cc1)C2
REMARK SMILES IDX 21 1 20 2 18 3 19 4 17 6 16 7 10 8 11 9 14 10 12 12 90 13
REMARK SMILES IDX 13 14 15 15 2 16 1 17 3 18 4 19 9 20 5 21 7 22 6 23 8 24
REMARK SMILES IDX 22 26 23 27 24 28 25 29 26 31 27 32 28 33 89 34 29 35 88 36
REMARK SMILES IDX 30 37 31 38 32 39 82 40 33 41 87 42 81 43 83 44 34 45 86 46
REMARK SMILES IDX 80 47 79 48 35 50 67 51 47 52 66 53 48 54 51 55 65 56 84 57
REMARK SMILES IDX 49 58 50 59 64 61 85 62 52 63 36 64 37 65 45 66 38 67 39 68
REMARK SMILES IDX 43 69 46 70 40 71 41 72 44 73 42 74 68 75 69 76 77 77 70 78
REMARK SMILES IDX 71 79 75 80 78 81 72 82 73 83 76 84 74 85 53 86 54 87 62 88
REMARK SMILES IDX 55 89 56 90 60 91 63 92 57 93 58 94 61 95 59 96
REMARK H PARENT 20 5 10 11 8 25 24 30 83 49 51 60
REMARK Flexibility Score: inf
ROOT
ATOM      1  C   UNL A   1      31.508  30.916  26.231  1.00  0.00     0.117 C 
ENDROOT
BRANCH   1   2
ATOM      2  N   UNL A   1      32.635  30.297  26.917  1.00  0.00    -0.356 N 
ATOM      3  C   UNL A   1      33.107  29.015  26.905  1.00  0.00     0.220 C 
ATOM      4  O   UNL A   1      34.103  28.773  27.592  1.00  0.00    -0.275 OA
ATOM      5  H   UNL A   1      33.147  30.912  27.491  1.00  0.00     0.163 HD
BRANCH   3   6
ATOM      6  C   UNL A   1      32.463  27.914  26.071  1.00  0.00     0.104 C 
BRANCH   6   7
ATOM      7  C   UNL A   1      33.284  26.608  25.952  1.00  0.00     0.010 C 
ATOM      8  N   UNL A   1      33.031  24.220  24.185  1.00  0.00    -0.324 N 
ATOM      9  C   UNL A   1      34.230  25.046  24.120  1.00  0.00     0.185 C 
ATOM     10  C   UNL A   1      32.767  24.060  25.601  1.00  0.00     0.185 C 
ATOM     11  H   UNL A   1      33.171  23.303  23.763  1.00  0.00     0.349 HD
ATOM     12  C   UNL A   1      35.121  24.303  25.136  1.00  0.00     0.071 C 
ATOM     13  C   UNL A   1      33.973  26.494  24.575  1.00  0.00     0.069 C 
ATOM     14  C   UNL A   1      34.143  23.605  26.086  1.00  0.00     0.071 C 
ATOM     15  C   UNL A   1      32.407  25.389  26.258  1.00  0.00     0.069 C 
BRANCH   8  16
ATOM     16  C   UNL A   1      31.975  24.327  23.176  1.00  0.00     0.212 C 
ATOM     17  C   UNL A   1      31.187  23.004  23.188  1.00  0.00     0.081 C 
BRANCH  16  18
ATOM     18  C   UNL A   1      31.039  25.536  23.205  1.00  0.00     0.013 A 
ATOM     19  C   UNL A   1      29.871  25.585  23.990  1.00  0.00     0.010 A 
ATOM     20  C   UNL A   1      31.314  26.647  22.392  1.00  0.00     0.056 A 
ATOM     21  C   UNL A   1      29.029  26.707  23.975  1.00  0.00     0.004 A 
ATOM     22  C   UNL A   1      30.508  27.784  22.431  1.00  0.00     0.116 A 
ATOM     23  C   UNL A   1      29.357  27.820  23.206  1.00  0.00     0.046 A 
BRANCH  22  24
ATOM     24  O   UNL A   1      30.919  28.873  21.720  1.00  0.00    -0.508 OA
ATOM     25  H   UNL A   1      30.307  29.546  21.498  1.00  0.00     0.293 HD
ENDBRANCH  22  24
ENDBRANCH  16  18
ENDBRANCH   8  16
ENDBRANCH   6   7
ENDBRANCH   3   6
ENDBRANCH   1   2
BRANCH   1  26
ATOM     26  C   UNL A   1      31.385  32.404  26.558  1.00  0.00     0.042 C 
BRANCH  26  27
ATOM     27  C   UNL A   1      32.571  33.040  27.246  1.00  0.00     0.118 C 
BRANCH  27  28
ATOM     28  N   UNL A   1      32.327  34.400  27.695  1.00  0.00    -0.352 N 
ATOM     29  C   UNL A   1      32.958  35.132  28.682  1.00  0.00     0.251 C 
ATOM     30  H   UNL A   1      31.600  34.870  27.226  1.00  0.00     0.163 HD
ATOM     31  O   UNL A   1      32.517  36.232  28.980  1.00  0.00    -0.269 OA
BRANCH  29  32
ATOM     32  C   UNL A   1      34.135  34.584  29.414  1.00  0.00     0.039 A 
ATOM     33  C   UNL A   1      33.936  34.005  30.673  1.00  0.00     0.014 A 
ATOM     34  C   UNL A   1      35.426  34.634  28.888  1.00  0.00     0.014 A 
ATOM     35  C   UNL A   1      35.011  33.421  31.357  1.00  0.00     0.010 A 
ATOM     36  C   UNL A   1      36.465  33.943  29.506  1.00  0.00     0.010 A 
ATOM     37  C   UNL A   1      36.279  33.348  30.760  1.00  0.00    -0.014 A 
BRANCH  37  38
ATOM     38  C   UNL A   1      37.434  32.697  31.438  1.00  0.00     0.031 A 
ATOM     39  C   UNL A   1      38.154  31.555  30.766  1.00  0.00     0.074 A 
ATOM     40  C   UNL A   1      37.795  33.078  32.680  1.00  0.00     0.049 A 
ATOM     41  N   UNL A   1      39.118  30.794  31.221  1.00  0.00    -0.248 NA
ATOM     42  C   UNL A   1      37.702  31.191  29.412  1.00  0.00     0.031 C 
ATOM     43  C   UNL A   1      37.149  34.130  33.467  1.00  0.00     0.029 A 
ATOM     44  N   UNL A   1      38.790  32.614  33.506  1.00  0.00    -0.354 N 
ATOM     45  C   UNL A   1      39.358  29.850  30.230  1.00  0.00     0.074 A 
ATOM     46  C   UNL A   1      38.401  30.093  29.174  1.00  0.00     0.031 C 
ATOM     47  C   UNL A   1      37.785  34.256  34.642  1.00  0.00     0.029 A 
ATOM     48  C   UNL A   1      38.856  33.267  34.714  1.00  0.00     0.049 A 
ATOM     49  H   UNL A   1      39.399  31.881  33.256  1.00  0.00     0.167 HD
ATOM     50  C   UNL A   1      40.310  28.887  30.187  1.00  0.00     0.037 A 
ATOM     51  C   UNL A   1      39.684  33.085  35.760  1.00  0.00     0.037 A 
ATOM     52  C   UNL A   1      41.296  28.684  31.213  1.00  0.00     0.049 A 
ATOM     53  C   UNL A   1      40.745  32.018  35.680  1.00  0.00     0.074 A 
ATOM     54  C   UNL A   1      42.355  27.793  31.227  1.00  0.00     0.029 A 
ATOM     55  N   UNL A   1      41.348  29.387  32.408  1.00  0.00    -0.354 N 
ATOM     56  N   UNL A   1      41.011  31.185  34.703  1.00  0.00    -0.248 NA
ATOM     57  C   UNL A   1      41.625  31.871  36.848  1.00  0.00     0.031 C 
ATOM     58  C   UNL A   1      43.018  27.923  32.452  1.00  0.00     0.029 A 
ATOM     59  C   UNL A   1      42.407  28.934  33.177  1.00  0.00     0.049 A 
ATOM     60  H   UNL A   1      40.724  30.102  32.670  1.00  0.00     0.167 HD
ATOM     61  C   UNL A   1      42.109  30.444  35.121  1.00  0.00     0.074 A 
ATOM     62  C   UNL A   1      42.467  30.935  36.435  1.00  0.00     0.031 C 
ATOM     63  C   UNL A   1      42.762  29.447  34.474  1.00  0.00     0.037 A 
BRANCH  50  64
ATOM     64  C   UNL A   1      40.338  27.984  28.987  1.00  0.00     0.064 A 
ATOM     65  C   UNL A   1      41.098  28.290  27.847  1.00  0.00     0.173 A 
ATOM     66  C   UNL A   1      39.624  26.775  28.990  1.00  0.00     0.173 A 
ATOM     67  F   UNL A   1      41.790  29.438  27.786  1.00  0.00    -0.203 F 
ATOM     68  C   UNL A   1      41.119  27.437  26.747  1.00  0.00     0.198 A 
ATOM     69  C   UNL A   1      39.673  25.909  27.902  1.00  0.00     0.198 A 
ATOM     70  F   UNL A   1      38.885  26.429  30.055  1.00  0.00    -0.203 F 
ATOM     71  F   UNL A   1      41.809  27.778  25.650  1.00  0.00    -0.200 F 
ATOM     72  C   UNL A   1      40.413  26.244  26.777  1.00  0.00     0.200 A 
ATOM     73  F   UNL A   1      39.003  24.748  27.939  1.00  0.00    -0.200 F 
ATOM     74  F   UNL A   1      40.441  25.420  25.721  1.00  0.00    -0.200 F 
ENDBRANCH  50  64
BRANCH  51  75
ATOM     75  C   UNL A   1      39.577  33.954  36.963  1.00  0.00     0.064 A 
ATOM     76  C   UNL A   1      38.820  33.550  38.073  1.00  0.00     0.173 A 
ATOM     77  C   UNL A   1      40.202  35.207  37.025  1.00  0.00     0.173 A 
ATOM     78  F   UNL A   1      38.184  32.369  38.056  1.00  0.00    -0.203 F 
ATOM     79  C   UNL A   1      38.670  34.377  39.185  1.00  0.00     0.198 A 
ATOM     80  C   UNL A   1      40.077  36.021  38.149  1.00  0.00     0.198 A 
ATOM     81  F   UNL A   1      40.941  35.640  35.993  1.00  0.00    -0.203 F 
ATOM     82  F   UNL A   1      37.895  33.989  40.206  1.00  0.00    -0.200 F 
ATOM     83  C   UNL A   1      39.302  35.610  39.224  1.00  0.00     0.200 A 
ATOM     84  F   UNL A   1      40.702  37.206  38.188  1.00  0.00    -0.200 F 
ATOM     85  F   UNL A   1      39.157  36.407  40.292  1.00  0.00    -0.200 F 
ENDBRANCH  51  75
BRANCH  63  86
ATOM     86  C   UNL A   1      43.962  28.855  35.153  1.00  0.00     0.064 A 
ATOM     87  C   UNL A   1      43.856  27.758  36.021  1.00  0.00     0.173 A 
ATOM     88  C   UNL A   1      45.243  29.368  34.897  1.00  0.00     0.173 A 
ATOM     89  F   UNL A   1      42.653  27.240  36.309  1.00  0.00    -0.203 F 
ATOM     90  C   UNL A   1      44.984  27.215  36.629  1.00  0.00     0.198 A 
ATOM     91  C   UNL A   1      46.373  28.801  35.480  1.00  0.00     0.198 A 
ATOM     92  F   UNL A   1      45.401  30.411  34.067  1.00  0.00    -0.203 F 
ATOM     93  F   UNL A   1      44.853  26.200  37.495  1.00  0.00    -0.200 F 
ATOM     94  C   UNL A   1      46.241  27.731  36.352  1.00  0.00     0.200 A 
ATOM     95  F   UNL A   1      47.588  29.292  35.198  1.00  0.00    -0.200 F 
ATOM     96  F   UNL A   1      47.327  27.201  36.932  1.00  0.00    -0.200 F 
ENDBRANCH  63  86
ENDBRANCH  37  38
ENDBRANCH  29  32
ENDBRANCH  27  28
ENDBRANCH  26  27
ENDBRANCH   1  26
TORSDOF 14
ENDMDL
MODEL 2
REMARK VINA RESULT:     -12.9      0.449      2.007
REMARK SMILES C[C@@H](c1cccc(O)c1)[N@H+]1[C@@H]2CC[C@H]1C[C@H](CC(=O)NCCCNC(=O)c1ccc(-c3c4nc(c(-c5c(F)c(F)c(F)c(F)c5F)c5ccc([nH]5)c(-c5c(F)c(F)c(F)c(F)c5F)c5nc(c(-c6c(F)c(F)c(F)c(F)c6F)c6ccc3[nH]6)C=C5)C=C4)cc1)C2
REMARK SMILES IDX 21 1 20 2 18 3 19 4 17 6 16 7 10 8 11 9 14 10 12 12 90 13
REMARK SMILES IDX 13 14 15 15 2 16 1 17 3 18 4 19 9 20 5 21 7 22 6 23 8 24
REMARK SMILES IDX 22 26 23 27 24 28 25 29 26 31 27 32 28 33 89 34 29 35 88 36
REMARK SMILES IDX 30 37 31 38 32 39 82 40 33 41 87 42 81 43 83 44 34 45 86 46
REMARK SMILES IDX 80 47 79 48 35 50 67 51 47 52 66 53 48 54 51 55 65 56 84 57
REMARK SMILES IDX 49 58 50 59 64 61 85 62 52 63 36 64 37 65 45 66 38 67 39 68
REMARK SMILES IDX 43 69 46 70 40 71 41 72 44 73 42 74 68 75 69 76 77 77 70 78
REMARK SMILES IDX 71 79 75 80 78 81 72 82 73 83 76 84 74 85 53 86 54 87 62 88
REMARK SMILES IDX 55 89 56 90 60 91 63 92 57 93 58 94 61 95 59 96
REMARK H PARENT 20 5 10 11 8 25 24 30 83 49 51 60
REMARK Flexibility Score: inf
ROOT
ATOM      1  C   UNL A   1      31.716  30.788  26.534  1.00  0.00     0.117 C 
ENDROOT
BRANCH   1   2
ATOM      2  N   UNL A   1      32.937  30.308  27.169  1.00  0.00    -0.356 N 
ATOM      3  C   UNL A   1      33.756  29.255  26.873  1.00  0.00     0.220 C 
ATOM      4  O   UNL A   1      34.743  29.087  27.593  1.00  0.00    -0.275 OA
ATOM      5  H   UNL A   1      33.222  30.836  27.949  1.00  0.00     0.163 HD
BRANCH   3   6
ATOM      6  C   UNL A   1      33.496  28.322  25.695  1.00  0.00     0.104 C 
BRANCH   6   7
ATOM      7  C   UNL A   1      33.462  26.814  26.041  1.00  0.00     0.010 C 
ATOM      8  N   UNL A   1      32.181  24.471  24.718  1.00  0.00    -0.324 N 
ATOM      9  C   UNL A   1      33.631  24.525  24.849  1.00  0.00     0.185 C 
ATOM     10  C   UNL A   1      31.676  24.894  26.008  1.00  0.00     0.185 C 
ATOM     11  H   UNL A   1      31.847  23.529  24.518  1.00  0.00     0.349 HD
ATOM     12  C   UNL A   1      33.807  23.779  26.186  1.00  0.00     0.071 C 
ATOM     13  C   UNL A   1      34.159  25.967  24.954  1.00  0.00     0.069 C 
ATOM     14  C   UNL A   1      32.484  23.982  26.931  1.00  0.00     0.071 C 
ATOM     15  C   UNL A   1      32.024  26.351  26.296  1.00  0.00     0.069 C 
BRANCH   8  16
ATOM     16  C   UNL A   1      31.517  24.784  23.451  1.00  0.00     0.212 C 
ATOM     17  C   UNL A   1      30.563  23.618  23.128  1.00  0.00     0.081 C 
BRANCH  16  18
ATOM     18  C   UNL A   1      30.822  26.136  23.289  1.00  0.00     0.013 A 
ATOM     19  C   UNL A   1      29.489  26.368  23.679  1.00  0.00     0.010 A 
ATOM     20  C   UNL A   1      31.512  27.204  22.693  1.00  0.00     0.056 A 
ATOM     21  C   UNL A   1      28.883  27.619  23.499  1.00  0.00     0.004 A 
ATOM     22  C   UNL A   1      30.925  28.464  22.576  1.00  0.00     0.116 A 
ATOM     23  C   UNL A   1      29.609  28.679  22.961  1.00  0.00     0.046 A 
BRANCH  22  24
ATOM     24  O   UNL A   1      31.706  29.483  22.116  1.00  0.00    -0.508 OA
ATOM     25  H   UNL A   1      32.301  29.335  21.408  1.00  0.00     0.293 HD
ENDBRANCH  22  24
ENDBRANCH  16  18
ENDBRANCH   8  16
ENDBRANCH   6   7
ENDBRANCH   3   6
ENDBRANCH   1   2
BRANCH   1  26
ATOM     26  C   UNL A   1      31.513  32.288  26.742  1.00  0.00     0.042 C 
BRANCH  26  27
ATOM     27  C   UNL A   1      32.730  33.077  27.173  1.00  0.00     0.118 C 
BRANCH  27  28
ATOM     28  N   UNL A   1      32.418  34.400  27.684  1.00  0.00    -0.352 N 
ATOM     29  C   UNL A   1      32.987  35.100  28.730  1.00  0.00     0.251 C 
ATOM     30  H   UNL A   1      31.691  34.868  27.214  1.00  0.00     0.163 HD
ATOM     31  O   UNL A   1      32.495  36.166  29.070  1.00  0.00    -0.269 OA
BRANCH  29  32
ATOM     32  C   UNL A   1      34.158  34.556  29.475  1.00  0.00     0.039 A 
ATOM     33  C   UNL A   1      33.949  33.981  30.733  1.00  0.00     0.014 A 
ATOM     34  C   UNL A   1      35.455  34.607  28.960  1.00  0.00     0.014 A 
ATOM     35  C   UNL A   1      35.019  33.400  31.429  1.00  0.00     0.010 A 
ATOM     36  C   UNL A   1      36.489  33.920  29.590  1.00  0.00     0.010 A 
ATOM     37  C   UNL A   1      36.293  33.328  30.844  1.00  0.00    -0.014 A 
BRANCH  37  38
ATOM     38  C   UNL A   1      37.443  32.681  31.533  1.00  0.00     0.031 A 
ATOM     39  C   UNL A   1      38.155  31.522  30.882  1.00  0.00     0.074 A 
ATOM     40  C   UNL A   1      37.805  33.081  32.769  1.00  0.00     0.049 A 
ATOM     41  N   UNL A   1      39.114  30.763  31.351  1.00  0.00    -0.248 NA
ATOM     42  C   UNL A   1      37.702  31.138  29.535  1.00  0.00     0.031 C 
ATOM     43  C   UNL A   1      37.166  34.151  33.537  1.00  0.00     0.029 A 
ATOM     44  N   UNL A   1      38.796  32.624  33.604  1.00  0.00    -0.354 N 
ATOM     45  C   UNL A   1      39.348  29.800  30.377  1.00  0.00     0.074 A 
ATOM     46  C   UNL A   1      38.393  30.031  29.316  1.00  0.00     0.031 C 
ATOM     47  C   UNL A   1      37.802  34.293  34.710  1.00  0.00     0.029 A 
ATOM     48  C   UNL A   1      38.865  33.298  34.800  1.00  0.00     0.049 A 
ATOM     49  H   UNL A   1      39.400  31.884  33.368  1.00  0.00     0.167 HD
ATOM     50  C   UNL A   1      40.293  28.830  30.352  1.00  0.00     0.037 A 
ATOM     51  C   UNL A   1      39.692  33.129  35.850  1.00  0.00     0.037 A 
ATOM     52  C   UNL A   1      41.277  28.638  31.382  1.00  0.00     0.049 A 
ATOM     53  C   UNL A   1      40.745  32.053  35.790  1.00  0.00     0.074 A 
ATOM     54  C   UNL A   1      42.330  27.740  31.413  1.00  0.00     0.029 A 
ATOM     55  N   UNL A   1      41.332  29.361  32.564  1.00  0.00    -0.354 N 
ATOM     56  N   UNL A   1      41.007  31.202  34.828  1.00  0.00    -0.248 NA
ATOM     57  C   UNL A   1      41.624  31.921  36.961  1.00  0.00     0.031 C 
ATOM     58  C   UNL A   1      42.992  27.887  32.636  1.00  0.00     0.029 A 
ATOM     59  C   UNL A   1      42.388  28.914  33.342  1.00  0.00     0.049 A 
ATOM     60  H   UNL A   1      40.714  30.085  32.813  1.00  0.00     0.167 HD
ATOM     61  C   UNL A   1      42.099  30.461  35.259  1.00  0.00     0.074 A 
ATOM     62  C   UNL A   1      42.460  30.971  36.565  1.00  0.00     0.031 C 
ATOM     63  C   UNL A   1      42.745  29.448  34.631  1.00  0.00     0.037 A 
BRANCH  50  64
ATOM     64  C   UNL A   1      40.316  27.906  29.168  1.00  0.00     0.064 A 
ATOM     65  C   UNL A   1      39.569  26.718  29.141  1.00  0.00     0.173 A 
ATOM     66  C   UNL A   1      41.065  28.232  28.026  1.00  0.00     0.173 A 
ATOM     67  F   UNL A   1      38.844  26.352  30.210  1.00  0.00    -0.203 F 
ATOM     68  C   UNL A   1      39.596  25.877  28.032  1.00  0.00     0.198 A 
ATOM     69  C   UNL A   1      41.063  27.405  26.906  1.00  0.00     0.198 A 
ATOM     70  F   UNL A   1      41.793  29.358  27.993  1.00  0.00    -0.203 F 
ATOM     71  F   UNL A   1      38.917  24.721  28.053  1.00  0.00    -0.200 F 
ATOM     72  C   UNL A   1      40.336  26.224  26.912  1.00  0.00     0.200 A 
ATOM     73  F   UNL A   1      41.767  27.750  25.818  1.00  0.00    -0.200 F 
ATOM     74  F   UNL A   1      40.354  25.418  25.842  1.00  0.00    -0.200 F 
ENDBRANCH  50  64
BRANCH  51  75
ATOM     75  C   UNL A   1      39.590  34.019  37.038  1.00  0.00     0.064 A 
ATOM     76  C   UNL A   1      40.268  35.246  37.075  1.00  0.00     0.173 A 
ATOM     77  C   UNL A   1      38.836  33.659  38.164  1.00  0.00     0.173 A 
ATOM     78  F   UNL A   1      41.020  35.627  36.031  1.00  0.00    -0.203 F 
ATOM     79  C   UNL A   1      40.221  36.064  38.202  1.00  0.00     0.198 A 
ATOM     80  C   UNL A   1      38.765  34.492  39.280  1.00  0.00     0.198 A 
ATOM     81  F   UNL A   1      38.165  32.498  38.180  1.00  0.00    -0.203 F 
ATOM     82  F   UNL A   1      40.925  37.204  38.231  1.00  0.00    -0.200 F 
ATOM     83  C   UNL A   1      39.465  35.689  39.302  1.00  0.00     0.200 A 
ATOM     84  F   UNL A   1      38.022  34.131  40.335  1.00  0.00    -0.200 F 
ATOM     85  F   UNL A   1      39.421  36.474  40.387  1.00  0.00    -0.200 F 
ENDBRANCH  51  75
BRANCH  63  86
ATOM     86  C   UNL A   1      43.941  28.859  35.321  1.00  0.00     0.064 A 
ATOM     87  C   UNL A   1      45.241  29.330  35.081  1.00  0.00     0.173 A 
ATOM     88  C   UNL A   1      43.778  27.837  36.269  1.00  0.00     0.173 A 
ATOM     89  F   UNL A   1      45.451  30.295  34.174  1.00  0.00    -0.203 F 
ATOM     90  C   UNL A   1      46.335  28.779  35.742  1.00  0.00     0.198 A 
ATOM     91  C   UNL A   1      44.870  27.312  36.953  1.00  0.00     0.198 A 
ATOM     92  F   UNL A   1      42.555  27.358  36.543  1.00  0.00    -0.203 F 
ATOM     93  F   UNL A   1      47.572  29.208  35.458  1.00  0.00    -0.200 F 
ATOM     94  C   UNL A   1      46.147  27.777  36.683  1.00  0.00     0.200 A 
ATOM     95  F   UNL A   1      44.685  26.356  37.874  1.00  0.00    -0.200 F 
ATOM     96  F   UNL A   1      47.201  27.255  37.325  1.00  0.00    -0.200 F 
ENDBRANCH  63  86
ENDBRANCH  37  38
ENDBRANCH  29  32
ENDBRANCH  27  28
ENDBRANCH  26  27
ENDBRANCH   1  26
TORSDOF 14
ENDMDL
MODEL 3
REMARK VINA RESULT:     -12.9      5.881     11.168
REMARK SMILES C[C@@H](c1cccc(O)c1)[N@H+]1[C@@H]2CC[C@H]1C[C@H](CC(=O)NCCCNC(=O)c1ccc(-c3c4nc(c(-c5c(F)c(F)c(F)c(F)c5F)c5ccc([nH]5)c(-c5c(F)c(F)c(F)c(F)c5F)c5nc(c(-c6c(F)c(F)c(F)c(F)c6F)c6ccc3[nH]6)C=C5)C=C4)cc1)C2
REMARK SMILES IDX 21 1 20 2 18 3 19 4 17 6 16 7 10 8 11 9 14 10 12 12 90 13
REMARK SMILES IDX 13 14 15 15 2 16 1 17 3 18 4 19 9 20 5 21 7 22 6 23 8 24
REMARK SMILES IDX 22 26 23 27 24 28 25 29 26 31 27 32 28 33 89 34 29 35 88 36
REMARK SMILES IDX 30 37 31 38 32 39 82 40 33 41 87 42 81 43 83 44 34 45 86 46
REMARK SMILES IDX 80 47 79 48 35 50 67 51 47 52 66 53 48 54 51 55 65 56 84 57
REMARK SMILES IDX 49 58 50 59 64 61 85 62 52 63 36 64 37 65 45 66 38 67 39 68
REMARK SMILES IDX 43 69 46 70 40 71 41 72 44 73 42 74 68 75 69 76 77 77 70 78
REMARK SMILES IDX 71 79 75 80 78 81 72 82 73 83 76 84 74 85 53 86 54 87 62 88
REMARK SMILES IDX 55 89 56 90 60 91 63 92 57 93 58 94 61 95 59 96
REMARK H PARENT 20 5 10 11 8 25 24 30 83 49 51 60
REMARK Flexibility Score: inf
ROOT
ATOM      1  C   UNL A   1      37.423  20.793  24.790  1.00  0.00     0.117 C 
ENDROOT
BRANCH   1   2
ATOM      2  N   UNL A   1      37.969  22.067  25.239  1.00  0.00    -0.356 N 
ATOM      3  C   UNL A   1      37.359  23.207  25.683  1.00  0.00     0.220 C 
ATOM      4  O   UNL A   1      38.088  24.148  26.008  1.00  0.00    -0.275 OA
ATOM      5  H   UNL A   1      38.952  22.115  25.219  1.00  0.00     0.163 HD
BRANCH   3   6
ATOM      6  C   UNL A   1      35.844  23.331  25.800  1.00  0.00     0.104 C 
BRANCH   6   7
ATOM      7  C   UNL A   1      35.213  24.499  25.005  1.00  0.00     0.010 C 
ATOM      8  N   UNL A   1      32.481  24.942  23.900  1.00  0.00    -0.324 N 
ATOM      9  C   UNL A   1      33.005  25.844  24.917  1.00  0.00     0.185 C 
ATOM     10  C   UNL A   1      33.576  24.752  22.971  1.00  0.00     0.185 C 
ATOM     11  H   UNL A   1      31.684  25.341  23.404  1.00  0.00     0.349 HD
ATOM     12  C   UNL A   1      33.635  26.925  24.017  1.00  0.00     0.071 C 
ATOM     13  C   UNL A   1      34.076  25.176  25.800  1.00  0.00     0.069 C 
ATOM     14  C   UNL A   1      33.963  26.206  22.705  1.00  0.00     0.071 C 
ATOM     15  C   UNL A   1      34.746  24.023  23.626  1.00  0.00     0.069 C 
BRANCH   8  16
ATOM     16  C   UNL A   1      31.518  23.890  24.235  1.00  0.00     0.212 C 
ATOM     17  C   UNL A   1      30.325  24.029  23.270  1.00  0.00     0.081 C 
BRANCH  16  18
ATOM     18  C   UNL A   1      32.000  22.442  24.325  1.00  0.00     0.013 A 
ATOM     19  C   UNL A   1      32.029  21.572  23.218  1.00  0.00     0.010 A 
ATOM     20  C   UNL A   1      32.402  21.919  25.564  1.00  0.00     0.056 A 
ATOM     21  C   UNL A   1      32.463  20.244  23.345  1.00  0.00     0.004 A 
ATOM     22  C   UNL A   1      32.893  20.618  25.671  1.00  0.00     0.116 A 
ATOM     23  C   UNL A   1      32.914  19.768  24.574  1.00  0.00     0.046 A 
BRANCH  22  24
ATOM     24  O   UNL A   1      33.395  20.231  26.879  1.00  0.00    -0.508 OA
ATOM     25  H   UNL A   1      33.135  19.414  27.254  1.00  0.00     0.293 HD
ENDBRANCH  22  24
ENDBRANCH  16  18
ENDBRANCH   8  16
ENDBRANCH   6   7
ENDBRANCH   3   6
ENDBRANCH   1   2
BRANCH   1  26
ATOM     26  C   UNL A   1      38.417  19.647  24.971  1.00  0.00     0.042 C 
BRANCH  26  27
ATOM     27  C   UNL A   1      39.472  19.836  26.038  1.00  0.00     0.118 C 
BRANCH  27  28
ATOM     28  N   UNL A   1      40.566  18.885  25.953  1.00  0.00    -0.352 N 
ATOM     29  C   UNL A   1      41.928  19.093  26.047  1.00  0.00     0.251 C 
ATOM     30  H   UNL A   1      40.296  17.950  25.806  1.00  0.00     0.163 HD
ATOM     31  O   UNL A   1      42.689  18.161  25.833  1.00  0.00    -0.269 OA
BRANCH  29  32
ATOM     32  C   UNL A   1      42.482  20.441  26.361  1.00  0.00     0.039 A 
ATOM     33  C   UNL A   1      42.991  21.221  25.316  1.00  0.00     0.014 A 
ATOM     34  C   UNL A   1      42.512  20.948  27.661  1.00  0.00     0.014 A 
ATOM     35  C   UNL A   1      43.456  22.519  25.567  1.00  0.00     0.010 A 
ATOM     36  C   UNL A   1      42.853  22.278  27.890  1.00  0.00     0.010 A 
ATOM     37  C   UNL A   1      43.352  23.076  26.852  1.00  0.00    -0.014 A 
BRANCH  37  38
ATOM     38  C   UNL A   1      43.796  24.466  27.149  1.00  0.00     0.031 A 
ATOM     39  C   UNL A   1      42.801  25.481  27.652  1.00  0.00     0.074 A 
ATOM     40  C   UNL A   1      45.067  24.840  26.901  1.00  0.00     0.049 A 
ATOM     41  N   UNL A   1      42.960  26.761  27.880  1.00  0.00    -0.248 NA
ATOM     42  C   UNL A   1      41.429  25.003  27.894  1.00  0.00     0.031 C 
ATOM     43  C   UNL A   1      46.118  23.974  26.362  1.00  0.00     0.029 A 
ATOM     44  N   UNL A   1      45.693  26.052  27.062  1.00  0.00    -0.354 N 
ATOM     45  C   UNL A   1      41.710  27.238  28.254  1.00  0.00     0.074 A 
ATOM     46  C   UNL A   1      40.789  26.128  28.166  1.00  0.00     0.031 C 
ATOM     47  C   UNL A   1      47.262  24.671  26.272  1.00  0.00     0.029 A 
ATOM     48  C   UNL A   1      47.019  26.043  26.704  1.00  0.00     0.049 A 
ATOM     49  H   UNL A   1      45.232  26.854  27.402  1.00  0.00     0.167 HD
ATOM     50  C   UNL A   1      41.364  28.482  28.666  1.00  0.00     0.037 A 
ATOM     51  C   UNL A   1      47.935  27.031  26.721  1.00  0.00     0.037 A 
ATOM     52  C   UNL A   1      42.292  29.570  28.807  1.00  0.00     0.049 A 
ATOM     53  C   UNL A   1      47.528  28.401  27.198  1.00  0.00     0.074 A 
ATOM     54  C   UNL A   1      42.060  30.844  29.296  1.00  0.00     0.029 A 
ATOM     55  N   UNL A   1      43.634  29.511  28.462  1.00  0.00    -0.354 N 
ATOM     56  N   UNL A   1      46.361  28.818  27.625  1.00  0.00    -0.248 NA
ATOM     57  C   UNL A   1      48.571  29.437  27.202  1.00  0.00     0.031 C 
ATOM     58  C   UNL A   1      43.252  31.571  29.201  1.00  0.00     0.029 A 
ATOM     59  C   UNL A   1      44.239  30.734  28.707  1.00  0.00     0.049 A 
ATOM     60  H   UNL A   1      44.090  28.719  28.098  1.00  0.00     0.167 HD
ATOM     61  C   UNL A   1      46.537  30.147  27.983  1.00  0.00     0.074 A 
ATOM     62  C   UNL A   1      47.927  30.465  27.735  1.00  0.00     0.031 C 
ATOM     63  C   UNL A   1      45.629  31.027  28.473  1.00  0.00     0.037 A 
BRANCH  50  64
ATOM     64  C   UNL A   1      39.921  28.731  29.003  1.00  0.00     0.064 A 
ATOM     65  C   UNL A   1      39.415  28.519  30.295  1.00  0.00     0.173 A 
ATOM     66  C   UNL A   1      39.039  29.227  28.030  1.00  0.00     0.173 A 
ATOM     67  F   UNL A   1      40.211  28.036  31.261  1.00  0.00    -0.203 F 
ATOM     68  C   UNL A   1      38.077  28.763  30.592  1.00  0.00     0.198 A 
ATOM     69  C   UNL A   1      37.710  29.502  28.339  1.00  0.00     0.198 A 
ATOM     70  F   UNL A   1      39.469  29.454  26.780  1.00  0.00    -0.203 F 
ATOM     71  F   UNL A   1      37.606  28.501  31.819  1.00  0.00    -0.200 F 
ATOM     72  C   UNL A   1      37.227  29.262  29.617  1.00  0.00     0.200 A 
ATOM     73  F   UNL A   1      36.893  29.998  27.398  1.00  0.00    -0.200 F 
ATOM     74  F   UNL A   1      35.941  29.504  29.906  1.00  0.00    -0.200 F 
ENDBRANCH  50  64
BRANCH  51  75
ATOM     75  C   UNL A   1      49.339  26.762  26.308  1.00  0.00     0.064 A 
ATOM     76  C   UNL A   1      49.751  26.975  24.984  1.00  0.00     0.173 A 
ATOM     77  C   UNL A   1      50.289  26.267  27.212  1.00  0.00     0.173 A 
ATOM     78  F   UNL A   1      48.874  27.428  24.075  1.00  0.00    -0.203 F 
ATOM     79  C   UNL A   1      51.049  26.678  24.574  1.00  0.00     0.198 A 
ATOM     80  C   UNL A   1      51.596  25.998  26.808  1.00  0.00     0.198 A 
ATOM     81  F   UNL A   1      49.950  26.048  28.491  1.00  0.00    -0.203 F 
ATOM     82  F   UNL A   1      51.398  26.839  23.291  1.00  0.00    -0.200 F 
ATOM     83  C   UNL A   1      51.972  26.194  25.488  1.00  0.00     0.200 A 
ATOM     84  F   UNL A   1      52.489  25.543  27.698  1.00  0.00    -0.200 F 
ATOM     85  F   UNL A   1      53.220  25.906  25.095  1.00  0.00    -0.200 F 
ENDBRANCH  51  75
BRANCH  63  86
ATOM     86  C   UNL A   1      46.119  32.401  28.824  1.00  0.00     0.064 A 
ATOM     87  C   UNL A   1      46.069  33.462  27.908  1.00  0.00     0.173 A 
ATOM     88  C   UNL A   1      46.608  32.669  30.113  1.00  0.00     0.173 A 
ATOM     89  F   UNL A   1      45.624  33.255  26.660  1.00  0.00    -0.203 F 
ATOM     90  C   UNL A   1      46.516  34.733  28.259  1.00  0.00     0.198 A 
ATOM     91  C   UNL A   1      47.022  33.948  30.471  1.00  0.00     0.198 A 
ATOM     92  F   UNL A   1      46.668  31.692  31.030  1.00  0.00    -0.203 F 
ATOM     93  F   UNL A   1      46.507  35.719  27.352  1.00  0.00    -0.200 F 
ATOM     94  C   UNL A   1      46.984  34.976  29.542  1.00  0.00     0.200 A 
ATOM     95  F   UNL A   1      47.459  34.185  31.716  1.00  0.00    -0.200 F 
ATOM     96  F   UNL A   1      47.406  36.203  29.881  1.00  0.00    -0.200 F 
ENDBRANCH  63  86
ENDBRANCH  37  38
ENDBRANCH  29  32
ENDBRANCH  27  28
ENDBRANCH  26  27
ENDBRANCH   1  26
TORSDOF 14
ENDMDL
