MODEL 1
REMARK VINA RESULT:     -12.7      0.000      0.000
REMARK SMILES O=C(NCCCNC(=O)c1sccc1S(=O)(=O)Nc1ccc(Cn2cncn2)cc1)c1ccc(-c2c3nc(c(-c4c(F)c(F)c(F)c(F)c4F)c4ccc([nH]4)c(-c4c(F)c(F)c(F)c(F)c4F)c4nc(c(-c5c(F)c(F)c(F)c(F)c5F)c5ccc2[nH]5)C=C4)C=C3)cc1
REMARK SMILES IDX 7 1 8 2 9 3 6 5 5 6 4 7 3 8 1 9 2 10 31 12 32 13 93 14 33 15
REMARK SMILES IDX 92 16 34 17 35 18 36 19 86 20 37 21 91 22 85 23 87 24 38 25
REMARK SMILES IDX 90 26 84 27 83 28 39 30 71 31 51 32 70 33 52 34 55 35 69 36
REMARK SMILES IDX 88 37 53 38 54 39 68 41 89 42 56 43 40 44 41 45 49 46 42 47
REMARK SMILES IDX 43 48 47 49 50 50 44 51 45 52 48 53 46 54 72 55 73 56 81 57
REMARK SMILES IDX 74 58 75 59 79 60 82 61 76 62 77 63 80 64 78 65 57 66 58 67
REMARK SMILES IDX 66 68 59 69 60 70 64 71 67 72 61 73 62 74 65 75 63 76 10 77
REMARK SMILES IDX 11 78 14 79 12 80 13 81 15 82 16 83 17 84 18 85 19 87 20 88
REMARK SMILES IDX 30 89 21 90 29 91 22 92 23 93 24 94 25 95 28 96 26 97 27 98
REMARK H PARENT 7 4 3 11 87 29 55 40 18 86
REMARK Flexibility Score: inf
ROOT
ATOM      1  N   UNL A   1      33.311  29.597  24.842  1.00  0.00    -0.351 N 
ATOM      2  C   UNL A   1      33.039  28.571  23.985  1.00  0.00     0.262 C 
ATOM      3  O   UNL A   1      33.958  28.241  23.232  1.00  0.00    -0.268 OA
ATOM      4  H   UNL A   1      34.154  30.072  24.659  1.00  0.00     0.163 HD
ENDROOT
BRANCH   1   5
ATOM      5  C   UNL A   1      32.565  30.103  25.972  1.00  0.00     0.118 C 
BRANCH   5   6
ATOM      6  C   UNL A   1      33.400  30.045  27.242  1.00  0.00     0.042 C 
BRANCH   6   7
ATOM      7  C   UNL A   1      34.207  31.319  27.532  1.00  0.00     0.118 C 
BRANCH   7   8
ATOM      8  N   UNL A   1      34.028  31.872  28.858  1.00  0.00    -0.352 N 
ATOM      9  O   UNL A   1      34.442  32.759  30.840  1.00  0.00    -0.269 OA
ATOM     10  C   UNL A   1      34.867  32.050  29.925  1.00  0.00     0.251 C 
ATOM     11  H   UNL A   1      33.111  32.187  29.027  1.00  0.00     0.163 HD
BRANCH  10  12
ATOM     12  C   UNL A   1      36.191  31.389  30.079  1.00  0.00     0.039 A 
ATOM     13  C   UNL A   1      37.426  32.031  29.987  1.00  0.00     0.014 A 
ATOM     14  C   UNL A   1      36.173  29.995  30.259  1.00  0.00     0.014 A 
ATOM     15  C   UNL A   1      38.601  31.301  29.919  1.00  0.00     0.010 A 
ATOM     16  C   UNL A   1      37.352  29.258  30.249  1.00  0.00     0.010 A 
ATOM     17  C   UNL A   1      38.561  29.912  30.025  1.00  0.00    -0.014 A 
BRANCH  17  18
ATOM     18  C   UNL A   1      39.840  29.212  30.040  1.00  0.00     0.031 A 
ATOM     19  C   UNL A   1      40.470  29.078  31.388  1.00  0.00     0.074 A 
ATOM     20  C   UNL A   1      40.357  28.614  28.950  1.00  0.00     0.049 A 
ATOM     21  N   UNL A   1      41.666  29.401  31.764  1.00  0.00    -0.248 NA
ATOM     22  C   UNL A   1      39.612  28.593  32.483  1.00  0.00     0.031 C 
ATOM     23  C   UNL A   1      39.723  28.420  27.645  1.00  0.00     0.029 A 
ATOM     24  N   UNL A   1      41.535  27.940  28.827  1.00  0.00    -0.354 N 
ATOM     25  C   UNL A   1      41.767  29.018  33.102  1.00  0.00     0.074 A 
ATOM     26  C   UNL A   1      40.445  28.640  33.522  1.00  0.00     0.031 C 
ATOM     27  C   UNL A   1      40.415  27.488  26.952  1.00  0.00     0.029 A 
ATOM     28  C   UNL A   1      41.599  27.120  27.711  1.00  0.00     0.049 A 
ATOM     29  H   UNL A   1      42.273  28.029  29.472  1.00  0.00     0.167 HD
ATOM     30  C   UNL A   1      42.972  28.850  33.714  1.00  0.00     0.037 A 
ATOM     31  C   UNL A   1      42.510  26.144  27.477  1.00  0.00     0.037 A 
ATOM     32  C   UNL A   1      44.007  29.599  33.052  1.00  0.00     0.049 A 
ATOM     33  C   UNL A   1      43.678  26.391  28.357  1.00  0.00     0.074 A 
ATOM     34  C   UNL A   1      44.228  30.939  32.796  1.00  0.00     0.029 A 
ATOM     35  N   UNL A   1      44.902  28.928  32.257  1.00  0.00    -0.354 N 
ATOM     36  N   UNL A   1      44.507  27.386  28.214  1.00  0.00    -0.248 NA
ATOM     37  C   UNL A   1      43.690  25.748  29.663  1.00  0.00     0.031 C 
ATOM     38  C   UNL A   1      44.868  30.973  31.522  1.00  0.00     0.029 A 
ATOM     39  C   UNL A   1      45.027  29.653  31.103  1.00  0.00     0.049 A 
ATOM     40  H   UNL A   1      45.365  28.088  32.475  1.00  0.00     0.167 HD
ATOM     41  C   UNL A   1      44.827  27.764  29.509  1.00  0.00     0.074 A 
ATOM     42  C   UNL A   1      44.378  26.660  30.353  1.00  0.00     0.031 C 
ATOM     43  C   UNL A   1      45.170  29.052  29.801  1.00  0.00     0.037 A 
BRANCH  30  44
ATOM     44  C   UNL A   1      43.282  27.719  34.674  1.00  0.00     0.064 A 
ATOM     45  C   UNL A   1      43.604  28.029  36.014  1.00  0.00     0.173 A 
ATOM     46  C   UNL A   1      43.597  26.403  34.269  1.00  0.00     0.173 A 
ATOM     47  F   UNL A   1      43.342  29.245  36.517  1.00  0.00    -0.203 F 
ATOM     48  C   UNL A   1      44.302  27.138  36.833  1.00  0.00     0.198 A 
ATOM     49  C   UNL A   1      44.248  25.500  35.107  1.00  0.00     0.198 A 
ATOM     50  F   UNL A   1      43.391  25.968  33.023  1.00  0.00    -0.203 F 
ATOM     51  F   UNL A   1      44.718  27.536  38.043  1.00  0.00    -0.200 F 
ATOM     52  C   UNL A   1      44.638  25.880  36.374  1.00  0.00     0.200 A 
ATOM     53  F   UNL A   1      44.570  24.286  34.641  1.00  0.00    -0.200 F 
ATOM     54  F   UNL A   1      45.377  25.054  37.125  1.00  0.00    -0.200 F 
ENDBRANCH  30  44
BRANCH  31  55
ATOM     55  C   UNL A   1      42.297  24.852  26.786  1.00  0.00     0.064 A 
ATOM     56  C   UNL A   1      43.112  24.461  25.713  1.00  0.00     0.173 A 
ATOM     57  C   UNL A   1      41.463  23.859  27.336  1.00  0.00     0.173 A 
ATOM     58  F   UNL A   1      43.973  25.331  25.166  1.00  0.00    -0.203 F 
ATOM     59  C   UNL A   1      43.103  23.148  25.228  1.00  0.00     0.198 A 
ATOM     60  C   UNL A   1      41.447  22.554  26.846  1.00  0.00     0.198 A 
ATOM     61  F   UNL A   1      40.718  24.109  28.422  1.00  0.00    -0.203 F 
ATOM     62  F   UNL A   1      43.939  22.794  24.242  1.00  0.00    -0.200 F 
ATOM     63  C   UNL A   1      42.277  22.195  25.800  1.00  0.00     0.200 A 
ATOM     64  F   UNL A   1      40.670  21.632  27.433  1.00  0.00    -0.200 F 
ATOM     65  F   UNL A   1      42.309  20.925  25.374  1.00  0.00    -0.200 F 
ENDBRANCH  31  55
BRANCH  43  66
ATOM     66  C   UNL A   1      45.457  29.976  28.654  1.00  0.00     0.064 A 
ATOM     67  C   UNL A   1      44.461  30.668  27.944  1.00  0.00     0.173 A 
ATOM     68  C   UNL A   1      46.792  30.281  28.360  1.00  0.00     0.173 A 
ATOM     69  F   UNL A   1      43.165  30.513  28.243  1.00  0.00    -0.203 F 
ATOM     70  C   UNL A   1      44.791  31.585  26.947  1.00  0.00     0.198 A 
ATOM     71  C   UNL A   1      47.119  31.225  27.391  1.00  0.00     0.198 A 
ATOM     72  F   UNL A   1      47.783  29.697  29.052  1.00  0.00    -0.203 F 
ATOM     73  F   UNL A   1      43.823  32.223  26.275  1.00  0.00    -0.200 F 
ATOM     74  C   UNL A   1      46.119  31.867  26.677  1.00  0.00     0.200 A 
ATOM     75  F   UNL A   1      48.404  31.535  27.171  1.00  0.00    -0.200 F 
ATOM     76  F   UNL A   1      46.438  32.781  25.750  1.00  0.00    -0.200 F 
ENDBRANCH  43  66
ENDBRANCH  17  18
ENDBRANCH  10  12
ENDBRANCH   7   8
ENDBRANCH   6   7
ENDBRANCH   5   6
ENDBRANCH   1   5
BRANCH   2  77
ATOM     77  C   UNL A   1      31.768  27.893  24.040  1.00  0.00     0.112 A 
ATOM     78  S   UNL A   1      30.654  28.371  22.806  1.00  0.00    -0.137 S 
ATOM     79  C   UNL A   1      31.196  26.968  24.897  1.00  0.00     0.111 A 
ATOM     80  C   UNL A   1      29.464  27.286  23.343  1.00  0.00     0.067 A 
ATOM     81  C   UNL A   1      29.877  26.593  24.455  1.00  0.00     0.035 A 
BRANCH  79  82
ATOM     82  S   UNL A   1      31.803  26.248  26.360  1.00  0.00     0.263 S 
ATOM     83  O   UNL A   1      33.193  26.024  26.067  1.00  0.00    -0.201 OA
ATOM     84  O   UNL A   1      31.403  27.224  27.366  1.00  0.00    -0.201 OA
BRANCH  82  85
ATOM     85  N   UNL A   1      31.144  24.821  26.876  1.00  0.00    -0.280 N 
ATOM     86  H   UNL A   1      30.320  24.883  27.414  1.00  0.00     0.180 HD
BRANCH  85  87
ATOM     87  C   UNL A   1      31.641  23.525  26.625  1.00  0.00     0.049 A 
ATOM     88  C   UNL A   1      31.308  22.996  25.375  1.00  0.00     0.027 A 
ATOM     89  C   UNL A   1      32.553  22.868  27.440  1.00  0.00     0.027 A 
ATOM     90  C   UNL A   1      32.059  21.955  24.840  1.00  0.00     0.008 A 
ATOM     91  C   UNL A   1      33.286  21.799  26.915  1.00  0.00     0.008 A 
ATOM     92  C   UNL A   1      33.108  21.396  25.581  1.00  0.00    -0.026 A 
BRANCH  92  93
ATOM     93  C   UNL A   1      34.127  20.499  24.920  1.00  0.00     0.181 C 
BRANCH  93  94
ATOM     94  N   UNL A   1      35.374  21.173  24.630  1.00  0.00    -0.249 N 
ATOM     95  C   UNL A   1      35.546  22.424  24.122  1.00  0.00     0.220 A 
ATOM     96  N   UNL A   1      36.553  20.644  25.009  1.00  0.00    -0.160 NA
ATOM     97  N   UNL A   1      36.822  22.728  24.118  1.00  0.00    -0.224 NA
ATOM     98  C   UNL A   1      37.399  21.619  24.667  1.00  0.00     0.246 A 
ENDBRANCH  93  94
ENDBRANCH  92  93
ENDBRANCH  85  87
ENDBRANCH  82  85
ENDBRANCH  79  82
ENDBRANCH   2  77
TORSDOF 15
ENDMDL
MODEL 2
REMARK VINA RESULT:     -12.2      1.337      2.075
REMARK SMILES O=C(NCCCNC(=O)c1sccc1S(=O)(=O)Nc1ccc(Cn2cncn2)cc1)c1ccc(-c2c3nc(c(-c4c(F)c(F)c(F)c(F)c4F)c4ccc([nH]4)c(-c4c(F)c(F)c(F)c(F)c4F)c4nc(c(-c5c(F)c(F)c(F)c(F)c5F)c5ccc2[nH]5)C=C4)C=C3)cc1
REMARK SMILES IDX 7 1 8 2 9 3 6 5 5 6 4 7 3 8 1 9 2 10 31 12 32 13 93 14 33 15
REMARK SMILES IDX 92 16 34 17 35 18 36 19 86 20 37 21 91 22 85 23 87 24 38 25
REMARK SMILES IDX 90 26 84 27 83 28 39 30 71 31 51 32 70 33 52 34 55 35 69 36
REMARK SMILES IDX 88 37 53 38 54 39 68 41 89 42 56 43 40 44 41 45 49 46 42 47
REMARK SMILES IDX 43 48 47 49 50 50 44 51 45 52 48 53 46 54 72 55 73 56 81 57
REMARK SMILES IDX 74 58 75 59 79 60 82 61 76 62 77 63 80 64 78 65 57 66 58 67
REMARK SMILES IDX 66 68 59 69 60 70 64 71 67 72 61 73 62 74 65 75 63 76 10 77
REMARK SMILES IDX 11 78 14 79 12 80 13 81 15 82 16 83 17 84 18 85 19 87 20 88
REMARK SMILES IDX 30 89 21 90 29 91 22 92 23 93 24 94 25 95 28 96 26 97 27 98
REMARK H PARENT 7 4 3 11 87 29 55 40 18 86
REMARK Flexibility Score: inf
ROOT
ATOM      1  N   UNL A   1      33.324  29.507  24.893  1.00  0.00    -0.351 N 
ATOM      2  C   UNL A   1      33.009  28.737  23.812  1.00  0.00     0.262 C 
ATOM      3  O   UNL A   1      33.849  28.707  22.910  1.00  0.00    -0.268 OA
ATOM      4  H   UNL A   1      34.112  30.085  24.770  1.00  0.00     0.163 HD
ENDROOT
BRANCH   1   5
ATOM      5  C   UNL A   1      32.691  29.617  26.187  1.00  0.00     0.118 C 
BRANCH   5   6
ATOM      6  C   UNL A   1      32.941  30.988  26.798  1.00  0.00     0.042 C 
BRANCH   6   7
ATOM      7  C   UNL A   1      34.235  31.092  27.618  1.00  0.00     0.118 C 
BRANCH   7   8
ATOM      8  N   UNL A   1      34.089  31.699  28.924  1.00  0.00    -0.352 N 
ATOM      9  O   UNL A   1      34.547  32.699  30.842  1.00  0.00    -0.269 OA
ATOM     10  C   UNL A   1      34.965  31.968  29.942  1.00  0.00     0.251 C 
ATOM     11  H   UNL A   1      33.165  31.978  29.123  1.00  0.00     0.163 HD
BRANCH  10  12
ATOM     12  C   UNL A   1      36.326  31.378  30.063  1.00  0.00     0.039 A 
ATOM     13  C   UNL A   1      37.522  32.086  29.955  1.00  0.00     0.014 A 
ATOM     14  C   UNL A   1      36.387  29.983  30.228  1.00  0.00     0.014 A 
ATOM     15  C   UNL A   1      38.733  31.422  29.856  1.00  0.00     0.010 A 
ATOM     16  C   UNL A   1      37.603  29.311  30.187  1.00  0.00     0.010 A 
ATOM     17  C   UNL A   1      38.771  30.032  29.948  1.00  0.00    -0.014 A 
BRANCH  17  18
ATOM     18  C   UNL A   1      40.085  29.403  29.930  1.00  0.00     0.031 A 
ATOM     19  C   UNL A   1      40.735  29.262  31.268  1.00  0.00     0.074 A 
ATOM     20  C   UNL A   1      40.623  28.866  28.818  1.00  0.00     0.049 A 
ATOM     21  N   UNL A   1      41.916  29.638  31.643  1.00  0.00    -0.248 NA
ATOM     22  C   UNL A   1      39.916  28.698  32.355  1.00  0.00     0.031 C 
ATOM     23  C   UNL A   1      39.987  28.678  27.512  1.00  0.00     0.029 A 
ATOM     24  N   UNL A   1      41.834  28.262  28.665  1.00  0.00    -0.354 N 
ATOM     25  C   UNL A   1      42.051  29.221  32.969  1.00  0.00     0.074 A 
ATOM     26  C   UNL A   1      40.755  28.759  33.387  1.00  0.00     0.031 C 
ATOM     27  C   UNL A   1      40.722  27.806  26.786  1.00  0.00     0.029 A 
ATOM     28  C   UNL A   1      41.931  27.481  27.524  1.00  0.00     0.049 A 
ATOM     29  H   UNL A   1      42.574  28.371  29.305  1.00  0.00     0.167 HD
ATOM     30  C   UNL A   1      43.269  29.100  33.565  1.00  0.00     0.037 A 
ATOM     31  C   UNL A   1      42.891  26.563  27.252  1.00  0.00     0.037 A 
ATOM     32  C   UNL A   1      44.255  29.924  32.918  1.00  0.00     0.049 A 
ATOM     33  C   UNL A   1      44.054  26.846  28.129  1.00  0.00     0.074 A 
ATOM     34  C   UNL A   1      44.401  31.281  32.702  1.00  0.00     0.029 A 
ATOM     35  N   UNL A   1      45.177  29.326  32.095  1.00  0.00    -0.354 N 
ATOM     36  N   UNL A   1      44.826  27.888  28.010  1.00  0.00    -0.248 NA
ATOM     37  C   UNL A   1      44.113  26.166  29.414  1.00  0.00     0.031 C 
ATOM     38  C   UNL A   1      45.026  31.388  31.424  1.00  0.00     0.029 A 
ATOM     39  C   UNL A   1      45.251  30.092  30.963  1.00  0.00     0.049 A 
ATOM     40  H   UNL A   1      45.687  28.506  32.283  1.00  0.00     0.167 HD
ATOM     41  C   UNL A   1      45.137  28.244  29.314  1.00  0.00     0.074 A 
ATOM     42  C   UNL A   1      44.757  27.093  30.126  1.00  0.00     0.031 C 
ATOM     43  C   UNL A   1      45.414  29.540  29.642  1.00  0.00     0.037 A 
BRANCH  30  44
ATOM     44  C   UNL A   1      43.649  27.959  34.487  1.00  0.00     0.064 A 
ATOM     45  C   UNL A   1      43.541  26.633  34.014  1.00  0.00     0.173 A 
ATOM     46  C   UNL A   1      43.789  28.088  35.887  1.00  0.00     0.173 A 
ATOM     47  F   UNL A   1      43.414  26.383  32.702  1.00  0.00    -0.203 F 
ATOM     48  C   UNL A   1      43.448  25.542  34.882  1.00  0.00     0.198 A 
ATOM     49  C   UNL A   1      43.747  26.992  36.746  1.00  0.00     0.198 A 
ATOM     50  F   UNL A   1      43.863  29.277  36.494  1.00  0.00    -0.203 F 
ATOM     51  F   UNL A   1      43.193  24.322  34.390  1.00  0.00    -0.200 F 
ATOM     52  C   UNL A   1      43.535  25.723  36.249  1.00  0.00     0.200 A 
ATOM     53  F   UNL A   1      43.828  27.189  38.069  1.00  0.00    -0.200 F 
ATOM     54  F   UNL A   1      43.365  24.693  37.086  1.00  0.00    -0.200 F 
ENDBRANCH  30  44
BRANCH  31  55
ATOM     55  C   UNL A   1      42.742  25.283  26.523  1.00  0.00     0.064 A 
ATOM     56  C   UNL A   1      43.559  24.974  25.425  1.00  0.00     0.173 A 
ATOM     57  C   UNL A   1      41.977  24.226  27.054  1.00  0.00     0.173 A 
ATOM     58  F   UNL A   1      44.358  25.910  24.893  1.00  0.00    -0.203 F 
ATOM     59  C   UNL A   1      43.618  23.678  24.898  1.00  0.00     0.198 A 
ATOM     60  C   UNL A   1      42.028  22.938  26.523  1.00  0.00     0.198 A 
ATOM     61  F   UNL A   1      41.238  24.397  28.160  1.00  0.00    -0.203 F 
ATOM     62  F   UNL A   1      44.455  23.405  23.888  1.00  0.00    -0.200 F 
ATOM     63  C   UNL A   1      42.858  22.661  25.452  1.00  0.00     0.200 A 
ATOM     64  F   UNL A   1      41.317  21.955  27.093  1.00  0.00    -0.200 F 
ATOM     65  F   UNL A   1      42.957  21.409  24.986  1.00  0.00    -0.200 F 
ENDBRANCH  31  55
BRANCH  43  66
ATOM     66  C   UNL A   1      45.639  30.512  28.522  1.00  0.00     0.064 A 
ATOM     67  C   UNL A   1      44.601  31.184  27.854  1.00  0.00     0.173 A 
ATOM     68  C   UNL A   1      46.954  30.883  28.214  1.00  0.00     0.173 A 
ATOM     69  F   UNL A   1      43.319  30.965  28.171  1.00  0.00    -0.203 F 
ATOM     70  C   UNL A   1      44.873  32.146  26.883  1.00  0.00     0.198 A 
ATOM     71  C   UNL A   1      47.222  31.871  27.271  1.00  0.00     0.198 A 
ATOM     72  F   UNL A   1      47.982  30.319  28.867  1.00  0.00    -0.203 F 
ATOM     73  F   UNL A   1      43.865  32.765  26.250  1.00  0.00    -0.200 F 
ATOM     74  C   UNL A   1      46.182  32.494  26.598  1.00  0.00     0.200 A 
ATOM     75  F   UNL A   1      48.488  32.242  27.038  1.00  0.00    -0.200 F 
ATOM     76  F   UNL A   1      46.443  33.450  25.696  1.00  0.00    -0.200 F 
ENDBRANCH  43  66
ENDBRANCH  17  18
ENDBRANCH  10  12
ENDBRANCH   7   8
ENDBRANCH   6   7
ENDBRANCH   5   6
ENDBRANCH   1   5
BRANCH   2  77
ATOM     77  C   UNL A   1      31.793  27.964  23.798  1.00  0.00     0.112 A 
ATOM     78  S   UNL A   1      30.385  28.862  23.348  1.00  0.00    -0.137 S 
ATOM     79  C   UNL A   1      31.470  26.655  24.117  1.00  0.00     0.111 A 
ATOM     80  C   UNL A   1      29.375  27.503  23.477  1.00  0.00     0.067 A 
ATOM     81  C   UNL A   1      30.072  26.391  23.883  1.00  0.00     0.035 A 
BRANCH  79  82
ATOM     82  S   UNL A   1      32.451  25.363  24.743  1.00  0.00     0.263 S 
ATOM     83  O   UNL A   1      33.488  26.052  25.463  1.00  0.00    -0.201 OA
ATOM     84  O   UNL A   1      31.468  24.551  25.449  1.00  0.00    -0.201 OA
BRANCH  82  85
ATOM     85  N   UNL A   1      33.166  24.319  23.676  1.00  0.00    -0.280 N 
ATOM     86  H   UNL A   1      33.542  24.715  22.855  1.00  0.00     0.180 HD
BRANCH  85  87
ATOM     87  C   UNL A   1      33.292  22.922  23.822  1.00  0.00     0.049 A 
ATOM     88  C   UNL A   1      34.195  22.510  24.805  1.00  0.00     0.027 A 
ATOM     89  C   UNL A   1      32.465  21.995  23.201  1.00  0.00     0.027 A 
ATOM     90  C   UNL A   1      34.104  21.227  25.337  1.00  0.00     0.008 A 
ATOM     91  C   UNL A   1      32.396  20.696  23.713  1.00  0.00     0.008 A 
ATOM     92  C   UNL A   1      33.148  20.332  24.843  1.00  0.00    -0.026 A 
BRANCH  92  93
ATOM     93  C   UNL A   1      32.813  19.067  25.598  1.00  0.00     0.181 C 
BRANCH  93  94
ATOM     94  N   UNL A   1      33.313  17.871  24.953  1.00  0.00    -0.249 N 
ATOM     95  C   UNL A   1      32.918  16.586  25.164  1.00  0.00     0.220 A 
ATOM     96  N   UNL A   1      34.159  17.948  23.908  1.00  0.00    -0.160 NA
ATOM     97  N   UNL A   1      33.514  15.795  24.303  1.00  0.00    -0.224 NA
ATOM     98  C   UNL A   1      34.258  16.664  23.557  1.00  0.00     0.246 A 
ENDBRANCH  93  94
ENDBRANCH  92  93
ENDBRANCH  85  87
ENDBRANCH  82  85
ENDBRANCH  79  82
ENDBRANCH   2  77
TORSDOF 15
ENDMDL
MODEL 3
REMARK VINA RESULT:     -12.0      4.434     10.234
REMARK SMILES O=C(NCCCNC(=O)c1sccc1S(=O)(=O)Nc1ccc(Cn2cncn2)cc1)c1ccc(-c2c3nc(c(-c4c(F)c(F)c(F)c(F)c4F)c4ccc([nH]4)c(-c4c(F)c(F)c(F)c(F)c4F)c4nc(c(-c5c(F)c(F)c(F)c(F)c5F)c5ccc2[nH]5)C=C4)C=C3)cc1
REMARK SMILES IDX 7 1 8 2 9 3 6 5 5 6 4 7 3 8 1 9 2 10 31 12 32 13 93 14 33 15
REMARK SMILES IDX 92 16 34 17 35 18 36 19 86 20 37 21 91 22 85 23 87 24 38 25
REMARK SMILES IDX 90 26 84 27 83 28 39 30 71 31 51 32 70 33 52 34 55 35 69 36
REMARK SMILES IDX 88 37 53 38 54 39 68 41 89 42 56 43 40 44 41 45 49 46 42 47
REMARK SMILES IDX 43 48 47 49 50 50 44 51 45 52 48 53 46 54 72 55 73 56 81 57
REMARK SMILES IDX 74 58 75 59 79 60 82 61 76 62 77 63 80 64 78 65 57 66 58 67
REMARK SMILES IDX 66 68 59 69 60 70 64 71 67 72 61 73 62 74 65 75 63 76 10 77
REMARK SMILES IDX 11 78 14 79 12 80 13 81 15 82 16 83 17 84 18 85 19 87 20 88
REMARK SMILES IDX 30 89 21 90 29 91 22 92 23 93 24 94 25 95 28 96 26 97 27 98
REMARK H PARENT 7 4 3 11 87 29 55 40 18 86
REMARK Flexibility Score: inf
ROOT
ATOM      1  N   UNL A   1      37.038  29.752  32.745  1.00  0.00    -0.351 N 
ATOM      2  C   UNL A   1      38.192  29.113  33.091  1.00  0.00     0.262 C 
ATOM      3  O   UNL A   1      38.132  27.882  33.137  1.00  0.00    -0.268 OA
ATOM      4  H   UNL A   1      36.239  29.177  32.728  1.00  0.00     0.163 HD
ENDROOT
BRANCH   1   5
ATOM      5  C   UNL A   1      36.793  31.135  32.404  1.00  0.00     0.118 C 
BRANCH   5   6
ATOM      6  C   UNL A   1      35.750  31.244  31.302  1.00  0.00     0.042 C 
BRANCH   6   7
ATOM      7  C   UNL A   1      36.311  31.647  29.931  1.00  0.00     0.118 C 
BRANCH   7   8
ATOM      8  N   UNL A   1      35.752  30.932  28.803  1.00  0.00    -0.352 N 
ATOM      9  O   UNL A   1      35.313  29.347  27.326  1.00  0.00    -0.269 OA
ATOM     10  C   UNL A   1      36.144  29.822  28.103  1.00  0.00     0.251 C 
ATOM     11  H   UNL A   1      34.913  31.326  28.470  1.00  0.00     0.163 HD
BRANCH  10  12
ATOM     12  C   UNL A   1      37.505  29.223  28.162  1.00  0.00     0.039 A 
ATOM     13  C   UNL A   1      37.969  28.379  29.170  1.00  0.00     0.014 A 
ATOM     14  C   UNL A   1      38.399  29.608  27.147  1.00  0.00     0.014 A 
ATOM     15  C   UNL A   1      39.313  28.054  29.260  1.00  0.00     0.010 A 
ATOM     16  C   UNL A   1      39.738  29.240  27.197  1.00  0.00     0.010 A 
ATOM     17  C   UNL A   1      40.201  28.505  28.286  1.00  0.00    -0.014 A 
BRANCH  17  18
ATOM     18  C   UNL A   1      41.582  28.049  28.388  1.00  0.00     0.031 A 
ATOM     19  C   UNL A   1      41.858  26.725  27.754  1.00  0.00     0.074 A 
ATOM     20  C   UNL A   1      42.567  28.814  28.896  1.00  0.00     0.049 A 
ATOM     21  N   UNL A   1      42.422  25.678  28.265  1.00  0.00    -0.248 NA
ATOM     22  C   UNL A   1      41.354  26.521  26.384  1.00  0.00     0.031 C 
ATOM     23  C   UNL A   1      42.500  30.223  29.288  1.00  0.00     0.029 A 
ATOM     24  N   UNL A   1      43.886  28.508  29.054  1.00  0.00    -0.354 N 
ATOM     25  C   UNL A   1      42.488  24.734  27.239  1.00  0.00     0.074 A 
ATOM     26  C   UNL A   1      41.714  25.261  26.147  1.00  0.00     0.031 C 
ATOM     27  C   UNL A   1      43.757  30.706  29.412  1.00  0.00     0.029 A 
ATOM     28  C   UNL A   1      44.701  29.616  29.232  1.00  0.00     0.049 A 
ATOM     29  H   UNL A   1      44.228  27.586  29.045  1.00  0.00     0.167 HD
ATOM     30  C   UNL A   1      43.342  23.675  27.289  1.00  0.00     0.037 A 
ATOM     31  C   UNL A   1      46.053  29.645  29.142  1.00  0.00     0.037 A 
ATOM     32  C   UNL A   1      43.710  23.360  28.644  1.00  0.00     0.049 A 
ATOM     33  C   UNL A   1      46.550  28.255  29.283  1.00  0.00     0.074 A 
ATOM     34  C   UNL A   1      43.019  22.965  29.773  1.00  0.00     0.029 A 
ATOM     35  N   UNL A   1      44.956  23.720  29.090  1.00  0.00    -0.354 N 
ATOM     36  N   UNL A   1      46.504  27.567  30.388  1.00  0.00    -0.248 NA
ATOM     37  C   UNL A   1      46.733  27.476  28.067  1.00  0.00     0.031 C 
ATOM     38  C   UNL A   1      43.705  23.582  30.862  1.00  0.00     0.029 A 
ATOM     39  C   UNL A   1      44.786  24.280  30.327  1.00  0.00     0.049 A 
ATOM     40  H   UNL A   1      45.808  23.599  28.613  1.00  0.00     0.167 HD
ATOM     41  C   UNL A   1      46.223  26.271  29.982  1.00  0.00     0.074 A 
ATOM     42  C   UNL A   1      46.477  26.256  28.545  1.00  0.00     0.031 C 
ATOM     43  C   UNL A   1      45.547  25.410  30.798  1.00  0.00     0.037 A 
BRANCH  30  44
ATOM     44  C   UNL A   1      44.134  23.171  26.099  1.00  0.00     0.064 A 
ATOM     45  C   UNL A   1      44.104  21.792  25.793  1.00  0.00     0.173 A 
ATOM     46  C   UNL A   1      45.159  23.905  25.464  1.00  0.00     0.173 A 
ATOM     47  F   UNL A   1      43.169  20.992  26.328  1.00  0.00    -0.203 F 
ATOM     48  C   UNL A   1      45.098  21.183  25.023  1.00  0.00     0.198 A 
ATOM     49  C   UNL A   1      46.119  23.301  24.654  1.00  0.00     0.198 A 
ATOM     50  F   UNL A   1      45.345  25.211  25.680  1.00  0.00    -0.203 F 
ATOM     51  F   UNL A   1      45.111  19.850  24.889  1.00  0.00    -0.200 F 
ATOM     52  C   UNL A   1      46.115  21.935  24.468  1.00  0.00     0.200 A 
ATOM     53  F   UNL A   1      47.100  24.047  24.129  1.00  0.00    -0.200 F 
ATOM     54  F   UNL A   1      47.113  21.345  23.798  1.00  0.00    -0.200 F 
ENDBRANCH  30  44
BRANCH  31  55
ATOM     55  C   UNL A   1      46.904  30.743  28.628  1.00  0.00     0.064 A 
ATOM     56  C   UNL A   1      46.604  31.388  27.419  1.00  0.00     0.173 A 
ATOM     57  C   UNL A   1      47.875  31.357  29.444  1.00  0.00     0.173 A 
ATOM     58  F   UNL A   1      45.654  30.897  26.609  1.00  0.00    -0.203 F 
ATOM     59  C   UNL A   1      47.227  32.587  27.054  1.00  0.00     0.198 A 
ATOM     60  C   UNL A   1      48.503  32.546  29.076  1.00  0.00     0.198 A 
ATOM     61  F   UNL A   1      48.163  30.869  30.659  1.00  0.00    -0.203 F 
ATOM     62  F   UNL A   1      46.871  33.207  25.922  1.00  0.00    -0.200 F 
ATOM     63  C   UNL A   1      48.170  33.168  27.887  1.00  0.00     0.200 A 
ATOM     64  F   UNL A   1      49.386  33.116  29.908  1.00  0.00    -0.200 F 
ATOM     65  F   UNL A   1      48.726  34.344  27.566  1.00  0.00    -0.200 F 
ENDBRANCH  31  55
BRANCH  43  66
ATOM     66  C   UNL A   1      45.358  25.808  32.231  1.00  0.00     0.064 A 
ATOM     67  C   UNL A   1      46.308  25.567  33.239  1.00  0.00     0.173 A 
ATOM     68  C   UNL A   1      44.242  26.585  32.567  1.00  0.00     0.173 A 
ATOM     69  F   UNL A   1      47.453  24.928  32.970  1.00  0.00    -0.203 F 
ATOM     70  C   UNL A   1      46.119  26.041  34.536  1.00  0.00     0.198 A 
ATOM     71  C   UNL A   1      44.075  27.089  33.853  1.00  0.00     0.198 A 
ATOM     72  F   UNL A   1      43.335  26.899  31.628  1.00  0.00    -0.203 F 
ATOM     73  F   UNL A   1      47.034  25.788  35.483  1.00  0.00    -0.200 F 
ATOM     74  C   UNL A   1      45.007  26.807  34.839  1.00  0.00     0.200 A 
ATOM     75  F   UNL A   1      43.025  27.875  34.129  1.00  0.00    -0.200 F 
ATOM     76  F   UNL A   1      44.847  27.301  36.075  1.00  0.00    -0.200 F 
ENDBRANCH  43  66
ENDBRANCH  17  18
ENDBRANCH  10  12
ENDBRANCH   7   8
ENDBRANCH   6   7
ENDBRANCH   5   6
ENDBRANCH   1   5
BRANCH   2  77
ATOM     77  C   UNL A   1      39.403  29.863  33.308  1.00  0.00     0.112 A 
ATOM     78  S   UNL A   1      40.671  29.508  32.185  1.00  0.00    -0.137 S 
ATOM     79  C   UNL A   1      39.819  30.783  34.256  1.00  0.00     0.111 A 
ATOM     80  C   UNL A   1      41.724  30.639  32.889  1.00  0.00     0.067 A 
ATOM     81  C   UNL A   1      41.151  31.257  33.974  1.00  0.00     0.035 A 
BRANCH  79  82
ATOM     82  S   UNL A   1      39.016  31.400  35.670  1.00  0.00     0.263 S 
ATOM     83  O   UNL A   1      37.748  30.721  35.653  1.00  0.00    -0.201 OA
ATOM     84  O   UNL A   1      39.992  31.126  36.717  1.00  0.00    -0.201 OA
BRANCH  82  85
ATOM     85  N   UNL A   1      38.732  33.027  35.777  1.00  0.00    -0.280 N 
ATOM     86  H   UNL A   1      39.333  33.542  36.365  1.00  0.00     0.180 HD
BRANCH  85  87
ATOM     87  C   UNL A   1      37.720  33.750  35.114  1.00  0.00     0.049 A 
ATOM     88  C   UNL A   1      38.076  34.250  33.859  1.00  0.00     0.027 A 
ATOM     89  C   UNL A   1      36.400  33.819  35.543  1.00  0.00     0.027 A 
ATOM     90  C   UNL A   1      37.087  34.593  32.941  1.00  0.00     0.008 A 
ATOM     91  C   UNL A   1      35.408  34.194  34.632  1.00  0.00     0.008 A 
ATOM     92  C   UNL A   1      35.737  34.495  33.299  1.00  0.00    -0.026 A 
BRANCH  92  93
ATOM     93  C   UNL A   1      34.654  34.551  32.248  1.00  0.00     0.181 C 
BRANCH  93  94
ATOM     94  N   UNL A   1      34.138  35.886  32.036  1.00  0.00    -0.249 N 
ATOM     95  C   UNL A   1      33.235  36.289  31.100  1.00  0.00     0.220 A 
ATOM     96  N   UNL A   1      34.407  36.881  32.902  1.00  0.00    -0.160 NA
ATOM     97  N   UNL A   1      32.923  37.547  31.302  1.00  0.00    -0.224 NA
ATOM     98  C   UNL A   1      33.656  37.868  32.408  1.00  0.00     0.246 A 
ENDBRANCH  93  94
ENDBRANCH  92  93
ENDBRANCH  85  87
ENDBRANCH  82  85
ENDBRANCH  79  82
ENDBRANCH   2  77
TORSDOF 15
ENDMDL
