MODEL 1
REMARK VINA RESULT:     -11.6      0.000      0.000
REMARK SMILES C/C(=N/OCc1ccccc1Nc1c(Cl)cccc1Cl)C(=O)NCCCNC(=O)c1ccc(-c2c3nc(c(-c4c(F)c(F)c(F)c(F)c4F)c4ccc([nH]4)c(-c4c(F)c(F)c(F)c(F)c4F)c4nc(c(-c5c(F)c(F)c(F)c(F)c5F)c5ccc2[nH]5)C=C4)C=C3)cc1
REMARK SMILES IDX 21 1 22 2 23 3 2 5 1 6 3 7 4 8 5 9 6 10 7 11 11 12 8 13
REMARK SMILES IDX 10 14 9 15 12 16 13 18 14 19 19 20 15 21 16 22 18 23 20 24
REMARK SMILES IDX 17 25 24 26 25 27 26 28 27 29 28 30 29 32 30 33 31 34 92 35
REMARK SMILES IDX 32 36 91 37 33 38 34 39 35 40 85 41 36 42 90 43 84 44 86 45
REMARK SMILES IDX 37 46 89 47 83 48 82 49 38 51 70 52 50 53 69 54 51 55 54 56
REMARK SMILES IDX 68 57 87 58 52 59 53 60 67 62 88 63 55 64 39 65 40 66 48 67
REMARK SMILES IDX 41 68 42 69 46 70 49 71 43 72 44 73 47 74 45 75 71 76 72 77
REMARK SMILES IDX 80 78 73 79 74 80 78 81 81 82 75 83 76 84 79 85 77 86 56 87
REMARK SMILES IDX 57 88 65 89 58 90 59 91 63 92 66 93 60 94 61 95 64 96 62 97
REMARK H PARENT 23 4 12 17 27 31 86 50 54 61
REMARK Flexibility Score: inf
ROOT
ATOM      1  C   UNL A   1      36.906  22.620  24.163  1.00  0.00     0.268 C 
ATOM      2  O   UNL A   1      37.024  23.319  23.156  1.00  0.00    -0.268 OA
ATOM      3  N   UNL A   1      37.152  21.279  24.033  1.00  0.00    -0.351 N 
ATOM      4  H   UNL A   1      37.577  21.027  23.181  1.00  0.00     0.163 HD
ENDROOT
BRANCH   1   5
ATOM      5  C   UNL A   1      36.635  23.352  25.466  1.00  0.00     0.141 C 
ATOM      6  C   UNL A   1      37.892  23.874  26.133  1.00  0.00     0.077 C 
ATOM      7  N   UNL A   1      35.522  23.651  26.067  1.00  0.00    -0.086 NA
BRANCH   7   8
ATOM      8  O   UNL A   1      34.360  23.130  25.519  1.00  0.00    -0.390 OA
BRANCH   8   9
ATOM      9  C   UNL A   1      33.406  22.843  26.566  1.00  0.00     0.302 C 
BRANCH   9  10
ATOM     10  C   UNL A   1      32.097  23.620  26.457  1.00  0.00     0.016 A 
ATOM     11  C   UNL A   1      30.905  22.987  26.876  1.00  0.00     0.009 A 
ATOM     12  C   UNL A   1      32.029  24.974  26.065  1.00  0.00     0.045 A 
ATOM     13  C   UNL A   1      29.676  23.643  26.875  1.00  0.00     0.001 A 
ATOM     14  C   UNL A   1      30.775  25.624  26.085  1.00  0.00     0.026 A 
ATOM     15  C   UNL A   1      29.610  24.968  26.479  1.00  0.00     0.002 A 
BRANCH  12  16
ATOM     16  N   UNL A   1      33.186  25.700  25.690  1.00  0.00    -0.353 N 
ATOM     17  H   UNL A   1      33.967  25.604  26.281  1.00  0.00     0.167 HD
BRANCH  16  18
ATOM     18  C   UNL A   1      33.356  26.549  24.562  1.00  0.00     0.076 A 
ATOM     19  C   UNL A   1      33.710  27.902  24.755  1.00  0.00     0.066 A 
ATOM     20  C   UNL A   1      33.299  26.080  23.232  1.00  0.00     0.066 A 
ATOM     21  Cl  UNL A   1      33.790  28.572  26.351  1.00  0.00    -0.082 Cl
ATOM     22  C   UNL A   1      34.020  28.739  23.676  1.00  0.00     0.023 A 
ATOM     23  C   UNL A   1      33.608  26.920  22.153  1.00  0.00     0.023 A 
ATOM     24  Cl  UNL A   1      32.774  24.475  22.842  1.00  0.00    -0.082 Cl
ATOM     25  C   UNL A   1      33.978  28.245  22.375  1.00  0.00     0.003 A 
ENDBRANCH  16  18
ENDBRANCH  12  16
ENDBRANCH   9  10
ENDBRANCH   8   9
ENDBRANCH   7   8
ENDBRANCH   1   5
BRANCH   3  26
ATOM     26  C   UNL A   1      36.902  20.165  24.921  1.00  0.00     0.118 C 
BRANCH  26  27
ATOM     27  C   UNL A   1      38.138  19.263  25.003  1.00  0.00     0.042 C 
BRANCH  27  28
ATOM     28  C   UNL A   1      39.277  19.852  25.830  1.00  0.00     0.118 C 
BRANCH  28  29
ATOM     29  N   UNL A   1      40.433  18.972  25.868  1.00  0.00    -0.352 N 
ATOM     30  C   UNL A   1      41.766  19.273  25.980  1.00  0.00     0.251 C 
ATOM     31  H   UNL A   1      40.227  18.012  25.801  1.00  0.00     0.163 HD
ATOM     32  O   UNL A   1      42.601  18.393  25.771  1.00  0.00    -0.269 OA
BRANCH  30  33
ATOM     33  C   UNL A   1      42.223  20.633  26.345  1.00  0.00     0.039 A 
ATOM     34  C   UNL A   1      42.250  20.990  27.698  1.00  0.00     0.014 A 
ATOM     35  C   UNL A   1      42.551  21.583  25.372  1.00  0.00     0.014 A 
ATOM     36  C   UNL A   1      42.640  22.278  28.076  1.00  0.00     0.010 A 
ATOM     37  C   UNL A   1      43.004  22.847  25.753  1.00  0.00     0.010 A 
ATOM     38  C   UNL A   1      43.040  23.213  27.108  1.00  0.00    -0.014 A 
BRANCH  38  39
ATOM     39  C   UNL A   1      43.483  24.577  27.493  1.00  0.00     0.031 A 
ATOM     40  C   UNL A   1      42.471  25.622  27.881  1.00  0.00     0.074 A 
ATOM     41  C   UNL A   1      44.790  24.898  27.434  1.00  0.00     0.049 A 
ATOM     42  N   UNL A   1      42.654  26.887  28.170  1.00  0.00    -0.248 NA
ATOM     43  C   UNL A   1      41.065  25.195  27.925  1.00  0.00     0.031 C 
ATOM     44  C   UNL A   1      45.863  23.988  27.030  1.00  0.00     0.029 A 
ATOM     45  N   UNL A   1      45.437  26.079  27.697  1.00  0.00    -0.354 N 
ATOM     46  C   UNL A   1      41.387  27.409  28.404  1.00  0.00     0.074 A 
ATOM     47  C   UNL A   1      40.441  26.335  28.185  1.00  0.00     0.031 C 
ATOM     48  C   UNL A   1      47.036  24.641  27.083  1.00  0.00     0.029 A 
ATOM     49  C   UNL A   1      46.794  26.021  27.491  1.00  0.00     0.049 A 
ATOM     50  H   UNL A   1      44.973  26.890  28.006  1.00  0.00     0.167 HD
ATOM     51  C   UNL A   1      41.046  28.664  28.784  1.00  0.00     0.037 A 
ATOM     52  C   UNL A   1      47.735  26.978  27.607  1.00  0.00     0.037 A 
ATOM     53  C   UNL A   1      41.993  29.718  29.039  1.00  0.00     0.049 A 
ATOM     54  C   UNL A   1      47.333  28.358  28.048  1.00  0.00     0.074 A 
ATOM     55  C   UNL A   1      41.752  31.001  29.502  1.00  0.00     0.029 A 
ATOM     56  N   UNL A   1      43.363  29.611  28.850  1.00  0.00    -0.354 N 
ATOM     57  N   UNL A   1      46.139  28.819  28.335  1.00  0.00    -0.248 NA
ATOM     58  C   UNL A   1      48.408  29.349  28.189  1.00  0.00     0.031 C 
ATOM     59  C   UNL A   1      42.972  31.683  29.553  1.00  0.00     0.029 A 
ATOM     60  C   UNL A   1      43.979  30.812  29.168  1.00  0.00     0.049 A 
ATOM     61  H   UNL A   1      43.829  28.803  28.538  1.00  0.00     0.167 HD
ATOM     62  C   UNL A   1      46.322  30.142  28.714  1.00  0.00     0.074 A 
ATOM     63  C   UNL A   1      47.744  30.406  28.636  1.00  0.00     0.031 C 
ATOM     64  C   UNL A   1      45.395  31.056  29.092  1.00  0.00     0.037 A 
BRANCH  51  65
ATOM     65  C   UNL A   1      39.586  28.970  28.951  1.00  0.00     0.064 A 
ATOM     66  C   UNL A   1      38.964  28.932  30.209  1.00  0.00     0.173 A 
ATOM     67  C   UNL A   1      38.809  29.351  27.847  1.00  0.00     0.173 A 
ATOM     68  F   UNL A   1      39.660  28.564  31.295  1.00  0.00    -0.203 F 
ATOM     69  C   UNL A   1      37.612  29.237  30.350  1.00  0.00     0.198 A 
ATOM     70  C   UNL A   1      37.464  29.684  27.997  1.00  0.00     0.198 A 
ATOM     71  F   UNL A   1      39.356  29.413  26.624  1.00  0.00    -0.203 F 
ATOM     72  F   UNL A   1      37.030  29.148  31.554  1.00  0.00    -0.200 F 
ATOM     73  C   UNL A   1      36.866  29.620  29.246  1.00  0.00     0.200 A 
ATOM     74  F   UNL A   1      36.748  30.068  26.931  1.00  0.00    -0.200 F 
ATOM     75  F   UNL A   1      35.567  29.921  29.385  1.00  0.00    -0.200 F 
ENDBRANCH  51  65
BRANCH  52  76
ATOM     76  C   UNL A   1      49.157  26.656  27.319  1.00  0.00     0.064 A 
ATOM     77  C   UNL A   1      50.048  26.343  28.355  1.00  0.00     0.173 A 
ATOM     78  C   UNL A   1      49.654  26.653  26.008  1.00  0.00     0.173 A 
ATOM     79  F   UNL A   1      49.624  26.352  29.627  1.00  0.00    -0.203 F 
ATOM     80  C   UNL A   1      51.386  26.060  28.092  1.00  0.00     0.198 A 
ATOM     81  C   UNL A   1      50.986  26.343  25.744  1.00  0.00     0.198 A 
ATOM     82  F   UNL A   1      48.841  26.941  24.981  1.00  0.00    -0.203 F 
ATOM     83  F   UNL A   1      52.226  25.807  29.105  1.00  0.00    -0.200 F 
ATOM     84  C   UNL A   1      51.854  26.054  26.786  1.00  0.00     0.200 A 
ATOM     85  F   UNL A   1      51.431  26.325  24.479  1.00  0.00    -0.200 F 
ATOM     86  F   UNL A   1      53.140  25.778  26.534  1.00  0.00    -0.200 F 
ENDBRANCH  52  76
BRANCH  64  87
ATOM     87  C   UNL A   1      45.892  32.417  29.484  1.00  0.00     0.064 A 
ATOM     88  C   UNL A   1      46.034  33.447  28.542  1.00  0.00     0.173 A 
ATOM     89  C   UNL A   1      46.190  32.705  30.825  1.00  0.00     0.173 A 
ATOM     90  F   UNL A   1      45.777  33.216  27.245  1.00  0.00    -0.203 F 
ATOM     91  C   UNL A   1      46.479  34.709  28.925  1.00  0.00     0.198 A 
ATOM     92  C   UNL A   1      46.607  33.976  31.207  1.00  0.00     0.198 A 
ATOM     93  F   UNL A   1      46.064  31.756  31.765  1.00  0.00    -0.203 F 
ATOM     94  F   UNL A   1      46.650  35.665  28.002  1.00  0.00    -0.200 F 
ATOM     95  C   UNL A   1      46.757  34.975  30.258  1.00  0.00     0.200 A 
ATOM     96  F   UNL A   1      46.863  34.235  32.498  1.00  0.00    -0.200 F 
ATOM     97  F   UNL A   1      47.178  36.193  30.626  1.00  0.00    -0.200 F 
ENDBRANCH  64  87
ENDBRANCH  38  39
ENDBRANCH  30  33
ENDBRANCH  28  29
ENDBRANCH  27  28
ENDBRANCH  26  27
ENDBRANCH   3  26
TORSDOF 15
ENDMDL
MODEL 2
REMARK VINA RESULT:     -11.5      3.470      8.662
REMARK SMILES C/C(=N/OCc1ccccc1Nc1c(Cl)cccc1Cl)C(=O)NCCCNC(=O)c1ccc(-c2c3nc(c(-c4c(F)c(F)c(F)c(F)c4F)c4ccc([nH]4)c(-c4c(F)c(F)c(F)c(F)c4F)c4nc(c(-c5c(F)c(F)c(F)c(F)c5F)c5ccc2[nH]5)C=C4)C=C3)cc1
REMARK SMILES IDX 21 1 22 2 23 3 2 5 1 6 3 7 4 8 5 9 6 10 7 11 11 12 8 13
REMARK SMILES IDX 10 14 9 15 12 16 13 18 14 19 19 20 15 21 16 22 18 23 20 24
REMARK SMILES IDX 17 25 24 26 25 27 26 28 27 29 28 30 29 32 30 33 31 34 92 35
REMARK SMILES IDX 32 36 91 37 33 38 34 39 35 40 85 41 36 42 90 43 84 44 86 45
REMARK SMILES IDX 37 46 89 47 83 48 82 49 38 51 70 52 50 53 69 54 51 55 54 56
REMARK SMILES IDX 68 57 87 58 52 59 53 60 67 62 88 63 55 64 39 65 40 66 48 67
REMARK SMILES IDX 41 68 42 69 46 70 49 71 43 72 44 73 47 74 45 75 71 76 72 77
REMARK SMILES IDX 80 78 73 79 74 80 78 81 81 82 75 83 76 84 79 85 77 86 56 87
REMARK SMILES IDX 57 88 65 89 58 90 59 91 63 92 66 93 60 94 61 95 64 96 62 97
REMARK H PARENT 23 4 12 17 27 31 86 50 54 61
REMARK Flexibility Score: inf
ROOT
ATOM      1  C   UNL A   1      33.629  23.381  22.894  1.00  0.00     0.268 C 
ATOM      2  O   UNL A   1      33.747  23.328  21.669  1.00  0.00    -0.268 OA
ATOM      3  N   UNL A   1      34.597  22.771  23.648  1.00  0.00    -0.351 N 
ATOM      4  H   UNL A   1      35.395  22.500  23.138  1.00  0.00     0.163 HD
ENDROOT
BRANCH   1   5
ATOM      5  C   UNL A   1      32.496  24.239  23.427  1.00  0.00     0.141 C 
ATOM      6  C   UNL A   1      31.146  23.551  23.375  1.00  0.00     0.077 C 
ATOM      7  N   UNL A   1      32.495  25.422  23.965  1.00  0.00    -0.086 NA
BRANCH   7   8
ATOM      8  O   UNL A   1      33.702  26.105  23.966  1.00  0.00    -0.390 OA
BRANCH   8   9
ATOM      9  C   UNL A   1      33.473  27.510  23.710  1.00  0.00     0.302 C 
BRANCH   9  10
ATOM     10  C   UNL A   1      33.021  28.308  24.929  1.00  0.00     0.016 A 
ATOM     11  C   UNL A   1      33.661  28.065  26.165  1.00  0.00     0.009 A 
ATOM     12  C   UNL A   1      32.074  29.353  24.864  1.00  0.00     0.045 A 
ATOM     13  C   UNL A   1      33.359  28.793  27.314  1.00  0.00     0.001 A 
ATOM     14  C   UNL A   1      31.794  30.087  26.037  1.00  0.00     0.026 A 
ATOM     15  C   UNL A   1      32.423  29.810  27.250  1.00  0.00     0.002 A 
BRANCH  12  16
ATOM     16  N   UNL A   1      31.433  29.702  23.651  1.00  0.00    -0.353 N 
ATOM     17  H   UNL A   1      32.024  29.949  22.904  1.00  0.00     0.167 HD
BRANCH  16  18
ATOM     18  C   UNL A   1      30.037  29.740  23.381  1.00  0.00     0.076 A 
ATOM     19  C   UNL A   1      29.387  28.583  22.902  1.00  0.00     0.066 A 
ATOM     20  C   UNL A   1      29.229  30.860  23.674  1.00  0.00     0.066 A 
ATOM     21  Cl  UNL A   1      30.298  27.165  22.499  1.00  0.00    -0.082 Cl
ATOM     22  C   UNL A   1      27.996  28.533  22.751  1.00  0.00     0.023 A 
ATOM     23  C   UNL A   1      27.837  30.810  23.520  1.00  0.00     0.023 A 
ATOM     24  Cl  UNL A   1      29.902  32.380  24.164  1.00  0.00    -0.082 Cl
ATOM     25  C   UNL A   1      27.220  29.645  23.069  1.00  0.00     0.003 A 
ENDBRANCH  16  18
ENDBRANCH  12  16
ENDBRANCH   9  10
ENDBRANCH   8   9
ENDBRANCH   7   8
ENDBRANCH   1   5
BRANCH   3  26
ATOM     26  C   UNL A   1      34.659  22.453  25.058  1.00  0.00     0.118 C 
BRANCH  26  27
ATOM     27  C   UNL A   1      35.441  23.534  25.812  1.00  0.00     0.042 C 
BRANCH  27  28
ATOM     28  C   UNL A   1      36.798  23.857  25.195  1.00  0.00     0.118 C 
BRANCH  28  29
ATOM     29  N   UNL A   1      37.798  22.855  25.526  1.00  0.00    -0.352 N 
ATOM     30  C   UNL A   1      39.016  22.994  26.139  1.00  0.00     0.251 C 
ATOM     31  H   UNL A   1      37.564  21.934  25.271  1.00  0.00     0.163 HD
ATOM     32  O   UNL A   1      39.807  22.051  26.129  1.00  0.00    -0.269 OA
BRANCH  30  33
ATOM     33  C   UNL A   1      39.403  24.256  26.810  1.00  0.00     0.039 A 
ATOM     34  C   UNL A   1      40.135  25.203  26.084  1.00  0.00     0.014 A 
ATOM     35  C   UNL A   1      39.121  24.487  28.160  1.00  0.00     0.014 A 
ATOM     36  C   UNL A   1      40.549  26.389  26.696  1.00  0.00     0.010 A 
ATOM     37  C   UNL A   1      39.476  25.700  28.752  1.00  0.00     0.010 A 
ATOM     38  C   UNL A   1      40.207  26.657  28.031  1.00  0.00    -0.014 A 
BRANCH  38  39
ATOM     39  C   UNL A   1      40.615  27.925  28.690  1.00  0.00     0.031 A 
ATOM     40  C   UNL A   1      42.019  28.094  29.204  1.00  0.00     0.074 A 
ATOM     41  C   UNL A   1      39.706  28.901  28.884  1.00  0.00     0.049 A 
ATOM     42  N   UNL A   1      42.543  29.090  29.875  1.00  0.00    -0.248 NA
ATOM     43  C   UNL A   1      42.953  26.987  28.951  1.00  0.00     0.031 C 
ATOM     44  C   UNL A   1      38.303  28.839  28.474  1.00  0.00     0.029 A 
ATOM     45  N   UNL A   1      39.822  30.127  29.490  1.00  0.00    -0.354 N 
ATOM     46  C   UNL A   1      43.854  28.718  30.145  1.00  0.00     0.074 A 
ATOM     47  C   UNL A   1      44.036  27.389  29.601  1.00  0.00     0.031 C 
ATOM     48  C   UNL A   1      37.690  29.981  28.829  1.00  0.00     0.029 A 
ATOM     49  C   UNL A   1      38.647  30.839  29.521  1.00  0.00     0.049 A 
ATOM     50  H   UNL A   1      40.667  30.464  29.866  1.00  0.00     0.167 HD
ATOM     51  C   UNL A   1      44.822  29.427  30.775  1.00  0.00     0.037 A 
ATOM     52  C   UNL A   1      38.371  32.043  30.057  1.00  0.00     0.037 A 
ATOM     53  C   UNL A   1      44.648  30.763  31.281  1.00  0.00     0.049 A 
ATOM     54  C   UNL A   1      39.469  32.817  30.735  1.00  0.00     0.074 A 
ATOM     55  C   UNL A   1      45.589  31.593  31.865  1.00  0.00     0.029 A 
ATOM     56  N   UNL A   1      43.451  31.463  31.264  1.00  0.00    -0.354 N 
ATOM     57  N   UNL A   1      40.723  32.483  30.920  1.00  0.00    -0.248 NA
ATOM     58  C   UNL A   1      39.115  34.138  31.270  1.00  0.00     0.031 C 
ATOM     59  C   UNL A   1      44.952  32.781  32.240  1.00  0.00     0.029 A 
ATOM     60  C   UNL A   1      43.625  32.710  31.846  1.00  0.00     0.049 A 
ATOM     61  H   UNL A   1      42.604  31.127  30.893  1.00  0.00     0.167 HD
ATOM     62  C   UNL A   1      41.313  33.559  31.569  1.00  0.00     0.074 A 
ATOM     63  C   UNL A   1      40.282  34.564  31.731  1.00  0.00     0.031 C 
ATOM     64  C   UNL A   1      42.592  33.702  31.993  1.00  0.00     0.037 A 
BRANCH  51  65
ATOM     65  C   UNL A   1      46.162  28.773  30.952  1.00  0.00     0.064 A 
ATOM     66  C   UNL A   1      47.183  28.915  30.000  1.00  0.00     0.173 A 
ATOM     67  C   UNL A   1      46.445  28.033  32.110  1.00  0.00     0.173 A 
ATOM     68  F   UNL A   1      46.961  29.604  28.871  1.00  0.00    -0.203 F 
ATOM     69  C   UNL A   1      48.427  28.317  30.188  1.00  0.00     0.198 A 
ATOM     70  C   UNL A   1      47.700  27.461  32.308  1.00  0.00     0.198 A 
ATOM     71  F   UNL A   1      45.507  27.874  33.056  1.00  0.00    -0.203 F 
ATOM     72  F   UNL A   1      49.371  28.428  29.242  1.00  0.00    -0.200 F 
ATOM     73  C   UNL A   1      48.686  27.598  31.344  1.00  0.00     0.200 A 
ATOM     74  F   UNL A   1      47.953  26.778  33.433  1.00  0.00    -0.200 F 
ATOM     75  F   UNL A   1      49.887  27.031  31.528  1.00  0.00    -0.200 F 
ENDBRANCH  51  65
BRANCH  52  76
ATOM     76  C   UNL A   1      36.997  32.600  29.957  1.00  0.00     0.064 A 
ATOM     77  C   UNL A   1      36.085  32.458  31.012  1.00  0.00     0.173 A 
ATOM     78  C   UNL A   1      36.569  33.285  28.811  1.00  0.00     0.173 A 
ATOM     79  F   UNL A   1      36.443  31.793  32.120  1.00  0.00    -0.203 F 
ATOM     80  C   UNL A   1      34.790  32.961  30.915  1.00  0.00     0.198 A 
ATOM     81  C   UNL A   1      35.282  33.812  28.727  1.00  0.00     0.198 A 
ATOM     82  F   UNL A   1      37.405  33.453  27.776  1.00  0.00    -0.203 F 
ATOM     83  F   UNL A   1      33.924  32.772  31.921  1.00  0.00    -0.200 F 
ATOM     84  C   UNL A   1      34.390  33.643  29.776  1.00  0.00     0.200 A 
ATOM     85  F   UNL A   1      34.904  34.482  27.629  1.00  0.00    -0.200 F 
ATOM     86  F   UNL A   1      33.146  34.130  29.685  1.00  0.00    -0.200 F 
ENDBRANCH  52  76
BRANCH  64  87
ATOM     87  C   UNL A   1      42.960  35.004  32.642  1.00  0.00     0.064 A 
ATOM     88  C   UNL A   1      43.460  36.081  31.896  1.00  0.00     0.173 A 
ATOM     89  C   UNL A   1      42.770  35.188  34.020  1.00  0.00     0.173 A 
ATOM     90  F   UNL A   1      43.673  35.948  30.578  1.00  0.00    -0.203 F 
ATOM     91  C   UNL A   1      43.779  37.289  32.511  1.00  0.00     0.198 A 
ATOM     92  C   UNL A   1      43.064  36.406  34.626  1.00  0.00     0.198 A 
ATOM     93  F   UNL A   1      42.288  34.190  34.776  1.00  0.00    -0.203 F 
ATOM     94  F   UNL A   1      44.297  38.290  31.787  1.00  0.00    -0.200 F 
ATOM     95  C   UNL A   1      43.573  37.453  33.873  1.00  0.00     0.200 A 
ATOM     96  F   UNL A   1      42.853  36.567  35.940  1.00  0.00    -0.200 F 
ATOM     97  F   UNL A   1      43.874  38.618  34.462  1.00  0.00    -0.200 F 
ENDBRANCH  64  87
ENDBRANCH  38  39
ENDBRANCH  30  33
ENDBRANCH  28  29
ENDBRANCH  27  28
ENDBRANCH  26  27
ENDBRANCH   3  26
TORSDOF 15
ENDMDL
MODEL 3
REMARK VINA RESULT:     -11.5      3.471      7.722
REMARK SMILES C/C(=N/OCc1ccccc1Nc1c(Cl)cccc1Cl)C(=O)NCCCNC(=O)c1ccc(-c2c3nc(c(-c4c(F)c(F)c(F)c(F)c4F)c4ccc([nH]4)c(-c4c(F)c(F)c(F)c(F)c4F)c4nc(c(-c5c(F)c(F)c(F)c(F)c5F)c5ccc2[nH]5)C=C4)C=C3)cc1
REMARK SMILES IDX 21 1 22 2 23 3 2 5 1 6 3 7 4 8 5 9 6 10 7 11 11 12 8 13
REMARK SMILES IDX 10 14 9 15 12 16 13 18 14 19 19 20 15 21 16 22 18 23 20 24
REMARK SMILES IDX 17 25 24 26 25 27 26 28 27 29 28 30 29 32 30 33 31 34 92 35
REMARK SMILES IDX 32 36 91 37 33 38 34 39 35 40 85 41 36 42 90 43 84 44 86 45
REMARK SMILES IDX 37 46 89 47 83 48 82 49 38 51 70 52 50 53 69 54 51 55 54 56
REMARK SMILES IDX 68 57 87 58 52 59 53 60 67 62 88 63 55 64 39 65 40 66 48 67
REMARK SMILES IDX 41 68 42 69 46 70 49 71 43 72 44 73 47 74 45 75 71 76 72 77
REMARK SMILES IDX 80 78 73 79 74 80 78 81 81 82 75 83 76 84 79 85 77 86 56 87
REMARK SMILES IDX 57 88 65 89 58 90 59 91 63 92 66 93 60 94 61 95 64 96 62 97
REMARK H PARENT 23 4 12 17 27 31 86 50 54 61
REMARK Flexibility Score: inf
ROOT
ATOM      1  C   UNL A   1      31.751  27.309  22.759  1.00  0.00     0.268 C 
ATOM      2  O   UNL A   1      30.883  26.989  21.946  1.00  0.00    -0.268 OA
ATOM      3  N   UNL A   1      31.335  27.871  23.938  1.00  0.00    -0.351 N 
ATOM      4  H   UNL A   1      30.366  27.801  24.099  1.00  0.00     0.163 HD
ENDROOT
BRANCH   1   5
ATOM      5  C   UNL A   1      33.176  26.914  22.418  1.00  0.00     0.141 C 
ATOM      6  C   UNL A   1      34.045  28.089  22.016  1.00  0.00     0.077 C 
ATOM      7  N   UNL A   1      33.783  25.765  22.464  1.00  0.00    -0.086 NA
BRANCH   7   8
ATOM      8  O   UNL A   1      33.000  24.661  22.762  1.00  0.00    -0.390 OA
BRANCH   8   9
ATOM      9  C   UNL A   1      33.790  23.454  22.657  1.00  0.00     0.302 C 
BRANCH   9  10
ATOM     10  C   UNL A   1      33.505  22.418  23.740  1.00  0.00     0.016 A 
ATOM     11  C   UNL A   1      32.157  22.104  24.029  1.00  0.00     0.009 A 
ATOM     12  C   UNL A   1      34.515  21.676  24.390  1.00  0.00     0.045 A 
ATOM     13  C   UNL A   1      31.805  21.123  24.954  1.00  0.00     0.001 A 
ATOM     14  C   UNL A   1      34.135  20.677  25.313  1.00  0.00     0.026 A 
ATOM     15  C   UNL A   1      32.798  20.405  25.598  1.00  0.00     0.002 A 
BRANCH  12  16
ATOM     16  N   UNL A   1      35.887  21.884  24.112  1.00  0.00    -0.353 N 
ATOM     17  H   UNL A   1      36.166  21.744  23.178  1.00  0.00     0.167 HD
BRANCH  16  18
ATOM     18  C   UNL A   1      36.913  22.273  25.017  1.00  0.00     0.076 A 
ATOM     19  C   UNL A   1      37.969  21.381  25.299  1.00  0.00     0.066 A 
ATOM     20  C   UNL A   1      36.993  23.566  25.576  1.00  0.00     0.066 A 
ATOM     21  Cl  UNL A   1      37.949  19.766  24.672  1.00  0.00    -0.082 Cl
ATOM     22  C   UNL A   1      39.068  21.768  26.076  1.00  0.00     0.023 A 
ATOM     23  C   UNL A   1      38.093  23.952  26.355  1.00  0.00     0.023 A 
ATOM     24  Cl  UNL A   1      35.718  24.727  25.403  1.00  0.00    -0.082 Cl
ATOM     25  C   UNL A   1      39.134  23.058  26.596  1.00  0.00     0.003 A 
ENDBRANCH  16  18
ENDBRANCH  12  16
ENDBRANCH   9  10
ENDBRANCH   8   9
ENDBRANCH   7   8
ENDBRANCH   1   5
BRANCH   3  26
ATOM     26  C   UNL A   1      32.062  28.548  24.990  1.00  0.00     0.118 C 
BRANCH  26  27
ATOM     27  C   UNL A   1      32.676  27.526  25.952  1.00  0.00     0.042 C 
BRANCH  27  28
ATOM     28  C   UNL A   1      33.799  28.091  26.818  1.00  0.00     0.118 C 
BRANCH  28  29
ATOM     29  N   UNL A   1      33.611  29.505  27.096  1.00  0.00    -0.352 N 
ATOM     30  C   UNL A   1      34.408  30.381  27.787  1.00  0.00     0.251 C 
ATOM     31  H   UNL A   1      32.782  29.894  26.734  1.00  0.00     0.163 HD
ATOM     32  O   UNL A   1      33.961  31.485  28.097  1.00  0.00    -0.269 OA
BRANCH  30  33
ATOM     33  C   UNL A   1      35.793  30.026  28.170  1.00  0.00     0.039 A 
ATOM     34  C   UNL A   1      36.028  29.545  29.463  1.00  0.00     0.014 A 
ATOM     35  C   UNL A   1      36.871  30.229  27.302  1.00  0.00     0.014 A 
ATOM     36  C   UNL A   1      37.328  29.235  29.871  1.00  0.00     0.010 A 
ATOM     37  C   UNL A   1      38.159  29.857  27.687  1.00  0.00     0.010 A 
ATOM     38  C   UNL A   1      38.404  29.370  28.980  1.00  0.00    -0.014 A 
BRANCH  38  39
ATOM     39  C   UNL A   1      39.789  29.019  29.387  1.00  0.00     0.031 A 
ATOM     40  C   UNL A   1      40.589  29.962  30.246  1.00  0.00     0.074 A 
ATOM     41  C   UNL A   1      40.353  27.883  28.933  1.00  0.00     0.049 A 
ATOM     42  N   UNL A   1      41.835  29.872  30.639  1.00  0.00    -0.248 NA
ATOM     43  C   UNL A   1      39.903  31.180  30.704  1.00  0.00     0.031 C 
ATOM     44  C   UNL A   1      39.699  26.909  28.059  1.00  0.00     0.029 A 
ATOM     45  N   UNL A   1      41.607  27.362  29.132  1.00  0.00    -0.354 N 
ATOM     46  C   UNL A   1      42.088  31.030  31.365  1.00  0.00     0.074 A 
ATOM     47  C   UNL A   1      40.880  31.825  31.326  1.00  0.00     0.031 C 
ATOM     48  C   UNL A   1      40.553  25.904  27.804  1.00  0.00     0.029 A 
ATOM     49  C   UNL A   1      41.823  26.179  28.469  1.00  0.00     0.049 A 
ATOM     50  H   UNL A   1      42.287  27.795  29.696  1.00  0.00     0.167 HD
ATOM     51  C   UNL A   1      43.220  31.388  32.019  1.00  0.00     0.037 A 
ATOM     52  C   UNL A   1      42.925  25.408  28.396  1.00  0.00     0.037 A 
ATOM     53  C   UNL A   1      44.406  30.576  32.088  1.00  0.00     0.049 A 
ATOM     54  C   UNL A   1      44.163  25.819  29.146  1.00  0.00     0.074 A 
ATOM     55  C   UNL A   1      45.576  30.816  32.789  1.00  0.00     0.029 A 
ATOM     56  N   UNL A   1      44.575  29.367  31.430  1.00  0.00    -0.354 N 
ATOM     57  N   UNL A   1      44.365  26.881  29.888  1.00  0.00    -0.248 NA
ATOM     58  C   UNL A   1      45.321  24.920  29.057  1.00  0.00     0.031 C 
ATOM     59  C   UNL A   1      46.469  29.772  32.521  1.00  0.00     0.029 A 
ATOM     60  C   UNL A   1      45.838  28.858  31.692  1.00  0.00     0.049 A 
ATOM     61  H   UNL A   1      43.898  28.933  30.862  1.00  0.00     0.167 HD
ATOM     62  C   UNL A   1      45.661  26.767  30.373  1.00  0.00     0.074 A 
ATOM     63  C   UNL A   1      46.193  25.523  29.853  1.00  0.00     0.031 C 
ATOM     64  C   UNL A   1      46.349  27.616  31.174  1.00  0.00     0.037 A 
BRANCH  51  65
ATOM     65  C   UNL A   1      43.231  32.717  32.718  1.00  0.00     0.064 A 
ATOM     66  C   UNL A   1      42.883  32.841  34.071  1.00  0.00     0.173 A 
ATOM     67  C   UNL A   1      43.639  33.874  32.037  1.00  0.00     0.173 A 
ATOM     68  F   UNL A   1      42.477  31.768  34.765  1.00  0.00    -0.203 F 
ATOM     69  C   UNL A   1      42.917  34.079  34.710  1.00  0.00     0.198 A 
ATOM     70  C   UNL A   1      43.700  35.105  32.687  1.00  0.00     0.198 A 
ATOM     71  F   UNL A   1      43.991  33.810  30.745  1.00  0.00    -0.203 F 
ATOM     72  F   UNL A   1      42.536  34.180  35.991  1.00  0.00    -0.200 F 
ATOM     73  C   UNL A   1      43.332  35.207  34.020  1.00  0.00     0.200 A 
ATOM     74  F   UNL A   1      44.115  36.192  32.022  1.00  0.00    -0.200 F 
ATOM     75  F   UNL A   1      43.373  36.396  34.638  1.00  0.00    -0.200 F 
ENDBRANCH  51  65
BRANCH  52  76
ATOM     76  C   UNL A   1      42.901  24.156  27.596  1.00  0.00     0.064 A 
ATOM     77  C   UNL A   1      42.544  22.934  28.183  1.00  0.00     0.173 A 
ATOM     78  C   UNL A   1      43.233  24.153  26.234  1.00  0.00     0.173 A 
ATOM     79  F   UNL A   1      42.237  22.883  29.487  1.00  0.00    -0.203 F 
ATOM     80  C   UNL A   1      42.539  21.754  27.443  1.00  0.00     0.198 A 
ATOM     81  C   UNL A   1      43.202  22.977  25.488  1.00  0.00     0.198 A 
ATOM     82  F   UNL A   1      43.578  25.297  25.625  1.00  0.00    -0.203 F 
ATOM     83  F   UNL A   1      42.236  20.593  28.039  1.00  0.00    -0.200 F 
ATOM     84  C   UNL A   1      42.862  21.777  26.094  1.00  0.00     0.200 A 
ATOM     85  F   UNL A   1      43.502  23.006  24.182  1.00  0.00    -0.200 F 
ATOM     86  F   UNL A   1      42.854  20.643  25.382  1.00  0.00    -0.200 F 
ENDBRANCH  52  76
BRANCH  64  87
ATOM     87  C   UNL A   1      47.740  27.213  31.569  1.00  0.00     0.064 A 
ATOM     88  C   UNL A   1      47.985  26.441  32.713  1.00  0.00     0.173 A 
ATOM     89  C   UNL A   1      48.836  27.570  30.768  1.00  0.00     0.173 A 
ATOM     90  F   UNL A   1      46.971  26.088  33.519  1.00  0.00    -0.203 F 
ATOM     91  C   UNL A   1      49.279  26.060  33.055  1.00  0.00     0.198 A 
ATOM     92  C   UNL A   1      50.125  27.164  31.098  1.00  0.00     0.198 A 
ATOM     93  F   UNL A   1      48.653  28.303  29.659  1.00  0.00    -0.203 F 
ATOM     94  F   UNL A   1      49.495  25.360  34.177  1.00  0.00    -0.200 F 
ATOM     95  C   UNL A   1      50.347  26.415  32.243  1.00  0.00     0.200 A 
ATOM     96  F   UNL A   1      51.154  27.497  30.306  1.00  0.00    -0.200 F 
ATOM     97  F   UNL A   1      51.591  26.041  32.570  1.00  0.00    -0.200 F 
ENDBRANCH  64  87
ENDBRANCH  38  39
ENDBRANCH  30  33
ENDBRANCH  28  29
ENDBRANCH  27  28
ENDBRANCH  26  27
ENDBRANCH   3  26
TORSDOF 15
ENDMDL
