MODEL 1
REMARK VINA RESULT:     -11.1      0.000      0.000
REMARK SMILES C[C@H]([NH2+][C@@H]1CCOC2(CCC2)C1)C(=O)NCCCNC(=O)c1ccc(-c2c3nc(c(-c4c(F)c(F)c(F)c(F)c4F)c4ccc([nH]4)c(-c4c(F)c(F)c(F)c(F)c4F)c4nc(c(-c5c(F)c(F)c(F)c(F)c5F)c5ccc2[nH]5)C=C4)C=C3)cc1
REMARK SMILES IDX 17 1 16 2 15 3 13 4 14 5 2 7 1 8 3 9 4 12 5 13 12 14 6 15
REMARK SMILES IDX 8 16 7 17 9 18 11 19 10 20 18 21 19 22 20 23 21 25 22 26
REMARK SMILES IDX 23 27 84 28 24 29 83 30 25 31 26 32 27 33 77 34 28 35 82 36
REMARK SMILES IDX 76 37 78 38 29 39 81 40 75 41 74 42 30 44 62 45 42 46 61 47
REMARK SMILES IDX 43 48 46 49 60 50 79 51 44 52 45 53 59 55 80 56 47 57 31 58
REMARK SMILES IDX 32 59 40 60 33 61 34 62 38 63 41 64 35 65 36 66 39 67 37 68
REMARK SMILES IDX 63 69 64 70 72 71 65 72 66 73 70 74 73 75 67 76 68 77 71 78
REMARK SMILES IDX 69 79 48 80 49 81 57 82 50 83 51 84 55 85 58 86 52 87 53 88
REMARK SMILES IDX 56 89 54 90
REMARK H PARENT 15 6 3 10 3 11 19 24 78 43 46 54
REMARK Flexibility Score: inf
ROOT
ATOM      1  C   UNL A   1      34.604  34.259  27.918  1.00  0.00     0.042 C 
ENDROOT
BRANCH   1   2
ATOM      2  C   UNL A   1      33.622  34.420  29.075  1.00  0.00     0.118 C 
BRANCH   2   3
ATOM      3  N   UNL A   1      33.567  35.800  29.524  1.00  0.00    -0.351 N 
ATOM      4  C   UNL A   1      33.175  36.378  30.689  1.00  0.00     0.277 C 
ATOM      5  O   UNL A   1      32.992  37.602  30.640  1.00  0.00    -0.268 OA
ATOM      6  H   UNL A   1      33.877  36.447  28.849  1.00  0.00     0.163 HD
BRANCH   4   7
ATOM      7  C   UNL A   1      32.905  35.625  32.015  1.00  0.00     0.269 C 
ATOM      8  C   UNL A   1      31.649  35.998  32.795  1.00  0.00     0.086 C 
BRANCH   7   9
ATOM      9  N   UNL A   1      34.145  35.429  32.806  1.00  0.00    -0.334 N 
ATOM     10  H   UNL A   1      34.145  36.118  33.559  1.00  0.00     0.347 HD
ATOM     11  H   UNL A   1      34.912  35.534  32.140  1.00  0.00     0.347 HD
BRANCH   9  12
ATOM     12  C   UNL A   1      34.331  34.109  33.409  1.00  0.00     0.188 C 
ATOM     13  C   UNL A   1      35.226  34.155  34.662  1.00  0.00     0.093 C 
ATOM     14  C   UNL A   1      34.876  33.115  32.371  1.00  0.00     0.100 C 
ATOM     15  C   UNL A   1      36.707  34.246  34.352  1.00  0.00     0.167 C 
ATOM     16  C   UNL A   1      36.377  33.283  32.153  1.00  0.00     0.074 C 
ATOM     17  O   UNL A   1      37.059  33.221  33.432  1.00  0.00    -0.375 OA
ATOM     18  C   UNL A   1      36.949  32.293  31.092  1.00  0.00     0.036 C 
ATOM     19  C   UNL A   1      36.847  34.418  31.189  1.00  0.00     0.036 C 
ATOM     20  C   UNL A   1      37.890  33.426  30.642  1.00  0.00     0.006 C 
ENDBRANCH   9  12
ENDBRANCH   7   9
ENDBRANCH   4   7
ENDBRANCH   2   3
ENDBRANCH   1   2
BRANCH   1  21
ATOM     21  C   UNL A   1      35.392  32.957  27.946  1.00  0.00     0.118 C 
BRANCH  21  22
ATOM     22  N   UNL A   1      34.522  31.798  27.854  1.00  0.00    -0.352 N 
ATOM     23  C   UNL A   1      34.834  30.460  27.812  1.00  0.00     0.251 C 
ATOM     24  H   UNL A   1      33.559  32.003  27.814  1.00  0.00     0.163 HD
ATOM     25  O   UNL A   1      33.968  29.654  27.483  1.00  0.00    -0.269 OA
BRANCH  23  26
ATOM     26  C   UNL A   1      36.194  29.971  28.150  1.00  0.00     0.039 A 
ATOM     27  C   UNL A   1      36.403  29.374  29.400  1.00  0.00     0.014 A 
ATOM     28  C   UNL A   1      37.279  30.164  27.294  1.00  0.00     0.014 A 
ATOM     29  C   UNL A   1      37.682  28.941  29.770  1.00  0.00     0.010 A 
ATOM     30  C   UNL A   1      38.536  29.661  27.627  1.00  0.00     0.010 A 
ATOM     31  C   UNL A   1      38.758  29.064  28.879  1.00  0.00    -0.014 A 
BRANCH  31  32
ATOM     32  C   UNL A   1      40.137  28.641  29.246  1.00  0.00     0.031 A 
ATOM     33  C   UNL A   1      41.002  29.558  30.070  1.00  0.00     0.074 A 
ATOM     34  C   UNL A   1      40.641  27.479  28.788  1.00  0.00     0.049 A 
ATOM     35  N   UNL A   1      42.273  29.459  30.369  1.00  0.00    -0.248 NA
ATOM     36  C   UNL A   1      40.354  30.767  30.606  1.00  0.00     0.031 C 
ATOM     37  C   UNL A   1      39.920  26.509  27.964  1.00  0.00     0.029 A 
ATOM     38  N   UNL A   1      41.890  26.928  28.934  1.00  0.00    -0.354 N 
ATOM     39  C   UNL A   1      42.583  30.606  31.090  1.00  0.00     0.074 A 
ATOM     40  C   UNL A   1      41.379  31.404  31.152  1.00  0.00     0.031 C 
ATOM     41  C   UNL A   1      40.735  25.478  27.687  1.00  0.00     0.029 A 
ATOM     42  C   UNL A   1      42.046  25.734  28.275  1.00  0.00     0.049 A 
ATOM     43  H   UNL A   1      42.607  27.349  29.463  1.00  0.00     0.167 HD
ATOM     44  C   UNL A   1      43.760  30.954  31.664  1.00  0.00     0.037 A 
ATOM     45  C   UNL A   1      43.130  24.943  28.144  1.00  0.00     0.037 A 
ATOM     46  C   UNL A   1      44.944  30.136  31.645  1.00  0.00     0.049 A 
ATOM     47  C   UNL A   1      44.423  25.345  28.800  1.00  0.00     0.074 A 
ATOM     48  C   UNL A   1      46.168  30.377  32.243  1.00  0.00     0.029 A 
ATOM     49  N   UNL A   1      45.047  28.914  30.998  1.00  0.00    -0.354 N 
ATOM     50  N   UNL A   1      44.695  26.415  29.507  1.00  0.00    -0.248 NA
ATOM     51  C   UNL A   1      45.562  24.429  28.641  1.00  0.00     0.031 C 
ATOM     52  C   UNL A   1      47.024  29.315  31.932  1.00  0.00     0.029 A 
ATOM     53  C   UNL A   1      46.318  28.392  31.176  1.00  0.00     0.049 A 
ATOM     54  H   UNL A   1      44.324  28.481  30.489  1.00  0.00     0.167 HD
ATOM     55  C   UNL A   1      46.018  26.284  29.906  1.00  0.00     0.074 A 
ATOM     56  C   UNL A   1      46.496  25.029  29.366  1.00  0.00     0.031 C 
ATOM     57  C   UNL A   1      46.770  27.129  30.654  1.00  0.00     0.037 A 
BRANCH  44  58
ATOM     58  C   UNL A   1      43.826  32.280  32.365  1.00  0.00     0.064 A 
ATOM     59  C   UNL A   1      44.196  33.453  31.690  1.00  0.00     0.173 A 
ATOM     60  C   UNL A   1      43.481  32.385  33.722  1.00  0.00     0.173 A 
ATOM     61  F   UNL A   1      44.546  33.405  30.396  1.00  0.00    -0.203 F 
ATOM     62  C   UNL A   1      44.251  34.676  32.355  1.00  0.00     0.198 A 
ATOM     63  C   UNL A   1      43.506  33.615  34.374  1.00  0.00     0.198 A 
ATOM     64  F   UNL A   1      43.112  31.296  34.412  1.00  0.00    -0.203 F 
ATOM     65  F   UNL A   1      44.657  35.773  31.701  1.00  0.00    -0.200 F 
ATOM     66  C   UNL A   1      43.899  34.756  33.694  1.00  0.00     0.200 A 
ATOM     67  F   UNL A   1      43.154  33.693  35.665  1.00  0.00    -0.200 F 
ATOM     68  F   UNL A   1      43.946  35.935  34.329  1.00  0.00    -0.200 F 
ENDBRANCH  44  58
BRANCH  45  69
ATOM     69  C   UNL A   1      43.034  23.676  27.373  1.00  0.00     0.064 A 
ATOM     70  C   UNL A   1      42.535  22.510  27.970  1.00  0.00     0.173 A 
ATOM     71  C   UNL A   1      43.440  23.603  26.034  1.00  0.00     0.173 A 
ATOM     72  F   UNL A   1      42.157  22.525  29.256  1.00  0.00    -0.203 F 
ATOM     73  C   UNL A   1      42.463  21.312  27.260  1.00  0.00     0.198 A 
ATOM     74  C   UNL A   1      43.344  22.411  25.317  1.00  0.00     0.198 A 
ATOM     75  F   UNL A   1      43.924  24.692  25.417  1.00  0.00    -0.203 F 
ATOM     76  F   UNL A   1      42.024  20.202  27.868  1.00  0.00    -0.200 F 
ATOM     77  C   UNL A   1      42.863  21.265  25.933  1.00  0.00     0.200 A 
ATOM     78  F   UNL A   1      43.721  22.372  24.032  1.00  0.00    -0.200 F 
ATOM     79  F   UNL A   1      42.791  20.114  25.251  1.00  0.00    -0.200 F 
ENDBRANCH  45  69
BRANCH  57  80
ATOM     80  C   UNL A   1      48.170  26.702  30.984  1.00  0.00     0.064 A 
ATOM     81  C   UNL A   1      48.449  25.877  32.083  1.00  0.00     0.173 A 
ATOM     82  C   UNL A   1      49.236  27.079  30.153  1.00  0.00     0.173 A 
ATOM     83  F   UNL A   1      47.466  25.502  32.914  1.00  0.00    -0.203 F 
ATOM     84  C   UNL A   1      49.752  25.459  32.348  1.00  0.00     0.198 A 
ATOM     85  C   UNL A   1      50.531  26.638  30.406  1.00  0.00     0.198 A 
ATOM     86  F   UNL A   1      49.018  27.862  29.086  1.00  0.00    -0.203 F 
ATOM     87  F   UNL A   1      50.004  24.702  33.424  1.00  0.00    -0.200 F 
ATOM     88  C   UNL A   1      50.789  25.833  31.505  1.00  0.00     0.200 A 
ATOM     89  F   UNL A   1      51.530  26.989  29.585  1.00  0.00    -0.200 F 
ATOM     90  F   UNL A   1      52.038  25.419  31.756  1.00  0.00    -0.200 F 
ENDBRANCH  57  80
ENDBRANCH  31  32
ENDBRANCH  23  26
ENDBRANCH  21  22
ENDBRANCH   1  21
TORSDOF 12
ENDMDL
MODEL 2
REMARK VINA RESULT:     -11.0      4.331      9.970
REMARK SMILES C[C@H]([NH2+][C@@H]1CCOC2(CCC2)C1)C(=O)NCCCNC(=O)c1ccc(-c2c3nc(c(-c4c(F)c(F)c(F)c(F)c4F)c4ccc([nH]4)c(-c4c(F)c(F)c(F)c(F)c4F)c4nc(c(-c5c(F)c(F)c(F)c(F)c5F)c5ccc2[nH]5)C=C4)C=C3)cc1
REMARK SMILES IDX 17 1 16 2 15 3 13 4 14 5 2 7 1 8 3 9 4 12 5 13 12 14 6 15
REMARK SMILES IDX 8 16 7 17 9 18 11 19 10 20 18 21 19 22 20 23 21 25 22 26
REMARK SMILES IDX 23 27 84 28 24 29 83 30 25 31 26 32 27 33 77 34 28 35 82 36
REMARK SMILES IDX 76 37 78 38 29 39 81 40 75 41 74 42 30 44 62 45 42 46 61 47
REMARK SMILES IDX 43 48 46 49 60 50 79 51 44 52 45 53 59 55 80 56 47 57 31 58
REMARK SMILES IDX 32 59 40 60 33 61 34 62 38 63 41 64 35 65 36 66 39 67 37 68
REMARK SMILES IDX 63 69 64 70 72 71 65 72 66 73 70 74 73 75 67 76 68 77 71 78
REMARK SMILES IDX 69 79 48 80 49 81 57 82 50 83 51 84 55 85 58 86 52 87 53 88
REMARK SMILES IDX 56 89 54 90
REMARK H PARENT 15 6 3 10 3 11 19 24 78 43 46 54
REMARK Flexibility Score: inf
ROOT
ATOM      1  C   UNL A   1      33.582  28.843  23.390  1.00  0.00     0.042 C 
ENDROOT
BRANCH   1   2
ATOM      2  C   UNL A   1      32.295  28.295  22.781  1.00  0.00     0.118 C 
BRANCH   2   3
ATOM      3  N   UNL A   1      32.582  27.389  21.682  1.00  0.00    -0.351 N 
ATOM      4  C   UNL A   1      32.772  26.045  21.618  1.00  0.00     0.277 C 
ATOM      5  O   UNL A   1      33.276  25.629  20.567  1.00  0.00    -0.268 OA
ATOM      6  H   UNL A   1      32.654  27.838  20.810  1.00  0.00     0.163 HD
BRANCH   4   7
ATOM      7  C   UNL A   1      32.454  25.041  22.754  1.00  0.00     0.269 C 
ATOM      8  C   UNL A   1      30.987  24.819  23.109  1.00  0.00     0.086 C 
BRANCH   7   9
ATOM      9  N   UNL A   1      33.400  25.169  23.890  1.00  0.00    -0.334 N 
ATOM     10  H   UNL A   1      32.870  25.038  24.753  1.00  0.00     0.347 HD
ATOM     11  H   UNL A   1      33.821  26.093  23.791  1.00  0.00     0.347 HD
BRANCH   9  12
ATOM     12  C   UNL A   1      34.523  24.230  23.910  1.00  0.00     0.188 C 
ATOM     13  C   UNL A   1      34.222  22.937  23.128  1.00  0.00     0.093 C 
ATOM     14  C   UNL A   1      34.939  23.920  25.357  1.00  0.00     0.100 C 
ATOM     15  C   UNL A   1      33.354  21.952  23.885  1.00  0.00     0.167 C 
ATOM     16  C   UNL A   1      34.011  22.904  26.014  1.00  0.00     0.074 C 
ATOM     17  O   UNL A   1      33.913  21.726  25.173  1.00  0.00    -0.375 OA
ATOM     18  C   UNL A   1      34.408  22.586  27.489  1.00  0.00     0.036 C 
ATOM     19  C   UNL A   1      32.663  23.429  26.604  1.00  0.00     0.036 C 
ATOM     20  C   UNL A   1      32.902  22.491  27.802  1.00  0.00     0.006 C 
ENDBRANCH   9  12
ENDBRANCH   7   9
ENDBRANCH   4   7
ENDBRANCH   2   3
ENDBRANCH   1   2
BRANCH   1  21
ATOM     21  C   UNL A   1      33.572  28.908  24.912  1.00  0.00     0.118 C 
BRANCH  21  22
ATOM     22  N   UNL A   1      32.910  30.107  25.395  1.00  0.00    -0.352 N 
ATOM     23  C   UNL A   1      33.116  30.825  26.549  1.00  0.00     0.251 C 
ATOM     24  H   UNL A   1      32.205  30.459  24.805  1.00  0.00     0.163 HD
ATOM     25  O   UNL A   1      32.283  31.661  26.889  1.00  0.00    -0.269 OA
BRANCH  23  26
ATOM     26  C   UNL A   1      34.316  30.606  27.394  1.00  0.00     0.039 A 
ATOM     27  C   UNL A   1      35.183  31.681  27.625  1.00  0.00     0.014 A 
ATOM     28  C   UNL A   1      34.644  29.343  27.893  1.00  0.00     0.014 A 
ATOM     29  C   UNL A   1      36.348  31.500  28.380  1.00  0.00     0.010 A 
ATOM     30  C   UNL A   1      35.760  29.180  28.713  1.00  0.00     0.010 A 
ATOM     31  C   UNL A   1      36.637  30.251  28.948  1.00  0.00    -0.014 A 
BRANCH  31  32
ATOM     32  C   UNL A   1      37.878  30.012  29.733  1.00  0.00     0.031 A 
ATOM     33  C   UNL A   1      38.946  29.103  29.182  1.00  0.00     0.074 A 
ATOM     34  C   UNL A   1      38.023  30.544  30.962  1.00  0.00     0.049 A 
ATOM     35  N   UNL A   1      40.024  28.638  29.761  1.00  0.00    -0.248 NA
ATOM     36  C   UNL A   1      38.757  28.632  27.801  1.00  0.00     0.031 C 
ATOM     37  C   UNL A   1      37.059  31.422  31.624  1.00  0.00     0.029 A 
ATOM     38  N   UNL A   1      39.031  30.403  31.884  1.00  0.00    -0.354 N 
ATOM     39  C   UNL A   1      40.617  27.792  28.831  1.00  0.00     0.074 A 
ATOM     40  C   UNL A   1      39.761  27.779  27.666  1.00  0.00     0.031 C 
ATOM     41  C   UNL A   1      37.526  31.750  32.840  1.00  0.00     0.029 A 
ATOM     42  C   UNL A   1      38.800  31.072  33.061  1.00  0.00     0.049 A 
ATOM     43  H   UNL A   1      39.845  29.873  31.716  1.00  0.00     0.167 HD
ATOM     44  C   UNL A   1      41.780  27.103  28.932  1.00  0.00     0.037 A 
ATOM     45  C   UNL A   1      39.525  31.118  34.196  1.00  0.00     0.037 A 
ATOM     46  C   UNL A   1      42.656  27.156  30.072  1.00  0.00     0.049 A 
ATOM     47  C   UNL A   1      40.818  30.353  34.281  1.00  0.00     0.074 A 
ATOM     48  C   UNL A   1      43.882  26.537  30.248  1.00  0.00     0.029 A 
ATOM     49  N   UNL A   1      42.402  27.878  31.228  1.00  0.00    -0.354 N 
ATOM     50  N   UNL A   1      41.385  29.584  33.383  1.00  0.00    -0.248 NA
ATOM     51  C   UNL A   1      41.574  30.464  35.537  1.00  0.00     0.031 C 
ATOM     52  C   UNL A   1      44.355  26.858  31.524  1.00  0.00     0.029 A 
ATOM     53  C   UNL A   1      43.445  27.713  32.126  1.00  0.00     0.049 A 
ATOM     54  H   UNL A   1      41.601  28.427  31.388  1.00  0.00     0.167 HD
ATOM     55  C   UNL A   1      42.575  29.149  33.950  1.00  0.00     0.074 A 
ATOM     56  C   UNL A   1      42.653  29.743  35.268  1.00  0.00     0.031 C 
ATOM     57  C   UNL A   1      43.520  28.332  33.423  1.00  0.00     0.037 A 
BRANCH  44  58
ATOM     58  C   UNL A   1      42.173  26.230  27.776  1.00  0.00     0.064 A 
ATOM     59  C   UNL A   1      43.034  26.686  26.767  1.00  0.00     0.173 A 
ATOM     60  C   UNL A   1      41.708  24.908  27.694  1.00  0.00     0.173 A 
ATOM     61  F   UNL A   1      43.497  27.945  26.793  1.00  0.00    -0.203 F 
ATOM     62  C   UNL A   1      43.391  25.862  25.702  1.00  0.00     0.198 A 
ATOM     63  C   UNL A   1      42.093  24.077  26.644  1.00  0.00     0.198 A 
ATOM     64  F   UNL A   1      40.889  24.419  28.636  1.00  0.00    -0.203 F 
ATOM     65  F   UNL A   1      44.174  26.337  24.723  1.00  0.00    -0.200 F 
ATOM     66  C   UNL A   1      42.925  24.557  25.645  1.00  0.00     0.200 A 
ATOM     67  F   UNL A   1      41.653  22.812  26.598  1.00  0.00    -0.200 F 
ATOM     68  F   UNL A   1      43.275  23.765  24.623  1.00  0.00    -0.200 F 
ENDBRANCH  44  58
BRANCH  45  69
ATOM     69  C   UNL A   1      39.053  31.936  35.343  1.00  0.00     0.064 A 
ATOM     70  C   UNL A   1      39.372  33.299  35.432  1.00  0.00     0.173 A 
ATOM     71  C   UNL A   1      38.281  31.378  36.372  1.00  0.00     0.173 A 
ATOM     72  F   UNL A   1      40.127  33.873  34.484  1.00  0.00    -0.203 F 
ATOM     73  C   UNL A   1      38.952  34.068  36.515  1.00  0.00     0.198 A 
ATOM     74  C   UNL A   1      37.840  32.154  37.443  1.00  0.00     0.198 A 
ATOM     75  F   UNL A   1      37.949  30.079  36.333  1.00  0.00    -0.203 F 
ATOM     76  F   UNL A   1      39.308  35.357  36.597  1.00  0.00    -0.200 F 
ATOM     77  C   UNL A   1      38.182  33.496  37.517  1.00  0.00     0.200 A 
ATOM     78  F   UNL A   1      37.088  31.601  38.403  1.00  0.00    -0.200 F 
ATOM     79  F   UNL A   1      37.777  34.237  38.558  1.00  0.00    -0.200 F 
ENDBRANCH  45  69
BRANCH  57  80
ATOM     80  C   UNL A   1      44.749  28.074  34.245  1.00  0.00     0.064 A 
ATOM     81  C   UNL A   1      44.841  26.974  35.109  1.00  0.00     0.173 A 
ATOM     82  C   UNL A   1      45.870  28.909  34.118  1.00  0.00     0.173 A 
ATOM     83  F   UNL A   1      43.792  26.155  35.273  1.00  0.00    -0.203 F 
ATOM     84  C   UNL A   1      46.007  26.729  35.831  1.00  0.00     0.198 A 
ATOM     85  C   UNL A   1      47.041  28.646  34.821  1.00  0.00     0.198 A 
ATOM     86  F   UNL A   1      45.833  29.971  33.299  1.00  0.00    -0.203 F 
ATOM     87  F   UNL A   1      46.062  25.693  36.679  1.00  0.00    -0.200 F 
ATOM     88  C   UNL A   1      47.107  27.560  35.680  1.00  0.00     0.200 A 
ATOM     89  F   UNL A   1      48.107  29.443  34.666  1.00  0.00    -0.200 F 
ATOM     90  F   UNL A   1      48.231  27.316  36.367  1.00  0.00    -0.200 F 
ENDBRANCH  57  80
ENDBRANCH  31  32
ENDBRANCH  23  26
ENDBRANCH  21  22
ENDBRANCH   1  21
TORSDOF 12
ENDMDL
MODEL 3
REMARK VINA RESULT:     -11.0      3.285      5.830
REMARK SMILES C[C@H]([NH2+][C@@H]1CCOC2(CCC2)C1)C(=O)NCCCNC(=O)c1ccc(-c2c3nc(c(-c4c(F)c(F)c(F)c(F)c4F)c4ccc([nH]4)c(-c4c(F)c(F)c(F)c(F)c4F)c4nc(c(-c5c(F)c(F)c(F)c(F)c5F)c5ccc2[nH]5)C=C4)C=C3)cc1
REMARK SMILES IDX 17 1 16 2 15 3 13 4 14 5 2 7 1 8 3 9 4 12 5 13 12 14 6 15
REMARK SMILES IDX 8 16 7 17 9 18 11 19 10 20 18 21 19 22 20 23 21 25 22 26
REMARK SMILES IDX 23 27 84 28 24 29 83 30 25 31 26 32 27 33 77 34 28 35 82 36
REMARK SMILES IDX 76 37 78 38 29 39 81 40 75 41 74 42 30 44 62 45 42 46 61 47
REMARK SMILES IDX 43 48 46 49 60 50 79 51 44 52 45 53 59 55 80 56 47 57 31 58
REMARK SMILES IDX 32 59 40 60 33 61 34 62 38 63 41 64 35 65 36 66 39 67 37 68
REMARK SMILES IDX 63 69 64 70 72 71 65 72 66 73 70 74 73 75 67 76 68 77 71 78
REMARK SMILES IDX 69 79 48 80 49 81 57 82 50 83 51 84 55 85 58 86 52 87 53 88
REMARK SMILES IDX 56 89 54 90
REMARK H PARENT 15 6 3 10 3 11 19 24 78 43 46 54
REMARK Flexibility Score: inf
ROOT
ATOM      1  C   UNL A   1      33.430  28.099  25.796  1.00  0.00     0.042 C 
ENDROOT
BRANCH   1   2
ATOM      2  C   UNL A   1      33.146  29.320  24.926  1.00  0.00     0.118 C 
BRANCH   2   3
ATOM      3  N   UNL A   1      33.638  29.123  23.574  1.00  0.00    -0.351 N 
ATOM      4  C   UNL A   1      33.235  28.325  22.551  1.00  0.00     0.277 C 
ATOM      5  O   UNL A   1      34.047  28.197  21.625  1.00  0.00    -0.268 OA
ATOM      6  H   UNL A   1      34.420  29.679  23.354  1.00  0.00     0.163 HD
BRANCH   4   7
ATOM      7  C   UNL A   1      31.893  27.554  22.493  1.00  0.00     0.269 C 
ATOM      8  C   UNL A   1      31.859  26.256  21.692  1.00  0.00     0.086 C 
BRANCH   7   9
ATOM      9  N   UNL A   1      30.734  28.466  22.330  1.00  0.00    -0.334 N 
ATOM     10  H   UNL A   1      30.092  28.036  21.662  1.00  0.00     0.347 HD
ATOM     11  H   UNL A   1      31.129  29.355  22.021  1.00  0.00     0.347 HD
BRANCH   9  12
ATOM     12  C   UNL A   1      29.975  28.777  23.542  1.00  0.00     0.188 C 
ATOM     13  C   UNL A   1      28.644  28.005  23.616  1.00  0.00     0.093 C 
ATOM     14  C   UNL A   1      29.747  30.292  23.660  1.00  0.00     0.100 C 
ATOM     15  C   UNL A   1      27.547  28.592  22.752  1.00  0.00     0.167 C 
ATOM     16  C   UNL A   1      28.609  30.770  22.763  1.00  0.00     0.074 C 
ATOM     17  O   UNL A   1      27.421  29.981  23.030  1.00  0.00    -0.375 OA
ATOM     18  C   UNL A   1      28.370  32.309  22.856  1.00  0.00     0.036 C 
ATOM     19  C   UNL A   1      28.931  31.021  21.255  1.00  0.00     0.036 C 
ATOM     20  C   UNL A   1      28.052  32.282  21.349  1.00  0.00     0.006 C 
ENDBRANCH   9  12
ENDBRANCH   7   9
ENDBRANCH   4   7
ENDBRANCH   2   3
ENDBRANCH   1   2
BRANCH   1  21
ATOM     21  C   UNL A   1      33.698  28.424  27.259  1.00  0.00     0.118 C 
BRANCH  21  22
ATOM     22  N   UNL A   1      33.690  29.855  27.503  1.00  0.00    -0.352 N 
ATOM     23  C   UNL A   1      34.626  30.652  28.119  1.00  0.00     0.251 C 
ATOM     24  H   UNL A   1      32.891  30.329  27.177  1.00  0.00     0.163 HD
ATOM     25  O   UNL A   1      34.317  31.795  28.445  1.00  0.00    -0.269 OA
BRANCH  23  26
ATOM     26  C   UNL A   1      35.997  30.158  28.403  1.00  0.00     0.039 A 
ATOM     27  C   UNL A   1      36.278  29.650  29.678  1.00  0.00     0.014 A 
ATOM     28  C   UNL A   1      37.026  30.263  27.466  1.00  0.00     0.014 A 
ATOM     29  C   UNL A   1      37.571  29.217  29.995  1.00  0.00     0.010 A 
ATOM     30  C   UNL A   1      38.293  29.757  27.754  1.00  0.00     0.010 A 
ATOM     31  C   UNL A   1      38.587  29.249  29.029  1.00  0.00    -0.014 A 
BRANCH  31  32
ATOM     32  C   UNL A   1      39.980  28.823  29.336  1.00  0.00     0.031 A 
ATOM     33  C   UNL A   1      40.893  29.752  30.092  1.00  0.00     0.074 A 
ATOM     34  C   UNL A   1      40.451  27.646  28.882  1.00  0.00     0.049 A 
ATOM     35  N   UNL A   1      42.177  29.649  30.329  1.00  0.00    -0.248 NA
ATOM     36  C   UNL A   1      40.283  30.979  30.630  1.00  0.00     0.031 C 
ATOM     37  C   UNL A   1      39.682  26.662  28.121  1.00  0.00     0.029 A 
ATOM     38  N   UNL A   1      41.701  27.087  28.979  1.00  0.00    -0.354 N 
ATOM     39  C   UNL A   1      42.531  30.810  31.004  1.00  0.00     0.074 A 
ATOM     40  C   UNL A   1      41.338  31.620  31.108  1.00  0.00     0.031 C 
ATOM     41  C   UNL A   1      40.473  25.618  27.828  1.00  0.00     0.029 A 
ATOM     42  C   UNL A   1      41.815  25.875  28.342  1.00  0.00     0.049 A 
ATOM     43  H   UNL A   1      42.447  27.515  29.460  1.00  0.00     0.167 HD
ATOM     44  C   UNL A   1      43.739  31.162  31.509  1.00  0.00     0.037 A 
ATOM     45  C   UNL A   1      42.884  25.072  28.177  1.00  0.00     0.037 A 
ATOM     46  C   UNL A   1      44.914  30.334  31.450  1.00  0.00     0.049 A 
ATOM     47  C   UNL A   1      44.212  25.479  28.756  1.00  0.00     0.074 A 
ATOM     48  C   UNL A   1      46.169  30.578  31.980  1.00  0.00     0.029 A 
ATOM     49  N   UNL A   1      44.975  29.095  30.830  1.00  0.00    -0.354 N 
ATOM     50  N   UNL A   1      44.528  26.563  29.422  1.00  0.00    -0.248 NA
ATOM     51  C   UNL A   1      45.334  24.549  28.562  1.00  0.00     0.031 C 
ATOM     52  C   UNL A   1      47.000  29.501  31.651  1.00  0.00     0.029 A 
ATOM     53  C   UNL A   1      46.249  28.566  30.956  1.00  0.00     0.049 A 
ATOM     54  H   UNL A   1      44.224  28.656  30.368  1.00  0.00     0.167 HD
ATOM     55  C   UNL A   1      45.869  26.431  29.755  1.00  0.00     0.074 A 
ATOM     56  C   UNL A   1      46.308  25.158  29.224  1.00  0.00     0.031 C 
ATOM     57  C   UNL A   1      46.664  27.286  30.443  1.00  0.00     0.037 A 
BRANCH  44  58
ATOM     58  C   UNL A   1      43.851  32.504  32.172  1.00  0.00     0.064 A 
ATOM     59  C   UNL A   1      43.622  32.669  33.547  1.00  0.00     0.173 A 
ATOM     60  C   UNL A   1      44.224  33.635  31.429  1.00  0.00     0.173 A 
ATOM     61  F   UNL A   1      43.252  31.622  34.299  1.00  0.00    -0.203 F 
ATOM     62  C   UNL A   1      43.732  33.920  34.147  1.00  0.00     0.198 A 
ATOM     63  C   UNL A   1      44.364  34.879  32.040  1.00  0.00     0.198 A 
ATOM     64  F   UNL A   1      44.462  33.532  30.114  1.00  0.00    -0.203 F 
ATOM     65  F   UNL A   1      43.459  34.062  35.452  1.00  0.00    -0.200 F 
ATOM     66  C   UNL A   1      44.109  35.022  33.395  1.00  0.00     0.200 A 
ATOM     67  F   UNL A   1      44.741  35.941  31.313  1.00  0.00    -0.200 F 
ATOM     68  F   UNL A   1      44.221  36.225  33.976  1.00  0.00    -0.200 F 
ENDBRANCH  44  58
BRANCH  45  69
ATOM     69  C   UNL A   1      42.740  23.788  27.444  1.00  0.00     0.064 A 
ATOM     70  C   UNL A   1      43.082  23.694  26.087  1.00  0.00     0.173 A 
ATOM     71  C   UNL A   1      42.257  22.634  28.076  1.00  0.00     0.173 A 
ATOM     72  F   UNL A   1      43.527  24.777  25.433  1.00  0.00    -0.203 F 
ATOM     73  C   UNL A   1      42.929  22.499  25.386  1.00  0.00     0.198 A 
ATOM     74  C   UNL A   1      42.128  21.433  27.381  1.00  0.00     0.198 A 
ATOM     75  F   UNL A   1      41.917  22.671  29.373  1.00  0.00    -0.203 F 
ATOM     76  F   UNL A   1      43.222  22.450  24.080  1.00  0.00    -0.200 F 
ATOM     77  C   UNL A   1      42.458  21.368  26.035  1.00  0.00     0.200 A 
ATOM     78  F   UNL A   1      41.683  20.339  28.014  1.00  0.00    -0.200 F 
ATOM     79  F   UNL A   1      42.313  20.219  25.362  1.00  0.00    -0.200 F 
ENDBRANCH  45  69
BRANCH  57  80
ATOM     80  C   UNL A   1      48.075  26.856  30.713  1.00  0.00     0.064 A 
ATOM     81  C   UNL A   1      48.400  26.029  31.798  1.00  0.00     0.173 A 
ATOM     82  C   UNL A   1      49.106  27.229  29.837  1.00  0.00     0.173 A 
ATOM     83  F   UNL A   1      47.452  25.656  32.670  1.00  0.00    -0.203 F 
ATOM     84  C   UNL A   1      49.711  25.607  32.006  1.00  0.00     0.198 A 
ATOM     85  C   UNL A   1      50.410  26.784  30.033  1.00  0.00     0.198 A 
ATOM     86  F   UNL A   1      48.844  28.014  28.780  1.00  0.00    -0.203 F 
ATOM     87  F   UNL A   1      50.008  24.848  33.070  1.00  0.00    -0.200 F 
ATOM     88  C   UNL A   1      50.712  25.978  31.119  1.00  0.00     0.200 A 
ATOM     89  F   UNL A   1      51.373  27.133  29.170  1.00  0.00    -0.200 F 
ATOM     90  F   UNL A   1      51.970  25.561  31.316  1.00  0.00    -0.200 F 
ENDBRANCH  57  80
ENDBRANCH  31  32
ENDBRANCH  23  26
ENDBRANCH  21  22
ENDBRANCH   1  21
TORSDOF 12
ENDMDL
