MODEL 1
REMARK VINA RESULT:     -11.2      0.000      0.000
REMARK SMILES O=C(NCCCNC(=O)[C@]1([NH2+]C2CC2)CCC[C@H](SC[C@H](O)CO)C1)c1ccc(-c2c3nc(c(-c4c(F)c(F)c(F)c(F)c4F)c4ccc([nH]4)c(-c4c(F)c(F)c(F)c(F)c4F)c4nc(c(-c5c(F)c(F)c(F)c(F)c5F)c5ccc2[nH]5)C=C4)C=C3)cc1
REMARK SMILES IDX 7 1 8 2 9 3 6 5 5 6 4 7 3 8 1 9 2 10 26 12 27 13 88 14 28 15
REMARK SMILES IDX 87 16 29 17 30 18 31 19 81 20 32 21 86 22 80 23 82 24 33 25
REMARK SMILES IDX 85 26 79 27 78 28 34 30 66 31 46 32 65 33 47 34 50 35 64 36
REMARK SMILES IDX 83 37 48 38 49 39 63 41 84 42 51 43 35 44 36 45 44 46 37 47
REMARK SMILES IDX 38 48 42 49 45 50 39 51 40 52 43 53 41 54 67 55 68 56 76 57
REMARK SMILES IDX 69 58 70 59 74 60 77 61 71 62 72 63 75 64 73 65 52 66 53 67
REMARK SMILES IDX 61 68 54 69 55 70 59 71 62 72 56 73 57 74 60 75 58 76 10 77
REMARK SMILES IDX 15 78 25 79 16 80 18 81 17 82 11 83 12 86 13 87 14 88 19 89
REMARK SMILES IDX 20 90 21 91 23 92 24 93 22 95
REMARK H PARENT 7 4 3 11 82 29 50 40 11 84 11 85 24 94 22 96
REMARK Flexibility Score: inf
ROOT
ATOM      1  N   UNL A   1      32.745  26.755  26.036  1.00  0.00    -0.351 N 
ATOM      2  C   UNL A   1      31.842  25.956  25.418  1.00  0.00     0.281 C 
ATOM      3  O   UNL A   1      31.163  25.283  26.211  1.00  0.00    -0.268 OA
ATOM      4  H   UNL A   1      32.612  26.792  27.011  1.00  0.00     0.163 HD
ENDROOT
BRANCH   1   5
ATOM      5  C   UNL A   1      33.859  27.567  25.594  1.00  0.00     0.118 C 
BRANCH   5   6
ATOM      6  C   UNL A   1      33.467  29.025  25.452  1.00  0.00     0.042 C 
BRANCH   6   7
ATOM      7  C   UNL A   1      32.622  29.508  26.624  1.00  0.00     0.118 C 
BRANCH   7   8
ATOM      8  N   UNL A   1      32.533  30.965  26.687  1.00  0.00    -0.352 N 
ATOM      9  O   UNL A   1      32.902  33.044  27.468  1.00  0.00    -0.269 OA
ATOM     10  C   UNL A   1      33.299  31.891  27.357  1.00  0.00     0.251 C 
ATOM     11  H   UNL A   1      31.798  31.351  26.160  1.00  0.00     0.163 HD
BRANCH  10  12
ATOM     12  C   UNL A   1      34.586  31.494  27.968  1.00  0.00     0.039 A 
ATOM     13  C   UNL A   1      34.774  30.199  28.441  1.00  0.00     0.014 A 
ATOM     14  C   UNL A   1      35.633  32.418  28.047  1.00  0.00     0.014 A 
ATOM     15  C   UNL A   1      35.899  29.893  29.189  1.00  0.00     0.010 A 
ATOM     16  C   UNL A   1      36.833  32.060  28.676  1.00  0.00     0.010 A 
ATOM     17  C   UNL A   1      36.957  30.809  29.297  1.00  0.00    -0.014 A 
BRANCH  17  18
ATOM     18  C   UNL A   1      38.182  30.390  30.028  1.00  0.00     0.031 A 
ATOM     19  C   UNL A   1      38.407  30.775  31.463  1.00  0.00     0.074 A 
ATOM     20  C   UNL A   1      39.058  29.582  29.397  1.00  0.00     0.049 A 
ATOM     21  N   UNL A   1      39.383  30.429  32.265  1.00  0.00    -0.248 NA
ATOM     22  C   UNL A   1      37.419  31.673  32.081  1.00  0.00     0.031 C 
ATOM     23  C   UNL A   1      38.952  29.153  27.999  1.00  0.00     0.029 A 
ATOM     24  N   UNL A   1      40.178  28.936  29.854  1.00  0.00    -0.354 N 
ATOM     25  C   UNL A   1      39.151  31.094  33.462  1.00  0.00     0.074 A 
ATOM     26  C   UNL A   1      37.948  31.878  33.279  1.00  0.00     0.031 C 
ATOM     27  C   UNL A   1      39.904  28.247  27.742  1.00  0.00     0.029 A 
ATOM     28  C   UNL A   1      40.739  28.093  28.925  1.00  0.00     0.049 A 
ATOM     29  H   UNL A   1      40.546  29.065  30.758  1.00  0.00     0.167 HD
ATOM     30  C   UNL A   1      39.874  31.049  34.606  1.00  0.00     0.037 A 
ATOM     31  C   UNL A   1      41.811  27.285  29.012  1.00  0.00     0.037 A 
ATOM     32  C   UNL A   1      41.047  30.234  34.792  1.00  0.00     0.049 A 
ATOM     33  C   UNL A   1      42.582  27.245  30.299  1.00  0.00     0.074 A 
ATOM     34  C   UNL A   1      41.827  30.088  35.926  1.00  0.00     0.029 A 
ATOM     35  N   UNL A   1      41.608  29.422  33.815  1.00  0.00    -0.354 N 
ATOM     36  N   UNL A   1      42.338  27.864  31.427  1.00  0.00    -0.248 NA
ATOM     37  C   UNL A   1      43.782  26.400  30.320  1.00  0.00     0.031 C 
ATOM     38  C   UNL A   1      42.883  29.220  35.625  1.00  0.00     0.029 A 
ATOM     39  C   UNL A   1      42.734  28.788  34.317  1.00  0.00     0.049 A 
ATOM     40  H   UNL A   1      41.258  29.314  32.901  1.00  0.00     0.167 HD
ATOM     41  C   UNL A   1      43.346  27.478  32.298  1.00  0.00     0.074 A 
ATOM     42  C   UNL A   1      44.190  26.549  31.573  1.00  0.00     0.031 C 
ATOM     43  C   UNL A   1      43.558  27.864  33.580  1.00  0.00     0.037 A 
BRANCH  30  44
ATOM     44  C   UNL A   1      39.436  31.927  35.744  1.00  0.00     0.064 A 
ATOM     45  C   UNL A   1      38.432  31.534  36.641  1.00  0.00     0.173 A 
ATOM     46  C   UNL A   1      40.061  33.164  35.961  1.00  0.00     0.173 A 
ATOM     47  F   UNL A   1      37.793  30.366  36.471  1.00  0.00    -0.203 F 
ATOM     48  C   UNL A   1      38.055  32.358  37.699  1.00  0.00     0.198 A 
ATOM     49  C   UNL A   1      39.700  33.973  37.035  1.00  0.00     0.198 A 
ATOM     50  F   UNL A   1      41.031  33.586  35.136  1.00  0.00    -0.203 F 
ATOM     51  F   UNL A   1      37.063  31.981  38.518  1.00  0.00    -0.200 F 
ATOM     52  C   UNL A   1      38.692  33.572  37.900  1.00  0.00     0.200 A 
ATOM     53  F   UNL A   1      40.325  35.142  37.234  1.00  0.00    -0.200 F 
ATOM     54  F   UNL A   1      38.331  34.361  38.922  1.00  0.00    -0.200 F 
ENDBRANCH  30  44
BRANCH  31  55
ATOM     55  C   UNL A   1      42.208  26.453  27.847  1.00  0.00     0.064 A 
ATOM     56  C   UNL A   1      43.145  26.918  26.915  1.00  0.00     0.173 A 
ATOM     57  C   UNL A   1      41.675  25.170  27.654  1.00  0.00     0.173 A 
ATOM     58  F   UNL A   1      43.669  28.145  27.047  1.00  0.00    -0.203 F 
ATOM     59  C   UNL A   1      43.525  26.135  25.827  1.00  0.00     0.198 A 
ATOM     60  C   UNL A   1      42.079  24.376  26.583  1.00  0.00     0.198 A 
ATOM     61  F   UNL A   1      40.778  24.677  28.521  1.00  0.00    -0.203 F 
ATOM     62  F   UNL A   1      44.395  26.618  24.929  1.00  0.00    -0.200 F 
ATOM     63  C   UNL A   1      42.999  24.862  25.667  1.00  0.00     0.200 A 
ATOM     64  F   UNL A   1      41.581  23.140  26.444  1.00  0.00    -0.200 F 
ATOM     65  F   UNL A   1      43.374  24.105  24.627  1.00  0.00    -0.200 F 
ENDBRANCH  31  55
BRANCH  43  66
ATOM     66  C   UNL A   1      44.734  27.254  34.283  1.00  0.00     0.064 A 
ATOM     67  C   UNL A   1      45.993  27.870  34.278  1.00  0.00     0.173 A 
ATOM     68  C   UNL A   1      44.593  26.043  34.978  1.00  0.00     0.173 A 
ATOM     69  F   UNL A   1      46.180  29.019  33.611  1.00  0.00    -0.203 F 
ATOM     70  C   UNL A   1      47.079  27.280  34.919  1.00  0.00     0.198 A 
ATOM     71  C   UNL A   1      45.674  25.472  35.641  1.00  0.00     0.198 A 
ATOM     72  F   UNL A   1      43.407  25.418  35.015  1.00  0.00    -0.203 F 
ATOM     73  F   UNL A   1      48.286  27.858  34.857  1.00  0.00    -0.200 F 
ATOM     74  C   UNL A   1      46.918  26.084  35.604  1.00  0.00     0.200 A 
ATOM     75  F   UNL A   1      45.515  24.321  36.311  1.00  0.00    -0.200 F 
ATOM     76  F   UNL A   1      47.964  25.518  36.219  1.00  0.00    -0.200 F 
ENDBRANCH  43  66
ENDBRANCH  17  18
ENDBRANCH  10  12
ENDBRANCH   7   8
ENDBRANCH   6   7
ENDBRANCH   5   6
ENDBRANCH   1   5
BRANCH   2  77
ATOM     77  C   UNL A   1      31.700  25.770  23.864  1.00  0.00     0.176 C 
ATOM     78  C   UNL A   1      30.685  24.743  23.310  1.00  0.00     0.079 C 
ATOM     79  C   UNL A   1      33.126  25.372  23.327  1.00  0.00     0.093 C 
ATOM     80  C   UNL A   1      31.065  23.283  23.525  1.00  0.00     0.008 C 
ATOM     81  C   UNL A   1      33.524  23.885  23.478  1.00  0.00     0.053 C 
ATOM     82  C   UNL A   1      32.427  22.983  22.908  1.00  0.00     0.015 C 
BRANCH  77  83
ATOM     83  N   UNL A   1      31.407  27.124  23.276  1.00  0.00    -0.331 N 
ATOM     84  H   UNL A   1      31.242  26.997  22.277  1.00  0.00     0.347 HD
ATOM     85  H   UNL A   1      32.220  27.697  23.505  1.00  0.00     0.347 HD
BRANCH  83  86
ATOM     86  C   UNL A   1      30.258  27.853  23.826  1.00  0.00     0.183 C 
ATOM     87  C   UNL A   1      30.234  29.356  23.723  1.00  0.00     0.071 C 
ATOM     88  C   UNL A   1      29.297  28.536  22.892  1.00  0.00     0.071 C 
ENDBRANCH  83  86
ENDBRANCH  77  83
BRANCH  81  89
ATOM     89  S   UNL A   1      33.855  23.288  25.186  1.00  0.00    -0.156 SA
BRANCH  89  90
ATOM     90  C   UNL A   1      34.061  21.496  24.891  1.00  0.00     0.104 C 
BRANCH  90  91
ATOM     91  C   UNL A   1      33.131  20.679  25.803  1.00  0.00     0.149 C 
BRANCH  91  92
ATOM     92  C   UNL A   1      32.926  19.224  25.364  1.00  0.00     0.188 C 
BRANCH  92  93
ATOM     93  O   UNL A   1      32.553  18.439  26.502  1.00  0.00    -0.394 OA
ATOM     94  H   UNL A   1      33.247  18.498  27.177  1.00  0.00     0.210 HD
ENDBRANCH  92  93
ENDBRANCH  91  92
BRANCH  91  95
ATOM     95  O   UNL A   1      33.630  20.674  27.156  1.00  0.00    -0.390 OA
ATOM     96  H   UNL A   1      34.547  20.988  27.163  1.00  0.00     0.211 HD
ENDBRANCH  91  95
ENDBRANCH  90  91
ENDBRANCH  89  90
ENDBRANCH  81  89
ENDBRANCH   2  77
TORSDOF 18
ENDMDL
MODEL 2
REMARK VINA RESULT:     -11.1      1.529      3.535
REMARK SMILES O=C(NCCCNC(=O)[C@]1([NH2+]C2CC2)CCC[C@H](SC[C@H](O)CO)C1)c1ccc(-c2c3nc(c(-c4c(F)c(F)c(F)c(F)c4F)c4ccc([nH]4)c(-c4c(F)c(F)c(F)c(F)c4F)c4nc(c(-c5c(F)c(F)c(F)c(F)c5F)c5ccc2[nH]5)C=C4)C=C3)cc1
REMARK SMILES IDX 7 1 8 2 9 3 6 5 5 6 4 7 3 8 1 9 2 10 26 12 27 13 88 14 28 15
REMARK SMILES IDX 87 16 29 17 30 18 31 19 81 20 32 21 86 22 80 23 82 24 33 25
REMARK SMILES IDX 85 26 79 27 78 28 34 30 66 31 46 32 65 33 47 34 50 35 64 36
REMARK SMILES IDX 83 37 48 38 49 39 63 41 84 42 51 43 35 44 36 45 44 46 37 47
REMARK SMILES IDX 38 48 42 49 45 50 39 51 40 52 43 53 41 54 67 55 68 56 76 57
REMARK SMILES IDX 69 58 70 59 74 60 77 61 71 62 72 63 75 64 73 65 52 66 53 67
REMARK SMILES IDX 61 68 54 69 55 70 59 71 62 72 56 73 57 74 60 75 58 76 10 77
REMARK SMILES IDX 15 78 25 79 16 80 18 81 17 82 11 83 12 86 13 87 14 88 19 89
REMARK SMILES IDX 20 90 21 91 23 92 24 93 22 95
REMARK H PARENT 7 4 3 11 82 29 50 40 11 84 11 85 24 94 22 96
REMARK Flexibility Score: inf
ROOT
ATOM      1  N   UNL A   1      33.742  26.367  24.698  1.00  0.00    -0.351 N 
ATOM      2  C   UNL A   1      34.059  25.206  24.077  1.00  0.00     0.281 C 
ATOM      3  O   UNL A   1      34.077  25.304  22.839  1.00  0.00    -0.268 OA
ATOM      4  H   UNL A   1      33.732  27.135  24.082  1.00  0.00     0.163 HD
ENDROOT
BRANCH   1   5
ATOM      5  C   UNL A   1      33.417  26.740  26.059  1.00  0.00     0.118 C 
BRANCH   5   6
ATOM      6  C   UNL A   1      32.538  27.975  26.106  1.00  0.00     0.042 C 
BRANCH   6   7
ATOM      7  C   UNL A   1      33.193  29.170  25.424  1.00  0.00     0.118 C 
BRANCH   7   8
ATOM      8  N   UNL A   1      32.740  30.446  25.973  1.00  0.00    -0.352 N 
ATOM      9  O   UNL A   1      32.534  32.116  27.468  1.00  0.00    -0.269 OA
ATOM     10  C   UNL A   1      33.212  31.199  27.024  1.00  0.00     0.251 C 
ATOM     11  H   UNL A   1      31.963  30.834  25.511  1.00  0.00     0.163 HD
BRANCH  10  12
ATOM     12  C   UNL A   1      34.521  30.886  27.638  1.00  0.00     0.039 A 
ATOM     13  C   UNL A   1      34.773  29.620  28.157  1.00  0.00     0.014 A 
ATOM     14  C   UNL A   1      35.523  31.861  27.672  1.00  0.00     0.014 A 
ATOM     15  C   UNL A   1      35.917  29.397  28.905  1.00  0.00     0.010 A 
ATOM     16  C   UNL A   1      36.743  31.584  28.303  1.00  0.00     0.010 A 
ATOM     17  C   UNL A   1      36.931  30.366  28.969  1.00  0.00    -0.014 A 
BRANCH  17  18
ATOM     18  C   UNL A   1      38.181  30.033  29.704  1.00  0.00     0.031 A 
ATOM     19  C   UNL A   1      38.418  30.525  31.105  1.00  0.00     0.074 A 
ATOM     20  C   UNL A   1      39.069  29.207  29.115  1.00  0.00     0.049 A 
ATOM     21  N   UNL A   1      39.418  30.263  31.910  1.00  0.00    -0.248 NA
ATOM     22  C   UNL A   1      37.416  31.436  31.677  1.00  0.00     0.031 C 
ATOM     23  C   UNL A   1      38.951  28.678  27.753  1.00  0.00     0.029 A 
ATOM     24  N   UNL A   1      40.214  28.626  29.595  1.00  0.00    -0.354 N 
ATOM     25  C   UNL A   1      39.186  31.004  33.061  1.00  0.00     0.074 A 
ATOM     26  C   UNL A   1      37.958  31.739  32.848  1.00  0.00     0.031 C 
ATOM     27  C   UNL A   1      39.924  27.783  27.541  1.00  0.00     0.029 A 
ATOM     28  C   UNL A   1      40.784  27.735  28.717  1.00  0.00     0.049 A 
ATOM     29  H   UNL A   1      40.593  28.829  30.481  1.00  0.00     0.167 HD
ATOM     30  C   UNL A   1      39.931  31.060  34.192  1.00  0.00     0.037 A 
ATOM     31  C   UNL A   1      41.880  26.966  28.840  1.00  0.00     0.037 A 
ATOM     32  C   UNL A   1      41.129  30.293  34.412  1.00  0.00     0.049 A 
ATOM     33  C   UNL A   1      42.673  27.038  30.111  1.00  0.00     0.074 A 
ATOM     34  C   UNL A   1      41.932  30.249  35.539  1.00  0.00     0.029 A 
ATOM     35  N   UNL A   1      41.697  29.430  33.484  1.00  0.00    -0.354 N 
ATOM     36  N   UNL A   1      42.431  27.728  31.198  1.00  0.00    -0.248 NA
ATOM     37  C   UNL A   1      43.898  26.230  30.169  1.00  0.00     0.031 C 
ATOM     38  C   UNL A   1      43.007  29.391  35.279  1.00  0.00     0.029 A 
ATOM     39  C   UNL A   1      42.849  28.864  34.008  1.00  0.00     0.049 A 
ATOM     40  H   UNL A   1      41.335  29.247  32.587  1.00  0.00     0.167 HD
ATOM     41  C   UNL A   1      43.464  27.433  32.074  1.00  0.00     0.074 A 
ATOM     42  C   UNL A   1      44.322  26.478  31.400  1.00  0.00     0.031 C 
ATOM     43  C   UNL A   1      43.687  27.914  33.321  1.00  0.00     0.037 A 
BRANCH  30  44
ATOM     44  C   UNL A   1      39.486  32.003  35.274  1.00  0.00     0.064 A 
ATOM     45  C   UNL A   1      39.905  33.340  35.312  1.00  0.00     0.173 A 
ATOM     46  C   UNL A   1      38.594  31.567  36.266  1.00  0.00     0.173 A 
ATOM     47  F   UNL A   1      40.769  33.805  34.396  1.00  0.00    -0.203 F 
ATOM     48  C   UNL A   1      39.466  34.200  36.317  1.00  0.00     0.198 A 
ATOM     49  C   UNL A   1      38.135  32.436  37.253  1.00  0.00     0.198 A 
ATOM     50  F   UNL A   1      38.157  30.299  36.274  1.00  0.00    -0.203 F 
ATOM     51  F   UNL A   1      39.914  35.463  36.358  1.00  0.00    -0.200 F 
ATOM     52  C   UNL A   1      38.577  33.751  37.281  1.00  0.00     0.200 A 
ATOM     53  F   UNL A   1      37.268  32.003  38.177  1.00  0.00    -0.200 F 
ATOM     54  F   UNL A   1      38.151  34.582  38.243  1.00  0.00    -0.200 F 
ENDBRANCH  30  44
BRANCH  31  55
ATOM     55  C   UNL A   1      42.280  26.066  27.729  1.00  0.00     0.064 A 
ATOM     56  C   UNL A   1      41.670  24.815  27.558  1.00  0.00     0.173 A 
ATOM     57  C   UNL A   1      43.264  26.444  26.803  1.00  0.00     0.173 A 
ATOM     58  F   UNL A   1      40.737  24.402  28.428  1.00  0.00    -0.203 F 
ATOM     59  C   UNL A   1      42.037  23.974  26.511  1.00  0.00     0.198 A 
ATOM     60  C   UNL A   1      43.609  25.614  25.738  1.00  0.00     0.198 A 
ATOM     61  F   UNL A   1      43.874  27.633  26.920  1.00  0.00    -0.203 F 
ATOM     62  F   UNL A   1      41.466  22.767  26.391  1.00  0.00    -0.200 F 
ATOM     63  C   UNL A   1      42.999  24.377  25.596  1.00  0.00     0.200 A 
ATOM     64  F   UNL A   1      44.525  26.018  24.848  1.00  0.00    -0.200 F 
ATOM     65  F   UNL A   1      43.344  23.572  24.583  1.00  0.00    -0.200 F 
ENDBRANCH  31  55
BRANCH  43  66
ATOM     66  C   UNL A   1      44.891  27.387  34.043  1.00  0.00     0.064 A 
ATOM     67  C   UNL A   1      44.829  26.228  34.828  1.00  0.00     0.173 A 
ATOM     68  C   UNL A   1      46.125  28.048  33.936  1.00  0.00     0.173 A 
ATOM     69  F   UNL A   1      43.667  25.573  34.974  1.00  0.00    -0.203 F 
ATOM     70  C   UNL A   1      45.953  25.764  35.506  1.00  0.00     0.198 A 
ATOM     71  C   UNL A   1      47.252  27.564  34.594  1.00  0.00     0.198 A 
ATOM     72  F   UNL A   1      46.236  29.159  33.193  1.00  0.00    -0.203 F 
ATOM     73  F   UNL A   1      45.858  24.684  36.295  1.00  0.00    -0.200 F 
ATOM     74  C   UNL A   1      47.164  26.429  35.385  1.00  0.00     0.200 A 
ATOM     75  F   UNL A   1      48.424  28.203  34.468  1.00  0.00    -0.200 F 
ATOM     76  F   UNL A   1      48.243  25.982  36.039  1.00  0.00    -0.200 F 
ENDBRANCH  43  66
ENDBRANCH  17  18
ENDBRANCH  10  12
ENDBRANCH   7   8
ENDBRANCH   6   7
ENDBRANCH   5   6
ENDBRANCH   1   5
BRANCH   2  77
ATOM     77  C   UNL A   1      34.277  23.821  24.786  1.00  0.00     0.176 C 
ATOM     78  C   UNL A   1      34.510  22.555  23.929  1.00  0.00     0.079 C 
ATOM     79  C   UNL A   1      33.005  23.568  25.678  1.00  0.00     0.093 C 
ATOM     80  C   UNL A   1      33.286  22.058  23.169  1.00  0.00     0.008 C 
ATOM     81  C   UNL A   1      31.758  23.009  24.950  1.00  0.00     0.053 C 
ATOM     82  C   UNL A   1      32.134  21.775  24.128  1.00  0.00     0.015 C 
BRANCH  77  83
ATOM     83  N   UNL A   1      35.422  23.986  25.749  1.00  0.00    -0.331 N 
ATOM     84  H   UNL A   1      35.281  23.324  26.512  1.00  0.00     0.347 HD
ATOM     85  H   UNL A   1      35.401  24.968  26.025  1.00  0.00     0.347 HD
BRANCH  83  86
ATOM     86  C   UNL A   1      36.773  23.767  25.217  1.00  0.00     0.183 C 
ATOM     87  C   UNL A   1      37.956  24.056  26.103  1.00  0.00     0.071 C 
ATOM     88  C   UNL A   1      37.610  22.641  25.760  1.00  0.00     0.071 C 
ENDBRANCH  83  86
ENDBRANCH  77  83
BRANCH  81  89
ATOM     89  S   UNL A   1      30.889  24.155  23.803  1.00  0.00    -0.156 SA
BRANCH  89  90
ATOM     90  C   UNL A   1      30.205  25.371  24.984  1.00  0.00     0.104 C 
BRANCH  90  91
ATOM     91  C   UNL A   1      29.426  26.473  24.246  1.00  0.00     0.149 C 
BRANCH  91  92
ATOM     92  C   UNL A   1      30.176  27.099  23.064  1.00  0.00     0.188 C 
BRANCH  92  93
ATOM     93  O   UNL A   1      29.505  28.300  22.666  1.00  0.00    -0.394 OA
ATOM     94  H   UNL A   1      28.833  28.529  23.327  1.00  0.00     0.210 HD
ENDBRANCH  92  93
ENDBRANCH  91  92
BRANCH  91  95
ATOM     95  O   UNL A   1      28.168  25.962  23.761  1.00  0.00    -0.390 OA
ATOM     96  H   UNL A   1      27.723  26.644  23.235  1.00  0.00     0.211 HD
ENDBRANCH  91  95
ENDBRANCH  90  91
ENDBRANCH  89  90
ENDBRANCH  81  89
ENDBRANCH   2  77
TORSDOF 18
ENDMDL
MODEL 3
REMARK VINA RESULT:     -11.1      1.540      3.538
REMARK SMILES O=C(NCCCNC(=O)[C@]1([NH2+]C2CC2)CCC[C@H](SC[C@H](O)CO)C1)c1ccc(-c2c3nc(c(-c4c(F)c(F)c(F)c(F)c4F)c4ccc([nH]4)c(-c4c(F)c(F)c(F)c(F)c4F)c4nc(c(-c5c(F)c(F)c(F)c(F)c5F)c5ccc2[nH]5)C=C4)C=C3)cc1
REMARK SMILES IDX 7 1 8 2 9 3 6 5 5 6 4 7 3 8 1 9 2 10 26 12 27 13 88 14 28 15
REMARK SMILES IDX 87 16 29 17 30 18 31 19 81 20 32 21 86 22 80 23 82 24 33 25
REMARK SMILES IDX 85 26 79 27 78 28 34 30 66 31 46 32 65 33 47 34 50 35 64 36
REMARK SMILES IDX 83 37 48 38 49 39 63 41 84 42 51 43 35 44 36 45 44 46 37 47
REMARK SMILES IDX 38 48 42 49 45 50 39 51 40 52 43 53 41 54 67 55 68 56 76 57
REMARK SMILES IDX 69 58 70 59 74 60 77 61 71 62 72 63 75 64 73 65 52 66 53 67
REMARK SMILES IDX 61 68 54 69 55 70 59 71 62 72 56 73 57 74 60 75 58 76 10 77
REMARK SMILES IDX 15 78 25 79 16 80 18 81 17 82 11 83 12 86 13 87 14 88 19 89
REMARK SMILES IDX 20 90 21 91 23 92 24 93 22 95
REMARK H PARENT 7 4 3 11 82 29 50 40 11 84 11 85 24 94 22 96
REMARK Flexibility Score: inf
ROOT
ATOM      1  N   UNL A   1      31.045  26.762  26.707  1.00  0.00    -0.351 N 
ATOM      2  C   UNL A   1      30.981  25.818  25.739  1.00  0.00     0.281 C 
ATOM      3  O   UNL A   1      29.889  25.228  25.703  1.00  0.00    -0.268 OA
ATOM      4  H   UNL A   1      30.168  26.939  27.121  1.00  0.00     0.163 HD
ENDROOT
BRANCH   1   5
ATOM      5  C   UNL A   1      32.101  27.574  27.273  1.00  0.00     0.118 C 
BRANCH   5   6
ATOM      6  C   UNL A   1      31.767  29.052  27.212  1.00  0.00     0.042 C 
BRANCH   6   7
ATOM      7  C   UNL A   1      32.796  29.839  26.412  1.00  0.00     0.118 C 
BRANCH   7   8
ATOM      8  N   UNL A   1      32.665  31.282  26.597  1.00  0.00    -0.352 N 
ATOM      9  O   UNL A   1      32.946  33.293  27.570  1.00  0.00    -0.269 OA
ATOM     10  C   UNL A   1      33.378  32.164  27.377  1.00  0.00     0.251 C 
ATOM     11  H   UNL A   1      31.941  31.695  26.075  1.00  0.00     0.163 HD
BRANCH  10  12
ATOM     12  C   UNL A   1      34.650  31.746  28.004  1.00  0.00     0.039 A 
ATOM     13  C   UNL A   1      34.824  30.438  28.445  1.00  0.00     0.014 A 
ATOM     14  C   UNL A   1      35.698  32.664  28.131  1.00  0.00     0.014 A 
ATOM     15  C   UNL A   1      35.931  30.108  29.209  1.00  0.00     0.010 A 
ATOM     16  C   UNL A   1      36.883  32.285  28.775  1.00  0.00     0.010 A 
ATOM     17  C   UNL A   1      36.990  31.017  29.365  1.00  0.00    -0.014 A 
BRANCH  17  18
ATOM     18  C   UNL A   1      38.198  30.574  30.110  1.00  0.00     0.031 A 
ATOM     19  C   UNL A   1      38.399  30.932  31.556  1.00  0.00     0.074 A 
ATOM     20  C   UNL A   1      39.078  29.770  29.481  1.00  0.00     0.049 A 
ATOM     21  N   UNL A   1      39.357  30.562  32.369  1.00  0.00    -0.248 NA
ATOM     22  C   UNL A   1      37.408  31.827  32.172  1.00  0.00     0.031 C 
ATOM     23  C   UNL A   1      38.994  29.367  28.074  1.00  0.00     0.029 A 
ATOM     24  N   UNL A   1      40.184  29.106  29.947  1.00  0.00    -0.354 N 
ATOM     25  C   UNL A   1      39.108  31.208  33.573  1.00  0.00     0.074 A 
ATOM     26  C   UNL A   1      37.916  32.005  33.383  1.00  0.00     0.031 C 
ATOM     27  C   UNL A   1      39.943  28.458  27.818  1.00  0.00     0.029 A 
ATOM     28  C   UNL A   1      40.755  28.274  29.014  1.00  0.00     0.049 A 
ATOM     29  H   UNL A   1      40.535  29.215  30.860  1.00  0.00     0.167 HD
ATOM     30  C   UNL A   1      39.810  31.136  34.730  1.00  0.00     0.037 A 
ATOM     31  C   UNL A   1      41.818  27.456  29.106  1.00  0.00     0.037 A 
ATOM     32  C   UNL A   1      40.972  30.307  34.922  1.00  0.00     0.049 A 
ATOM     33  C   UNL A   1      42.564  27.385  30.405  1.00  0.00     0.074 A 
ATOM     34  C   UNL A   1      41.729  30.134  36.068  1.00  0.00     0.029 A 
ATOM     35  N   UNL A   1      41.544  29.508  33.942  1.00  0.00    -0.354 N 
ATOM     36  N   UNL A   1      42.305  27.987  31.540  1.00  0.00    -0.248 NA
ATOM     37  C   UNL A   1      43.756  26.529  30.433  1.00  0.00     0.031 C 
ATOM     38  C   UNL A   1      42.783  29.261  35.770  1.00  0.00     0.029 A 
ATOM     39  C   UNL A   1      42.655  28.854  34.453  1.00  0.00     0.049 A 
ATOM     40  H   UNL A   1      41.210  29.419  33.020  1.00  0.00     0.167 HD
ATOM     41  C   UNL A   1      43.293  27.576  32.421  1.00  0.00     0.074 A 
ATOM     42  C   UNL A   1      44.142  26.652  31.696  1.00  0.00     0.031 C 
ATOM     43  C   UNL A   1      43.484  27.937  33.714  1.00  0.00     0.037 A 
BRANCH  30  44
ATOM     44  C   UNL A   1      39.358  31.997  35.875  1.00  0.00     0.064 A 
ATOM     45  C   UNL A   1      38.383  31.568  36.787  1.00  0.00     0.173 A 
ATOM     46  C   UNL A   1      39.942  33.256  36.084  1.00  0.00     0.173 A 
ATOM     47  F   UNL A   1      37.783  30.378  36.627  1.00  0.00    -0.203 F 
ATOM     48  C   UNL A   1      37.993  32.378  37.852  1.00  0.00     0.198 A 
ATOM     49  C   UNL A   1      39.569  34.051  37.164  1.00  0.00     0.198 A 
ATOM     50  F   UNL A   1      40.883  33.713  35.244  1.00  0.00    -0.203 F 
ATOM     51  F   UNL A   1      37.028  31.965  38.686  1.00  0.00    -0.200 F 
ATOM     52  C   UNL A   1      38.590  33.614  38.044  1.00  0.00     0.200 A 
ATOM     53  F   UNL A   1      40.155  35.241  37.354  1.00  0.00    -0.200 F 
ATOM     54  F   UNL A   1      38.216  34.389  39.072  1.00  0.00    -0.200 F 
ENDBRANCH  30  44
BRANCH  31  55
ATOM     55  C   UNL A   1      42.228  26.641  27.933  1.00  0.00     0.064 A 
ATOM     56  C   UNL A   1      41.670  25.376  27.702  1.00  0.00     0.173 A 
ATOM     57  C   UNL A   1      43.170  27.118  27.009  1.00  0.00     0.173 A 
ATOM     58  F   UNL A   1      40.780  24.870  28.568  1.00  0.00    -0.203 F 
ATOM     59  C   UNL A   1      42.047  24.616  26.598  1.00  0.00     0.198 A 
ATOM     60  C   UNL A   1      43.522  26.370  25.888  1.00  0.00     0.198 A 
ATOM     61  F   UNL A   1      43.729  28.325  27.182  1.00  0.00    -0.203 F 
ATOM     62  F   UNL A   1      41.527  23.393  26.421  1.00  0.00    -0.200 F 
ATOM     63  C   UNL A   1      42.965  25.116  25.687  1.00  0.00     0.200 A 
ATOM     64  F   UNL A   1      44.396  26.867  25.002  1.00  0.00    -0.200 F 
ATOM     65  F   UNL A   1      43.319  24.388  24.620  1.00  0.00    -0.200 F 
ENDBRANCH  31  55
BRANCH  43  66
ATOM     66  C   UNL A   1      44.642  27.304  34.427  1.00  0.00     0.064 A 
ATOM     67  C   UNL A   1      45.904  27.911  34.462  1.00  0.00     0.173 A 
ATOM     68  C   UNL A   1      44.479  26.079  35.092  1.00  0.00     0.173 A 
ATOM     69  F   UNL A   1      46.112  29.074  33.826  1.00  0.00    -0.203 F 
ATOM     70  C   UNL A   1      46.973  27.300  35.113  1.00  0.00     0.198 A 
ATOM     71  C   UNL A   1      45.543  25.485  35.765  1.00  0.00     0.198 A 
ATOM     72  F   UNL A   1      43.289  25.460  35.090  1.00  0.00    -0.203 F 
ATOM     73  F   UNL A   1      48.185  27.872  35.088  1.00  0.00    -0.200 F 
ATOM     74  C   UNL A   1      46.791  26.091  35.766  1.00  0.00     0.200 A 
ATOM     75  F   UNL A   1      45.363  24.321  36.404  1.00  0.00    -0.200 F 
ATOM     76  F   UNL A   1      47.820  25.504  36.391  1.00  0.00    -0.200 F 
ENDBRANCH  43  66
ENDBRANCH  17  18
ENDBRANCH  10  12
ENDBRANCH   7   8
ENDBRANCH   6   7
ENDBRANCH   5   6
ENDBRANCH   1   5
BRANCH   2  77
ATOM     77  C   UNL A   1      32.169  25.386  24.805  1.00  0.00     0.176 C 
ATOM     78  C   UNL A   1      33.432  26.275  24.718  1.00  0.00     0.079 C 
ATOM     79  C   UNL A   1      31.574  25.256  23.353  1.00  0.00     0.093 C 
ATOM     80  C   UNL A   1      33.238  27.598  23.986  1.00  0.00     0.008 C 
ATOM     81  C   UNL A   1      31.415  26.574  22.558  1.00  0.00     0.053 C 
ATOM     82  C   UNL A   1      32.728  27.360  22.568  1.00  0.00     0.015 C 
BRANCH  77  83
ATOM     83  N   UNL A   1      32.571  23.992  25.206  1.00  0.00    -0.331 N 
ATOM     84  H   UNL A   1      33.165  23.618  24.466  1.00  0.00     0.347 HD
ATOM     85  H   UNL A   1      31.694  23.491  25.346  1.00  0.00     0.347 HD
BRANCH  83  86
ATOM     86  C   UNL A   1      33.299  23.850  26.473  1.00  0.00     0.183 C 
ATOM     87  C   UNL A   1      33.399  22.485  27.103  1.00  0.00     0.071 C 
ATOM     88  C   UNL A   1      34.612  23.117  26.495  1.00  0.00     0.071 C 
ENDBRANCH  83  86
ENDBRANCH  77  83
BRANCH  81  89
ATOM     89  S   UNL A   1      30.108  27.733  23.132  1.00  0.00    -0.156 SA
BRANCH  89  90
ATOM     90  C   UNL A   1      30.401  29.158  22.027  1.00  0.00     0.104 C 
BRANCH  90  91
ATOM     91  C   UNL A   1      29.152  30.051  21.940  1.00  0.00     0.149 C 
BRANCH  91  92
ATOM     92  C   UNL A   1      28.202  29.934  23.139  1.00  0.00     0.188 C 
BRANCH  92  93
ATOM     93  O   UNL A   1      26.905  29.545  22.675  1.00  0.00    -0.394 OA
ATOM     94  H   UNL A   1      26.799  29.814  21.749  1.00  0.00     0.210 HD
ENDBRANCH  92  93
ENDBRANCH  91  92
BRANCH  91  95
ATOM     95  O   UNL A   1      29.530  31.435  21.800  1.00  0.00    -0.390 OA
ATOM     96  H   UNL A   1      29.452  31.880  22.657  1.00  0.00     0.211 HD
ENDBRANCH  91  95
ENDBRANCH  90  91
ENDBRANCH  89  90
ENDBRANCH  81  89
ENDBRANCH   2  77
TORSDOF 18
ENDMDL
