MODEL 1
REMARK VINA RESULT:     -13.3      0.000      0.000
REMARK SMILES Cc1c(C[NH2+]Cc2cccc(F)c2)c(C(=O)NCCCNC(=O)c2ccc(-c3c4nc(c(-c5c(F)c(F)c(F)c(F)c5F)c5ccc([nH]5)c(-c5c(F)c(F)c(F)c(F)c5F)c5nc(c(-c6c(F)c(F)c(F)c(F)c6F)c6ccc3[nH]6)C=C5)C=C4)cc2)c(C)n1Cc1c(F)cccc1Cl
REMARK SMILES IDX 18 1 17 2 15 3 16 4 14 6 1 7 2 8 3 9 89 10 87 11 88 12 4 13
REMARK SMILES IDX 5 14 6 17 7 18 8 19 13 20 9 21 11 22 10 23 12 24 90 25 91 26
REMARK SMILES IDX 92 27 97 28 93 29 94 30 96 31 98 32 95 33 19 34 20 35 21 36
REMARK SMILES IDX 22 37 23 39 24 40 25 41 86 42 26 43 85 44 27 45 28 46 29 47
REMARK SMILES IDX 79 48 30 49 84 50 78 51 80 52 31 53 83 54 77 55 76 56 32 58
REMARK SMILES IDX 64 59 44 60 63 61 45 62 48 63 62 64 81 65 46 66 47 67 61 69
REMARK SMILES IDX 82 70 49 71 33 72 34 73 42 74 35 75 36 76 40 77 43 78 37 79
REMARK SMILES IDX 38 80 41 81 39 82 65 83 66 84 74 85 67 86 68 87 72 88 75 89
REMARK SMILES IDX 69 90 70 91 73 92 71 93 50 94 51 95 59 96 52 97 53 98 57 99
REMARK SMILES IDX 60 100 54 101 55 102 58 103 56 104
REMARK H PARENT 17 5 5 15 5 16 21 38 80 57 48 68
REMARK Flexibility Score: inf
ROOT
ATOM      1  C   UNL A   1      34.071  29.745  27.345  1.00  0.00     0.118 C 
ENDROOT
BRANCH   1   2
ATOM      2  N   UNL A   1      33.040  28.845  27.819  1.00  0.00    -0.352 N 
ATOM      3  C   UNL A   1      32.181  27.909  27.297  1.00  0.00     0.253 C 
ATOM      4  O   UNL A   1      31.425  27.448  28.154  1.00  0.00    -0.269 OA
ATOM      5  H   UNL A   1      32.921  28.928  28.794  1.00  0.00     0.163 HD
BRANCH   3   6
ATOM      6  C   UNL A   1      32.049  27.531  25.870  1.00  0.00     0.069 A 
ATOM      7  C   UNL A   1      32.386  25.128  22.974  1.00  0.00     0.065 C 
ATOM      8  C   UNL A   1      32.109  26.180  23.995  1.00  0.00     0.025 A 
ATOM      9  C   UNL A   1      32.422  26.210  25.355  1.00  0.00     0.040 A 
ATOM     10  N   UNL A   1      31.486  27.378  23.697  1.00  0.00    -0.343 N 
ATOM     11  C   UNL A   1      31.811  28.277  24.709  1.00  0.00     0.028 A 
ATOM     12  C   UNL A   1      31.990  29.728  24.426  1.00  0.00     0.065 C 
BRANCH   9  13
ATOM     13  C   UNL A   1      33.098  25.098  26.135  1.00  0.00     0.300 C 
BRANCH  13  14
ATOM     14  N   UNL A   1      34.479  24.986  25.667  1.00  0.00    -0.339 N 
ATOM     15  H   UNL A   1      35.099  25.157  26.459  1.00  0.00     0.346 HD
ATOM     16  H   UNL A   1      34.594  25.671  24.922  1.00  0.00     0.346 HD
BRANCH  14  17
ATOM     17  C   UNL A   1      34.812  23.684  25.097  1.00  0.00     0.297 C 
BRANCH  17  18
ATOM     18  C   UNL A   1      36.192  23.129  25.404  1.00  0.00     0.009 A 
ATOM     19  C   UNL A   1      37.187  23.844  26.089  1.00  0.00     0.010 A 
ATOM     20  C   UNL A   1      36.502  21.823  24.983  1.00  0.00     0.048 A 
ATOM     21  C   UNL A   1      38.461  23.307  26.297  1.00  0.00     0.004 A 
ATOM     22  C   UNL A   1      37.769  21.287  25.210  1.00  0.00     0.123 A 
ATOM     23  C   UNL A   1      38.755  22.024  25.851  1.00  0.00     0.039 A 
ATOM     24  F   UNL A   1      38.042  20.041  24.800  1.00  0.00    -0.207 F 
ENDBRANCH  17  18
ENDBRANCH  14  17
ENDBRANCH  13  14
ENDBRANCH   9  13
BRANCH  10  25
ATOM     25  C   UNL A   1      30.823  27.702  22.416  1.00  0.00     0.162 C 
BRANCH  25  26
ATOM     26  C   UNL A   1      29.564  28.530  22.576  1.00  0.00     0.026 A 
ATOM     27  C   UNL A   1      29.490  29.801  21.989  1.00  0.00     0.129 A 
ATOM     28  C   UNL A   1      28.409  28.090  23.241  1.00  0.00     0.048 A 
ATOM     29  F   UNL A   1      30.471  30.231  21.193  1.00  0.00    -0.207 F 
ATOM     30  C   UNL A   1      28.387  30.642  22.128  1.00  0.00     0.040 A 
ATOM     31  C   UNL A   1      27.280  28.920  23.367  1.00  0.00     0.021 A 
ATOM     32  Cl  UNL A   1      28.255  26.490  23.876  1.00  0.00    -0.084 Cl
ATOM     33  C   UNL A   1      27.278  30.206  22.833  1.00  0.00     0.005 A 
ENDBRANCH  25  26
ENDBRANCH  10  25
ENDBRANCH   3   6
ENDBRANCH   1   2
BRANCH   1  34
ATOM     34  C   UNL A   1      33.674  31.221  27.368  1.00  0.00     0.042 C 
BRANCH  34  35
ATOM     35  C   UNL A   1      34.729  32.159  27.984  1.00  0.00     0.118 C 
BRANCH  35  36
ATOM     36  N   UNL A   1      34.309  32.797  29.217  1.00  0.00    -0.352 N 
ATOM     37  C   UNL A   1      34.857  32.659  30.478  1.00  0.00     0.251 C 
ATOM     38  H   UNL A   1      33.537  33.404  29.147  1.00  0.00     0.163 HD
ATOM     39  O   UNL A   1      34.305  33.220  31.420  1.00  0.00    -0.269 OA
BRANCH  37  40
ATOM     40  C   UNL A   1      36.006  31.727  30.747  1.00  0.00     0.039 A 
ATOM     41  C   UNL A   1      37.065  31.822  29.874  1.00  0.00     0.014 A 
ATOM     42  C   UNL A   1      36.071  30.691  31.700  1.00  0.00     0.014 A 
ATOM     43  C   UNL A   1      38.166  30.945  29.996  1.00  0.00     0.010 A 
ATOM     44  C   UNL A   1      37.164  29.711  31.732  1.00  0.00     0.010 A 
ATOM     45  C   UNL A   1      38.255  29.779  30.850  1.00  0.00    -0.014 A 
BRANCH  45  46
ATOM     46  C   UNL A   1      39.349  28.652  30.404  1.00  0.00     0.031 A 
ATOM     47  C   UNL A   1      40.291  28.649  31.560  1.00  0.00     0.074 A 
ATOM     48  C   UNL A   1      39.839  27.856  29.363  1.00  0.00     0.049 A 
ATOM     49  N   UNL A   1      40.880  29.771  31.871  1.00  0.00    -0.248 NA
ATOM     50  C   UNL A   1      40.275  27.645  32.628  1.00  0.00     0.031 C 
ATOM     51  C   UNL A   1      39.421  27.815  27.952  1.00  0.00     0.029 A 
ATOM     52  N   UNL A   1      40.882  26.865  29.322  1.00  0.00    -0.354 N 
ATOM     53  C   UNL A   1      41.523  29.558  33.057  1.00  0.00     0.074 A 
ATOM     54  C   UNL A   1      40.950  28.319  33.570  1.00  0.00     0.031 C 
ATOM     55  C   UNL A   1      40.047  26.813  27.261  1.00  0.00     0.029 A 
ATOM     56  C   UNL A   1      41.008  26.100  28.104  1.00  0.00     0.049 A 
ATOM     57  H   UNL A   1      41.483  26.717  30.089  1.00  0.00     0.167 HD
ATOM     58  C   UNL A   1      42.809  30.003  33.100  1.00  0.00     0.037 A 
ATOM     59  C   UNL A   1      41.861  25.046  27.764  1.00  0.00     0.037 A 
ATOM     60  C   UNL A   1      43.734  28.918  32.923  1.00  0.00     0.049 A 
ATOM     61  C   UNL A   1      43.073  25.251  28.563  1.00  0.00     0.074 A 
ATOM     62  C   UNL A   1      43.761  27.617  33.387  1.00  0.00     0.029 A 
ATOM     63  N   UNL A   1      44.491  28.934  31.774  1.00  0.00    -0.354 N 
ATOM     64  N   UNL A   1      43.953  26.140  28.218  1.00  0.00    -0.248 NA
ATOM     65  C   UNL A   1      43.455  24.376  29.665  1.00  0.00     0.031 C 
ATOM     66  C   UNL A   1      43.984  26.849  32.222  1.00  0.00     0.029 A 
ATOM     67  C   UNL A   1      44.495  27.673  31.227  1.00  0.00     0.049 A 
ATOM     68  H   UNL A   1      44.953  29.721  31.404  1.00  0.00     0.167 HD
ATOM     69  C   UNL A   1      44.713  26.266  29.331  1.00  0.00     0.074 A 
ATOM     70  C   UNL A   1      44.568  25.009  30.041  1.00  0.00     0.031 C 
ATOM     71  C   UNL A   1      44.803  27.522  29.825  1.00  0.00     0.037 A 
BRANCH  58  72
ATOM     72  C   UNL A   1      42.990  31.376  32.499  1.00  0.00     0.064 A 
ATOM     73  C   UNL A   1      42.767  31.670  31.134  1.00  0.00     0.173 A 
ATOM     74  C   UNL A   1      43.274  32.454  33.342  1.00  0.00     0.173 A 
ATOM     75  F   UNL A   1      42.659  30.685  30.226  1.00  0.00    -0.203 F 
ATOM     76  C   UNL A   1      42.679  32.979  30.674  1.00  0.00     0.198 A 
ATOM     77  C   UNL A   1      43.265  33.764  32.859  1.00  0.00     0.198 A 
ATOM     78  F   UNL A   1      43.570  32.237  34.632  1.00  0.00    -0.203 F 
ATOM     79  F   UNL A   1      42.369  33.217  29.392  1.00  0.00    -0.200 F 
ATOM     80  C   UNL A   1      42.927  34.028  31.539  1.00  0.00     0.200 A 
ATOM     81  F   UNL A   1      43.586  34.777  33.676  1.00  0.00    -0.200 F 
ATOM     82  F   UNL A   1      42.876  35.290  31.092  1.00  0.00    -0.200 F 
ENDBRANCH  58  72
BRANCH  59  83
ATOM     83  C   UNL A   1      42.160  23.899  26.744  1.00  0.00     0.064 A 
ATOM     84  C   UNL A   1      42.075  22.544  27.089  1.00  0.00     0.173 A 
ATOM     85  C   UNL A   1      42.974  24.132  25.573  1.00  0.00     0.173 A 
ATOM     86  F   UNL A   1      41.354  22.171  28.154  1.00  0.00    -0.203 F 
ATOM     87  C   UNL A   1      42.810  21.538  26.404  1.00  0.00     0.198 A 
ATOM     88  C   UNL A   1      43.739  23.144  24.930  1.00  0.00     0.198 A 
ATOM     89  F   UNL A   1      43.121  25.356  25.050  1.00  0.00    -0.203 F 
ATOM     90  F   UNL A   1      42.737  20.262  26.811  1.00  0.00    -0.200 F 
ATOM     91  C   UNL A   1      43.673  21.844  25.360  1.00  0.00     0.200 A 
ATOM     92  F   UNL A   1      44.589  23.483  23.947  1.00  0.00    -0.200 F 
ATOM     93  F   UNL A   1      44.451  20.905  24.799  1.00  0.00    -0.200 F 
ENDBRANCH  59  83
BRANCH  71  94
ATOM     94  C   UNL A   1      45.023  28.659  28.832  1.00  0.00     0.064 A 
ATOM     95  C   UNL A   1      46.349  29.081  28.644  1.00  0.00     0.173 A 
ATOM     96  C   UNL A   1      44.055  29.315  28.030  1.00  0.00     0.173 A 
ATOM     97  F   UNL A   1      47.332  28.544  29.382  1.00  0.00    -0.203 F 
ATOM     98  C   UNL A   1      46.695  30.076  27.731  1.00  0.00     0.198 A 
ATOM     99  C   UNL A   1      44.415  30.265  27.066  1.00  0.00     0.198 A 
ATOM    100  F   UNL A   1      42.739  29.103  28.165  1.00  0.00    -0.203 F 
ATOM    101  F   UNL A   1      47.970  30.478  27.647  1.00  0.00    -0.200 F 
ATOM    102  C   UNL A   1      45.733  30.651  26.925  1.00  0.00     0.200 A 
ATOM    103  F   UNL A   1      43.475  30.816  26.281  1.00  0.00    -0.200 F 
ATOM    104  F   UNL A   1      46.075  31.585  26.027  1.00  0.00    -0.200 F 
ENDBRANCH  71  94
ENDBRANCH  45  46
ENDBRANCH  37  40
ENDBRANCH  35  36
ENDBRANCH  34  35
ENDBRANCH   1  34
TORSDOF 16
ENDMDL
MODEL 2
REMARK VINA RESULT:     -13.3      2.111      5.267
REMARK SMILES Cc1c(C[NH2+]Cc2cccc(F)c2)c(C(=O)NCCCNC(=O)c2ccc(-c3c4nc(c(-c5c(F)c(F)c(F)c(F)c5F)c5ccc([nH]5)c(-c5c(F)c(F)c(F)c(F)c5F)c5nc(c(-c6c(F)c(F)c(F)c(F)c6F)c6ccc3[nH]6)C=C5)C=C4)cc2)c(C)n1Cc1c(F)cccc1Cl
REMARK SMILES IDX 18 1 17 2 15 3 16 4 14 6 1 7 2 8 3 9 89 10 87 11 88 12 4 13
REMARK SMILES IDX 5 14 6 17 7 18 8 19 13 20 9 21 11 22 10 23 12 24 90 25 91 26
REMARK SMILES IDX 92 27 97 28 93 29 94 30 96 31 98 32 95 33 19 34 20 35 21 36
REMARK SMILES IDX 22 37 23 39 24 40 25 41 86 42 26 43 85 44 27 45 28 46 29 47
REMARK SMILES IDX 79 48 30 49 84 50 78 51 80 52 31 53 83 54 77 55 76 56 32 58
REMARK SMILES IDX 64 59 44 60 63 61 45 62 48 63 62 64 81 65 46 66 47 67 61 69
REMARK SMILES IDX 82 70 49 71 33 72 34 73 42 74 35 75 36 76 40 77 43 78 37 79
REMARK SMILES IDX 38 80 41 81 39 82 65 83 66 84 74 85 67 86 68 87 72 88 75 89
REMARK SMILES IDX 69 90 70 91 73 92 71 93 50 94 51 95 59 96 52 97 53 98 57 99
REMARK SMILES IDX 60 100 54 101 55 102 58 103 56 104
REMARK H PARENT 17 5 5 15 5 16 21 38 80 57 48 68
REMARK Flexibility Score: inf
ROOT
ATOM      1  C   UNL A   1      34.054  27.653  26.372  1.00  0.00     0.118 C 
ENDROOT
BRANCH   1   2
ATOM      2  N   UNL A   1      32.651  27.326  26.520  1.00  0.00    -0.352 N 
ATOM      3  C   UNL A   1      31.713  26.540  25.895  1.00  0.00     0.253 C 
ATOM      4  O   UNL A   1      30.596  26.669  26.397  1.00  0.00    -0.269 OA
ATOM      5  H   UNL A   1      32.257  27.800  27.288  1.00  0.00     0.163 HD
BRANCH   3   6
ATOM      6  C   UNL A   1      31.924  25.703  24.690  1.00  0.00     0.069 A 
ATOM      7  C   UNL A   1      32.526  25.207  20.993  1.00  0.00     0.065 C 
ATOM      8  C   UNL A   1      32.366  25.203  22.477  1.00  0.00     0.025 A 
ATOM      9  C   UNL A   1      32.141  26.266  23.354  1.00  0.00     0.040 A 
ATOM     10  N   UNL A   1      32.387  24.048  23.237  1.00  0.00    -0.343 N 
ATOM     11  C   UNL A   1      31.753  24.336  24.443  1.00  0.00     0.028 A 
ATOM     12  C   UNL A   1      30.944  23.307  25.154  1.00  0.00     0.065 C 
BRANCH   9  13
ATOM     13  C   UNL A   1      32.060  27.731  22.970  1.00  0.00     0.300 C 
BRANCH  13  14
ATOM     14  N   UNL A   1      30.707  28.002  22.486  1.00  0.00    -0.339 N 
ATOM     15  H   UNL A   1      30.262  27.111  22.263  1.00  0.00     0.346 HD
ATOM     16  H   UNL A   1      30.802  28.609  21.672  1.00  0.00     0.346 HD
BRANCH  14  17
ATOM     17  C   UNL A   1      29.861  28.710  23.442  1.00  0.00     0.297 C 
BRANCH  17  18
ATOM     18  C   UNL A   1      29.254  30.025  22.986  1.00  0.00     0.009 A 
ATOM     19  C   UNL A   1      29.174  31.170  23.794  1.00  0.00     0.010 A 
ATOM     20  C   UNL A   1      28.738  30.112  21.680  1.00  0.00     0.048 A 
ATOM     21  C   UNL A   1      28.554  32.340  23.345  1.00  0.00     0.004 A 
ATOM     22  C   UNL A   1      28.138  31.289  21.232  1.00  0.00     0.123 A 
ATOM     23  C   UNL A   1      28.029  32.398  22.059  1.00  0.00     0.039 A 
ATOM     24  F   UNL A   1      27.654  31.349  19.985  1.00  0.00    -0.207 F 
ENDBRANCH  17  18
ENDBRANCH  14  17
ENDBRANCH  13  14
ENDBRANCH   9  13
BRANCH  10  25
ATOM     25  C   UNL A   1      32.775  22.709  22.748  1.00  0.00     0.162 C 
BRANCH  25  26
ATOM     26  C   UNL A   1      33.885  22.066  23.556  1.00  0.00     0.026 A 
ATOM     27  C   UNL A   1      35.133  22.698  23.647  1.00  0.00     0.129 A 
ATOM     28  C   UNL A   1      33.741  20.876  24.288  1.00  0.00     0.048 A 
ATOM     29  F   UNL A   1      35.309  23.915  23.129  1.00  0.00    -0.207 F 
ATOM     30  C   UNL A   1      36.217  22.150  24.330  1.00  0.00     0.040 A 
ATOM     31  C   UNL A   1      34.821  20.326  25.002  1.00  0.00     0.021 A 
ATOM     32  Cl  UNL A   1      32.230  20.053  24.433  1.00  0.00    -0.084 Cl
ATOM     33  C   UNL A   1      36.067  20.949  25.003  1.00  0.00     0.005 A 
ENDBRANCH  25  26
ENDBRANCH  10  25
ENDBRANCH   3   6
ENDBRANCH   1   2
BRANCH   1  34
ATOM     34  C   UNL A   1      34.352  29.153  26.381  1.00  0.00     0.042 C 
BRANCH  34  35
ATOM     35  C   UNL A   1      33.858  29.897  27.636  1.00  0.00     0.118 C 
BRANCH  35  36
ATOM     36  N   UNL A   1      34.225  31.299  27.678  1.00  0.00    -0.352 N 
ATOM     37  C   UNL A   1      35.446  31.851  28.019  1.00  0.00     0.251 C 
ATOM     38  H   UNL A   1      33.518  31.938  27.432  1.00  0.00     0.163 HD
ATOM     39  O   UNL A   1      35.538  33.074  28.077  1.00  0.00    -0.269 OA
BRANCH  37  40
ATOM     40  C   UNL A   1      36.604  31.003  28.467  1.00  0.00     0.039 A 
ATOM     41  C   UNL A   1      37.446  30.573  27.467  1.00  0.00     0.014 A 
ATOM     42  C   UNL A   1      36.853  30.496  29.757  1.00  0.00     0.014 A 
ATOM     43  C   UNL A   1      38.527  29.715  27.770  1.00  0.00     0.010 A 
ATOM     44  C   UNL A   1      37.904  29.507  30.031  1.00  0.00     0.010 A 
ATOM     45  C   UNL A   1      38.775  29.046  29.030  1.00  0.00    -0.014 A 
BRANCH  45  46
ATOM     46  C   UNL A   1      39.718  27.714  28.955  1.00  0.00     0.031 A 
ATOM     47  C   UNL A   1      40.676  27.941  30.074  1.00  0.00     0.074 A 
ATOM     48  C   UNL A   1      40.088  26.594  28.204  1.00  0.00     0.049 A 
ATOM     49  N   UNL A   1      41.402  29.025  30.048  1.00  0.00    -0.248 NA
ATOM     50  C   UNL A   1      40.564  27.307  31.391  1.00  0.00     0.031 C 
ATOM     51  C   UNL A   1      39.639  26.187  26.862  1.00  0.00     0.029 A 
ATOM     52  N   UNL A   1      41.005  25.518  28.475  1.00  0.00    -0.354 N 
ATOM     53  C   UNL A   1      42.039  29.098  31.254  1.00  0.00     0.074 A 
ATOM     54  C   UNL A   1      41.334  28.144  32.101  1.00  0.00     0.031 C 
ATOM     55  C   UNL A   1      40.127  24.958  26.509  1.00  0.00     0.029 A 
ATOM     56  C   UNL A   1      41.013  24.417  27.540  1.00  0.00     0.049 A 
ATOM     57  H   UNL A   1      41.600  25.532  29.260  1.00  0.00     0.167 HD
ATOM     58  C   UNL A   1      43.370  29.378  31.182  1.00  0.00     0.037 A 
ATOM     59  C   UNL A   1      41.728  23.215  27.540  1.00  0.00     0.037 A 
ATOM     60  C   UNL A   1      44.155  28.187  31.349  1.00  0.00     0.049 A 
ATOM     61  C   UNL A   1      42.972  23.501  28.261  1.00  0.00     0.074 A 
ATOM     62  C   UNL A   1      44.037  27.089  32.177  1.00  0.00     0.029 A 
ATOM     63  N   UNL A   1      44.884  27.772  30.258  1.00  0.00    -0.354 N 
ATOM     64  N   UNL A   1      43.944  24.136  27.682  1.00  0.00    -0.248 NA
ATOM     65  C   UNL A   1      43.270  22.952  29.579  1.00  0.00     0.031 C 
ATOM     66  C   UNL A   1      44.143  25.989  31.296  1.00  0.00     0.029 A 
ATOM     67  C   UNL A   1      44.727  26.415  30.110  1.00  0.00     0.049 A 
ATOM     68  H   UNL A   1      45.429  28.353  29.680  1.00  0.00     0.167 HD
ATOM     69  C   UNL A   1      44.736  24.494  28.719  1.00  0.00     0.074 A 
ATOM     70  C   UNL A   1      44.459  23.530  29.768  1.00  0.00     0.031 C 
ATOM     71  C   UNL A   1      44.986  25.820  28.821  1.00  0.00     0.037 A 
BRANCH  58  72
ATOM     72  C   UNL A   1      43.700  30.480  30.204  1.00  0.00     0.064 A 
ATOM     73  C   UNL A   1      43.597  30.340  28.801  1.00  0.00     0.173 A 
ATOM     74  C   UNL A   1      44.008  31.752  30.694  1.00  0.00     0.173 A 
ATOM     75  F   UNL A   1      43.474  29.126  28.237  1.00  0.00    -0.203 F 
ATOM     76  C   UNL A   1      43.645  31.440  27.952  1.00  0.00     0.198 A 
ATOM     77  C   UNL A   1      44.137  32.841  29.830  1.00  0.00     0.198 A 
ATOM     78  F   UNL A   1      44.196  31.938  32.009  1.00  0.00    -0.203 F 
ATOM     79  F   UNL A   1      43.445  31.277  26.637  1.00  0.00    -0.200 F 
ATOM     80  C   UNL A   1      43.914  32.693  28.468  1.00  0.00     0.200 A 
ATOM     81  F   UNL A   1      44.479  34.043  30.319  1.00  0.00    -0.200 F 
ATOM     82  F   UNL A   1      43.994  33.751  27.649  1.00  0.00    -0.200 F 
ENDBRANCH  58  72
BRANCH  59  83
ATOM     83  C   UNL A   1      41.867  21.791  26.911  1.00  0.00     0.064 A 
ATOM     84  C   UNL A   1      41.584  20.621  27.627  1.00  0.00     0.173 A 
ATOM     85  C   UNL A   1      42.717  21.559  25.765  1.00  0.00     0.173 A 
ATOM     86  F   UNL A   1      40.806  20.677  28.716  1.00  0.00    -0.203 F 
ATOM     87  C   UNL A   1      42.172  19.368  27.299  1.00  0.00     0.198 A 
ATOM     88  C   UNL A   1      43.337  20.331  25.474  1.00  0.00     0.198 A 
ATOM     89  F   UNL A   1      43.044  22.544  24.920  1.00  0.00    -0.203 F 
ATOM     90  F   UNL A   1      41.911  18.289  28.052  1.00  0.00    -0.200 F 
ATOM     91  C   UNL A   1      43.079  19.235  26.257  1.00  0.00     0.200 A 
ATOM     92  F   UNL A   1      44.236  20.249  24.480  1.00  0.00    -0.200 F 
ATOM     93  F   UNL A   1      43.719  18.077  26.030  1.00  0.00    -0.200 F 
ENDBRANCH  59  83
BRANCH  71  94
ATOM     94  C   UNL A   1      45.319  26.577  27.539  1.00  0.00     0.064 A 
ATOM     95  C   UNL A   1      46.670  26.897  27.331  1.00  0.00     0.173 A 
ATOM     96  C   UNL A   1      44.435  26.957  26.497  1.00  0.00     0.173 A 
ATOM     97  F   UNL A   1      47.578  26.609  28.276  1.00  0.00    -0.203 F 
ATOM     98  C   UNL A   1      47.117  27.543  26.180  1.00  0.00     0.198 A 
ATOM     99  C   UNL A   1      44.898  27.545  25.313  1.00  0.00     0.198 A 
ATOM    100  F   UNL A   1      43.105  26.819  26.589  1.00  0.00    -0.203 F 
ATOM    101  F   UNL A   1      48.410  27.879  26.073  1.00  0.00    -0.200 F 
ATOM    102  C   UNL A   1      46.237  27.845  25.160  1.00  0.00     0.200 A 
ATOM    103  F   UNL A   1      44.037  27.830  24.322  1.00  0.00    -0.200 F 
ATOM    104  F   UNL A   1      46.677  28.439  24.043  1.00  0.00    -0.200 F 
ENDBRANCH  71  94
ENDBRANCH  45  46
ENDBRANCH  37  40
ENDBRANCH  35  36
ENDBRANCH  34  35
ENDBRANCH   1  34
TORSDOF 16
ENDMDL
MODEL 3
REMARK VINA RESULT:     -13.2      1.509      4.901
REMARK SMILES Cc1c(C[NH2+]Cc2cccc(F)c2)c(C(=O)NCCCNC(=O)c2ccc(-c3c4nc(c(-c5c(F)c(F)c(F)c(F)c5F)c5ccc([nH]5)c(-c5c(F)c(F)c(F)c(F)c5F)c5nc(c(-c6c(F)c(F)c(F)c(F)c6F)c6ccc3[nH]6)C=C5)C=C4)cc2)c(C)n1Cc1c(F)cccc1Cl
REMARK SMILES IDX 18 1 17 2 15 3 16 4 14 6 1 7 2 8 3 9 89 10 87 11 88 12 4 13
REMARK SMILES IDX 5 14 6 17 7 18 8 19 13 20 9 21 11 22 10 23 12 24 90 25 91 26
REMARK SMILES IDX 92 27 97 28 93 29 94 30 96 31 98 32 95 33 19 34 20 35 21 36
REMARK SMILES IDX 22 37 23 39 24 40 25 41 86 42 26 43 85 44 27 45 28 46 29 47
REMARK SMILES IDX 79 48 30 49 84 50 78 51 80 52 31 53 83 54 77 55 76 56 32 58
REMARK SMILES IDX 64 59 44 60 63 61 45 62 48 63 62 64 81 65 46 66 47 67 61 69
REMARK SMILES IDX 82 70 49 71 33 72 34 73 42 74 35 75 36 76 40 77 43 78 37 79
REMARK SMILES IDX 38 80 41 81 39 82 65 83 66 84 74 85 67 86 68 87 72 88 75 89
REMARK SMILES IDX 69 90 70 91 73 92 71 93 50 94 51 95 59 96 52 97 53 98 57 99
REMARK SMILES IDX 60 100 54 101 55 102 58 103 56 104
REMARK H PARENT 17 5 5 15 5 16 21 38 80 57 48 68
REMARK Flexibility Score: inf
ROOT
ATOM      1  C   UNL A   1      32.250  29.971  26.125  1.00  0.00     0.118 C 
ENDROOT
BRANCH   1   2
ATOM      2  N   UNL A   1      32.909  29.778  24.849  1.00  0.00    -0.352 N 
ATOM      3  C   UNL A   1      33.124  28.758  23.953  1.00  0.00     0.253 C 
ATOM      4  O   UNL A   1      33.831  29.116  23.010  1.00  0.00    -0.269 OA
ATOM      5  H   UNL A   1      33.318  30.616  24.533  1.00  0.00     0.163 HD
BRANCH   3   6
ATOM      6  C   UNL A   1      32.685  27.350  24.097  1.00  0.00     0.069 A 
ATOM      7  C   UNL A   1      30.551  24.373  23.171  1.00  0.00     0.065 C 
ATOM      8  C   UNL A   1      31.530  25.405  23.622  1.00  0.00     0.025 A 
ATOM      9  C   UNL A   1      31.641  26.749  23.261  1.00  0.00     0.040 A 
ATOM     10  N   UNL A   1      32.514  25.155  24.561  1.00  0.00    -0.343 N 
ATOM     11  C   UNL A   1      32.907  26.384  25.085  1.00  0.00     0.028 A 
ATOM     12  C   UNL A   1      33.323  26.518  26.509  1.00  0.00     0.065 C 
BRANCH   9  13
ATOM     13  C   UNL A   1      30.780  27.469  22.241  1.00  0.00     0.300 C 
BRANCH  13  14
ATOM     14  N   UNL A   1      29.506  27.805  22.874  1.00  0.00    -0.339 N 
ATOM     15  H   UNL A   1      29.221  27.017  23.458  1.00  0.00     0.346 HD
ATOM     16  H   UNL A   1      28.845  27.997  22.123  1.00  0.00     0.346 HD
BRANCH  14  17
ATOM     17  C   UNL A   1      29.552  29.001  23.711  1.00  0.00     0.297 C 
BRANCH  17  18
ATOM     18  C   UNL A   1      29.090  30.303  23.080  1.00  0.00     0.009 A 
ATOM     19  C   UNL A   1      29.164  31.550  23.721  1.00  0.00     0.010 A 
ATOM     20  C   UNL A   1      28.556  30.269  21.779  1.00  0.00     0.048 A 
ATOM     21  C   UNL A   1      28.672  32.712  23.117  1.00  0.00     0.004 A 
ATOM     22  C   UNL A   1      28.085  31.435  21.176  1.00  0.00     0.123 A 
ATOM     23  C   UNL A   1      28.126  32.653  21.840  1.00  0.00     0.039 A 
ATOM     24  F   UNL A   1      27.581  31.379  19.936  1.00  0.00    -0.207 F 
ENDBRANCH  17  18
ENDBRANCH  14  17
ENDBRANCH  13  14
ENDBRANCH   9  13
BRANCH  10  25
ATOM     25  C   UNL A   1      32.880  23.821  25.083  1.00  0.00     0.162 C 
BRANCH  25  26
ATOM     26  C   UNL A   1      34.317  23.432  24.801  1.00  0.00     0.026 A 
ATOM     27  C   UNL A   1      35.214  23.273  25.867  1.00  0.00     0.129 A 
ATOM     28  C   UNL A   1      34.824  23.156  23.522  1.00  0.00     0.048 A 
ATOM     29  F   UNL A   1      34.780  23.345  27.127  1.00  0.00    -0.207 F 
ATOM     30  C   UNL A   1      36.561  22.963  25.689  1.00  0.00     0.040 A 
ATOM     31  C   UNL A   1      36.176  22.818  23.332  1.00  0.00     0.021 A 
ATOM     32  Cl  UNL A   1      33.825  23.132  22.112  1.00  0.00    -0.084 Cl
ATOM     33  C   UNL A   1      37.052  22.746  24.413  1.00  0.00     0.005 A 
ENDBRANCH  25  26
ENDBRANCH  10  25
ENDBRANCH   3   6
ENDBRANCH   1   2
BRANCH   1  34
ATOM     34  C   UNL A   1      32.467  31.354  26.739  1.00  0.00     0.042 C 
BRANCH  34  35
ATOM     35  C   UNL A   1      33.731  31.476  27.612  1.00  0.00     0.118 C 
BRANCH  35  36
ATOM     36  N   UNL A   1      33.830  32.726  28.340  1.00  0.00    -0.352 N 
ATOM     37  C   UNL A   1      34.799  33.109  29.248  1.00  0.00     0.251 C 
ATOM     38  H   UNL A   1      33.119  33.384  28.166  1.00  0.00     0.163 HD
ATOM     39  O   UNL A   1      34.664  34.183  29.829  1.00  0.00    -0.269 OA
BRANCH  37  40
ATOM     40  C   UNL A   1      35.917  32.189  29.653  1.00  0.00     0.039 A 
ATOM     41  C   UNL A   1      37.054  32.261  28.881  1.00  0.00     0.014 A 
ATOM     42  C   UNL A   1      35.891  31.182  30.638  1.00  0.00     0.014 A 
ATOM     43  C   UNL A   1      38.139  31.391  29.134  1.00  0.00     0.010 A 
ATOM     44  C   UNL A   1      36.977  30.206  30.802  1.00  0.00     0.010 A 
ATOM     45  C   UNL A   1      38.146  30.252  30.026  1.00  0.00    -0.014 A 
BRANCH  45  46
ATOM     46  C   UNL A   1      39.278  29.115  29.719  1.00  0.00     0.031 A 
ATOM     47  C   UNL A   1      40.038  29.070  31.001  1.00  0.00     0.074 A 
ATOM     48  C   UNL A   1      39.906  28.334  28.743  1.00  0.00     0.049 A 
ATOM     49  N   UNL A   1      40.591  30.173  31.423  1.00  0.00    -0.248 NA
ATOM     50  C   UNL A   1      39.849  28.043  32.030  1.00  0.00     0.031 C 
ATOM     51  C   UNL A   1      39.701  28.331  27.285  1.00  0.00     0.029 A 
ATOM     52  N   UNL A   1      40.929  27.325  28.833  1.00  0.00    -0.354 N 
ATOM     53  C   UNL A   1      41.048  29.923  32.686  1.00  0.00     0.074 A 
ATOM     54  C   UNL A   1      40.387  28.684  33.078  1.00  0.00     0.031 C 
ATOM     55  C   UNL A   1      40.408  27.333  26.670  1.00  0.00     0.029 A 
ATOM     56  C   UNL A   1      41.222  26.585  27.628  1.00  0.00     0.049 A 
ATOM     57  H   UNL A   1      41.407  27.149  29.676  1.00  0.00     0.167 HD
ATOM     58  C   UNL A   1      42.320  30.344  32.930  1.00  0.00     0.037 A 
ATOM     59  C   UNL A   1      42.101  25.524  27.392  1.00  0.00     0.037 A 
ATOM     60  C   UNL A   1      43.244  29.247  32.865  1.00  0.00     0.049 A 
ATOM     61  C   UNL A   1      43.185  25.689  28.367  1.00  0.00     0.074 A 
ATOM     62  C   UNL A   1      43.183  27.936  33.296  1.00  0.00     0.029 A 
ATOM     63  N   UNL A   1      44.164  29.274  31.841  1.00  0.00    -0.354 N 
ATOM     64  N   UNL A   1      44.119  26.570  28.178  1.00  0.00    -0.248 NA
ATOM     65  C   UNL A   1      43.385  24.783  29.491  1.00  0.00     0.031 C 
ATOM     66  C   UNL A   1      43.565  27.189  32.158  1.00  0.00     0.029 A 
ATOM     67  C   UNL A   1      44.231  28.026  31.270  1.00  0.00     0.049 A 
ATOM     68  H   UNL A   1      44.687  30.060  31.564  1.00  0.00     0.167 HD
ATOM     69  C   UNL A   1      44.706  26.658  29.393  1.00  0.00     0.074 A 
ATOM     70  C   UNL A   1      44.440  25.387  30.044  1.00  0.00     0.031 C 
ATOM     71  C   UNL A   1      44.741  27.900  29.927  1.00  0.00     0.037 A 
BRANCH  58  72
ATOM     72  C   UNL A   1      42.608  31.726  32.396  1.00  0.00     0.064 A 
ATOM     73  C   UNL A   1      42.658  32.040  31.018  1.00  0.00     0.173 A 
ATOM     74  C   UNL A   1      42.712  32.792  33.294  1.00  0.00     0.173 A 
ATOM     75  F   UNL A   1      42.738  31.069  30.093  1.00  0.00    -0.203 F 
ATOM     76  C   UNL A   1      42.655  33.355  30.569  1.00  0.00     0.198 A 
ATOM     77  C   UNL A   1      42.791  34.109  32.837  1.00  0.00     0.198 A 
ATOM     78  F   UNL A   1      42.748  32.557  34.613  1.00  0.00    -0.203 F 
ATOM     79  F   UNL A   1      42.604  33.612  29.254  1.00  0.00    -0.200 F 
ATOM     80  C   UNL A   1      42.720  34.392  31.480  1.00  0.00     0.200 A 
ATOM     81  F   UNL A   1      42.937  35.111  33.716  1.00  0.00    -0.200 F 
ATOM     82  F   UNL A   1      42.750  35.661  31.049  1.00  0.00    -0.200 F 
ENDBRANCH  58  72
BRANCH  59  83
ATOM     83  C   UNL A   1      42.531  24.394  26.400  1.00  0.00     0.064 A 
ATOM     84  C   UNL A   1      42.273  23.039  26.645  1.00  0.00     0.173 A 
ATOM     85  C   UNL A   1      43.598  24.602  25.447  1.00  0.00     0.173 A 
ATOM     86  F   UNL A   1      41.310  22.689  27.506  1.00  0.00    -0.203 F 
ATOM     87  C   UNL A   1      43.065  22.001  26.080  1.00  0.00     0.198 A 
ATOM     88  C   UNL A   1      44.410  23.577  24.932  1.00  0.00     0.198 A 
ATOM     89  F   UNL A   1      43.946  25.827  25.035  1.00  0.00    -0.203 F 
ATOM     90  F   UNL A   1      42.810  20.722  26.392  1.00  0.00    -0.200 F 
ATOM     91  C   UNL A   1      44.156  22.272  25.266  1.00  0.00     0.200 A 
ATOM     92  F   UNL A   1      45.478  23.880  24.176  1.00  0.00    -0.200 F 
ATOM     93  F   UNL A   1      44.967  21.293  24.836  1.00  0.00    -0.200 F 
ENDBRANCH  59  83
BRANCH  71  94
ATOM     94  C   UNL A   1      45.122  29.054  29.005  1.00  0.00     0.064 A 
ATOM     95  C   UNL A   1      46.460  29.479  29.050  1.00  0.00     0.173 A 
ATOM     96  C   UNL A   1      44.302  29.726  28.063  1.00  0.00     0.173 A 
ATOM     97  F   UNL A   1      47.306  28.928  29.934  1.00  0.00    -0.203 F 
ATOM     98  C   UNL A   1      46.952  30.490  28.226  1.00  0.00     0.198 A 
ATOM     99  C   UNL A   1      44.816  30.693  27.191  1.00  0.00     0.198 A 
ATOM    100  F   UNL A   1      42.982  29.512  27.971  1.00  0.00    -0.203 F 
ATOM    101  F   UNL A   1      48.222  30.893  28.365  1.00  0.00    -0.200 F 
ATOM    102  C   UNL A   1      46.138  31.080  27.280  1.00  0.00     0.200 A 
ATOM    103  F   UNL A   1      44.021  31.258  26.268  1.00  0.00    -0.200 F 
ATOM    104  F   UNL A   1      46.625  32.030  26.470  1.00  0.00    -0.200 F 
ENDBRANCH  71  94
ENDBRANCH  45  46
ENDBRANCH  37  40
ENDBRANCH  35  36
ENDBRANCH  34  35
ENDBRANCH   1  34
TORSDOF 16
ENDMDL
