MODEL 1
REMARK VINA RESULT:     -13.2      0.000      0.000
REMARK SMILES COc1cc(/C=C2\SC(=S)N(CC(=O)NCCCNC(=O)c3ccc(-c4c5nc(c(-c6c(F)c(F)c(F)c(F)c6F)c6ccc([nH]6)c(-c6c(F)c(F)c(F)c(F)c6F)c6nc(c(-c7c(F)c(F)c(F)c(F)c7F)c7ccc4[nH]7)C=C6)C=C5)cc3)C2=O)cc2c1OCO2
REMARK SMILES IDX 16 1 15 2 13 3 14 4 12 6 11 7 6 8 7 9 8 10 85 11 9 12 86 13
REMARK SMILES IDX 10 14 5 15 3 16 4 17 89 18 88 19 90 20 87 21 92 22 91 23
REMARK SMILES IDX 2 24 1 25 17 26 18 27 19 28 20 29 21 31 22 32 23 33 84 34
REMARK SMILES IDX 24 35 83 36 25 37 26 38 27 39 77 40 28 41 82 42 76 43 78 44
REMARK SMILES IDX 29 45 81 46 75 47 74 48 30 50 62 51 42 52 61 53 43 54 46 55
REMARK SMILES IDX 60 56 79 57 44 58 45 59 59 61 80 62 47 63 31 64 32 65 40 66
REMARK SMILES IDX 33 67 34 68 38 69 41 70 35 71 36 72 39 73 37 74 63 75 64 76
REMARK SMILES IDX 72 77 65 78 66 79 70 80 73 81 67 82 68 83 71 84 69 85 48 86
REMARK SMILES IDX 49 87 57 88 50 89 51 90 55 91 58 92 52 93 53 94 56 95 54 96
REMARK H PARENT 15 5 19 30 78 49 46 60
REMARK Flexibility Score: inf
ROOT
ATOM      1  C   UNL A   1      31.591  30.836  25.797  1.00  0.00     0.117 C 
ENDROOT
BRANCH   1   2
ATOM      2  N   UNL A   1      32.634  29.915  26.198  1.00  0.00    -0.354 N 
ATOM      3  C   UNL A   1      32.791  28.588  25.933  1.00  0.00     0.240 C 
ATOM      4  O   UNL A   1      33.907  28.107  26.146  1.00  0.00    -0.273 OA
ATOM      5  H   UNL A   1      33.345  30.313  26.751  1.00  0.00     0.163 HD
BRANCH   3   6
ATOM      6  C   UNL A   1      31.705  27.760  25.236  1.00  0.00     0.227 C 
BRANCH   6   7
ATOM      7  N   UNL A   1      32.124  26.422  24.820  1.00  0.00    -0.283 N 
ATOM      8  C   UNL A   1      32.575  22.999  25.906  1.00  0.00     0.029 C 
ATOM      9  C   UNL A   1      32.558  24.134  25.194  1.00  0.00     0.081 C 
ATOM     10  S   UNL A   1      33.097  24.386  23.584  1.00  0.00    -0.054 SA
ATOM     11  C   UNL A   1      32.018  25.401  25.751  1.00  0.00     0.266 C 
ATOM     12  C   UNL A   1      32.785  26.114  23.649  1.00  0.00     0.148 C 
ATOM     13  O   UNL A   1      31.559  25.502  26.877  1.00  0.00    -0.268 OA
ATOM     14  S   UNL A   1      33.281  27.136  22.430  1.00  0.00    -0.052 S 
BRANCH   8  15
ATOM     15  C   UNL A   1      33.071  21.699  25.437  1.00  0.00    -0.017 A 
ATOM     16  C   UNL A   1      34.989  20.245  24.983  1.00  0.00     0.165 A 
ATOM     17  C   UNL A   1      34.462  21.470  25.411  1.00  0.00     0.058 A 
ATOM     18  C   UNL A   1      34.097  19.251  24.625  1.00  0.00     0.207 A 
ATOM     19  C   UNL A   1      32.738  19.480  24.638  1.00  0.00     0.170 A 
ATOM     20  O   UNL A   1      34.381  17.971  24.253  1.00  0.00    -0.450 OA
ATOM     21  C   UNL A   1      32.196  20.693  25.012  1.00  0.00     0.059 A 
ATOM     22  O   UNL A   1      32.014  18.387  24.271  1.00  0.00    -0.453 OA
ATOM     23  C   UNL A   1      33.061  17.412  24.120  1.00  0.00     0.468 C 
BRANCH  16  24
ATOM     24  O   UNL A   1      36.350  20.149  25.021  1.00  0.00    -0.493 OA
ATOM     25  C   UNL A   1      37.046  21.375  24.827  1.00  0.00     0.278 C 
ENDBRANCH  16  24
ENDBRANCH   8  15
ENDBRANCH   6   7
ENDBRANCH   3   6
ENDBRANCH   1   2
BRANCH   1  26
ATOM     26  C   UNL A   1      31.358  31.940  26.822  1.00  0.00     0.042 C 
BRANCH  26  27
ATOM     27  C   UNL A   1      32.632  32.669  27.245  1.00  0.00     0.118 C 
BRANCH  27  28
ATOM     28  N   UNL A   1      32.397  34.064  27.594  1.00  0.00    -0.352 N 
ATOM     29  C   UNL A   1      32.994  34.859  28.542  1.00  0.00     0.251 C 
ATOM     30  H   UNL A   1      31.696  34.510  27.065  1.00  0.00     0.163 HD
ATOM     31  O   UNL A   1      32.527  35.968  28.786  1.00  0.00    -0.269 OA
BRANCH  29  32
ATOM     32  C   UNL A   1      34.179  34.383  29.287  1.00  0.00     0.039 A 
ATOM     33  C   UNL A   1      33.989  33.746  30.518  1.00  0.00     0.014 A 
ATOM     34  C   UNL A   1      35.471  34.580  28.795  1.00  0.00     0.014 A 
ATOM     35  C   UNL A   1      35.086  33.231  31.211  1.00  0.00     0.010 A 
ATOM     36  C   UNL A   1      36.558  34.008  29.452  1.00  0.00     0.010 A 
ATOM     37  C   UNL A   1      36.375  33.317  30.661  1.00  0.00    -0.014 A 
BRANCH  37  38
ATOM     38  C   UNL A   1      37.541  32.665  31.309  1.00  0.00     0.031 A 
ATOM     39  C   UNL A   1      38.229  31.506  30.647  1.00  0.00     0.074 A 
ATOM     40  C   UNL A   1      37.918  33.061  32.541  1.00  0.00     0.049 A 
ATOM     41  N   UNL A   1      39.178  30.732  31.109  1.00  0.00    -0.248 NA
ATOM     42  C   UNL A   1      37.772  31.154  29.294  1.00  0.00     0.031 C 
ATOM     43  C   UNL A   1      37.302  34.146  33.306  1.00  0.00     0.029 A 
ATOM     44  N   UNL A   1      38.895  32.579  33.377  1.00  0.00    -0.354 N 
ATOM     45  C   UNL A   1      39.420  29.794  30.115  1.00  0.00     0.074 A 
ATOM     46  C   UNL A   1      38.489  30.068  29.040  1.00  0.00     0.031 C 
ATOM     47  C   UNL A   1      37.919  34.254  34.492  1.00  0.00     0.029 A 
ATOM     48  C   UNL A   1      38.943  33.220  34.592  1.00  0.00     0.049 A 
ATOM     49  H   UNL A   1      39.504  31.846  33.130  1.00  0.00     0.167 HD
ATOM     50  C   UNL A   1      40.345  28.806  30.095  1.00  0.00     0.037 A 
ATOM     51  C   UNL A   1      39.711  32.985  35.673  1.00  0.00     0.037 A 
ATOM     52  C   UNL A   1      41.284  28.552  31.157  1.00  0.00     0.049 A 
ATOM     53  C   UNL A   1      40.714  31.865  35.633  1.00  0.00     0.074 A 
ATOM     54  C   UNL A   1      42.307  27.622  31.198  1.00  0.00     0.029 A 
ATOM     55  N   UNL A   1      41.309  29.228  32.367  1.00  0.00    -0.354 N 
ATOM     56  N   UNL A   1      40.981  31.028  34.661  1.00  0.00    -0.248 NA
ATOM     57  C   UNL A   1      41.522  31.655  36.843  1.00  0.00     0.031 C 
ATOM     58  C   UNL A   1      42.921  27.701  32.453  1.00  0.00     0.029 A 
ATOM     59  C   UNL A   1      42.310  28.714  33.175  1.00  0.00     0.049 A 
ATOM     60  H   UNL A   1      40.704  29.965  32.615  1.00  0.00     0.167 HD
ATOM     61  C   UNL A   1      41.997  30.208  35.130  1.00  0.00     0.074 A 
ATOM     62  C   UNL A   1      42.311  30.657  36.471  1.00  0.00     0.031 C 
ATOM     63  C   UNL A   1      42.611  29.173  34.507  1.00  0.00     0.037 A 
BRANCH  50  64
ATOM     64  C   UNL A   1      40.391  27.919  28.884  1.00  0.00     0.064 A 
ATOM     65  C   UNL A   1      39.646  26.732  28.814  1.00  0.00     0.173 A 
ATOM     66  C   UNL A   1      41.151  28.284  27.763  1.00  0.00     0.173 A 
ATOM     67  F   UNL A   1      38.909  26.333  29.862  1.00  0.00    -0.203 F 
ATOM     68  C   UNL A   1      39.682  25.929  27.677  1.00  0.00     0.198 A 
ATOM     69  C   UNL A   1      41.162  27.494  26.616  1.00  0.00     0.198 A 
ATOM     70  F   UNL A   1      41.875  29.413  27.774  1.00  0.00    -0.203 F 
ATOM     71  F   UNL A   1      38.998  24.777  27.650  1.00  0.00    -0.200 F 
ATOM     72  C   UNL A   1      40.435  26.315  26.577  1.00  0.00     0.200 A 
ATOM     73  F   UNL A   1      41.878  27.874  25.549  1.00  0.00    -0.200 F 
ATOM     74  F   UNL A   1      40.462  25.545  25.479  1.00  0.00    -0.200 F 
ENDBRANCH  50  64
BRANCH  51  75
ATOM     75  C   UNL A   1      39.564  33.834  36.884  1.00  0.00     0.064 A 
ATOM     76  C   UNL A   1      38.756  33.422  37.953  1.00  0.00     0.173 A 
ATOM     77  C   UNL A   1      40.222  35.067  36.999  1.00  0.00     0.173 A 
ATOM     78  F   UNL A   1      38.086  32.264  37.878  1.00  0.00    -0.203 F 
ATOM     79  C   UNL A   1      38.601  34.220  39.084  1.00  0.00     0.198 A 
ATOM     80  C   UNL A   1      40.090  35.850  38.144  1.00  0.00     0.198 A 
ATOM     81  F   UNL A   1      41.002  35.506  36.000  1.00  0.00    -0.203 F 
ATOM     82  F   UNL A   1      37.788  33.825  40.073  1.00  0.00    -0.200 F 
ATOM     83  C   UNL A   1      39.273  35.429  39.182  1.00  0.00     0.200 A 
ATOM     84  F   UNL A   1      40.746  37.014  38.239  1.00  0.00    -0.200 F 
ATOM     85  F   UNL A   1      39.126  36.193  40.273  1.00  0.00    -0.200 F 
ENDBRANCH  51  75
BRANCH  63  86
ATOM     86  C   UNL A   1      43.701  28.464  35.258  1.00  0.00     0.064 A 
ATOM     87  C   UNL A   1      45.025  28.924  35.232  1.00  0.00     0.173 A 
ATOM     88  C   UNL A   1      43.406  27.350  36.057  1.00  0.00     0.173 A 
ATOM     89  F   UNL A   1      45.360  29.976  34.469  1.00  0.00    -0.203 F 
ATOM     90  C   UNL A   1      46.019  28.283  35.968  1.00  0.00     0.198 A 
ATOM     91  C   UNL A   1      44.395  26.729  36.813  1.00  0.00     0.198 A 
ATOM     92  F   UNL A   1      42.153  26.874  36.119  1.00  0.00    -0.203 F 
ATOM     93  F   UNL A   1      47.285  28.716  35.900  1.00  0.00    -0.200 F 
ATOM     94  C   UNL A   1      45.701  27.194  36.765  1.00  0.00     0.200 A 
ATOM     95  F   UNL A   1      44.085  25.684  37.593  1.00  0.00    -0.200 F 
ATOM     96  F   UNL A   1      46.656  26.586  37.483  1.00  0.00    -0.200 F 
ENDBRANCH  63  86
ENDBRANCH  37  38
ENDBRANCH  29  32
ENDBRANCH  27  28
ENDBRANCH  26  27
ENDBRANCH   1  26
TORSDOF 13
ENDMDL
MODEL 2
REMARK VINA RESULT:     -13.1      5.328     10.997
REMARK SMILES COc1cc(/C=C2\SC(=S)N(CC(=O)NCCCNC(=O)c3ccc(-c4c5nc(c(-c6c(F)c(F)c(F)c(F)c6F)c6ccc([nH]6)c(-c6c(F)c(F)c(F)c(F)c6F)c6nc(c(-c7c(F)c(F)c(F)c(F)c7F)c7ccc4[nH]7)C=C6)C=C5)cc3)C2=O)cc2c1OCO2
REMARK SMILES IDX 16 1 15 2 13 3 14 4 12 6 11 7 6 8 7 9 8 10 85 11 9 12 86 13
REMARK SMILES IDX 10 14 5 15 3 16 4 17 89 18 88 19 90 20 87 21 92 22 91 23
REMARK SMILES IDX 2 24 1 25 17 26 18 27 19 28 20 29 21 31 22 32 23 33 84 34
REMARK SMILES IDX 24 35 83 36 25 37 26 38 27 39 77 40 28 41 82 42 76 43 78 44
REMARK SMILES IDX 29 45 81 46 75 47 74 48 30 50 62 51 42 52 61 53 43 54 46 55
REMARK SMILES IDX 60 56 79 57 44 58 45 59 59 61 80 62 47 63 31 64 32 65 40 66
REMARK SMILES IDX 33 67 34 68 38 69 41 70 35 71 36 72 39 73 37 74 63 75 64 76
REMARK SMILES IDX 72 77 65 78 66 79 70 80 73 81 67 82 68 83 71 84 69 85 48 86
REMARK SMILES IDX 49 87 57 88 50 89 51 90 55 91 58 92 52 93 53 94 56 95 54 96
REMARK H PARENT 15 5 19 30 78 49 46 60
REMARK Flexibility Score: inf
ROOT
ATOM      1  C   UNL A   1      36.778  21.009  24.876  1.00  0.00     0.117 C 
ENDROOT
BRANCH   1   2
ATOM      2  N   UNL A   1      36.079  21.251  26.121  1.00  0.00    -0.354 N 
ATOM      3  C   UNL A   1      34.777  21.578  26.354  1.00  0.00     0.240 C 
ATOM      4  O   UNL A   1      34.369  21.443  27.510  1.00  0.00    -0.273 OA
ATOM      5  H   UNL A   1      36.634  21.164  26.929  1.00  0.00     0.163 HD
BRANCH   3   6
ATOM      6  C   UNL A   1      33.806  21.923  25.219  1.00  0.00     0.227 C 
BRANCH   6   7
ATOM      7  N   UNL A   1      33.198  23.251  25.312  1.00  0.00    -0.283 N 
ATOM      8  C   UNL A   1      33.871  26.807  25.377  1.00  0.00     0.029 C 
ATOM      9  C   UNL A   1      33.277  25.606  25.414  1.00  0.00     0.081 C 
ATOM     10  S   UNL A   1      31.615  25.249  25.658  1.00  0.00    -0.054 SA
ATOM     11  C   UNL A   1      34.042  24.346  25.220  1.00  0.00     0.266 C 
ATOM     12  C   UNL A   1      31.892  23.514  25.665  1.00  0.00     0.148 C 
ATOM     13  O   UNL A   1      35.244  24.311  25.017  1.00  0.00    -0.268 OA
ATOM     14  S   UNL A   1      30.684  22.441  26.077  1.00  0.00    -0.052 S 
BRANCH   8  15
ATOM     15  C   UNL A   1      33.199  28.102  25.541  1.00  0.00    -0.017 A 
ATOM     16  C   UNL A   1      31.379  29.599  24.876  1.00  0.00     0.165 A 
ATOM     17  C   UNL A   1      32.065  28.384  24.754  1.00  0.00     0.058 A 
ATOM     18  C   UNL A   1      31.828  30.499  25.826  1.00  0.00     0.207 A 
ATOM     19  C   UNL A   1      32.946  30.227  26.586  1.00  0.00     0.170 A 
ATOM     20  O   UNL A   1      31.276  31.697  26.166  1.00  0.00    -0.450 OA
ATOM     21  C   UNL A   1      33.665  29.057  26.451  1.00  0.00     0.059 A 
ATOM     22  O   UNL A   1      33.232  31.216  27.477  1.00  0.00    -0.453 OA
ATOM     23  C   UNL A   1      32.115  32.097  27.266  1.00  0.00     0.468 C 
BRANCH  16  24
ATOM     24  O   UNL A   1      30.289  29.740  24.067  1.00  0.00    -0.493 OA
ATOM     25  C   UNL A   1      30.095  28.687  23.130  1.00  0.00     0.278 C 
ENDBRANCH  16  24
ENDBRANCH   8  15
ENDBRANCH   6   7
ENDBRANCH   3   6
ENDBRANCH   1   2
BRANCH   1  26
ATOM     26  C   UNL A   1      37.819  19.901  24.994  1.00  0.00     0.042 C 
BRANCH  26  27
ATOM     27  C   UNL A   1      39.035  20.283  25.837  1.00  0.00     0.118 C 
BRANCH  27  28
ATOM     28  N   UNL A   1      40.067  19.254  25.841  1.00  0.00    -0.352 N 
ATOM     29  C   UNL A   1      41.420  19.350  26.054  1.00  0.00     0.251 C 
ATOM     30  H   UNL A   1      39.741  18.342  25.661  1.00  0.00     0.163 HD
ATOM     31  O   UNL A   1      42.138  18.376  25.846  1.00  0.00    -0.269 OA
BRANCH  29  32
ATOM     32  C   UNL A   1      42.024  20.620  26.509  1.00  0.00     0.039 A 
ATOM     33  C   UNL A   1      42.540  21.501  25.552  1.00  0.00     0.014 A 
ATOM     34  C   UNL A   1      42.106  20.938  27.866  1.00  0.00     0.014 A 
ATOM     35  C   UNL A   1      43.057  22.735  25.950  1.00  0.00     0.010 A 
ATOM     36  C   UNL A   1      42.560  22.195  28.258  1.00  0.00     0.010 A 
ATOM     37  C   UNL A   1      43.029  23.111  27.303  1.00  0.00    -0.014 A 
BRANCH  37  38
ATOM     38  C   UNL A   1      43.450  24.466  27.740  1.00  0.00     0.031 A 
ATOM     39  C   UNL A   1      42.423  25.514  28.063  1.00  0.00     0.074 A 
ATOM     40  C   UNL A   1      44.761  24.778  27.755  1.00  0.00     0.049 A 
ATOM     41  N   UNL A   1      42.593  26.782  28.340  1.00  0.00    -0.248 NA
ATOM     42  C   UNL A   1      41.016  25.085  28.047  1.00  0.00     0.031 C 
ATOM     43  C   UNL A   1      45.852  23.860  27.421  1.00  0.00     0.029 A 
ATOM     44  N   UNL A   1      45.399  25.960  28.038  1.00  0.00    -0.354 N 
ATOM     45  C   UNL A   1      41.319  27.305  28.515  1.00  0.00     0.074 A 
ATOM     46  C   UNL A   1      40.383  26.228  28.271  1.00  0.00     0.031 C 
ATOM     47  C   UNL A   1      47.021  24.509  27.527  1.00  0.00     0.029 A 
ATOM     48  C   UNL A   1      46.763  25.898  27.892  1.00  0.00     0.049 A 
ATOM     49  H   UNL A   1      44.923  26.775  28.320  1.00  0.00     0.167 HD
ATOM     50  C   UNL A   1      40.965  28.564  28.863  1.00  0.00     0.037 A 
ATOM     51  C   UNL A   1      47.700  26.858  28.017  1.00  0.00     0.037 A 
ATOM     52  C   UNL A   1      41.901  29.627  29.128  1.00  0.00     0.049 A 
ATOM     53  C   UNL A   1      47.277  28.255  28.380  1.00  0.00     0.074 A 
ATOM     54  C   UNL A   1      41.643  30.916  29.558  1.00  0.00     0.029 A 
ATOM     55  N   UNL A   1      43.277  29.522  28.979  1.00  0.00    -0.354 N 
ATOM     56  N   UNL A   1      46.074  28.721  28.610  1.00  0.00    -0.248 NA
ATOM     57  C   UNL A   1      48.343  29.260  28.500  1.00  0.00     0.031 C 
ATOM     58  C   UNL A   1      42.858  31.607  29.624  1.00  0.00     0.029 A 
ATOM     59  C   UNL A   1      43.877  30.734  29.280  1.00  0.00     0.049 A 
ATOM     60  H   UNL A   1      43.755  28.707  28.702  1.00  0.00     0.167 HD
ATOM     61  C   UNL A   1      46.237  30.064  28.921  1.00  0.00     0.074 A 
ATOM     62  C   UNL A   1      47.659  30.336  28.865  1.00  0.00     0.031 C 
ATOM     63  C   UNL A   1      45.294  30.988  29.221  1.00  0.00     0.037 A 
BRANCH  50  64
ATOM     64  C   UNL A   1      39.500  28.869  28.980  1.00  0.00     0.064 A 
ATOM     65  C   UNL A   1      38.823  28.767  30.204  1.00  0.00     0.173 A 
ATOM     66  C   UNL A   1      38.775  29.315  27.864  1.00  0.00     0.173 A 
ATOM     67  F   UNL A   1      39.469  28.338  31.300  1.00  0.00    -0.203 F 
ATOM     68  C   UNL A   1      37.468  29.073  30.303  1.00  0.00     0.198 A 
ATOM     69  C   UNL A   1      37.426  29.647  27.972  1.00  0.00     0.198 A 
ATOM     70  F   UNL A   1      39.375  29.438  26.672  1.00  0.00    -0.203 F 
ATOM     71  F   UNL A   1      36.832  28.925  31.473  1.00  0.00    -0.200 F 
ATOM     72  C   UNL A   1      36.773  29.519  29.188  1.00  0.00     0.200 A 
ATOM     73  F   UNL A   1      36.759  30.092  26.898  1.00  0.00    -0.200 F 
ATOM     74  F   UNL A   1      35.471  29.822  29.286  1.00  0.00    -0.200 F 
ENDBRANCH  50  64
BRANCH  51  75
ATOM     75  C   UNL A   1      49.132  26.527  27.800  1.00  0.00     0.064 A 
ATOM     76  C   UNL A   1      49.987  26.300  28.887  1.00  0.00     0.173 A 
ATOM     77  C   UNL A   1      49.675  26.431  26.510  1.00  0.00     0.173 A 
ATOM     78  F   UNL A   1      49.520  26.406  30.140  1.00  0.00    -0.203 F 
ATOM     79  C   UNL A   1      51.335  26.005  28.692  1.00  0.00     0.198 A 
ATOM     80  C   UNL A   1      51.016  26.107  26.316  1.00  0.00     0.198 A 
ATOM     81  F   UNL A   1      48.898  26.645  25.439  1.00  0.00    -0.203 F 
ATOM     82  F   UNL A   1      52.141  25.836  29.749  1.00  0.00    -0.200 F 
ATOM     83  C   UNL A   1      51.846  25.901  27.407  1.00  0.00     0.200 A 
ATOM     84  F   UNL A   1      51.507  25.999  25.074  1.00  0.00    -0.200 F 
ATOM     85  F   UNL A   1      53.142  25.613  27.221  1.00  0.00    -0.200 F 
ENDBRANCH  51  75
BRANCH  63  86
ATOM     86  C   UNL A   1      45.765  32.379  29.533  1.00  0.00     0.064 A 
ATOM     87  C   UNL A   1      45.768  33.386  28.556  1.00  0.00     0.173 A 
ATOM     88  C   UNL A   1      46.162  32.721  30.833  1.00  0.00     0.173 A 
ATOM     89  F   UNL A   1      45.414  33.103  27.294  1.00  0.00    -0.203 F 
ATOM     90  C   UNL A   1      46.167  34.683  28.869  1.00  0.00     0.198 A 
ATOM     91  C   UNL A   1      46.534  34.025  31.149  1.00  0.00     0.198 A 
ATOM     92  F   UNL A   1      46.172  31.795  31.803  1.00  0.00    -0.203 F 
ATOM     93  F   UNL A   1      46.199  35.621  27.912  1.00  0.00    -0.200 F 
ATOM     94  C   UNL A   1      46.540  35.004  30.166  1.00  0.00     0.200 A 
ATOM     95  F   UNL A   1      46.881  34.336  32.405  1.00  0.00    -0.200 F 
ATOM     96  F   UNL A   1      46.911  36.255  30.468  1.00  0.00    -0.200 F 
ENDBRANCH  63  86
ENDBRANCH  37  38
ENDBRANCH  29  32
ENDBRANCH  27  28
ENDBRANCH  26  27
ENDBRANCH   1  26
TORSDOF 13
ENDMDL
MODEL 3
REMARK VINA RESULT:     -13.0      0.746      2.422
REMARK SMILES COc1cc(/C=C2\SC(=S)N(CC(=O)NCCCNC(=O)c3ccc(-c4c5nc(c(-c6c(F)c(F)c(F)c(F)c6F)c6ccc([nH]6)c(-c6c(F)c(F)c(F)c(F)c6F)c6nc(c(-c7c(F)c(F)c(F)c(F)c7F)c7ccc4[nH]7)C=C6)C=C5)cc3)C2=O)cc2c1OCO2
REMARK SMILES IDX 16 1 15 2 13 3 14 4 12 6 11 7 6 8 7 9 8 10 85 11 9 12 86 13
REMARK SMILES IDX 10 14 5 15 3 16 4 17 89 18 88 19 90 20 87 21 92 22 91 23
REMARK SMILES IDX 2 24 1 25 17 26 18 27 19 28 20 29 21 31 22 32 23 33 84 34
REMARK SMILES IDX 24 35 83 36 25 37 26 38 27 39 77 40 28 41 82 42 76 43 78 44
REMARK SMILES IDX 29 45 81 46 75 47 74 48 30 50 62 51 42 52 61 53 43 54 46 55
REMARK SMILES IDX 60 56 79 57 44 58 45 59 59 61 80 62 47 63 31 64 32 65 40 66
REMARK SMILES IDX 33 67 34 68 38 69 41 70 35 71 36 72 39 73 37 74 63 75 64 76
REMARK SMILES IDX 72 77 65 78 66 79 70 80 73 81 67 82 68 83 71 84 69 85 48 86
REMARK SMILES IDX 49 87 57 88 50 89 51 90 55 91 58 92 52 93 53 94 56 95 54 96
REMARK H PARENT 15 5 19 30 78 49 46 60
REMARK Flexibility Score: inf
ROOT
ATOM      1  C   UNL A   1      31.558  30.564  26.281  1.00  0.00     0.117 C 
ENDROOT
BRANCH   1   2
ATOM      2  N   UNL A   1      32.475  30.226  25.213  1.00  0.00    -0.354 N 
ATOM      3  C   UNL A   1      32.480  29.169  24.353  1.00  0.00     0.240 C 
ATOM      4  O   UNL A   1      33.199  29.267  23.356  1.00  0.00    -0.273 OA
ATOM      5  H   UNL A   1      33.214  30.864  25.086  1.00  0.00     0.163 HD
BRANCH   3   6
ATOM      6  C   UNL A   1      31.514  27.988  24.505  1.00  0.00     0.227 C 
BRANCH   6   7
ATOM      7  N   UNL A   1      32.126  26.669  24.353  1.00  0.00    -0.283 N 
ATOM      8  C   UNL A   1      34.245  24.198  25.938  1.00  0.00     0.029 C 
ATOM      9  C   UNL A   1      33.476  24.873  25.072  1.00  0.00     0.081 C 
ATOM     10  S   UNL A   1      33.031  24.426  23.475  1.00  0.00    -0.054 SA
ATOM     11  C   UNL A   1      32.861  26.180  25.422  1.00  0.00     0.266 C 
ATOM     12  C   UNL A   1      32.193  25.943  23.183  1.00  0.00     0.148 C 
ATOM     13  O   UNL A   1      33.007  26.727  26.502  1.00  0.00    -0.268 OA
ATOM     14  S   UNL A   1      31.627  26.349  21.669  1.00  0.00    -0.052 S 
BRANCH   8  15
ATOM     15  C   UNL A   1      34.879  22.898  25.690  1.00  0.00    -0.017 A 
ATOM     16  C   UNL A   1      34.612  20.510  25.219  1.00  0.00     0.165 A 
ATOM     17  C   UNL A   1      34.060  21.772  25.471  1.00  0.00     0.058 A 
ATOM     18  C   UNL A   1      35.990  20.412  25.153  1.00  0.00     0.207 A 
ATOM     19  C   UNL A   1      36.790  21.511  25.380  1.00  0.00     0.170 A 
ATOM     20  O   UNL A   1      36.733  19.310  24.849  1.00  0.00    -0.450 OA
ATOM     21  C   UNL A   1      36.271  22.755  25.676  1.00  0.00     0.059 A 
ATOM     22  O   UNL A   1      38.117  21.233  25.259  1.00  0.00    -0.453 OA
ATOM     23  C   UNL A   1      38.064  19.860  24.831  1.00  0.00     0.468 C 
BRANCH  16  24
ATOM     24  O   UNL A   1      33.710  19.508  25.009  1.00  0.00    -0.493 OA
ATOM     25  C   UNL A   1      32.628  19.843  24.147  1.00  0.00     0.278 C 
ENDBRANCH  16  24
ENDBRANCH   8  15
ENDBRANCH   6   7
ENDBRANCH   3   6
ENDBRANCH   1   2
BRANCH   1  26
ATOM     26  C   UNL A   1      31.427  32.068  26.486  1.00  0.00     0.042 C 
BRANCH  26  27
ATOM     27  C   UNL A   1      32.564  32.684  27.300  1.00  0.00     0.118 C 
BRANCH  27  28
ATOM     28  N   UNL A   1      32.335  34.085  27.625  1.00  0.00    -0.352 N 
ATOM     29  C   UNL A   1      32.959  34.903  28.536  1.00  0.00     0.251 C 
ATOM     30  H   UNL A   1      31.616  34.517  27.107  1.00  0.00     0.163 HD
ATOM     31  O   UNL A   1      32.495  36.015  28.770  1.00  0.00    -0.269 OA
BRANCH  29  32
ATOM     32  C   UNL A   1      34.167  34.447  29.254  1.00  0.00     0.039 A 
ATOM     33  C   UNL A   1      34.031  33.955  30.557  1.00  0.00     0.014 A 
ATOM     34  C   UNL A   1      35.432  34.522  28.665  1.00  0.00     0.014 A 
ATOM     35  C   UNL A   1      35.148  33.459  31.233  1.00  0.00     0.010 A 
ATOM     36  C   UNL A   1      36.532  33.967  29.313  1.00  0.00     0.010 A 
ATOM     37  C   UNL A   1      36.399  33.419  30.599  1.00  0.00    -0.014 A 
BRANCH  37  38
ATOM     38  C   UNL A   1      37.575  32.779  31.241  1.00  0.00     0.031 A 
ATOM     39  C   UNL A   1      38.271  31.627  30.576  1.00  0.00     0.074 A 
ATOM     40  C   UNL A   1      37.954  33.178  32.471  1.00  0.00     0.049 A 
ATOM     41  N   UNL A   1      39.231  30.863  31.034  1.00  0.00    -0.248 NA
ATOM     42  C   UNL A   1      37.812  31.270  29.225  1.00  0.00     0.031 C 
ATOM     43  C   UNL A   1      37.330  34.258  33.239  1.00  0.00     0.029 A 
ATOM     44  N   UNL A   1      38.939  32.707  33.303  1.00  0.00    -0.354 N 
ATOM     45  C   UNL A   1      39.477  29.927  30.038  1.00  0.00     0.074 A 
ATOM     46  C   UNL A   1      38.539  30.192  28.968  1.00  0.00     0.031 C 
ATOM     47  C   UNL A   1      37.952  34.371  34.423  1.00  0.00     0.029 A 
ATOM     48  C   UNL A   1      38.986  33.348  34.518  1.00  0.00     0.049 A 
ATOM     49  H   UNL A   1      39.555  31.980  33.053  1.00  0.00     0.167 HD
ATOM     50  C   UNL A   1      40.412  28.948  30.014  1.00  0.00     0.037 A 
ATOM     51  C   UNL A   1      39.762  33.121  35.595  1.00  0.00     0.037 A 
ATOM     52  C   UNL A   1      41.359  28.704  31.072  1.00  0.00     0.049 A 
ATOM     53  C   UNL A   1      40.776  32.011  35.550  1.00  0.00     0.074 A 
ATOM     54  C   UNL A   1      42.392  27.784  31.108  1.00  0.00     0.029 A 
ATOM     55  N   UNL A   1      41.383  29.381  32.282  1.00  0.00    -0.354 N 
ATOM     56  N   UNL A   1      41.047  31.177  34.577  1.00  0.00    -0.248 NA
ATOM     57  C   UNL A   1      41.592  31.810  36.757  1.00  0.00     0.031 C 
ATOM     58  C   UNL A   1      43.010  27.870  32.360  1.00  0.00     0.029 A 
ATOM     59  C   UNL A   1      42.393  28.877  33.085  1.00  0.00     0.049 A 
ATOM     60  H   UNL A   1      40.772  30.112  32.533  1.00  0.00     0.167 HD
ATOM     61  C   UNL A   1      42.074  30.367  35.041  1.00  0.00     0.074 A 
ATOM     62  C   UNL A   1      42.390  30.820  36.381  1.00  0.00     0.031 C 
ATOM     63  C   UNL A   1      42.696  29.339  34.415  1.00  0.00     0.037 A 
BRANCH  50  64
ATOM     64  C   UNL A   1      40.462  28.062  28.803  1.00  0.00     0.064 A 
ATOM     65  C   UNL A   1      41.244  28.387  27.686  1.00  0.00     0.173 A 
ATOM     66  C   UNL A   1      39.755  26.849  28.780  1.00  0.00     0.173 A 
ATOM     67  F   UNL A   1      41.932  29.538  27.654  1.00  0.00    -0.203 F 
ATOM     68  C   UNL A   1      41.297  27.545  26.578  1.00  0.00     0.198 A 
ATOM     69  C   UNL A   1      39.833  25.996  27.682  1.00  0.00     0.198 A 
ATOM     70  F   UNL A   1      38.998  26.487  29.826  1.00  0.00    -0.203 F 
ATOM     71  F   UNL A   1      42.016  27.898  25.503  1.00  0.00    -0.200 F 
ATOM     72  C   UNL A   1      40.596  26.347  26.580  1.00  0.00     0.200 A 
ATOM     73  F   UNL A   1      39.167  24.833  27.691  1.00  0.00    -0.200 F 
ATOM     74  F   UNL A   1      40.655  25.534  25.516  1.00  0.00    -0.200 F 
ENDBRANCH  50  64
BRANCH  51  75
ATOM     75  C   UNL A   1      39.612  33.968  36.807  1.00  0.00     0.064 A 
ATOM     76  C   UNL A   1      40.289  35.191  36.914  1.00  0.00     0.173 A 
ATOM     77  C   UNL A   1      38.795  33.577  37.877  1.00  0.00     0.173 A 
ATOM     78  F   UNL A   1      41.102  35.595  35.928  1.00  0.00    -0.203 F 
ATOM     79  C   UNL A   1      40.165  35.983  38.053  1.00  0.00     0.198 A 
ATOM     80  C   UNL A   1      38.649  34.384  39.004  1.00  0.00     0.198 A 
ATOM     81  F   UNL A   1      38.131  32.413  37.824  1.00  0.00    -0.203 F 
ATOM     82  F   UNL A   1      40.857  37.126  38.150  1.00  0.00    -0.200 F 
ATOM     83  C   UNL A   1      39.340  35.583  39.094  1.00  0.00     0.200 A 
ATOM     84  F   UNL A   1      37.845  33.999  40.005  1.00  0.00    -0.200 F 
ATOM     85  F   UNL A   1      39.219  36.348  40.187  1.00  0.00    -0.200 F 
ENDBRANCH  51  75
BRANCH  63  86
ATOM     86  C   UNL A   1      43.796  28.641  35.162  1.00  0.00     0.064 A 
ATOM     87  C   UNL A   1      43.540  27.512  35.954  1.00  0.00     0.173 A 
ATOM     88  C   UNL A   1      45.125  29.071  35.036  1.00  0.00     0.173 A 
ATOM     89  F   UNL A   1      42.283  27.073  36.118  1.00  0.00    -0.203 F 
ATOM     90  C   UNL A   1      44.576  26.849  36.606  1.00  0.00     0.198 A 
ATOM     91  C   UNL A   1      46.160  28.389  35.667  1.00  0.00     0.198 A 
ATOM     92  F   UNL A   1      45.421  30.143  34.287  1.00  0.00    -0.203 F 
ATOM     93  F   UNL A   1      44.306  25.794  37.388  1.00  0.00    -0.200 F 
ATOM     94  C   UNL A   1      45.885  27.280  36.454  1.00  0.00     0.200 A 
ATOM     95  F   UNL A   1      47.426  28.800  35.510  1.00  0.00    -0.200 F 
ATOM     96  F   UNL A   1      46.882  26.632  37.072  1.00  0.00    -0.200 F 
ENDBRANCH  63  86
ENDBRANCH  37  38
ENDBRANCH  29  32
ENDBRANCH  27  28
ENDBRANCH  26  27
ENDBRANCH   1  26
TORSDOF 13
ENDMDL
