MODEL 1
REMARK VINA RESULT:     -12.1      0.000      0.000
REMARK SMILES CCOC(=O)C1=C(C)N(c2ccccc2)C(=O)[C@@H]1CC(=O)NCCCNC(=O)c1ccc(-c2c3nc(c(-c4c(F)c(F)c(F)c(F)c4F)c4ccc([nH]4)c(-c4c(F)c(F)c(F)c(F)c4F)c4nc(c(-c5c(F)c(F)c(F)c(F)c5F)c5ccc2[nH]5)C=C4)C=C3)cc1
REMARK SMILES IDX 23 1 22 2 20 3 21 4 19 6 18 7 6 8 7 9 8 10 9 11 16 12 17 13
REMARK SMILES IDX 4 14 5 15 3 16 2 17 1 18 10 19 11 20 15 21 12 22 14 23 13 24
REMARK SMILES IDX 24 25 25 26 26 27 27 28 28 30 29 31 30 32 91 33 31 34 90 35
REMARK SMILES IDX 32 36 33 37 34 38 84 39 35 40 89 41 83 42 85 43 36 44 88 45
REMARK SMILES IDX 82 46 81 47 37 49 69 50 49 51 68 52 50 53 53 54 67 55 86 56
REMARK SMILES IDX 51 57 52 58 66 60 87 61 54 62 38 63 39 64 47 65 40 66 41 67
REMARK SMILES IDX 45 68 48 69 42 70 43 71 46 72 44 73 70 74 71 75 79 76 72 77
REMARK SMILES IDX 73 78 77 79 80 80 74 81 75 82 78 83 76 84 55 85 56 86 64 87
REMARK SMILES IDX 57 88 58 89 62 90 65 91 59 92 60 93 63 94 61 95
REMARK H PARENT 22 5 26 29 85 48 53 59
REMARK Flexibility Score: inf
ROOT
ATOM      1  C   UNL A   1      33.834  28.620  22.829  1.00  0.00     0.117 C 
ENDROOT
BRANCH   1   2
ATOM      2  N   UNL A   1      33.490  27.490  21.975  1.00  0.00    -0.356 N 
ATOM      3  C   UNL A   1      33.498  26.150  22.216  1.00  0.00     0.221 C 
ATOM      4  O   UNL A   1      33.271  25.381  21.281  1.00  0.00    -0.275 OA
ATOM      5  H   UNL A   1      33.201  27.739  21.067  1.00  0.00     0.163 HD
BRANCH   3   6
ATOM      6  C   UNL A   1      33.732  25.616  23.609  1.00  0.00     0.118 C 
BRANCH   6   7
ATOM      7  C   UNL A   1      33.706  24.087  23.666  1.00  0.00     0.128 C 
ATOM      8  C   UNL A   1      33.240  23.643  25.030  1.00  0.00     0.070 C 
ATOM      9  C   UNL A   1      34.262  23.290  25.824  1.00  0.00     0.034 C 
ATOM     10  C   UNL A   1      34.260  22.852  27.248  1.00  0.00     0.065 C 
ATOM     11  N   UNL A   1      35.418  23.312  25.077  1.00  0.00    -0.284 N 
ATOM     12  C   UNL A   1      35.119  23.535  23.729  1.00  0.00     0.239 C 
ATOM     13  O   UNL A   1      35.828  23.339  22.755  1.00  0.00    -0.273 OA
BRANCH   8  14
ATOM     14  C   UNL A   1      31.819  23.620  25.383  1.00  0.00     0.336 C 
ATOM     15  O   UNL A   1      31.057  22.707  25.139  1.00  0.00    -0.246 OA
BRANCH  14  16
ATOM     16  O   UNL A   1      31.527  24.800  25.981  1.00  0.00    -0.463 OA
BRANCH  16  17
ATOM     17  C   UNL A   1      30.207  25.312  25.763  1.00  0.00     0.230 C 
ATOM     18  C   UNL A   1      30.244  26.487  24.802  1.00  0.00     0.049 C 
ENDBRANCH  16  17
ENDBRANCH  14  16
ENDBRANCH   8  14
BRANCH  11  19
ATOM     19  C   UNL A   1      36.727  23.039  25.509  1.00  0.00     0.049 A 
ATOM     20  C   UNL A   1      37.508  24.030  26.101  1.00  0.00     0.027 A 
ATOM     21  C   UNL A   1      37.244  21.751  25.328  1.00  0.00     0.027 A 
ATOM     22  C   UNL A   1      38.808  23.730  26.514  1.00  0.00     0.002 A 
ATOM     23  C   UNL A   1      38.543  21.454  25.745  1.00  0.00     0.002 A 
ATOM     24  C   UNL A   1      39.323  22.445  26.336  1.00  0.00     0.000 A 
ENDBRANCH  11  19
ENDBRANCH   6   7
ENDBRANCH   3   6
ENDBRANCH   1   2
BRANCH   1  25
ATOM     25  C   UNL A   1      32.712  28.967  23.804  1.00  0.00     0.042 C 
BRANCH  25  26
ATOM     26  C   UNL A   1      33.170  29.161  25.241  1.00  0.00     0.118 C 
BRANCH  26  27
ATOM     27  N   UNL A   1      32.761  30.453  25.764  1.00  0.00    -0.352 N 
ATOM     28  C   UNL A   1      33.230  31.170  26.837  1.00  0.00     0.251 C 
ATOM     29  H   UNL A   1      32.031  30.885  25.267  1.00  0.00     0.163 HD
ATOM     30  O   UNL A   1      32.556  32.112  27.251  1.00  0.00    -0.269 OA
BRANCH  28  31
ATOM     31  C   UNL A   1      34.510  30.840  27.515  1.00  0.00     0.039 A 
ATOM     32  C   UNL A   1      34.686  29.538  28.001  1.00  0.00     0.014 A 
ATOM     33  C   UNL A   1      35.498  31.795  27.770  1.00  0.00     0.014 A 
ATOM     34  C   UNL A   1      35.845  29.196  28.705  1.00  0.00     0.010 A 
ATOM     35  C   UNL A   1      36.698  31.429  28.385  1.00  0.00     0.010 A 
ATOM     36  C   UNL A   1      36.874  30.133  28.888  1.00  0.00    -0.014 A 
BRANCH  36  37
ATOM     37  C   UNL A   1      38.106  29.781  29.647  1.00  0.00     0.031 A 
ATOM     38  C   UNL A   1      38.324  30.317  31.039  1.00  0.00     0.074 A 
ATOM     39  C   UNL A   1      39.045  28.999  29.079  1.00  0.00     0.049 A 
ATOM     40  N   UNL A   1      39.338  30.130  31.850  1.00  0.00    -0.248 NA
ATOM     41  C   UNL A   1      37.282  31.199  31.583  1.00  0.00     0.031 C 
ATOM     42  C   UNL A   1      38.986  28.460  27.720  1.00  0.00     0.029 A 
ATOM     43  N   UNL A   1      40.232  28.520  29.576  1.00  0.00    -0.354 N 
ATOM     44  C   UNL A   1      39.061  30.887  32.983  1.00  0.00     0.074 A 
ATOM     45  C   UNL A   1      37.814  31.577  32.736  1.00  0.00     0.031 C 
ATOM     46  C   UNL A   1      40.071  27.697  27.503  1.00  0.00     0.029 A 
ATOM     47  C   UNL A   1      40.915  27.718  28.694  1.00  0.00     0.049 A 
ATOM     48  H   UNL A   1      40.563  28.734  30.478  1.00  0.00     0.167 HD
ATOM     49  C   UNL A   1      39.766  30.979  34.137  1.00  0.00     0.037 A 
ATOM     50  C   UNL A   1      42.086  27.069  28.831  1.00  0.00     0.037 A 
ATOM     51  C   UNL A   1      40.986  30.264  34.403  1.00  0.00     0.049 A 
ATOM     52  C   UNL A   1      42.835  27.163  30.133  1.00  0.00     0.074 A 
ATOM     53  C   UNL A   1      41.740  30.241  35.564  1.00  0.00     0.029 A 
ATOM     54  N   UNL A   1      41.631  29.439  33.493  1.00  0.00    -0.354 N 
ATOM     55  N   UNL A   1      42.526  27.826  31.220  1.00  0.00    -0.248 NA
ATOM     56  C   UNL A   1      44.092  26.406  30.229  1.00  0.00     0.031 C 
ATOM     57  C   UNL A   1      42.859  29.431  35.345  1.00  0.00     0.029 A 
ATOM     58  C   UNL A   1      42.781  28.914  34.062  1.00  0.00     0.049 A 
ATOM     59  H   UNL A   1      41.318  29.255  32.578  1.00  0.00     0.167 HD
ATOM     60  C   UNL A   1      43.533  27.549  32.135  1.00  0.00     0.074 A 
ATOM     61  C   UNL A   1      44.453  26.641  31.482  1.00  0.00     0.031 C 
ATOM     62  C   UNL A   1      43.684  28.008  33.401  1.00  0.00     0.037 A 
BRANCH  49  63
ATOM     63  C   UNL A   1      39.227  31.882  35.209  1.00  0.00     0.064 A 
ATOM     64  C   UNL A   1      38.456  31.382  36.270  1.00  0.00     0.173 A 
ATOM     65  C   UNL A   1      39.512  33.256  35.196  1.00  0.00     0.173 A 
ATOM     66  F   UNL A   1      38.147  30.078  36.325  1.00  0.00    -0.203 F 
ATOM     67  C   UNL A   1      37.965  32.230  37.261  1.00  0.00     0.198 A 
ATOM     68  C   UNL A   1      39.044  34.094  36.204  1.00  0.00     0.198 A 
ATOM     69  F   UNL A   1      40.250  33.784  34.208  1.00  0.00    -0.203 F 
ATOM     70  F   UNL A   1      37.191  31.738  38.238  1.00  0.00    -0.200 F 
ATOM     71  C   UNL A   1      38.265  33.583  37.231  1.00  0.00     0.200 A 
ATOM     72  F   UNL A   1      39.346  35.400  36.181  1.00  0.00    -0.200 F 
ATOM     73  F   UNL A   1      37.798  34.395  38.188  1.00  0.00    -0.200 F 
ENDBRANCH  49  63
BRANCH  50  74
ATOM     74  C   UNL A   1      42.606  26.235  27.717  1.00  0.00     0.064 A 
ATOM     75  C   UNL A   1      43.437  26.788  26.734  1.00  0.00     0.173 A 
ATOM     76  C   UNL A   1      42.284  24.874  27.611  1.00  0.00     0.173 A 
ATOM     77  F   UNL A   1      43.756  28.090  26.781  1.00  0.00    -0.203 F 
ATOM     78  C   UNL A   1      43.912  26.016  25.674  1.00  0.00     0.198 A 
ATOM     79  C   UNL A   1      42.780  24.097  26.567  1.00  0.00     0.198 A 
ATOM     80  F   UNL A   1      41.495  24.297  28.529  1.00  0.00    -0.203 F 
ATOM     81  F   UNL A   1      44.669  26.580  24.725  1.00  0.00    -0.200 F 
ATOM     82  C   UNL A   1      43.588  24.671  25.596  1.00  0.00     0.200 A 
ATOM     83  F   UNL A   1      42.477  22.794  26.501  1.00  0.00    -0.200 F 
ATOM     84  F   UNL A   1      44.047  23.927  24.580  1.00  0.00    -0.200 F 
ENDBRANCH  50  74
BRANCH  62  85
ATOM     85  C   UNL A   1      44.870  27.511  34.174  1.00  0.00     0.064 A 
ATOM     86  C   UNL A   1      46.090  28.203  34.172  1.00  0.00     0.173 A 
ATOM     87  C   UNL A   1      44.778  26.341  34.944  1.00  0.00     0.173 A 
ATOM     88  F   UNL A   1      46.232  29.318  33.439  1.00  0.00    -0.203 F 
ATOM     89  C   UNL A   1      47.184  27.725  34.889  1.00  0.00     0.198 A 
ATOM     90  C   UNL A   1      45.866  25.883  35.682  1.00  0.00     0.198 A 
ATOM     91  F   UNL A   1      43.631  25.647  34.984  1.00  0.00    -0.203 F 
ATOM     92  F   UNL A   1      48.356  28.375  34.831  1.00  0.00    -0.200 F 
ATOM     93  C   UNL A   1      47.070  26.570  35.646  1.00  0.00     0.200 A 
ATOM     94  F   UNL A   1      45.750  24.772  36.423  1.00  0.00    -0.200 F 
ATOM     95  F   UNL A   1      48.124  26.113  36.337  1.00  0.00    -0.200 F 
ENDBRANCH  62  85
ENDBRANCH  36  37
ENDBRANCH  28  31
ENDBRANCH  26  27
ENDBRANCH  25  26
ENDBRANCH   1  25
TORSDOF 15
ENDMDL
MODEL 2
REMARK VINA RESULT:     -11.8      0.260      2.072
REMARK SMILES CCOC(=O)C1=C(C)N(c2ccccc2)C(=O)[C@@H]1CC(=O)NCCCNC(=O)c1ccc(-c2c3nc(c(-c4c(F)c(F)c(F)c(F)c4F)c4ccc([nH]4)c(-c4c(F)c(F)c(F)c(F)c4F)c4nc(c(-c5c(F)c(F)c(F)c(F)c5F)c5ccc2[nH]5)C=C4)C=C3)cc1
REMARK SMILES IDX 23 1 22 2 20 3 21 4 19 6 18 7 6 8 7 9 8 10 9 11 16 12 17 13
REMARK SMILES IDX 4 14 5 15 3 16 2 17 1 18 10 19 11 20 15 21 12 22 14 23 13 24
REMARK SMILES IDX 24 25 25 26 26 27 27 28 28 30 29 31 30 32 91 33 31 34 90 35
REMARK SMILES IDX 32 36 33 37 34 38 84 39 35 40 89 41 83 42 85 43 36 44 88 45
REMARK SMILES IDX 82 46 81 47 37 49 69 50 49 51 68 52 50 53 53 54 67 55 86 56
REMARK SMILES IDX 51 57 52 58 66 60 87 61 54 62 38 63 39 64 47 65 40 66 41 67
REMARK SMILES IDX 45 68 48 69 42 70 43 71 46 72 44 73 70 74 71 75 79 76 72 77
REMARK SMILES IDX 73 78 77 79 80 80 74 81 75 82 78 83 76 84 55 85 56 86 64 87
REMARK SMILES IDX 57 88 58 89 62 90 65 91 59 92 60 93 63 94 61 95
REMARK H PARENT 22 5 26 29 85 48 53 59
REMARK Flexibility Score: inf
ROOT
ATOM      1  C   UNL A   1      33.814  28.729  22.839  1.00  0.00     0.117 C 
ENDROOT
BRANCH   1   2
ATOM      2  N   UNL A   1      33.504  27.606  21.961  1.00  0.00    -0.356 N 
ATOM      3  C   UNL A   1      33.563  26.262  22.171  1.00  0.00     0.221 C 
ATOM      4  O   UNL A   1      33.356  25.506  21.222  1.00  0.00    -0.275 OA
ATOM      5  H   UNL A   1      33.198  27.864  21.062  1.00  0.00     0.163 HD
BRANCH   3   6
ATOM      6  C   UNL A   1      33.828  25.706  23.550  1.00  0.00     0.118 C 
BRANCH   6   7
ATOM      7  C   UNL A   1      33.740  24.179  23.596  1.00  0.00     0.128 C 
ATOM      8  C   UNL A   1      33.253  23.744  24.957  1.00  0.00     0.070 C 
ATOM      9  C   UNL A   1      34.258  23.345  25.750  1.00  0.00     0.034 C 
ATOM     10  C   UNL A   1      34.234  22.897  27.171  1.00  0.00     0.065 C 
ATOM     11  N   UNL A   1      35.416  23.325  25.006  1.00  0.00    -0.284 N 
ATOM     12  C   UNL A   1      35.129  23.570  23.659  1.00  0.00     0.239 C 
ATOM     13  O   UNL A   1      35.833  23.352  22.685  1.00  0.00    -0.273 OA
BRANCH   8  14
ATOM     14  C   UNL A   1      31.831  23.776  25.305  1.00  0.00     0.336 C 
ATOM     15  O   UNL A   1      31.043  22.877  25.093  1.00  0.00    -0.246 OA
BRANCH  14  16
ATOM     16  O   UNL A   1      31.573  24.985  25.859  1.00  0.00    -0.463 OA
BRANCH  16  17
ATOM     17  C   UNL A   1      30.245  25.494  25.680  1.00  0.00     0.230 C 
ATOM     18  C   UNL A   1      30.165  26.340  24.422  1.00  0.00     0.049 C 
ENDBRANCH  16  17
ENDBRANCH  14  16
ENDBRANCH   8  14
BRANCH  11  19
ATOM     19  C   UNL A   1      36.711  22.996  25.439  1.00  0.00     0.049 A 
ATOM     20  C   UNL A   1      37.221  21.711  25.262  1.00  0.00     0.027 A 
ATOM     21  C   UNL A   1      37.487  23.980  26.062  1.00  0.00     0.027 A 
ATOM     22  C   UNL A   1      38.510  21.412  25.708  1.00  0.00     0.002 A 
ATOM     23  C   UNL A   1      38.776  23.679  26.504  1.00  0.00     0.002 A 
ATOM     24  C   UNL A   1      39.285  22.394  26.328  1.00  0.00     0.000 A 
ENDBRANCH  11  19
ENDBRANCH   6   7
ENDBRANCH   3   6
ENDBRANCH   1   2
BRANCH   1  25
ATOM     25  C   UNL A   1      32.752  28.926  23.917  1.00  0.00     0.042 C 
BRANCH  25  26
ATOM     26  C   UNL A   1      33.311  29.234  25.297  1.00  0.00     0.118 C 
BRANCH  26  27
ATOM     27  N   UNL A   1      32.926  30.560  25.747  1.00  0.00    -0.352 N 
ATOM     28  C   UNL A   1      33.339  31.287  26.837  1.00  0.00     0.251 C 
ATOM     29  H   UNL A   1      32.261  31.011  25.179  1.00  0.00     0.163 HD
ATOM     30  O   UNL A   1      32.681  32.273  27.166  1.00  0.00    -0.269 OA
BRANCH  28  31
ATOM     31  C   UNL A   1      34.540  30.918  27.629  1.00  0.00     0.039 A 
ATOM     32  C   UNL A   1      35.493  31.910  27.888  1.00  0.00     0.014 A 
ATOM     33  C   UNL A   1      34.800  29.609  28.042  1.00  0.00     0.014 A 
ATOM     34  C   UNL A   1      36.673  31.599  28.572  1.00  0.00     0.010 A 
ATOM     35  C   UNL A   1      35.928  29.318  28.812  1.00  0.00     0.010 A 
ATOM     36  C   UNL A   1      36.895  30.302  29.060  1.00  0.00    -0.014 A 
BRANCH  36  37
ATOM     37  C   UNL A   1      38.153  29.958  29.779  1.00  0.00     0.031 A 
ATOM     38  C   UNL A   1      38.399  30.472  31.175  1.00  0.00     0.074 A 
ATOM     39  C   UNL A   1      39.089  29.204  29.171  1.00  0.00     0.049 A 
ATOM     40  N   UNL A   1      39.437  30.289  31.955  1.00  0.00    -0.248 NA
ATOM     41  C   UNL A   1      37.356  31.325  31.763  1.00  0.00     0.031 C 
ATOM     42  C   UNL A   1      39.003  28.689  27.805  1.00  0.00     0.029 A 
ATOM     43  N   UNL A   1      40.298  28.738  29.627  1.00  0.00    -0.354 N 
ATOM     44  C   UNL A   1      39.178  31.018  33.109  1.00  0.00     0.074 A 
ATOM     45  C   UNL A   1      37.913  31.690  32.909  1.00  0.00     0.031 C 
ATOM     46  C   UNL A   1      40.095  27.951  27.544  1.00  0.00     0.029 A 
ATOM     47  C   UNL A   1      40.971  27.965  28.712  1.00  0.00     0.049 A 
ATOM     48  H   UNL A   1      40.649  28.940  30.524  1.00  0.00     0.167 HD
ATOM     49  C   UNL A   1      39.913  31.102  34.245  1.00  0.00     0.037 A 
ATOM     50  C   UNL A   1      42.156  27.334  28.806  1.00  0.00     0.037 A 
ATOM     51  C   UNL A   1      41.152  30.404  34.466  1.00  0.00     0.049 A 
ATOM     52  C   UNL A   1      42.938  27.417  30.088  1.00  0.00     0.074 A 
ATOM     53  C   UNL A   1      41.936  30.373  35.605  1.00  0.00     0.029 A 
ATOM     54  N   UNL A   1      41.786  29.608  33.522  1.00  0.00    -0.354 N 
ATOM     55  N   UNL A   1      42.647  28.054  31.196  1.00  0.00    -0.248 NA
ATOM     56  C   UNL A   1      44.210  26.682  30.137  1.00  0.00     0.031 C 
ATOM     57  C   UNL A   1      43.064  29.587  35.341  1.00  0.00     0.029 A 
ATOM     58  C   UNL A   1      42.960  29.093  34.051  1.00  0.00     0.049 A 
ATOM     59  H   UNL A   1      41.451  29.435  32.613  1.00  0.00     0.167 HD
ATOM     60  C   UNL A   1      43.683  27.778  32.078  1.00  0.00     0.074 A 
ATOM     61  C   UNL A   1      44.601  26.900  31.383  1.00  0.00     0.031 C 
ATOM     62  C   UNL A   1      43.860  28.216  33.349  1.00  0.00     0.037 A 
BRANCH  49  63
ATOM     63  C   UNL A   1      39.386  31.975  35.348  1.00  0.00     0.064 A 
ATOM     64  C   UNL A   1      39.690  33.344  35.410  1.00  0.00     0.173 A 
ATOM     65  C   UNL A   1      38.541  31.446  36.335  1.00  0.00     0.173 A 
ATOM     66  F   UNL A   1      40.502  33.897  34.497  1.00  0.00    -0.203 F 
ATOM     67  C   UNL A   1      39.192  34.143  36.436  1.00  0.00     0.198 A 
ATOM     68  C   UNL A   1      38.021  32.255  37.342  1.00  0.00     0.198 A 
ATOM     69  F   UNL A   1      38.213  30.145  36.319  1.00  0.00    -0.203 F 
ATOM     70  F   UNL A   1      39.535  35.437  36.502  1.00  0.00    -0.200 F 
ATOM     71  C   UNL A   1      38.353  33.600  37.398  1.00  0.00     0.200 A 
ATOM     72  F   UNL A   1      37.199  31.731  38.263  1.00  0.00    -0.200 F 
ATOM     73  F   UNL A   1      37.869  34.372  38.379  1.00  0.00    -0.200 F 
ENDBRANCH  49  63
BRANCH  50  74
ATOM     74  C   UNL A   1      42.660  26.530  27.662  1.00  0.00     0.064 A 
ATOM     75  C   UNL A   1      42.257  25.199  27.489  1.00  0.00     0.173 A 
ATOM     76  C   UNL A   1      43.549  27.072  26.724  1.00  0.00     0.173 A 
ATOM     77  F   UNL A   1      41.424  24.630  28.372  1.00  0.00    -0.203 F 
ATOM     78  C   UNL A   1      42.741  24.432  26.430  1.00  0.00     0.198 A 
ATOM     79  C   UNL A   1      44.012  26.314  25.650  1.00  0.00     0.198 A 
ATOM     80  F   UNL A   1      43.961  28.343  26.843  1.00  0.00    -0.203 F 
ATOM     81  F   UNL A   1      42.374  23.150  26.312  1.00  0.00    -0.200 F 
ATOM     82  C   UNL A   1      43.613  24.993  25.508  1.00  0.00     0.200 A 
ATOM     83  F   UNL A   1      44.843  26.862  24.754  1.00  0.00    -0.200 F 
ATOM     84  F   UNL A   1      44.075  24.258  24.488  1.00  0.00    -0.200 F 
ENDBRANCH  50  74
BRANCH  62  85
ATOM     85  C   UNL A   1      45.075  27.726  34.080  1.00  0.00     0.064 A 
ATOM     86  C   UNL A   1      45.050  26.548  34.840  1.00  0.00     0.173 A 
ATOM     87  C   UNL A   1      46.285  28.432  34.000  1.00  0.00     0.173 A 
ATOM     88  F   UNL A   1      43.913  25.846  34.960  1.00  0.00    -0.203 F 
ATOM     89  C   UNL A   1      46.185  26.110  35.519  1.00  0.00     0.198 A 
ATOM     90  C   UNL A   1      47.425  27.975  34.656  1.00  0.00     0.198 A 
ATOM     91  F   UNL A   1      46.363  29.561  33.280  1.00  0.00    -0.203 F 
ATOM     92  F   UNL A   1      46.124  25.010  36.281  1.00  0.00    -0.200 F 
ATOM     93  C   UNL A   1      47.371  26.821  35.422  1.00  0.00     0.200 A 
ATOM     94  F   UNL A   1      48.574  28.658  34.553  1.00  0.00    -0.200 F 
ATOM     95  F   UNL A   1      48.463  26.397  36.075  1.00  0.00    -0.200 F 
ENDBRANCH  62  85
ENDBRANCH  36  37
ENDBRANCH  28  31
ENDBRANCH  26  27
ENDBRANCH  25  26
ENDBRANCH   1  25
TORSDOF 15
ENDMDL
MODEL 3
REMARK VINA RESULT:     -11.8      0.669      7.192
REMARK SMILES CCOC(=O)C1=C(C)N(c2ccccc2)C(=O)[C@@H]1CC(=O)NCCCNC(=O)c1ccc(-c2c3nc(c(-c4c(F)c(F)c(F)c(F)c4F)c4ccc([nH]4)c(-c4c(F)c(F)c(F)c(F)c4F)c4nc(c(-c5c(F)c(F)c(F)c(F)c5F)c5ccc2[nH]5)C=C4)C=C3)cc1
REMARK SMILES IDX 23 1 22 2 20 3 21 4 19 6 18 7 6 8 7 9 8 10 9 11 16 12 17 13
REMARK SMILES IDX 4 14 5 15 3 16 2 17 1 18 10 19 11 20 15 21 12 22 14 23 13 24
REMARK SMILES IDX 24 25 25 26 26 27 27 28 28 30 29 31 30 32 91 33 31 34 90 35
REMARK SMILES IDX 32 36 33 37 34 38 84 39 35 40 89 41 83 42 85 43 36 44 88 45
REMARK SMILES IDX 82 46 81 47 37 49 69 50 49 51 68 52 50 53 53 54 67 55 86 56
REMARK SMILES IDX 51 57 52 58 66 60 87 61 54 62 38 63 39 64 47 65 40 66 41 67
REMARK SMILES IDX 45 68 48 69 42 70 43 71 46 72 44 73 70 74 71 75 79 76 72 77
REMARK SMILES IDX 73 78 77 79 80 80 74 81 75 82 78 83 76 84 55 85 56 86 64 87
REMARK SMILES IDX 57 88 58 89 62 90 65 91 59 92 60 93 63 94 61 95
REMARK H PARENT 22 5 26 29 85 48 53 59
REMARK Flexibility Score: inf
ROOT
ATOM      1  C   UNL A   1      32.031  27.908  23.084  1.00  0.00     0.117 C 
ENDROOT
BRANCH   1   2
ATOM      2  N   UNL A   1      32.296  26.980  21.990  1.00  0.00    -0.356 N 
ATOM      3  C   UNL A   1      33.157  25.930  21.894  1.00  0.00     0.221 C 
ATOM      4  O   UNL A   1      33.279  25.364  20.807  1.00  0.00    -0.275 OA
ATOM      5  H   UNL A   1      31.758  27.141  21.181  1.00  0.00     0.163 HD
BRANCH   3   6
ATOM      6  C   UNL A   1      33.912  25.436  23.105  1.00  0.00     0.118 C 
BRANCH   6   7
ATOM      7  C   UNL A   1      33.898  23.911  23.226  1.00  0.00     0.128 C 
ATOM      8  C   UNL A   1      33.320  23.518  24.564  1.00  0.00     0.070 C 
ATOM      9  C   UNL A   1      34.273  23.214  25.457  1.00  0.00     0.034 C 
ATOM     10  C   UNL A   1      34.152  22.838  26.894  1.00  0.00     0.065 C 
ATOM     11  N   UNL A   1      35.489  23.222  24.813  1.00  0.00    -0.284 N 
ATOM     12  C   UNL A   1      35.306  23.383  23.435  1.00  0.00     0.239 C 
ATOM     13  O   UNL A   1      36.100  23.157  22.536  1.00  0.00    -0.273 OA
BRANCH   8  14
ATOM     14  C   UNL A   1      31.874  23.489  24.792  1.00  0.00     0.336 C 
ATOM     15  O   UNL A   1      31.201  22.481  24.857  1.00  0.00    -0.246 OA
BRANCH  14  16
ATOM     16  O   UNL A   1      31.448  24.773  24.876  1.00  0.00    -0.463 OA
BRANCH  16  17
ATOM     17  C   UNL A   1      31.146  25.256  26.191  1.00  0.00     0.230 C 
ATOM     18  C   UNL A   1      31.960  26.499  26.501  1.00  0.00     0.049 C 
ENDBRANCH  16  17
ENDBRANCH  14  16
ENDBRANCH   8  14
BRANCH  11  19
ATOM     19  C   UNL A   1      36.758  22.986  25.367  1.00  0.00     0.049 A 
ATOM     20  C   UNL A   1      37.371  21.740  25.252  1.00  0.00     0.027 A 
ATOM     21  C   UNL A   1      37.402  24.025  26.050  1.00  0.00     0.027 A 
ATOM     22  C   UNL A   1      38.631  21.534  25.819  1.00  0.00     0.002 A 
ATOM     23  C   UNL A   1      38.662  23.817  26.613  1.00  0.00     0.002 A 
ATOM     24  C   UNL A   1      39.274  22.570  26.497  1.00  0.00     0.000 A 
ENDBRANCH  11  19
ENDBRANCH   6   7
ENDBRANCH   3   6
ENDBRANCH   1   2
BRANCH   1  25
ATOM     25  C   UNL A   1      33.135  28.951  23.232  1.00  0.00     0.042 C 
BRANCH  25  26
ATOM     26  C   UNL A   1      33.655  29.114  24.652  1.00  0.00     0.118 C 
BRANCH  26  27
ATOM     27  N   UNL A   1      32.965  30.180  25.356  1.00  0.00    -0.352 N 
ATOM     28  C   UNL A   1      33.204  30.734  26.590  1.00  0.00     0.251 C 
ATOM     29  H   UNL A   1      32.204  30.569  24.870  1.00  0.00     0.163 HD
ATOM     30  O   UNL A   1      32.331  31.439  27.094  1.00  0.00    -0.269 OA
BRANCH  28  31
ATOM     31  C   UNL A   1      34.469  30.503  27.334  1.00  0.00     0.039 A 
ATOM     32  C   UNL A   1      34.714  29.222  27.842  1.00  0.00     0.014 A 
ATOM     33  C   UNL A   1      35.372  31.529  27.626  1.00  0.00     0.014 A 
ATOM     34  C   UNL A   1      35.858  28.969  28.606  1.00  0.00     0.010 A 
ATOM     35  C   UNL A   1      36.562  31.256  28.303  1.00  0.00     0.010 A 
ATOM     36  C   UNL A   1      36.807  29.980  28.828  1.00  0.00    -0.014 A 
BRANCH  36  37
ATOM     37  C   UNL A   1      38.021  29.724  29.651  1.00  0.00     0.031 A 
ATOM     38  C   UNL A   1      39.126  28.841  29.127  1.00  0.00     0.074 A 
ATOM     39  C   UNL A   1      38.126  30.263  30.881  1.00  0.00     0.049 A 
ATOM     40  N   UNL A   1      40.252  28.493  29.701  1.00  0.00    -0.248 NA
ATOM     41  C   UNL A   1      38.929  28.250  27.795  1.00  0.00     0.031 C 
ATOM     42  C   UNL A   1      37.108  31.088  31.531  1.00  0.00     0.029 A 
ATOM     43  N   UNL A   1      39.140  30.197  31.804  1.00  0.00    -0.354 N 
ATOM     44  C   UNL A   1      40.881  27.630  28.810  1.00  0.00     0.074 A 
ATOM     45  C   UNL A   1      39.991  27.464  27.683  1.00  0.00     0.031 C 
ATOM     46  C   UNL A   1      37.563  31.481  32.733  1.00  0.00     0.029 A 
ATOM     47  C   UNL A   1      38.889  30.910  32.951  1.00  0.00     0.049 A 
ATOM     48  H   UNL A   1      39.969  29.686  31.659  1.00  0.00     0.167 HD
ATOM     49  C   UNL A   1      42.102  27.049  28.908  1.00  0.00     0.037 A 
ATOM     50  C   UNL A   1      39.643  31.090  34.051  1.00  0.00     0.037 A 
ATOM     51  C   UNL A   1      43.009  27.243  30.009  1.00  0.00     0.049 A 
ATOM     52  C   UNL A   1      41.007  30.459  34.122  1.00  0.00     0.074 A 
ATOM     53  C   UNL A   1      44.292  26.750  30.169  1.00  0.00     0.029 A 
ATOM     54  N   UNL A   1      42.726  27.996  31.139  1.00  0.00    -0.354 N 
ATOM     55  N   UNL A   1      41.617  29.703  33.243  1.00  0.00    -0.248 NA
ATOM     56  C   UNL A   1      41.793  30.717  35.338  1.00  0.00     0.031 C 
ATOM     57  C   UNL A   1      44.773  27.175  31.412  1.00  0.00     0.029 A 
ATOM     58  C   UNL A   1      43.807  27.969  32.007  1.00  0.00     0.049 A 
ATOM     59  H   UNL A   1      41.883  28.478  31.300  1.00  0.00     0.167 HD
ATOM     60  C   UNL A   1      42.863  29.416  33.785  1.00  0.00     0.074 A 
ATOM     61  C   UNL A   1      42.930  30.096  35.062  1.00  0.00     0.031 C 
ATOM     62  C   UNL A   1      43.860  28.655  33.272  1.00  0.00     0.037 A 
BRANCH  49  63
ATOM     63  C   UNL A   1      42.535  26.153  27.784  1.00  0.00     0.064 A 
ATOM     64  C   UNL A   1      42.180  24.795  27.749  1.00  0.00     0.173 A 
ATOM     65  C   UNL A   1      43.282  26.662  26.712  1.00  0.00     0.173 A 
ATOM     66  F   UNL A   1      41.474  24.255  28.754  1.00  0.00    -0.203 F 
ATOM     67  C   UNL A   1      42.584  23.975  26.697  1.00  0.00     0.198 A 
ATOM     68  C   UNL A   1      43.659  25.847  25.648  1.00  0.00     0.198 A 
ATOM     69  F   UNL A   1      43.641  27.955  26.692  1.00  0.00    -0.203 F 
ATOM     70  F   UNL A   1      42.275  22.671  26.710  1.00  0.00    -0.200 F 
ATOM     71  C   UNL A   1      43.318  24.503  25.645  1.00  0.00     0.200 A 
ATOM     72  F   UNL A   1      44.356  26.361  24.625  1.00  0.00    -0.200 F 
ATOM     73  F   UNL A   1      43.699  23.714  24.632  1.00  0.00    -0.200 F 
ENDBRANCH  49  63
BRANCH  50  74
ATOM     74  C   UNL A   1      39.143  31.940  35.162  1.00  0.00     0.064 A 
ATOM     75  C   UNL A   1      39.384  33.321  35.174  1.00  0.00     0.173 A 
ATOM     76  C   UNL A   1      38.417  31.394  36.230  1.00  0.00     0.173 A 
ATOM     77  F   UNL A   1      40.092  33.885  34.185  1.00  0.00    -0.203 F 
ATOM     78  C   UNL A   1      38.935  34.121  36.223  1.00  0.00     0.198 A 
ATOM     79  C   UNL A   1      37.945  32.199  37.265  1.00  0.00     0.198 A 
ATOM     80  F   UNL A   1      38.155  30.079  36.263  1.00  0.00    -0.203 F 
ATOM     81  F   UNL A   1      39.217  35.430  36.231  1.00  0.00    -0.200 F 
ATOM     82  C   UNL A   1      38.211  33.560  37.264  1.00  0.00     0.200 A 
ATOM     83  F   UNL A   1      37.233  31.657  38.262  1.00  0.00    -0.200 F 
ATOM     84  F   UNL A   1      37.775  34.330  38.270  1.00  0.00    -0.200 F 
ENDBRANCH  50  74
BRANCH  62  85
ATOM     85  C   UNL A   1      45.121  28.543  34.078  1.00  0.00     0.064 A 
ATOM     86  C   UNL A   1      46.183  29.444  33.910  1.00  0.00     0.173 A 
ATOM     87  C   UNL A   1      45.259  27.537  35.046  1.00  0.00     0.173 A 
ATOM     88  F   UNL A   1      46.105  30.415  32.987  1.00  0.00    -0.203 F 
ATOM     89  C   UNL A   1      47.349  29.323  34.661  1.00  0.00     0.198 A 
ATOM     90  C   UNL A   1      46.415  27.437  35.814  1.00  0.00     0.198 A 
ATOM     91  F   UNL A   1      44.269  26.654  35.250  1.00  0.00    -0.203 F 
ATOM     92  F   UNL A   1      48.371  30.163  34.448  1.00  0.00    -0.200 F 
ATOM     93  C   UNL A   1      47.462  28.324  35.615  1.00  0.00     0.200 A 
ATOM     94  F   UNL A   1      46.519  26.476  36.745  1.00  0.00    -0.200 F 
ATOM     95  F   UNL A   1      48.585  28.210  36.339  1.00  0.00    -0.200 F 
ENDBRANCH  62  85
ENDBRANCH  36  37
ENDBRANCH  28  31
ENDBRANCH  26  27
ENDBRANCH  25  26
ENDBRANCH   1  25
TORSDOF 15
ENDMDL
