MODEL 1
REMARK VINA RESULT:     -14.1      0.000      0.000
REMARK SMILES O=C(CCN1C(=O)S/C(=C\c2ccc(F)cc2)C1=O)Nc1ccc(O)cc1C(=O)NCCCNC(=O)c1ccc(-c2c3nc(c(-c4c(F)c(F)c(F)c(F)c4F)c4ccc([nH]4)c(-c4c(F)c(F)c(F)c(F)c4F)c4nc(c(-c5c(F)c(F)c(F)c(F)c5F)c5ccc2[nH]5)C=C4)C=C3)cc1
REMARK SMILES IDX 28 1 29 2 30 3 27 5 21 6 22 7 23 8 26 9 24 10 20 11 1 12
REMARK SMILES IDX 2 13 3 15 4 16 5 17 6 18 18 19 7 20 8 21 9 22 19 23 10 24
REMARK SMILES IDX 11 25 12 26 17 27 13 28 16 29 14 30 15 31 25 32 31 34 32 35
REMARK SMILES IDX 33 36 34 37 35 38 36 40 37 41 38 42 99 43 39 44 98 45 40 46
REMARK SMILES IDX 41 47 42 48 92 49 43 50 97 51 91 52 93 53 44 54 96 55 90 56
REMARK SMILES IDX 89 57 45 59 77 60 57 61 76 62 58 63 61 64 75 65 94 66 59 67
REMARK SMILES IDX 60 68 74 70 95 71 62 72 46 73 47 74 55 75 48 76 49 77 53 78
REMARK SMILES IDX 56 79 50 80 51 81 54 82 52 83 78 84 79 85 87 86 80 87 81 88
REMARK SMILES IDX 85 89 88 90 82 91 83 92 86 93 84 94 63 95 64 96 72 97 65 98
REMARK SMILES IDX 66 99 70 100 73 101 67 102 68 103 71 104 69 105
REMARK H PARENT 30 4 20 14 25 33 34 39 93 58 61 69
REMARK Flexibility Score: inf
ROOT
ATOM      1  C   UNL A   1      31.790  28.588  23.467  1.00  0.00     0.253 C 
ATOM      2  O   UNL A   1      32.462  28.220  22.506  1.00  0.00    -0.269 OA
ATOM      3  N   UNL A   1      32.372  29.361  24.452  1.00  0.00    -0.352 N 
ATOM      4  H   UNL A   1      33.345  29.487  24.367  1.00  0.00     0.163 HD
ENDROOT
BRANCH   1   5
ATOM      5  C   UNL A   1      30.369  28.165  23.533  1.00  0.00     0.067 A 
ATOM      6  C   UNL A   1      29.935  26.917  24.013  1.00  0.00     0.054 A 
ATOM      7  C   UNL A   1      28.564  26.612  23.963  1.00  0.00     0.031 A 
ATOM      8  C   UNL A   1      27.632  27.552  23.519  1.00  0.00     0.048 A 
ATOM      9  C   UNL A   1      29.424  29.117  23.112  1.00  0.00     0.062 A 
ATOM     10  C   UNL A   1      28.069  28.807  23.119  1.00  0.00     0.116 A 
BRANCH   6  11
ATOM     11  N   UNL A   1      30.840  26.028  24.643  1.00  0.00    -0.325 N 
ATOM     12  O   UNL A   1      30.672  26.821  26.804  1.00  0.00    -0.275 OA
ATOM     13  C   UNL A   1      31.211  26.093  25.970  1.00  0.00     0.226 C 
ATOM     14  H   UNL A   1      31.233  25.312  24.095  1.00  0.00     0.169 HD
BRANCH  13  15
ATOM     15  C   UNL A   1      32.378  25.221  26.383  1.00  0.00     0.122 C 
BRANCH  15  16
ATOM     16  C   UNL A   1      33.410  24.878  25.318  1.00  0.00     0.140 C 
BRANCH  16  17
ATOM     17  N   UNL A   1      33.551  23.476  24.938  1.00  0.00    -0.268 N 
ATOM     18  C   UNL A   1      34.438  22.652  25.567  1.00  0.00     0.293 C 
ATOM     19  C   UNL A   1      32.870  22.869  23.902  1.00  0.00     0.268 C 
ATOM     20  O   UNL A   1      34.749  22.674  26.755  1.00  0.00    -0.261 OA
ATOM     21  S   UNL A   1      34.880  21.330  24.541  1.00  0.00    -0.022 SA
ATOM     22  C   UNL A   1      33.311  21.446  23.840  1.00  0.00     0.083 C 
ATOM     23  O   UNL A   1      32.001  23.356  23.205  1.00  0.00    -0.268 OA
ATOM     24  C   UNL A   1      32.462  20.423  23.671  1.00  0.00     0.029 C 
BRANCH  24  25
ATOM     25  C   UNL A   1      32.850  19.080  24.127  1.00  0.00    -0.024 A 
ATOM     26  C   UNL A   1      33.243  18.127  23.170  1.00  0.00     0.011 A 
ATOM     27  C   UNL A   1      32.618  18.681  25.449  1.00  0.00     0.011 A 
ATOM     28  C   UNL A   1      33.395  16.789  23.534  1.00  0.00     0.040 A 
ATOM     29  C   UNL A   1      32.770  17.340  25.807  1.00  0.00     0.040 A 
ATOM     30  C   UNL A   1      33.154  16.407  24.847  1.00  0.00     0.123 A 
ATOM     31  F   UNL A   1      33.269  15.119  25.192  1.00  0.00    -0.207 F 
ENDBRANCH  24  25
ENDBRANCH  16  17
ENDBRANCH  15  16
ENDBRANCH  13  15
ENDBRANCH   6  11
BRANCH  10  32
ATOM     32  O   UNL A   1      27.189  29.773  22.732  1.00  0.00    -0.508 OA
ATOM     33  H   UNL A   1      27.210  30.616  23.140  1.00  0.00     0.293 HD
ENDBRANCH  10  32
ENDBRANCH   1   5
BRANCH   3  34
ATOM     34  C   UNL A   1      31.760  30.017  25.593  1.00  0.00     0.118 C 
BRANCH  34  35
ATOM     35  C   UNL A   1      32.540  29.983  26.903  1.00  0.00     0.042 C 
BRANCH  35  36
ATOM     36  C   UNL A   1      33.453  31.152  27.318  1.00  0.00     0.118 C 
BRANCH  36  37
ATOM     37  N   UNL A   1      32.870  32.480  27.423  1.00  0.00    -0.352 N 
ATOM     38  C   UNL A   1      33.189  33.602  28.157  1.00  0.00     0.251 C 
ATOM     39  H   UNL A   1      32.080  32.603  26.847  1.00  0.00     0.163 HD
ATOM     40  O   UNL A   1      32.503  34.620  28.095  1.00  0.00    -0.269 OA
BRANCH  38  41
ATOM     41  C   UNL A   1      34.303  33.574  29.107  1.00  0.00     0.039 A 
ATOM     42  C   UNL A   1      34.171  32.841  30.293  1.00  0.00     0.014 A 
ATOM     43  C   UNL A   1      35.494  34.212  28.790  1.00  0.00     0.014 A 
ATOM     44  C   UNL A   1      35.295  32.606  31.082  1.00  0.00     0.010 A 
ATOM     45  C   UNL A   1      36.627  33.890  29.509  1.00  0.00     0.010 A 
ATOM     46  C   UNL A   1      36.544  33.054  30.635  1.00  0.00    -0.014 A 
BRANCH  46  47
ATOM     47  C   UNL A   1      37.823  32.640  31.252  1.00  0.00     0.031 A 
ATOM     48  C   UNL A   1      38.576  31.504  30.631  1.00  0.00     0.074 A 
ATOM     49  C   UNL A   1      38.150  33.114  32.470  1.00  0.00     0.049 A 
ATOM     50  N   UNL A   1      39.450  30.699  31.169  1.00  0.00    -0.248 NA
ATOM     51  C   UNL A   1      38.227  31.181  29.237  1.00  0.00     0.031 C 
ATOM     52  C   UNL A   1      37.446  34.180  33.187  1.00  0.00     0.029 A 
ATOM     53  N   UNL A   1      39.129  32.719  33.344  1.00  0.00    -0.354 N 
ATOM     54  C   UNL A   1      39.701  29.731  30.207  1.00  0.00     0.074 A 
ATOM     55  C   UNL A   1      38.864  30.032  29.066  1.00  0.00     0.031 C 
ATOM     56  C   UNL A   1      38.019  34.358  34.388  1.00  0.00     0.029 A 
ATOM     57  C   UNL A   1      39.087  33.379  34.548  1.00  0.00     0.049 A 
ATOM     58  H   UNL A   1      39.798  32.030  33.130  1.00  0.00     0.167 HD
ATOM     59  C   UNL A   1      40.565  28.694  30.277  1.00  0.00     0.037 A 
ATOM     60  C   UNL A   1      39.811  33.191  35.668  1.00  0.00     0.037 A 
ATOM     61  C   UNL A   1      41.441  28.470  31.395  1.00  0.00     0.049 A 
ATOM     62  C   UNL A   1      40.825  32.084  35.690  1.00  0.00     0.074 A 
ATOM     63  C   UNL A   1      42.433  27.519  31.535  1.00  0.00     0.029 A 
ATOM     64  N   UNL A   1      41.439  29.229  32.557  1.00  0.00    -0.354 N 
ATOM     65  N   UNL A   1      41.085  31.189  34.767  1.00  0.00    -0.248 NA
ATOM     66  C   UNL A   1      41.641  31.951  36.904  1.00  0.00     0.031 C 
ATOM     67  C   UNL A   1      43.022  27.691  32.791  1.00  0.00     0.029 A 
ATOM     68  C   UNL A   1      42.417  28.769  33.420  1.00  0.00     0.049 A 
ATOM     69  H   UNL A   1      40.833  29.983  32.740  1.00  0.00     0.167 HD
ATOM     70  C   UNL A   1      42.103  30.398  35.277  1.00  0.00     0.074 A 
ATOM     71  C   UNL A   1      42.422  30.926  36.589  1.00  0.00     0.031 C 
ATOM     72  C   UNL A   1      42.716  29.328  34.714  1.00  0.00     0.037 A 
BRANCH  59  73
ATOM     73  C   UNL A   1      40.623  27.748  29.114  1.00  0.00     0.064 A 
ATOM     74  C   UNL A   1      41.522  27.970  28.059  1.00  0.00     0.173 A 
ATOM     75  C   UNL A   1      39.765  26.642  29.022  1.00  0.00     0.173 A 
ATOM     76  F   UNL A   1      42.364  29.014  28.095  1.00  0.00    -0.203 F 
ATOM     77  C   UNL A   1      41.554  27.122  26.955  1.00  0.00     0.198 A 
ATOM     78  C   UNL A   1      39.822  25.779  27.932  1.00  0.00     0.198 A 
ATOM     79  F   UNL A   1      38.898  26.377  30.011  1.00  0.00    -0.203 F 
ATOM     80  F   UNL A   1      42.404  27.367  25.948  1.00  0.00    -0.200 F 
ATOM     81  C   UNL A   1      40.710  26.024  26.896  1.00  0.00     0.200 A 
ATOM     82  F   UNL A   1      39.026  24.701  27.892  1.00  0.00    -0.200 F 
ATOM     83  F   UNL A   1      40.755  25.198  25.841  1.00  0.00    -0.200 F 
ENDBRANCH  59  73
BRANCH  60  84
ATOM     84  C   UNL A   1      39.619  34.098  36.827  1.00  0.00     0.064 A 
ATOM     85  C   UNL A   1      40.261  35.342  36.913  1.00  0.00     0.173 A 
ATOM     86  C   UNL A   1      38.825  33.699  37.910  1.00  0.00     0.173 A 
ATOM     87  F   UNL A   1      41.043  35.765  35.910  1.00  0.00    -0.203 F 
ATOM     88  C   UNL A   1      40.130  36.142  38.047  1.00  0.00     0.198 A 
ATOM     89  C   UNL A   1      38.676  34.508  39.034  1.00  0.00     0.198 A 
ATOM     90  F   UNL A   1      38.180  32.524  37.867  1.00  0.00    -0.203 F 
ATOM     91  F   UNL A   1      40.782  37.311  38.122  1.00  0.00    -0.200 F 
ATOM     92  C   UNL A   1      39.335  35.726  39.106  1.00  0.00     0.200 A 
ATOM     93  F   UNL A   1      37.894  34.108  40.046  1.00  0.00    -0.200 F 
ATOM     94  F   UNL A   1      39.206  36.496  40.195  1.00  0.00    -0.200 F 
ENDBRANCH  60  84
BRANCH  72  95
ATOM     95  C   UNL A   1      43.807  28.668  35.496  1.00  0.00     0.064 A 
ATOM     96  C   UNL A   1      43.498  27.695  36.458  1.00  0.00     0.173 A 
ATOM     97  C   UNL A   1      45.141  29.078  35.369  1.00  0.00     0.173 A 
ATOM     98  F   UNL A   1      42.233  27.280  36.617  1.00  0.00    -0.203 F 
ATOM     99  C   UNL A   1      44.487  27.174  37.285  1.00  0.00     0.198 A 
ATOM    100  C   UNL A   1      46.130  28.537  36.184  1.00  0.00     0.198 A 
ATOM    101  F   UNL A   1      45.481  29.997  34.453  1.00  0.00    -0.203 F 
ATOM    102  F   UNL A   1      44.165  26.275  38.226  1.00  0.00    -0.200 F 
ATOM    103  C   UNL A   1      45.801  27.595  37.148  1.00  0.00     0.200 A 
ATOM    104  F   UNL A   1      47.403  28.932  36.039  1.00  0.00    -0.200 F 
ATOM    105  F   UNL A   1      46.752  27.095  37.949  1.00  0.00    -0.200 F 
ENDBRANCH  72  95
ENDBRANCH  46  47
ENDBRANCH  38  41
ENDBRANCH  36  37
ENDBRANCH  35  36
ENDBRANCH  34  35
ENDBRANCH   3  34
TORSDOF 16
ENDMDL
MODEL 2
REMARK VINA RESULT:     -13.8      5.541     11.328
REMARK SMILES O=C(CCN1C(=O)S/C(=C\c2ccc(F)cc2)C1=O)Nc1ccc(O)cc1C(=O)NCCCNC(=O)c1ccc(-c2c3nc(c(-c4c(F)c(F)c(F)c(F)c4F)c4ccc([nH]4)c(-c4c(F)c(F)c(F)c(F)c4F)c4nc(c(-c5c(F)c(F)c(F)c(F)c5F)c5ccc2[nH]5)C=C4)C=C3)cc1
REMARK SMILES IDX 28 1 29 2 30 3 27 5 21 6 22 7 23 8 26 9 24 10 20 11 1 12
REMARK SMILES IDX 2 13 3 15 4 16 5 17 6 18 18 19 7 20 8 21 9 22 19 23 10 24
REMARK SMILES IDX 11 25 12 26 17 27 13 28 16 29 14 30 15 31 25 32 31 34 32 35
REMARK SMILES IDX 33 36 34 37 35 38 36 40 37 41 38 42 99 43 39 44 98 45 40 46
REMARK SMILES IDX 41 47 42 48 92 49 43 50 97 51 91 52 93 53 44 54 96 55 90 56
REMARK SMILES IDX 89 57 45 59 77 60 57 61 76 62 58 63 61 64 75 65 94 66 59 67
REMARK SMILES IDX 60 68 74 70 95 71 62 72 46 73 47 74 55 75 48 76 49 77 53 78
REMARK SMILES IDX 56 79 50 80 51 81 54 82 52 83 78 84 79 85 87 86 80 87 81 88
REMARK SMILES IDX 85 89 88 90 82 91 83 92 86 93 84 94 63 95 64 96 72 97 65 98
REMARK SMILES IDX 66 99 70 100 73 101 67 102 68 103 71 104 69 105
REMARK H PARENT 30 4 20 14 25 33 34 39 93 58 61 69
REMARK Flexibility Score: inf
ROOT
ATOM      1  C   UNL A   1      34.595  22.623  26.497  1.00  0.00     0.253 C 
ATOM      2  O   UNL A   1      34.048  22.940  27.551  1.00  0.00    -0.269 OA
ATOM      3  N   UNL A   1      35.850  23.119  26.202  1.00  0.00    -0.352 N 
ATOM      4  H   UNL A   1      36.191  23.797  26.830  1.00  0.00     0.163 HD
ENDROOT
BRANCH   1   5
ATOM      5  C   UNL A   1      33.868  21.720  25.571  1.00  0.00     0.067 A 
ATOM      6  C   UNL A   1      33.100  22.158  24.477  1.00  0.00     0.054 A 
ATOM      7  C   UNL A   1      32.405  21.206  23.713  1.00  0.00     0.031 A 
ATOM      8  C   UNL A   1      32.528  19.840  23.978  1.00  0.00     0.048 A 
ATOM      9  C   UNL A   1      34.009  20.343  25.816  1.00  0.00     0.062 A 
ATOM     10  C   UNL A   1      33.350  19.420  25.014  1.00  0.00     0.116 A 
BRANCH   6  11
ATOM     11  N   UNL A   1      33.117  23.518  24.078  1.00  0.00    -0.325 N 
ATOM     12  O   UNL A   1      34.656  23.366  22.364  1.00  0.00    -0.275 OA
ATOM     13  C   UNL A   1      33.950  24.043  23.112  1.00  0.00     0.226 C 
ATOM     14  H   UNL A   1      32.489  24.131  24.521  1.00  0.00     0.169 HD
BRANCH  13  15
ATOM     15  C   UNL A   1      33.996  25.554  23.016  1.00  0.00     0.122 C 
BRANCH  15  16
ATOM     16  C   UNL A   1      33.591  26.348  24.250  1.00  0.00     0.140 C 
BRANCH  16  17
ATOM     17  N   UNL A   1      32.445  27.245  24.132  1.00  0.00    -0.268 N 
ATOM     18  C   UNL A   1      32.600  28.599  24.098  1.00  0.00     0.293 C 
ATOM     19  C   UNL A   1      31.127  26.836  24.101  1.00  0.00     0.268 C 
ATOM     20  O   UNL A   1      33.524  29.223  23.581  1.00  0.00    -0.261 OA
ATOM     21  S   UNL A   1      31.156  29.394  24.623  1.00  0.00    -0.022 SA
ATOM     22  C   UNL A   1      30.276  28.057  23.989  1.00  0.00     0.083 C 
ATOM     23  O   UNL A   1      30.708  25.696  24.081  1.00  0.00    -0.268 OA
ATOM     24  C   UNL A   1      29.226  28.144  23.161  1.00  0.00     0.029 C 
BRANCH  24  25
ATOM     25  C   UNL A   1      28.769  29.468  22.713  1.00  0.00    -0.024 A 
ATOM     26  C   UNL A   1      29.397  30.062  21.604  1.00  0.00     0.011 A 
ATOM     27  C   UNL A   1      27.892  30.223  23.501  1.00  0.00     0.011 A 
ATOM     28  C   UNL A   1      29.153  31.400  21.294  1.00  0.00     0.040 A 
ATOM     29  C   UNL A   1      27.653  31.562  23.187  1.00  0.00     0.040 A 
ATOM     30  C   UNL A   1      28.286  32.138  22.090  1.00  0.00     0.123 A 
ATOM     31  F   UNL A   1      28.074  33.431  21.811  1.00  0.00    -0.207 F 
ENDBRANCH  24  25
ENDBRANCH  16  17
ENDBRANCH  15  16
ENDBRANCH  13  15
ENDBRANCH   6  11
BRANCH  10  32
ATOM     32  O   UNL A   1      33.542  18.095  25.271  1.00  0.00    -0.508 OA
ATOM     33  H   UNL A   1      33.581  17.790  26.156  1.00  0.00     0.293 HD
ENDBRANCH  10  32
ENDBRANCH   1   5
BRANCH   3  34
ATOM     34  C   UNL A   1      36.740  22.789  25.104  1.00  0.00     0.118 C 
BRANCH  34  35
ATOM     35  C   UNL A   1      37.519  21.484  25.223  1.00  0.00     0.042 C 
BRANCH  35  36
ATOM     36  C   UNL A   1      38.903  21.441  25.899  1.00  0.00     0.118 C 
BRANCH  36  37
ATOM     37  N   UNL A   1      39.674  20.211  25.815  1.00  0.00    -0.352 N 
ATOM     38  C   UNL A   1      41.004  19.908  26.014  1.00  0.00     0.251 C 
ATOM     39  H   UNL A   1      39.130  19.429  25.563  1.00  0.00     0.163 HD
ATOM     40  O   UNL A   1      41.431  18.768  25.844  1.00  0.00    -0.269 OA
BRANCH  38  41
ATOM     41  C   UNL A   1      41.964  20.965  26.340  1.00  0.00     0.039 A 
ATOM     42  C   UNL A   1      42.382  21.844  25.332  1.00  0.00     0.014 A 
ATOM     43  C   UNL A   1      42.391  21.126  27.651  1.00  0.00     0.014 A 
ATOM     44  C   UNL A   1      43.095  22.990  25.675  1.00  0.00     0.010 A 
ATOM     45  C   UNL A   1      43.001  22.312  28.005  1.00  0.00     0.010 A 
ATOM     46  C   UNL A   1      43.321  23.270  27.028  1.00  0.00    -0.014 A 
BRANCH  46  47
ATOM     47  C   UNL A   1      43.831  24.571  27.514  1.00  0.00     0.031 A 
ATOM     48  C   UNL A   1      42.845  25.569  28.037  1.00  0.00     0.074 A 
ATOM     49  C   UNL A   1      45.106  24.917  27.249  1.00  0.00     0.049 A 
ATOM     50  N   UNL A   1      42.949  26.867  28.125  1.00  0.00    -0.248 NA
ATOM     51  C   UNL A   1      41.531  25.035  28.433  1.00  0.00     0.031 C 
ATOM     52  C   UNL A   1      46.130  24.035  26.685  1.00  0.00     0.029 A 
ATOM     53  N   UNL A   1      45.742  26.126  27.371  1.00  0.00    -0.354 N 
ATOM     54  C   UNL A   1      41.694  27.311  28.515  1.00  0.00     0.074 A 
ATOM     55  C   UNL A   1      40.838  26.149  28.616  1.00  0.00     0.031 C 
ATOM     56  C   UNL A   1      47.266  24.729  26.515  1.00  0.00     0.029 A 
ATOM     57  C   UNL A   1      47.032  26.116  26.899  1.00  0.00     0.049 A 
ATOM     58  H   UNL A   1      45.315  26.924  27.760  1.00  0.00     0.167 HD
ATOM     59  C   UNL A   1      41.305  28.580  28.774  1.00  0.00     0.037 A 
ATOM     60  C   UNL A   1      47.915  27.123  26.763  1.00  0.00     0.037 A 
ATOM     61  C   UNL A   1      42.202  29.703  28.742  1.00  0.00     0.049 A 
ATOM     62  C   UNL A   1      47.484  28.512  27.138  1.00  0.00     0.074 A 
ATOM     63  C   UNL A   1      41.951  31.016  29.089  1.00  0.00     0.029 A 
ATOM     64  N   UNL A   1      43.535  29.632  28.358  1.00  0.00    -0.354 N 
ATOM     65  N   UNL A   1      46.306  28.927  27.539  1.00  0.00    -0.248 NA
ATOM     66  C   UNL A   1      48.494  29.573  27.038  1.00  0.00     0.031 C 
ATOM     67  C   UNL A   1      43.129  31.746  28.898  1.00  0.00     0.029 A 
ATOM     68  C   UNL A   1      44.120  30.880  28.462  1.00  0.00     0.049 A 
ATOM     69  H   UNL A   1      43.994  28.815  28.056  1.00  0.00     0.167 HD
ATOM     70  C   UNL A   1      46.434  30.290  27.755  1.00  0.00     0.074 A 
ATOM     71  C   UNL A   1      47.810  30.632  27.452  1.00  0.00     0.031 C 
ATOM     72  C   UNL A   1      45.498  31.180  28.164  1.00  0.00     0.037 A 
BRANCH  59  73
ATOM     73  C   UNL A   1      39.869  28.815  29.137  1.00  0.00     0.064 A 
ATOM     74  C   UNL A   1      38.940  29.199  28.156  1.00  0.00     0.173 A 
ATOM     75  C   UNL A   1      39.415  28.698  30.459  1.00  0.00     0.173 A 
ATOM     76  F   UNL A   1      39.320  29.328  26.876  1.00  0.00    -0.203 F 
ATOM     77  C   UNL A   1      37.614  29.461  28.490  1.00  0.00     0.198 A 
ATOM     78  C   UNL A   1      38.082  28.930  30.783  1.00  0.00     0.198 A 
ATOM     79  F   UNL A   1      40.260  28.320  31.430  1.00  0.00    -0.203 F 
ATOM     80  F   UNL A   1      36.749  29.850  27.542  1.00  0.00    -0.200 F 
ATOM     81  C   UNL A   1      37.185  29.320  29.801  1.00  0.00     0.200 A 
ATOM     82  F   UNL A   1      37.664  28.763  32.045  1.00  0.00    -0.200 F 
ATOM     83  F   UNL A   1      35.903  29.554  30.118  1.00  0.00    -0.200 F 
ENDBRANCH  59  73
BRANCH  60  84
ATOM     84  C   UNL A   1      49.291  26.834  26.287  1.00  0.00     0.064 A 
ATOM     85  C   UNL A   1      49.655  26.962  24.939  1.00  0.00     0.173 A 
ATOM     86  C   UNL A   1      50.260  26.360  27.181  1.00  0.00     0.173 A 
ATOM     87  F   UNL A   1      48.761  27.399  24.040  1.00  0.00    -0.203 F 
ATOM     88  C   UNL A   1      50.931  26.608  24.502  1.00  0.00     0.198 A 
ATOM     89  C   UNL A   1      51.541  26.027  26.749  1.00  0.00     0.198 A 
ATOM     90  F   UNL A   1      49.962  26.234  28.484  1.00  0.00    -0.203 F 
ATOM     91  F   UNL A   1      51.245  26.705  23.202  1.00  0.00    -0.200 F 
ATOM     92  C   UNL A   1      51.874  26.144  25.407  1.00  0.00     0.200 A 
ATOM     93  F   UNL A   1      52.453  25.595  27.630  1.00  0.00    -0.200 F 
ATOM     94  F   UNL A   1      53.101  25.806  24.989  1.00  0.00    -0.200 F 
ENDBRANCH  60  84
BRANCH  72  95
ATOM     95  C   UNL A   1      45.927  32.604  28.331  1.00  0.00     0.064 A 
ATOM     96  C   UNL A   1      45.823  33.504  27.259  1.00  0.00     0.173 A 
ATOM     97  C   UNL A   1      46.539  33.044  29.512  1.00  0.00     0.173 A 
ATOM     98  F   UNL A   1      45.251  33.121  26.108  1.00  0.00    -0.203 F 
ATOM     99  C   UNL A   1      46.342  34.790  27.358  1.00  0.00     0.198 A 
ATOM    100  C   UNL A   1      47.036  34.339  29.614  1.00  0.00     0.198 A 
ATOM    101  F   UNL A   1      46.646  32.220  30.565  1.00  0.00    -0.203 F 
ATOM    102  F   UNL A   1      46.271  35.622  26.309  1.00  0.00    -0.200 F 
ATOM    103  C   UNL A   1      46.949  35.206  28.534  1.00  0.00     0.200 A 
ATOM    104  F   UNL A   1      47.607  34.747  30.756  1.00  0.00    -0.200 F 
ATOM    105  F   UNL A   1      47.453  36.444  28.625  1.00  0.00    -0.200 F 
ENDBRANCH  72  95
ENDBRANCH  46  47
ENDBRANCH  38  41
ENDBRANCH  36  37
ENDBRANCH  35  36
ENDBRANCH  34  35
ENDBRANCH   3  34
TORSDOF 16
ENDMDL
MODEL 3
REMARK VINA RESULT:     -13.5      4.668      9.024
REMARK SMILES O=C(CCN1C(=O)S/C(=C\c2ccc(F)cc2)C1=O)Nc1ccc(O)cc1C(=O)NCCCNC(=O)c1ccc(-c2c3nc(c(-c4c(F)c(F)c(F)c(F)c4F)c4ccc([nH]4)c(-c4c(F)c(F)c(F)c(F)c4F)c4nc(c(-c5c(F)c(F)c(F)c(F)c5F)c5ccc2[nH]5)C=C4)C=C3)cc1
REMARK SMILES IDX 28 1 29 2 30 3 27 5 21 6 22 7 23 8 26 9 24 10 20 11 1 12
REMARK SMILES IDX 2 13 3 15 4 16 5 17 6 18 18 19 7 20 8 21 9 22 19 23 10 24
REMARK SMILES IDX 11 25 12 26 17 27 13 28 16 29 14 30 15 31 25 32 31 34 32 35
REMARK SMILES IDX 33 36 34 37 35 38 36 40 37 41 38 42 99 43 39 44 98 45 40 46
REMARK SMILES IDX 41 47 42 48 92 49 43 50 97 51 91 52 93 53 44 54 96 55 90 56
REMARK SMILES IDX 89 57 45 59 77 60 57 61 76 62 58 63 61 64 75 65 94 66 59 67
REMARK SMILES IDX 60 68 74 70 95 71 62 72 46 73 47 74 55 75 48 76 49 77 53 78
REMARK SMILES IDX 56 79 50 80 51 81 54 82 52 83 78 84 79 85 87 86 80 87 81 88
REMARK SMILES IDX 85 89 88 90 82 91 83 92 86 93 84 94 63 95 64 96 72 97 65 98
REMARK SMILES IDX 66 99 70 100 73 101 67 102 68 103 71 104 69 105
REMARK H PARENT 30 4 20 14 25 33 34 39 93 58 61 69
REMARK Flexibility Score: inf
ROOT
ATOM      1  C   UNL A   1      34.279  22.589  25.541  1.00  0.00     0.253 C 
ATOM      2  O   UNL A   1      33.746  22.968  26.582  1.00  0.00    -0.269 OA
ATOM      3  N   UNL A   1      35.376  23.267  25.048  1.00  0.00    -0.352 N 
ATOM      4  H   UNL A   1      35.604  24.098  25.524  1.00  0.00     0.163 HD
ENDROOT
BRANCH   1   5
ATOM      5  C   UNL A   1      33.703  21.411  24.846  1.00  0.00     0.067 A 
ATOM      6  C   UNL A   1      32.640  21.475  23.928  1.00  0.00     0.054 A 
ATOM      7  C   UNL A   1      32.140  20.279  23.386  1.00  0.00     0.031 A 
ATOM      8  C   UNL A   1      32.732  19.049  23.685  1.00  0.00     0.048 A 
ATOM      9  C   UNL A   1      34.310  20.175  25.123  1.00  0.00     0.062 A 
ATOM     10  C   UNL A   1      33.829  19.011  24.534  1.00  0.00     0.116 A 
BRANCH   6  11
ATOM     11  N   UNL A   1      32.154  22.724  23.466  1.00  0.00    -0.325 N 
ATOM     12  O   UNL A   1      30.651  23.169  25.161  1.00  0.00    -0.275 OA
ATOM     13  C   UNL A   1      31.139  23.441  24.064  1.00  0.00     0.226 C 
ATOM     14  H   UNL A   1      32.572  23.107  22.663  1.00  0.00     0.169 HD
BRANCH  13  15
ATOM     15  C   UNL A   1      30.595  24.615  23.276  1.00  0.00     0.122 C 
BRANCH  15  16
ATOM     16  C   UNL A   1      30.214  25.867  24.054  1.00  0.00     0.140 C 
BRANCH  16  17
ATOM     17  N   UNL A   1      31.291  26.627  24.682  1.00  0.00    -0.268 N 
ATOM     18  C   UNL A   1      32.003  27.560  23.988  1.00  0.00     0.293 C 
ATOM     19  C   UNL A   1      31.726  26.449  25.979  1.00  0.00     0.268 C 
ATOM     20  O   UNL A   1      31.580  28.308  23.110  1.00  0.00    -0.261 OA
ATOM     21  S   UNL A   1      33.562  27.796  24.702  1.00  0.00    -0.022 SA
ATOM     22  C   UNL A   1      32.844  27.406  26.218  1.00  0.00     0.083 C 
ATOM     23  O   UNL A   1      31.250  25.715  26.823  1.00  0.00    -0.268 OA
ATOM     24  C   UNL A   1      32.959  28.134  27.338  1.00  0.00     0.029 C 
BRANCH  24  25
ATOM     25  C   UNL A   1      33.731  29.384  27.310  1.00  0.00    -0.024 A 
ATOM     26  C   UNL A   1      35.116  29.331  27.554  1.00  0.00     0.011 A 
ATOM     27  C   UNL A   1      33.081  30.623  27.272  1.00  0.00     0.011 A 
ATOM     28  C   UNL A   1      35.837  30.506  27.763  1.00  0.00     0.040 A 
ATOM     29  C   UNL A   1      33.808  31.797  27.483  1.00  0.00     0.040 A 
ATOM     30  C   UNL A   1      35.176  31.728  27.730  1.00  0.00     0.123 A 
ATOM     31  F   UNL A   1      35.860  32.855  27.960  1.00  0.00    -0.207 F 
ENDBRANCH  24  25
ENDBRANCH  16  17
ENDBRANCH  15  16
ENDBRANCH  13  15
ENDBRANCH   6  11
BRANCH  10  32
ATOM     32  O   UNL A   1      34.470  17.841  24.809  1.00  0.00    -0.508 OA
ATOM     33  H   UNL A   1      35.275  17.635  24.376  1.00  0.00     0.293 HD
ENDBRANCH  10  32
ENDBRANCH   1   5
BRANCH   3  34
ATOM     34  C   UNL A   1      36.242  22.936  23.932  1.00  0.00     0.118 C 
BRANCH  34  35
ATOM     35  C   UNL A   1      37.304  21.870  24.182  1.00  0.00     0.042 C 
BRANCH  35  36
ATOM     36  C   UNL A   1      37.645  21.403  25.609  1.00  0.00     0.118 C 
BRANCH  36  37
ATOM     37  N   UNL A   1      38.905  20.711  25.827  1.00  0.00    -0.352 N 
ATOM     38  C   UNL A   1      40.101  21.075  26.408  1.00  0.00     0.251 C 
ATOM     39  H   UNL A   1      38.904  19.787  25.486  1.00  0.00     0.163 HD
ATOM     40  O   UNL A   1      41.055  20.301  26.441  1.00  0.00    -0.269 OA
BRANCH  38  41
ATOM     41  C   UNL A   1      40.294  22.435  26.918  1.00  0.00     0.039 A 
ATOM     42  C   UNL A   1      41.309  22.676  27.852  1.00  0.00     0.014 A 
ATOM     43  C   UNL A   1      39.520  23.473  26.418  1.00  0.00     0.014 A 
ATOM     44  C   UNL A   1      41.660  23.989  28.157  1.00  0.00     0.010 A 
ATOM     45  C   UNL A   1      39.938  24.770  26.635  1.00  0.00     0.010 A 
ATOM     46  C   UNL A   1      41.034  25.037  27.472  1.00  0.00    -0.014 A 
BRANCH  46  47
ATOM     47  C   UNL A   1      41.505  26.438  27.525  1.00  0.00     0.031 A 
ATOM     48  C   UNL A   1      42.863  26.752  26.978  1.00  0.00     0.074 A 
ATOM     49  C   UNL A   1      40.826  27.332  28.270  1.00  0.00     0.049 A 
ATOM     50  N   UNL A   1      43.659  27.746  27.260  1.00  0.00    -0.248 NA
ATOM     51  C   UNL A   1      43.434  25.758  26.052  1.00  0.00     0.031 C 
ATOM     52  C   UNL A   1      39.522  27.105  28.897  1.00  0.00     0.029 A 
ATOM     53  N   UNL A   1      41.170  28.597  28.673  1.00  0.00    -0.354 N 
ATOM     54  C   UNL A   1      44.850  27.463  26.606  1.00  0.00     0.074 A 
ATOM     55  C   UNL A   1      44.682  26.189  25.941  1.00  0.00     0.031 C 
ATOM     56  C   UNL A   1      39.172  28.195  29.598  1.00  0.00     0.029 A 
ATOM     57  C   UNL A   1      40.254  29.169  29.522  1.00  0.00     0.049 A 
ATOM     58  H   UNL A   1      41.993  29.052  28.380  1.00  0.00     0.167 HD
ATOM     59  C   UNL A   1      45.974  28.212  26.564  1.00  0.00     0.037 A 
ATOM     60  C   UNL A   1      40.300  30.338  30.189  1.00  0.00     0.037 A 
ATOM     61  C   UNL A   1      46.079  29.512  27.170  1.00  0.00     0.049 A 
ATOM     62  C   UNL A   1      41.527  31.193  30.057  1.00  0.00     0.074 A 
ATOM     63  C   UNL A   1      47.126  30.411  27.103  1.00  0.00     0.029 A 
ATOM     64  N   UNL A   1      45.085  30.103  27.937  1.00  0.00    -0.354 N 
ATOM     65  N   UNL A   1      42.640  30.939  29.411  1.00  0.00    -0.248 NA
ATOM     66  C   UNL A   1      41.514  32.490  30.746  1.00  0.00     0.031 C 
ATOM     67  C   UNL A   1      46.773  31.542  27.846  1.00  0.00     0.029 A 
ATOM     68  C   UNL A   1      45.493  31.358  28.349  1.00  0.00     0.049 A 
ATOM     69  H   UNL A   1      44.218  29.690  28.156  1.00  0.00     0.167 HD
ATOM     70  C   UNL A   1      43.453  32.046  29.600  1.00  0.00     0.074 A 
ATOM     71  C   UNL A   1      42.700  32.981  30.412  1.00  0.00     0.031 C 
ATOM     72  C   UNL A   1      44.711  32.268  29.147  1.00  0.00     0.037 A 
BRANCH  59  73
ATOM     73  C   UNL A   1      47.157  27.664  25.823  1.00  0.00     0.064 A 
ATOM     74  C   UNL A   1      48.197  27.024  26.515  1.00  0.00     0.173 A 
ATOM     75  C   UNL A   1      47.284  27.803  24.433  1.00  0.00     0.173 A 
ATOM     76  F   UNL A   1      48.128  26.866  27.846  1.00  0.00    -0.203 F 
ATOM     77  C   UNL A   1      49.320  26.550  25.842  1.00  0.00     0.198 A 
ATOM     78  C   UNL A   1      48.392  27.299  23.760  1.00  0.00     0.198 A 
ATOM     79  F   UNL A   1      46.311  28.394  23.723  1.00  0.00    -0.203 F 
ATOM     80  F   UNL A   1      50.312  25.963  26.527  1.00  0.00    -0.200 F 
ATOM     81  C   UNL A   1      49.414  26.681  24.465  1.00  0.00     0.200 A 
ATOM     82  F   UNL A   1      48.466  27.401  22.425  1.00  0.00    -0.200 F 
ATOM     83  F   UNL A   1      50.486  26.207  23.816  1.00  0.00    -0.200 F 
ENDBRANCH  59  73
BRANCH  60  84
ATOM     84  C   UNL A   1      39.132  30.767  30.999  1.00  0.00     0.064 A 
ATOM     85  C   UNL A   1      38.162  31.647  30.498  1.00  0.00     0.173 A 
ATOM     86  C   UNL A   1      39.002  30.342  32.327  1.00  0.00     0.173 A 
ATOM     87  F   UNL A   1      38.247  32.094  29.237  1.00  0.00    -0.203 F 
ATOM     88  C   UNL A   1      37.117  32.099  31.303  1.00  0.00     0.198 A 
ATOM     89  C   UNL A   1      37.946  30.776  33.125  1.00  0.00     0.198 A 
ATOM     90  F   UNL A   1      39.898  29.489  32.846  1.00  0.00    -0.203 F 
ATOM     91  F   UNL A   1      36.222  32.968  30.814  1.00  0.00    -0.200 F 
ATOM     92  C   UNL A   1      37.009  31.662  32.615  1.00  0.00     0.200 A 
ATOM     93  F   UNL A   1      37.837  30.337  34.387  1.00  0.00    -0.200 F 
ATOM     94  F   UNL A   1      36.003  32.093  33.389  1.00  0.00    -0.200 F 
ENDBRANCH  60  84
BRANCH  72  95
ATOM     95  C   UNL A   1      45.348  33.576  29.495  1.00  0.00     0.064 A 
ATOM     96  C   UNL A   1      46.041  33.725  30.705  1.00  0.00     0.173 A 
ATOM     97  C   UNL A   1      45.178  34.705  28.682  1.00  0.00     0.173 A 
ATOM     98  F   UNL A   1      46.219  32.672  31.516  1.00  0.00    -0.203 F 
ATOM     99  C   UNL A   1      46.519  34.969  31.102  1.00  0.00     0.198 A 
ATOM    100  C   UNL A   1      45.679  35.943  29.073  1.00  0.00     0.198 A 
ATOM    101  F   UNL A   1      44.533  34.603  27.510  1.00  0.00    -0.203 F 
ATOM    102  F   UNL A   1      47.143  35.100  32.282  1.00  0.00    -0.200 F 
ATOM    103  C   UNL A   1      46.337  36.076  30.287  1.00  0.00     0.200 A 
ATOM    104  F   UNL A   1      45.518  37.009  28.277  1.00  0.00    -0.200 F 
ATOM    105  F   UNL A   1      46.795  37.274  30.673  1.00  0.00    -0.200 F 
ENDBRANCH  72  95
ENDBRANCH  46  47
ENDBRANCH  38  41
ENDBRANCH  36  37
ENDBRANCH  35  36
ENDBRANCH  34  35
ENDBRANCH   3  34
TORSDOF 16
ENDMDL
