MODEL 1
REMARK VINA RESULT:     -13.0      0.000      0.000
REMARK SMILES Cc1ccc(-n2nc(C(=O)NCCCNC(=O)c3ccc(-c4c5nc(c(-c6c(F)c(F)c(F)c(F)c6F)c6ccc([nH]6)c(-c6c(F)c(F)c(F)c(F)c6F)c6nc(c(-c7c(F)c(F)c(F)c(F)c7F)c7ccc4[nH]7)C=C6)C=C5)cc3)c(C)c(C#N)c2=O)cc1Cl
REMARK SMILES IDX 13 1 12 2 11 3 9 4 10 5 8 7 6 8 7 9 86 10 83 11 87 12 81 13
REMARK SMILES IDX 82 14 5 15 1 16 2 17 3 18 89 19 4 20 88 21 90 22 84 23 85 24
REMARK SMILES IDX 14 25 15 26 16 27 17 29 18 30 19 31 80 32 20 33 79 34 21 35
REMARK SMILES IDX 22 36 23 37 73 38 24 39 78 40 72 41 74 42 25 43 77 44 71 45
REMARK SMILES IDX 70 46 26 48 58 49 38 50 57 51 39 52 42 53 56 54 75 55 40 56
REMARK SMILES IDX 41 57 55 59 76 60 43 61 27 62 28 63 36 64 29 65 30 66 34 67
REMARK SMILES IDX 37 68 31 69 32 70 35 71 33 72 59 73 60 74 68 75 61 76 62 77
REMARK SMILES IDX 66 78 69 79 63 80 64 81 67 82 65 83 44 84 45 85 53 86 46 87
REMARK SMILES IDX 47 88 51 89 54 90 48 91 49 92 52 93 50 94
REMARK H PARENT 11 6 15 28 74 47 42 58
REMARK Flexibility Score: inf
ROOT
ATOM      1  C   UNL A   1      33.824  29.031  23.614  1.00  0.00     0.042 C 
ENDROOT
BRANCH   1   2
ATOM      2  C   UNL A   1      32.594  28.634  22.796  1.00  0.00     0.118 C 
BRANCH   2   3
ATOM      3  N   UNL A   1      32.865  27.469  21.996  1.00  0.00    -0.351 N 
ATOM      4  C   UNL A   1      33.033  26.128  22.177  1.00  0.00     0.272 C 
ATOM      5  O   UNL A   1      33.277  25.534  21.118  1.00  0.00    -0.267 OA
ATOM      6  H   UNL A   1      32.954  27.709  21.045  1.00  0.00     0.163 HD
BRANCH   4   7
ATOM      7  C   UNL A   1      32.912  25.249  23.452  1.00  0.00     0.153 A 
ATOM      8  N   UNL A   1      34.228  23.912  24.810  1.00  0.00    -0.195 N 
ATOM      9  N   UNL A   1      34.078  24.738  23.748  1.00  0.00    -0.159 NA
ATOM     10  C   UNL A   1      33.213  23.573  25.682  1.00  0.00     0.289 A 
ATOM     11  C   UNL A   1      31.910  24.198  25.394  1.00  0.00     0.124 A 
ATOM     12  O   UNL A   1      33.330  22.849  26.670  1.00  0.00    -0.266 OA
ATOM     13  C   UNL A   1      31.709  24.997  24.324  1.00  0.00     0.006 A 
ATOM     14  C   UNL A   1      30.375  25.628  24.137  1.00  0.00     0.048 C 
BRANCH   8  15
ATOM     15  C   UNL A   1      35.531  23.379  24.973  1.00  0.00     0.070 A 
ATOM     16  C   UNL A   1      39.244  21.404  25.904  1.00  0.00     0.046 C 
ATOM     17  C   UNL A   1      37.992  22.145  25.536  1.00  0.00    -0.032 A 
ATOM     18  C   UNL A   1      37.037  21.495  24.747  1.00  0.00     0.007 A 
ATOM     19  C   UNL A   1      37.719  23.446  25.994  1.00  0.00     0.046 A 
ATOM     20  C   UNL A   1      35.815  22.101  24.483  1.00  0.00     0.029 A 
ATOM     21  C   UNL A   1      36.510  24.078  25.684  1.00  0.00     0.049 A 
ATOM     22  Cl  UNL A   1      38.836  24.287  27.012  1.00  0.00    -0.084 Cl
ENDBRANCH   8  15
BRANCH  11  23
ATOM     23  C   UNL A   1      30.883  23.911  26.347  1.00  0.00     0.105 C 
ATOM     24  N   UNL A   1      30.106  23.690  27.175  1.00  0.00    -0.192 NA
ENDBRANCH  11  23
ENDBRANCH   4   7
ENDBRANCH   2   3
ENDBRANCH   1   2
BRANCH   1  25
ATOM     25  C   UNL A   1      33.605  28.915  25.110  1.00  0.00     0.118 C 
BRANCH  25  26
ATOM     26  N   UNL A   1      33.012  30.134  25.642  1.00  0.00    -0.352 N 
ATOM     27  C   UNL A   1      33.333  30.844  26.769  1.00  0.00     0.251 C 
ATOM     28  H   UNL A   1      32.270  30.503  25.111  1.00  0.00     0.163 HD
ATOM     29  O   UNL A   1      32.560  31.700  27.187  1.00  0.00    -0.269 OA
BRANCH  27  30
ATOM     30  C   UNL A   1      34.594  30.566  27.483  1.00  0.00     0.039 A 
ATOM     31  C   UNL A   1      35.529  31.593  27.626  1.00  0.00     0.014 A 
ATOM     32  C   UNL A   1      34.857  29.296  28.003  1.00  0.00     0.014 A 
ATOM     33  C   UNL A   1      36.702  31.360  28.341  1.00  0.00     0.010 A 
ATOM     34  C   UNL A   1      35.974  29.095  28.802  1.00  0.00     0.010 A 
ATOM     35  C   UNL A   1      36.913  30.121  28.966  1.00  0.00    -0.014 A 
BRANCH  35  36
ATOM     36  C   UNL A   1      38.120  29.862  29.784  1.00  0.00     0.031 A 
ATOM     37  C   UNL A   1      39.188  28.942  29.263  1.00  0.00     0.074 A 
ATOM     38  C   UNL A   1      38.215  30.405  31.012  1.00  0.00     0.049 A 
ATOM     39  N   UNL A   1      40.269  28.513  29.860  1.00  0.00    -0.248 NA
ATOM     40  C   UNL A   1      39.009  28.415  27.899  1.00  0.00     0.031 C 
ATOM     41  C   UNL A   1      37.219  31.287  31.626  1.00  0.00     0.029 A 
ATOM     42  N   UNL A   1      39.190  30.291  31.970  1.00  0.00    -0.354 N 
ATOM     43  C   UNL A   1      40.892  27.669  28.950  1.00  0.00     0.074 A 
ATOM     44  C   UNL A   1      40.041  27.592  27.785  1.00  0.00     0.031 C 
ATOM     45  C   UNL A   1      37.649  31.655  32.843  1.00  0.00     0.029 A 
ATOM     46  C   UNL A   1      38.921  30.996  33.117  1.00  0.00     0.049 A 
ATOM     47  H   UNL A   1      40.007  29.754  31.846  1.00  0.00     0.167 HD
ATOM     48  C   UNL A   1      42.083  27.040  29.071  1.00  0.00     0.037 A 
ATOM     49  C   UNL A   1      39.618  31.086  34.266  1.00  0.00     0.037 A 
ATOM     50  C   UNL A   1      42.929  27.141  30.229  1.00  0.00     0.049 A 
ATOM     51  C   UNL A   1      40.921  30.341  34.382  1.00  0.00     0.074 A 
ATOM     52  C   UNL A   1      44.170  26.567  30.438  1.00  0.00     0.029 A 
ATOM     53  N   UNL A   1      42.625  27.867  31.372  1.00  0.00    -0.354 N 
ATOM     54  N   UNL A   1      41.521  29.580  33.499  1.00  0.00    -0.248 NA
ATOM     55  C   UNL A   1      41.649  30.474  35.650  1.00  0.00     0.031 C 
ATOM     56  C   UNL A   1      44.590  26.894  31.730  1.00  0.00     0.029 A 
ATOM     57  C   UNL A   1      43.648  27.738  32.296  1.00  0.00     0.049 A 
ATOM     58  H   UNL A   1      41.805  28.395  31.504  1.00  0.00     0.167 HD
ATOM     59  C   UNL A   1      42.714  29.180  34.086  1.00  0.00     0.074 A 
ATOM     60  C   UNL A   1      42.757  29.793  35.397  1.00  0.00     0.031 C 
ATOM     61  C   UNL A   1      43.685  28.378  33.586  1.00  0.00     0.037 A 
BRANCH  48  62
ATOM     62  C   UNL A   1      42.566  26.205  27.922  1.00  0.00     0.064 A 
ATOM     63  C   UNL A   1      42.188  24.861  27.785  1.00  0.00     0.173 A 
ATOM     64  C   UNL A   1      43.317  26.784  26.888  1.00  0.00     0.173 A 
ATOM     65  F   UNL A   1      41.484  24.255  28.752  1.00  0.00    -0.203 F 
ATOM     66  C   UNL A   1      42.541  24.129  26.654  1.00  0.00     0.198 A 
ATOM     67  C   UNL A   1      43.641  26.058  25.744  1.00  0.00     0.198 A 
ATOM     68  F   UNL A   1      43.706  28.066  26.969  1.00  0.00    -0.203 F 
ATOM     69  F   UNL A   1      42.185  22.840  26.555  1.00  0.00    -0.200 F 
ATOM     70  C   UNL A   1      43.251  24.733  25.628  1.00  0.00     0.200 A 
ATOM     71  F   UNL A   1      44.313  26.649  24.747  1.00  0.00    -0.200 F 
ATOM     72  F   UNL A   1      43.559  24.037  24.524  1.00  0.00    -0.200 F 
ENDBRANCH  48  62
BRANCH  49  73
ATOM     73  C   UNL A   1      39.112  31.929  35.383  1.00  0.00     0.064 A 
ATOM     74  C   UNL A   1      39.392  33.302  35.432  1.00  0.00     0.173 A 
ATOM     75  C   UNL A   1      38.349  31.383  36.426  1.00  0.00     0.173 A 
ATOM     76  F   UNL A   1      40.131  33.870  34.469  1.00  0.00    -0.203 F 
ATOM     77  C   UNL A   1      38.952  34.091  36.495  1.00  0.00     0.198 A 
ATOM     78  C   UNL A   1      37.877  32.180  37.468  1.00  0.00     0.198 A 
ATOM     79  F   UNL A   1      38.044  30.078  36.425  1.00  0.00    -0.203 F 
ATOM     80  F   UNL A   1      39.282  35.388  36.543  1.00  0.00    -0.200 F 
ATOM     81  C   UNL A   1      38.189  33.530  37.508  1.00  0.00     0.200 A 
ATOM     82  F   UNL A   1      37.123  31.639  38.434  1.00  0.00    -0.200 F 
ATOM     83  F   UNL A   1      37.761  34.290  38.525  1.00  0.00    -0.200 F 
ENDBRANCH  49  73
BRANCH  61  84
ATOM     84  C   UNL A   1      44.912  28.162  34.426  1.00  0.00     0.064 A 
ATOM     85  C   UNL A   1      46.009  29.033  34.373  1.00  0.00     0.173 A 
ATOM     86  C   UNL A   1      44.957  27.102  35.346  1.00  0.00     0.173 A 
ATOM     87  F   UNL A   1      46.018  30.057  33.507  1.00  0.00    -0.203 F 
ATOM     88  C   UNL A   1      47.119  28.834  35.189  1.00  0.00     0.198 A 
ATOM     89  C   UNL A   1      46.051  26.930  36.188  1.00  0.00     0.198 A 
ATOM     90  F   UNL A   1      43.929  26.247  35.446  1.00  0.00    -0.203 F 
ATOM     91  F   UNL A   1      48.179  29.648  35.085  1.00  0.00    -0.200 F 
ATOM     92  C   UNL A   1      47.135  27.791  36.104  1.00  0.00     0.200 A 
ATOM     93  F   UNL A   1      46.054  25.936  37.087  1.00  0.00    -0.200 F 
ATOM     94  F   UNL A   1      48.198  27.611  36.899  1.00  0.00    -0.200 F 
ENDBRANCH  61  84
ENDBRANCH  35  36
ENDBRANCH  27  30
ENDBRANCH  25  26
ENDBRANCH   1  25
TORSDOF 12
ENDMDL
MODEL 2
REMARK VINA RESULT:     -12.9      0.262      1.607
REMARK SMILES Cc1ccc(-n2nc(C(=O)NCCCNC(=O)c3ccc(-c4c5nc(c(-c6c(F)c(F)c(F)c(F)c6F)c6ccc([nH]6)c(-c6c(F)c(F)c(F)c(F)c6F)c6nc(c(-c7c(F)c(F)c(F)c(F)c7F)c7ccc4[nH]7)C=C6)C=C5)cc3)c(C)c(C#N)c2=O)cc1Cl
REMARK SMILES IDX 13 1 12 2 11 3 9 4 10 5 8 7 6 8 7 9 86 10 83 11 87 12 81 13
REMARK SMILES IDX 82 14 5 15 1 16 2 17 3 18 89 19 4 20 88 21 90 22 84 23 85 24
REMARK SMILES IDX 14 25 15 26 16 27 17 29 18 30 19 31 80 32 20 33 79 34 21 35
REMARK SMILES IDX 22 36 23 37 73 38 24 39 78 40 72 41 74 42 25 43 77 44 71 45
REMARK SMILES IDX 70 46 26 48 58 49 38 50 57 51 39 52 42 53 56 54 75 55 40 56
REMARK SMILES IDX 41 57 55 59 76 60 43 61 27 62 28 63 36 64 29 65 30 66 34 67
REMARK SMILES IDX 37 68 31 69 32 70 35 71 33 72 59 73 60 74 68 75 61 76 62 77
REMARK SMILES IDX 66 78 69 79 63 80 64 81 67 82 65 83 44 84 45 85 53 86 46 87
REMARK SMILES IDX 47 88 51 89 54 90 48 91 49 92 52 93 50 94
REMARK H PARENT 11 6 15 28 74 47 42 58
REMARK Flexibility Score: inf
ROOT
ATOM      1  C   UNL A   1      32.889  28.609  23.816  1.00  0.00     0.042 C 
ENDROOT
BRANCH   1   2
ATOM      2  C   UNL A   1      33.849  28.501  22.631  1.00  0.00     0.118 C 
BRANCH   2   3
ATOM      3  N   UNL A   1      33.545  27.346  21.829  1.00  0.00    -0.351 N 
ATOM      4  C   UNL A   1      33.278  26.022  22.014  1.00  0.00     0.272 C 
ATOM      5  O   UNL A   1      33.094  25.422  20.946  1.00  0.00    -0.267 OA
ATOM      6  H   UNL A   1      33.524  27.579  20.872  1.00  0.00     0.163 HD
BRANCH   4   7
ATOM      7  C   UNL A   1      33.115  25.187  23.314  1.00  0.00     0.153 A 
ATOM      8  N   UNL A   1      34.388  23.901  24.761  1.00  0.00    -0.195 N 
ATOM      9  N   UNL A   1      34.271  24.690  23.666  1.00  0.00    -0.159 NA
ATOM     10  C   UNL A   1      33.344  23.590  25.610  1.00  0.00     0.289 A 
ATOM     11  C   UNL A   1      32.050  24.201  25.256  1.00  0.00     0.124 A 
ATOM     12  O   UNL A   1      33.429  22.901  26.626  1.00  0.00    -0.266 OA
ATOM     13  C   UNL A   1      31.885  24.962  24.153  1.00  0.00     0.006 A 
ATOM     14  C   UNL A   1      30.557  25.582  23.899  1.00  0.00     0.048 C 
BRANCH   8  15
ATOM     15  C   UNL A   1      35.685  23.379  24.986  1.00  0.00     0.070 A 
ATOM     16  C   UNL A   1      39.363  21.427  26.091  1.00  0.00     0.046 C 
ATOM     17  C   UNL A   1      38.125  22.161  25.665  1.00  0.00    -0.032 A 
ATOM     18  C   UNL A   1      37.217  21.508  24.823  1.00  0.00     0.007 A 
ATOM     19  C   UNL A   1      37.818  23.456  26.117  1.00  0.00     0.046 A 
ATOM     20  C   UNL A   1      36.004  22.107  24.502  1.00  0.00     0.029 A 
ATOM     21  C   UNL A   1      36.621  24.080  25.751  1.00  0.00     0.049 A 
ATOM     22  Cl  UNL A   1      38.874  24.298  27.196  1.00  0.00    -0.084 Cl
ENDBRANCH   8  15
BRANCH  11  23
ATOM     23  C   UNL A   1      30.992  23.945  26.183  1.00  0.00     0.105 C 
ATOM     24  N   UNL A   1      30.190  23.703  26.981  1.00  0.00    -0.192 NA
ENDBRANCH  11  23
ENDBRANCH   4   7
ENDBRANCH   2   3
ENDBRANCH   1   2
BRANCH   1  25
ATOM     25  C   UNL A   1      33.580  29.009  25.106  1.00  0.00     0.118 C 
BRANCH  25  26
ATOM     26  N   UNL A   1      32.976  30.210  25.664  1.00  0.00    -0.352 N 
ATOM     27  C   UNL A   1      33.294  30.901  26.804  1.00  0.00     0.251 C 
ATOM     28  H   UNL A   1      32.228  30.583  25.144  1.00  0.00     0.163 HD
ATOM     29  O   UNL A   1      32.513  31.740  27.242  1.00  0.00    -0.269 OA
BRANCH  27  30
ATOM     30  C   UNL A   1      34.560  30.621  27.509  1.00  0.00     0.039 A 
ATOM     31  C   UNL A   1      35.492  31.651  27.655  1.00  0.00     0.014 A 
ATOM     32  C   UNL A   1      34.831  29.348  28.016  1.00  0.00     0.014 A 
ATOM     33  C   UNL A   1      36.670  31.416  28.361  1.00  0.00     0.010 A 
ATOM     34  C   UNL A   1      35.953  29.144  28.806  1.00  0.00     0.010 A 
ATOM     35  C   UNL A   1      36.889  30.172  28.974  1.00  0.00    -0.014 A 
BRANCH  35  36
ATOM     36  C   UNL A   1      38.102  29.911  29.783  1.00  0.00     0.031 A 
ATOM     37  C   UNL A   1      39.170  29.000  29.247  1.00  0.00     0.074 A 
ATOM     38  C   UNL A   1      38.202  30.444  31.015  1.00  0.00     0.049 A 
ATOM     39  N   UNL A   1      40.257  28.570  29.835  1.00  0.00    -0.248 NA
ATOM     40  C   UNL A   1      38.985  28.483  27.880  1.00  0.00     0.031 C 
ATOM     41  C   UNL A   1      37.207  31.317  31.642  1.00  0.00     0.029 A 
ATOM     42  N   UNL A   1      39.183  30.325  31.966  1.00  0.00    -0.354 N 
ATOM     43  C   UNL A   1      40.876  27.735  28.914  1.00  0.00     0.074 A 
ATOM     44  C   UNL A   1      40.019  27.666  27.753  1.00  0.00     0.031 C 
ATOM     45  C   UNL A   1      37.642  31.676  32.859  1.00  0.00     0.029 A 
ATOM     46  C   UNL A   1      38.918  31.019  33.121  1.00  0.00     0.049 A 
ATOM     47  H   UNL A   1      40.001  29.792  31.832  1.00  0.00     0.167 HD
ATOM     48  C   UNL A   1      42.070  27.110  29.022  1.00  0.00     0.037 A 
ATOM     49  C   UNL A   1      39.622  31.101  34.266  1.00  0.00     0.037 A 
ATOM     50  C   UNL A   1      42.924  27.204  30.176  1.00  0.00     0.049 A 
ATOM     51  C   UNL A   1      40.928  30.361  34.368  1.00  0.00     0.074 A 
ATOM     52  C   UNL A   1      44.167  26.632  30.373  1.00  0.00     0.029 A 
ATOM     53  N   UNL A   1      42.623  27.919  31.327  1.00  0.00    -0.354 N 
ATOM     54  N   UNL A   1      41.526  29.609  33.475  1.00  0.00    -0.248 NA
ATOM     55  C   UNL A   1      41.664  30.486  35.633  1.00  0.00     0.031 C 
ATOM     56  C   UNL A   1      44.593  26.950  31.665  1.00  0.00     0.029 A 
ATOM     57  C   UNL A   1      43.652  27.786  32.243  1.00  0.00     0.049 A 
ATOM     58  H   UNL A   1      41.802  28.443  31.469  1.00  0.00     0.167 HD
ATOM     59  C   UNL A   1      42.723  29.209  34.052  1.00  0.00     0.074 A 
ATOM     60  C   UNL A   1      42.772  29.811  35.368  1.00  0.00     0.031 C 
ATOM     61  C   UNL A   1      43.694  28.415  33.539  1.00  0.00     0.037 A 
BRANCH  48  62
ATOM     62  C   UNL A   1      42.550  26.287  27.863  1.00  0.00     0.064 A 
ATOM     63  C   UNL A   1      43.358  26.840  26.858  1.00  0.00     0.173 A 
ATOM     64  C   UNL A   1      42.297  24.908  27.816  1.00  0.00     0.173 A 
ATOM     65  F   UNL A   1      43.617  28.156  26.847  1.00  0.00    -0.203 F 
ATOM     66  C   UNL A   1      43.898  26.043  25.852  1.00  0.00     0.198 A 
ATOM     67  C   UNL A   1      42.864  24.108  26.827  1.00  0.00     0.198 A 
ATOM     68  F   UNL A   1      41.529  24.328  28.752  1.00  0.00    -0.203 F 
ATOM     69  F   UNL A   1      44.651  26.597  24.892  1.00  0.00    -0.200 F 
ATOM     70  C   UNL A   1      43.665  24.676  25.848  1.00  0.00     0.200 A 
ATOM     71  F   UNL A   1      42.652  22.785  26.835  1.00  0.00    -0.200 F 
ATOM     72  F   UNL A   1      44.216  23.903  24.900  1.00  0.00    -0.200 F 
ENDBRANCH  48  62
BRANCH  49  73
ATOM     73  C   UNL A   1      39.120  31.933  35.393  1.00  0.00     0.064 A 
ATOM     74  C   UNL A   1      39.412  33.303  35.464  1.00  0.00     0.173 A 
ATOM     75  C   UNL A   1      38.346  31.380  36.425  1.00  0.00     0.173 A 
ATOM     76  F   UNL A   1      40.162  33.877  34.512  1.00  0.00    -0.203 F 
ATOM     77  C   UNL A   1      38.976  34.080  36.536  1.00  0.00     0.198 A 
ATOM     78  C   UNL A   1      37.877  32.166  37.476  1.00  0.00     0.198 A 
ATOM     79  F   UNL A   1      38.028  30.078  36.404  1.00  0.00    -0.203 F 
ATOM     80  F   UNL A   1      39.318  35.373  36.605  1.00  0.00    -0.200 F 
ATOM     81  C   UNL A   1      38.203  33.512  37.538  1.00  0.00     0.200 A 
ATOM     82  F   UNL A   1      37.114  31.618  38.431  1.00  0.00    -0.200 F 
ATOM     83  F   UNL A   1      37.778  34.261  38.564  1.00  0.00    -0.200 F 
ENDBRANCH  49  73
BRANCH  61  84
ATOM     84  C   UNL A   1      44.927  28.196  34.370  1.00  0.00     0.064 A 
ATOM     85  C   UNL A   1      45.046  27.112  35.250  1.00  0.00     0.173 A 
ATOM     86  C   UNL A   1      46.031  29.053  34.229  1.00  0.00     0.173 A 
ATOM     87  F   UNL A   1      44.017  26.268  35.426  1.00  0.00    -0.203 F 
ATOM     88  C   UNL A   1      46.213  26.909  35.980  1.00  0.00     0.198 A 
ATOM     89  C   UNL A   1      47.211  28.823  34.930  1.00  0.00     0.198 A 
ATOM     90  F   UNL A   1      45.975  30.098  33.391  1.00  0.00    -0.203 F 
ATOM     91  F   UNL A   1      46.286  25.895  36.855  1.00  0.00    -0.200 F 
ATOM     92  C   UNL A   1      47.298  27.757  35.812  1.00  0.00     0.200 A 
ATOM     93  F   UNL A   1      48.265  29.630  34.748  1.00  0.00    -0.200 F 
ATOM     94  F   UNL A   1      48.427  27.550  36.504  1.00  0.00    -0.200 F 
ENDBRANCH  61  84
ENDBRANCH  35  36
ENDBRANCH  27  30
ENDBRANCH  25  26
ENDBRANCH   1  25
TORSDOF 12
ENDMDL
MODEL 3
REMARK VINA RESULT:     -12.9      0.329      7.205
REMARK SMILES Cc1ccc(-n2nc(C(=O)NCCCNC(=O)c3ccc(-c4c5nc(c(-c6c(F)c(F)c(F)c(F)c6F)c6ccc([nH]6)c(-c6c(F)c(F)c(F)c(F)c6F)c6nc(c(-c7c(F)c(F)c(F)c(F)c7F)c7ccc4[nH]7)C=C6)C=C5)cc3)c(C)c(C#N)c2=O)cc1Cl
REMARK SMILES IDX 13 1 12 2 11 3 9 4 10 5 8 7 6 8 7 9 86 10 83 11 87 12 81 13
REMARK SMILES IDX 82 14 5 15 1 16 2 17 3 18 89 19 4 20 88 21 90 22 84 23 85 24
REMARK SMILES IDX 14 25 15 26 16 27 17 29 18 30 19 31 80 32 20 33 79 34 21 35
REMARK SMILES IDX 22 36 23 37 73 38 24 39 78 40 72 41 74 42 25 43 77 44 71 45
REMARK SMILES IDX 70 46 26 48 58 49 38 50 57 51 39 52 42 53 56 54 75 55 40 56
REMARK SMILES IDX 41 57 55 59 76 60 43 61 27 62 28 63 36 64 29 65 30 66 34 67
REMARK SMILES IDX 37 68 31 69 32 70 35 71 33 72 59 73 60 74 68 75 61 76 62 77
REMARK SMILES IDX 66 78 69 79 63 80 64 81 67 82 65 83 44 84 45 85 53 86 46 87
REMARK SMILES IDX 47 88 51 89 54 90 48 91 49 92 52 93 50 94
REMARK H PARENT 11 6 15 28 74 47 42 58
REMARK Flexibility Score: inf
ROOT
ATOM      1  C   UNL A   1      32.870  28.846  23.763  1.00  0.00     0.042 C 
ENDROOT
BRANCH   1   2
ATOM      2  C   UNL A   1      33.970  28.604  22.729  1.00  0.00     0.118 C 
BRANCH   2   3
ATOM      3  N   UNL A   1      33.653  27.473  21.898  1.00  0.00    -0.351 N 
ATOM      4  C   UNL A   1      33.367  26.149  22.049  1.00  0.00     0.272 C 
ATOM      5  O   UNL A   1      33.177  25.577  20.967  1.00  0.00    -0.267 OA
ATOM      6  H   UNL A   1      33.638  27.729  20.947  1.00  0.00     0.163 HD
BRANCH   4   7
ATOM      7  C   UNL A   1      33.188  25.285  23.329  1.00  0.00     0.153 A 
ATOM      8  N   UNL A   1      34.439  23.952  24.751  1.00  0.00    -0.195 N 
ATOM      9  N   UNL A   1      34.337  24.768  23.675  1.00  0.00    -0.159 NA
ATOM     10  C   UNL A   1      33.387  23.631  25.587  1.00  0.00     0.289 A 
ATOM     11  C   UNL A   1      32.102  24.263  25.240  1.00  0.00     0.124 A 
ATOM     12  O   UNL A   1      33.460  22.918  26.586  1.00  0.00    -0.266 OA
ATOM     13  C   UNL A   1      31.950  25.052  24.155  1.00  0.00     0.006 A 
ATOM     14  C   UNL A   1      30.630  25.691  23.909  1.00  0.00     0.048 C 
BRANCH   8  15
ATOM     15  C   UNL A   1      35.730  23.411  24.971  1.00  0.00     0.070 A 
ATOM     16  C   UNL A   1      39.381  21.392  26.044  1.00  0.00     0.046 C 
ATOM     17  C   UNL A   1      38.153  22.151  25.632  1.00  0.00    -0.032 A 
ATOM     18  C   UNL A   1      37.249  21.535  24.759  1.00  0.00     0.007 A 
ATOM     19  C   UNL A   1      37.852  23.432  26.126  1.00  0.00     0.046 A 
ATOM     20  C   UNL A   1      36.044  22.154  24.447  1.00  0.00     0.029 A 
ATOM     21  C   UNL A   1      36.663  24.078  25.770  1.00  0.00     0.049 A 
ATOM     22  Cl  UNL A   1      38.904  24.227  27.244  1.00  0.00    -0.084 Cl
ENDBRANCH   8  15
BRANCH  11  23
ATOM     23  C   UNL A   1      31.036  23.996  26.155  1.00  0.00     0.105 C 
ATOM     24  N   UNL A   1      30.196  23.703  26.895  1.00  0.00    -0.192 NA
ENDBRANCH  11  23
ENDBRANCH   4   7
ENDBRANCH   2   3
ENDBRANCH   1   2
BRANCH   1  25
ATOM     25  C   UNL A   1      33.409  29.077  25.161  1.00  0.00     0.118 C 
BRANCH  25  26
ATOM     26  N   UNL A   1      32.921  30.338  25.702  1.00  0.00    -0.352 N 
ATOM     27  C   UNL A   1      33.318  31.023  26.820  1.00  0.00     0.251 C 
ATOM     28  H   UNL A   1      32.199  30.763  25.185  1.00  0.00     0.163 HD
ATOM     29  O   UNL A   1      32.620  31.936  27.251  1.00  0.00    -0.269 OA
BRANCH  27  30
ATOM     30  C   UNL A   1      34.567  30.649  27.511  1.00  0.00     0.039 A 
ATOM     31  C   UNL A   1      35.568  31.612  27.662  1.00  0.00     0.014 A 
ATOM     32  C   UNL A   1      34.755  29.354  28.001  1.00  0.00     0.014 A 
ATOM     33  C   UNL A   1      36.733  31.288  28.356  1.00  0.00     0.010 A 
ATOM     34  C   UNL A   1      35.866  29.065  28.779  1.00  0.00     0.010 A 
ATOM     35  C   UNL A   1      36.871  30.025  28.951  1.00  0.00    -0.014 A 
BRANCH  35  36
ATOM     36  C   UNL A   1      38.069  29.672  29.747  1.00  0.00     0.031 A 
ATOM     37  C   UNL A   1      38.257  30.270  31.113  1.00  0.00     0.074 A 
ATOM     38  C   UNL A   1      39.006  28.867  29.210  1.00  0.00     0.049 A 
ATOM     39  N   UNL A   1      39.276  30.164  31.926  1.00  0.00    -0.248 NA
ATOM     40  C   UNL A   1      37.168  31.118  31.627  1.00  0.00     0.031 C 
ATOM     41  C   UNL A   1      38.936  28.258  27.880  1.00  0.00     0.029 A 
ATOM     42  N   UNL A   1      40.204  28.428  29.712  1.00  0.00    -0.354 N 
ATOM     43  C   UNL A   1      38.951  30.931  33.037  1.00  0.00     0.074 A 
ATOM     44  C   UNL A   1      37.672  31.549  32.773  1.00  0.00     0.031 C 
ATOM     45  C   UNL A   1      40.028  27.504  27.684  1.00  0.00     0.029 A 
ATOM     46  C   UNL A   1      40.899  27.617  28.849  1.00  0.00     0.049 A 
ATOM     47  H   UNL A   1      40.536  28.672  30.607  1.00  0.00     0.167 HD
ATOM     48  C   UNL A   1      39.650  31.078  34.186  1.00  0.00     0.037 A 
ATOM     49  C   UNL A   1      42.110  27.042  28.980  1.00  0.00     0.037 A 
ATOM     50  C   UNL A   1      40.913  30.440  34.443  1.00  0.00     0.049 A 
ATOM     51  C   UNL A   1      42.879  27.259  30.256  1.00  0.00     0.074 A 
ATOM     52  C   UNL A   1      41.688  30.501  35.587  1.00  0.00     0.029 A 
ATOM     53  N   UNL A   1      41.585  29.623  33.546  1.00  0.00    -0.354 N 
ATOM     54  N   UNL A   1      42.544  27.950  31.318  1.00  0.00    -0.248 NA
ATOM     55  C   UNL A   1      44.191  26.607  30.357  1.00  0.00     0.031 C 
ATOM     56  C   UNL A   1      42.857  29.770  35.361  1.00  0.00     0.029 A 
ATOM     57  C   UNL A   1      42.774  29.189  34.106  1.00  0.00     0.049 A 
ATOM     58  H   UNL A   1      41.264  29.386  32.646  1.00  0.00     0.167 HD
ATOM     59  C   UNL A   1      43.579  27.783  32.227  1.00  0.00     0.074 A 
ATOM     60  C   UNL A   1      44.549  26.913  31.595  1.00  0.00     0.031 C 
ATOM     61  C   UNL A   1      43.715  28.302  33.471  1.00  0.00     0.037 A 
BRANCH  48  62
ATOM     62  C   UNL A   1      39.066  31.936  35.268  1.00  0.00     0.064 A 
ATOM     63  C   UNL A   1      38.317  31.381  36.317  1.00  0.00     0.173 A 
ATOM     64  C   UNL A   1      39.354  33.308  35.322  1.00  0.00     0.173 A 
ATOM     65  F   UNL A   1      37.999  30.078  36.305  1.00  0.00    -0.203 F 
ATOM     66  C   UNL A   1      37.881  32.167  37.381  1.00  0.00     0.198 A 
ATOM     67  C   UNL A   1      38.945  34.084  36.404  1.00  0.00     0.198 A 
ATOM     68  F   UNL A   1      40.065  33.889  34.345  1.00  0.00    -0.203 F 
ATOM     69  F   UNL A   1      37.151  31.619  38.362  1.00  0.00    -0.200 F 
ATOM     70  C   UNL A   1      38.211  33.513  37.432  1.00  0.00     0.200 A 
ATOM     71  F   UNL A   1      39.278  35.381  36.459  1.00  0.00    -0.200 F 
ATOM     72  F   UNL A   1      37.823  34.261  38.475  1.00  0.00    -0.200 F 
ENDBRANCH  48  62
BRANCH  49  73
ATOM     73  C   UNL A   1      42.656  26.191  27.889  1.00  0.00     0.064 A 
ATOM     74  C   UNL A   1      43.471  26.739  26.887  1.00  0.00     0.173 A 
ATOM     75  C   UNL A   1      42.372  24.819  27.816  1.00  0.00     0.173 A 
ATOM     76  F   UNL A   1      43.760  28.049  26.901  1.00  0.00    -0.203 F 
ATOM     77  C   UNL A   1      43.955  25.955  25.841  1.00  0.00     0.198 A 
ATOM     78  C   UNL A   1      42.888  24.028  26.791  1.00  0.00     0.198 A 
ATOM     79  F   UNL A   1      41.605  24.241  28.751  1.00  0.00    -0.203 F 
ATOM     80  F   UNL A   1      44.685  26.518  24.869  1.00  0.00    -0.200 F 
ATOM     81  C   UNL A   1      43.669  24.599  25.798  1.00  0.00     0.200 A 
ATOM     82  F   UNL A   1      42.626  22.715  26.764  1.00  0.00    -0.200 F 
ATOM     83  F   UNL A   1      44.141  23.845  24.796  1.00  0.00    -0.200 F 
ENDBRANCH  49  73
BRANCH  61  84
ATOM     84  C   UNL A   1      44.924  27.897  34.267  1.00  0.00     0.064 A 
ATOM     85  C   UNL A   1      46.096  28.666  34.277  1.00  0.00     0.173 A 
ATOM     86  C   UNL A   1      44.879  26.755  35.083  1.00  0.00     0.173 A 
ATOM     87  F   UNL A   1      46.192  29.762  33.510  1.00  0.00    -0.203 F 
ATOM     88  C   UNL A   1      47.189  28.291  35.053  1.00  0.00     0.198 A 
ATOM     89  C   UNL A   1      45.960  26.406  35.887  1.00  0.00     0.198 A 
ATOM     90  F   UNL A   1      43.778  25.992  35.120  1.00  0.00    -0.203 F 
ATOM     91  F   UNL A   1      48.319  29.012  35.007  1.00  0.00    -0.200 F 
ATOM     92  C   UNL A   1      47.117  27.169  35.865  1.00  0.00     0.200 A 
ATOM     93  F   UNL A   1      45.878  25.335  36.689  1.00  0.00    -0.200 F 
ATOM     94  F   UNL A   1      48.165  26.819  36.623  1.00  0.00    -0.200 F 
ENDBRANCH  61  84
ENDBRANCH  35  36
ENDBRANCH  27  30
ENDBRANCH  25  26
ENDBRANCH   1  25
TORSDOF 12
ENDMDL
