MODEL 1
REMARK VINA RESULT:     -13.3      0.000      0.000
REMARK SMILES Cc1ccc(S(=O)(=O)N[C@H]2C=C[C@@H](C(=O)NCCCNC(=O)c3ccc(-c4c5nc(c(-c6c(F)c(F)c(F)c(F)c6F)c6ccc([nH]6)c(-c6c(F)c(F)c(F)c(F)c6F)c6nc(c(-c7c(F)c(F)c(F)c(F)c7F)c7ccc4[nH]7)C=C6)C=C5)cc3)C2)c(C)c1
REMARK SMILES IDX 17 1 16 2 14 3 15 4 13 6 10 7 11 8 86 9 12 10 9 11 6 13 7 14
REMARK SMILES IDX 8 15 5 16 1 17 2 18 3 19 89 20 4 21 87 22 88 23 18 24 19 25
REMARK SMILES IDX 20 26 21 27 22 29 23 30 24 31 85 32 25 33 84 34 26 35 27 36
REMARK SMILES IDX 28 37 78 38 29 39 83 40 77 41 79 42 30 43 82 44 76 45 75 46
REMARK SMILES IDX 31 48 63 49 43 50 62 51 44 52 47 53 61 54 80 55 45 56 46 57
REMARK SMILES IDX 60 59 81 60 48 61 32 62 33 63 41 64 34 65 35 66 39 67 42 68
REMARK SMILES IDX 36 69 37 70 40 71 38 72 64 73 65 74 73 75 66 76 67 77 71 78
REMARK SMILES IDX 74 79 68 80 69 81 72 82 70 83 49 84 50 85 58 86 51 87 52 88
REMARK SMILES IDX 56 89 59 90 53 91 54 92 57 93 55 94
REMARK H PARENT 16 5 9 12 20 28 79 47 47 58
REMARK Flexibility Score: inf
ROOT
ATOM      1  C   UNL A   1      31.856  30.736  26.099  1.00  0.00     0.117 C 
ENDROOT
BRANCH   1   2
ATOM      2  N   UNL A   1      31.635  29.700  27.095  1.00  0.00    -0.356 N 
ATOM      3  C   UNL A   1      31.626  28.344  27.000  1.00  0.00     0.226 C 
ATOM      4  O   UNL A   1      31.411  27.712  28.040  1.00  0.00    -0.274 OA
ATOM      5  H   UNL A   1      31.460  30.043  28.001  1.00  0.00     0.163 HD
BRANCH   3   6
ATOM      6  C   UNL A   1      31.858  27.594  25.687  1.00  0.00     0.103 C 
ATOM      7  C   UNL A   1      31.257  25.357  24.834  1.00  0.00     0.093 C 
ATOM      8  C   UNL A   1      30.375  26.427  24.294  1.00  0.00    -0.011 C 
ATOM      9  C   UNL A   1      32.156  26.100  25.842  1.00  0.00     0.042 C 
ATOM     10  C   UNL A   1      30.700  27.642  24.746  1.00  0.00    -0.016 C 
BRANCH   7  11
ATOM     11  N   UNL A   1      30.564  24.281  25.535  1.00  0.00    -0.204 NA
ATOM     12  H   UNL A   1      30.041  24.742  26.279  1.00  0.00     0.142 HD
BRANCH  11  13
ATOM     13  S   UNL A   1      31.277  22.952  26.260  1.00  0.00     0.241 S 
ATOM     14  O   UNL A   1      30.511  21.789  25.872  1.00  0.00    -0.207 OA
ATOM     15  O   UNL A   1      31.431  23.324  27.651  1.00  0.00    -0.207 OA
BRANCH  13  16
ATOM     16  C   UNL A   1      32.918  22.814  25.578  1.00  0.00     0.085 A 
ATOM     17  C   UNL A   1      36.905  22.929  23.941  1.00  0.00     0.044 C 
ATOM     18  C   UNL A   1      35.525  22.871  24.526  1.00  0.00    -0.051 A 
ATOM     19  C   UNL A   1      35.312  23.099  25.885  1.00  0.00     0.005 A 
ATOM     20  C   UNL A   1      34.432  22.540  23.713  1.00  0.00     0.008 A 
ATOM     21  C   UNL A   1      34.020  23.060  26.410  1.00  0.00     0.022 A 
ATOM     22  C   UNL A   1      33.121  22.487  24.225  1.00  0.00    -0.031 A 
ATOM     23  C   UNL A   1      32.036  22.056  23.276  1.00  0.00     0.046 C 
ENDBRANCH  13  16
ENDBRANCH  11  13
ENDBRANCH   7  11
ENDBRANCH   3   6
ENDBRANCH   1   2
BRANCH   1  24
ATOM     24  C   UNL A   1      31.521  32.124  26.630  1.00  0.00     0.042 C 
BRANCH  24  25
ATOM     25  C   UNL A   1      32.683  32.813  27.336  1.00  0.00     0.118 C 
BRANCH  25  26
ATOM     26  N   UNL A   1      32.399  34.200  27.675  1.00  0.00    -0.352 N 
ATOM     27  C   UNL A   1      32.976  35.006  28.626  1.00  0.00     0.251 C 
ATOM     28  H   UNL A   1      31.687  34.624  27.143  1.00  0.00     0.163 HD
ATOM     29  O   UNL A   1      32.499  36.109  28.875  1.00  0.00    -0.269 OA
BRANCH  27  30
ATOM     30  C   UNL A   1      34.163  34.537  29.371  1.00  0.00     0.039 A 
ATOM     31  C   UNL A   1      33.986  33.972  30.637  1.00  0.00     0.014 A 
ATOM     32  C   UNL A   1      35.442  34.652  28.824  1.00  0.00     0.014 A 
ATOM     33  C   UNL A   1      35.087  33.451  31.322  1.00  0.00     0.010 A 
ATOM     34  C   UNL A   1      36.525  34.068  29.474  1.00  0.00     0.010 A 
ATOM     35  C   UNL A   1      36.358  33.458  30.727  1.00  0.00    -0.014 A 
BRANCH  35  36
ATOM     36  C   UNL A   1      37.530  32.824  31.383  1.00  0.00     0.031 A 
ATOM     37  C   UNL A   1      38.216  31.658  30.732  1.00  0.00     0.074 A 
ATOM     38  C   UNL A   1      37.909  33.232  32.610  1.00  0.00     0.049 A 
ATOM     39  N   UNL A   1      39.157  30.879  31.203  1.00  0.00    -0.248 NA
ATOM     40  C   UNL A   1      37.758  31.297  29.380  1.00  0.00     0.031 C 
ATOM     41  C   UNL A   1      37.291  34.321  33.368  1.00  0.00     0.029 A 
ATOM     42  N   UNL A   1      38.888  32.758  33.447  1.00  0.00    -0.354 N 
ATOM     43  C   UNL A   1      39.380  29.921  30.223  1.00  0.00     0.074 A 
ATOM     44  C   UNL A   1      38.452  30.192  29.147  1.00  0.00     0.031 C 
ATOM     45  C   UNL A   1      37.908  34.435  34.554  1.00  0.00     0.029 A 
ATOM     46  C   UNL A   1      38.937  33.405  34.657  1.00  0.00     0.049 A 
ATOM     47  H   UNL A   1      39.498  32.025  33.203  1.00  0.00     0.167 HD
ATOM     48  C   UNL A   1      40.288  28.917  30.217  1.00  0.00     0.037 A 
ATOM     49  C   UNL A   1      39.711  33.181  35.736  1.00  0.00     0.037 A 
ATOM     50  C   UNL A   1      41.237  28.676  31.273  1.00  0.00     0.049 A 
ATOM     51  C   UNL A   1      40.729  32.074  35.695  1.00  0.00     0.074 A 
ATOM     52  C   UNL A   1      42.249  27.735  31.324  1.00  0.00     0.029 A 
ATOM     53  N   UNL A   1      41.287  29.385  32.464  1.00  0.00    -0.354 N 
ATOM     54  N   UNL A   1      40.976  31.215  34.737  1.00  0.00    -0.248 NA
ATOM     55  C   UNL A   1      41.578  31.910  36.883  1.00  0.00     0.031 C 
ATOM     56  C   UNL A   1      42.887  27.845  32.565  1.00  0.00     0.029 A 
ATOM     57  C   UNL A   1      42.302  28.888  33.267  1.00  0.00     0.049 A 
ATOM     58  H   UNL A   1      40.691  30.130  32.704  1.00  0.00     0.167 HD
ATOM     59  C   UNL A   1      42.024  30.427  35.192  1.00  0.00     0.074 A 
ATOM     60  C   UNL A   1      42.373  30.916  36.510  1.00  0.00     0.031 C 
ATOM     61  C   UNL A   1      42.642  29.393  34.572  1.00  0.00     0.037 A 
BRANCH  48  62
ATOM     62  C   UNL A   1      40.299  27.999  29.030  1.00  0.00     0.064 A 
ATOM     63  C   UNL A   1      39.563  26.803  29.015  1.00  0.00     0.173 A 
ATOM     64  C   UNL A   1      41.031  28.333  27.880  1.00  0.00     0.173 A 
ATOM     65  F   UNL A   1      38.856  26.433  30.093  1.00  0.00    -0.203 F 
ATOM     66  C   UNL A   1      39.585  25.962  27.906  1.00  0.00     0.198 A 
ATOM     67  C   UNL A   1      41.026  27.504  26.761  1.00  0.00     0.198 A 
ATOM     68  F   UNL A   1      41.746  29.467  27.838  1.00  0.00    -0.203 F 
ATOM     69  F   UNL A   1      38.917  24.801  27.934  1.00  0.00    -0.200 F 
ATOM     70  C   UNL A   1      40.311  26.315  26.778  1.00  0.00     0.200 A 
ATOM     71  F   UNL A   1      41.717  27.853  25.668  1.00  0.00    -0.200 F 
ATOM     72  F   UNL A   1      40.327  25.507  25.709  1.00  0.00    -0.200 F 
ENDBRANCH  48  62
BRANCH  49  73
ATOM     73  C   UNL A   1      39.562  34.038  36.940  1.00  0.00     0.064 A 
ATOM     74  C   UNL A   1      38.787  33.617  38.030  1.00  0.00     0.173 A 
ATOM     75  C   UNL A   1      40.199  35.284  37.032  1.00  0.00     0.173 A 
ATOM     76  F   UNL A   1      38.142  32.443  37.979  1.00  0.00    -0.203 F 
ATOM     77  C   UNL A   1      38.642  34.418  39.161  1.00  0.00     0.198 A 
ATOM     78  C   UNL A   1      40.074  36.072  38.174  1.00  0.00     0.198 A 
ATOM     79  F   UNL A   1      40.955  35.729  36.017  1.00  0.00    -0.203 F 
ATOM     80  F   UNL A   1      37.865  34.010  40.172  1.00  0.00    -0.200 F 
ATOM     81  C   UNL A   1      39.291  35.642  39.234  1.00  0.00     0.200 A 
ATOM     82  F   UNL A   1      40.712  37.249  38.247  1.00  0.00    -0.200 F 
ATOM     83  F   UNL A   1      39.156  36.409  40.325  1.00  0.00    -0.200 F 
ENDBRANCH  49  73
BRANCH  61  84
ATOM     84  C   UNL A   1      43.785  28.740  35.293  1.00  0.00     0.064 A 
ATOM     85  C   UNL A   1      45.105  29.188  35.139  1.00  0.00     0.173 A 
ATOM     86  C   UNL A   1      43.547  27.686  36.188  1.00  0.00     0.173 A 
ATOM     87  F   UNL A   1      45.384  30.183  34.283  1.00  0.00    -0.203 F 
ATOM     88  C   UNL A   1      46.148  28.593  35.841  1.00  0.00     0.198 A 
ATOM     89  C   UNL A   1      44.589  27.110  36.908  1.00  0.00     0.198 A 
ATOM     90  F   UNL A   1      42.302  27.224  36.374  1.00  0.00    -0.203 F 
ATOM     91  F   UNL A   1      47.407  29.010  35.650  1.00  0.00    -0.200 F 
ATOM     92  C   UNL A   1      45.890  27.560  36.731  1.00  0.00     0.200 A 
ATOM     93  F   UNL A   1      44.336  26.121  37.777  1.00  0.00    -0.200 F 
ATOM     94  F   UNL A   1      46.894  26.994  37.414  1.00  0.00    -0.200 F 
ENDBRANCH  61  84
ENDBRANCH  35  36
ENDBRANCH  27  30
ENDBRANCH  25  26
ENDBRANCH  24  25
ENDBRANCH   1  24
TORSDOF 13
ENDMDL
MODEL 2
REMARK VINA RESULT:     -13.3      4.621     10.747
REMARK SMILES Cc1ccc(S(=O)(=O)N[C@H]2C=C[C@@H](C(=O)NCCCNC(=O)c3ccc(-c4c5nc(c(-c6c(F)c(F)c(F)c(F)c6F)c6ccc([nH]6)c(-c6c(F)c(F)c(F)c(F)c6F)c6nc(c(-c7c(F)c(F)c(F)c(F)c7F)c7ccc4[nH]7)C=C6)C=C5)cc3)C2)c(C)c1
REMARK SMILES IDX 17 1 16 2 14 3 15 4 13 6 10 7 11 8 86 9 12 10 9 11 6 13 7 14
REMARK SMILES IDX 8 15 5 16 1 17 2 18 3 19 89 20 4 21 87 22 88 23 18 24 19 25
REMARK SMILES IDX 20 26 21 27 22 29 23 30 24 31 85 32 25 33 84 34 26 35 27 36
REMARK SMILES IDX 28 37 78 38 29 39 83 40 77 41 79 42 30 43 82 44 76 45 75 46
REMARK SMILES IDX 31 48 63 49 43 50 62 51 44 52 47 53 61 54 80 55 45 56 46 57
REMARK SMILES IDX 60 59 81 60 48 61 32 62 33 63 41 64 34 65 35 66 39 67 42 68
REMARK SMILES IDX 36 69 37 70 40 71 38 72 64 73 65 74 73 75 66 76 67 77 71 78
REMARK SMILES IDX 74 79 68 80 69 81 72 82 70 83 49 84 50 85 58 86 51 87 52 88
REMARK SMILES IDX 56 89 59 90 53 91 54 92 57 93 55 94
REMARK H PARENT 16 5 9 12 20 28 79 47 47 58
REMARK Flexibility Score: inf
ROOT
ATOM      1  C   UNL A   1      33.004  34.174  28.227  1.00  0.00     0.117 C 
ENDROOT
BRANCH   1   2
ATOM      2  N   UNL A   1      33.121  35.616  28.374  1.00  0.00    -0.356 N 
ATOM      3  C   UNL A   1      33.174  36.408  29.477  1.00  0.00     0.226 C 
ATOM      4  O   UNL A   1      33.283  37.624  29.287  1.00  0.00    -0.274 OA
ATOM      5  H   UNL A   1      33.170  36.106  27.522  1.00  0.00     0.163 HD
BRANCH   3   6
ATOM      6  C   UNL A   1      33.099  35.864  30.905  1.00  0.00     0.103 C 
ATOM      7  C   UNL A   1      34.760  35.329  32.651  1.00  0.00     0.093 C 
ATOM      8  C   UNL A   1      34.074  36.626  32.898  1.00  0.00    -0.011 C 
ATOM      9  C   UNL A   1      34.211  34.883  31.280  1.00  0.00     0.042 C 
ATOM     10  C   UNL A   1      33.166  36.918  31.961  1.00  0.00    -0.016 C 
BRANCH   7  11
ATOM     11  N   UNL A   1      36.214  35.407  32.565  1.00  0.00    -0.204 NA
ATOM     12  H   UNL A   1      36.417  35.510  31.571  1.00  0.00     0.142 HD
BRANCH  11  13
ATOM     13  S   UNL A   1      37.301  34.261  33.117  1.00  0.00     0.241 S 
ATOM     14  O   UNL A   1      36.666  32.969  32.987  1.00  0.00    -0.207 OA
ATOM     15  O   UNL A   1      37.746  34.757  34.404  1.00  0.00    -0.207 OA
BRANCH  13  16
ATOM     16  C   UNL A   1      38.710  34.322  32.027  1.00  0.00     0.085 A 
ATOM     17  C   UNL A   1      42.103  34.916  29.433  1.00  0.00     0.044 C 
ATOM     18  C   UNL A   1      40.935  34.691  30.347  1.00  0.00    -0.051 A 
ATOM     19  C   UNL A   1      41.071  34.813  31.730  1.00  0.00     0.005 A 
ATOM     20  C   UNL A   1      39.694  34.309  29.819  1.00  0.00     0.008 A 
ATOM     21  C   UNL A   1      39.971  34.619  32.564  1.00  0.00     0.022 A 
ATOM     22  C   UNL A   1      38.572  34.100  30.645  1.00  0.00    -0.031 A 
ATOM     23  C   UNL A   1      37.311  33.628  29.974  1.00  0.00     0.046 C 
ENDBRANCH  13  16
ENDBRANCH  11  13
ENDBRANCH   7  11
ENDBRANCH   3   6
ENDBRANCH   1   2
BRANCH   1  24
ATOM     24  C   UNL A   1      34.358  33.507  28.016  1.00  0.00     0.042 C 
BRANCH  24  25
ATOM     25  C   UNL A   1      34.550  32.230  28.826  1.00  0.00     0.118 C 
BRANCH  25  26
ATOM     26  N   UNL A   1      34.043  31.046  28.147  1.00  0.00    -0.352 N 
ATOM     27  C   UNL A   1      34.698  29.894  27.786  1.00  0.00     0.251 C 
ATOM     28  H   UNL A   1      33.087  31.075  27.912  1.00  0.00     0.163 HD
ATOM     29  O   UNL A   1      34.141  29.060  27.079  1.00  0.00    -0.269 OA
BRANCH  27  30
ATOM     30  C   UNL A   1      36.089  29.665  28.231  1.00  0.00     0.039 A 
ATOM     31  C   UNL A   1      36.322  29.309  29.562  1.00  0.00     0.014 A 
ATOM     32  C   UNL A   1      37.157  29.799  27.341  1.00  0.00     0.014 A 
ATOM     33  C   UNL A   1      37.621  29.011  29.982  1.00  0.00     0.010 A 
ATOM     34  C   UNL A   1      38.438  29.433  27.742  1.00  0.00     0.010 A 
ATOM     35  C   UNL A   1      38.683  29.031  29.064  1.00  0.00    -0.014 A 
BRANCH  35  36
ATOM     36  C   UNL A   1      40.057  28.624  29.452  1.00  0.00     0.031 A 
ATOM     37  C   UNL A   1      40.910  29.546  30.275  1.00  0.00     0.074 A 
ATOM     38  C   UNL A   1      40.570  27.473  28.976  1.00  0.00     0.049 A 
ATOM     39  N   UNL A   1      42.175  29.441  30.595  1.00  0.00    -0.248 NA
ATOM     40  C   UNL A   1      40.261  30.767  30.778  1.00  0.00     0.031 C 
ATOM     41  C   UNL A   1      39.860  26.517  28.126  1.00  0.00     0.029 A 
ATOM     42  N   UNL A   1      41.822  26.926  29.117  1.00  0.00    -0.354 N 
ATOM     43  C   UNL A   1      42.480  30.594  31.307  1.00  0.00     0.074 A 
ATOM     44  C   UNL A   1      41.280  31.401  31.340  1.00  0.00     0.031 C 
ATOM     45  C   UNL A   1      40.682  25.500  27.826  1.00  0.00     0.029 A 
ATOM     46  C   UNL A   1      41.989  25.750  28.428  1.00  0.00     0.049 A 
ATOM     47  H   UNL A   1      42.532  27.338  29.660  1.00  0.00     0.167 HD
ATOM     48  C   UNL A   1      43.652  30.938  31.893  1.00  0.00     0.037 A 
ATOM     49  C   UNL A   1      43.076  24.971  28.282  1.00  0.00     0.037 A 
ATOM     50  C   UNL A   1      44.831  30.112  31.891  1.00  0.00     0.049 A 
ATOM     51  C   UNL A   1      44.359  25.363  28.962  1.00  0.00     0.074 A 
ATOM     52  C   UNL A   1      46.041  30.336  32.523  1.00  0.00     0.029 A 
ATOM     53  N   UNL A   1      44.946  28.903  31.222  1.00  0.00    -0.354 N 
ATOM     54  N   UNL A   1      44.619  26.423  29.687  1.00  0.00    -0.248 NA
ATOM     55  C   UNL A   1      45.499  24.447  28.807  1.00  0.00     0.031 C 
ATOM     56  C   UNL A   1      46.904  29.282  32.202  1.00  0.00     0.029 A 
ATOM     57  C   UNL A   1      46.215  28.378  31.410  1.00  0.00     0.049 A 
ATOM     58  H   UNL A   1      44.233  28.480  30.692  1.00  0.00     0.167 HD
ATOM     59  C   UNL A   1      45.938  26.291  30.098  1.00  0.00     0.074 A 
ATOM     60  C   UNL A   1      46.425  25.042  29.548  1.00  0.00     0.031 C 
ATOM     61  C   UNL A   1      46.679  27.129  30.863  1.00  0.00     0.037 A 
BRANCH  48  62
ATOM     62  C   UNL A   1      43.717  32.268  32.584  1.00  0.00     0.064 A 
ATOM     63  C   UNL A   1      43.225  32.449  33.886  1.00  0.00     0.173 A 
ATOM     64  C   UNL A   1      44.307  33.371  31.947  1.00  0.00     0.173 A 
ATOM     65  F   UNL A   1      42.643  31.430  34.534  1.00  0.00    -0.203 F 
ATOM     66  C   UNL A   1      43.293  33.691  34.512  1.00  0.00     0.198 A 
ATOM     67  C   UNL A   1      44.401  34.604  32.588  1.00  0.00     0.198 A 
ATOM     68  F   UNL A   1      44.800  33.252  30.705  1.00  0.00    -0.203 F 
ATOM     69  F   UNL A   1      42.770  33.852  35.735  1.00  0.00    -0.200 F 
ATOM     70  C   UNL A   1      43.886  34.765  33.865  1.00  0.00     0.200 A 
ATOM     71  F   UNL A   1      44.985  35.637  31.967  1.00  0.00    -0.200 F 
ATOM     72  F   UNL A   1      43.955  35.958  34.471  1.00  0.00    -0.200 F 
ENDBRANCH  48  62
BRANCH  49  73
ATOM     73  C   UNL A   1      42.990  23.730  27.470  1.00  0.00     0.064 A 
ATOM     74  C   UNL A   1      43.387  23.723  26.125  1.00  0.00     0.173 A 
ATOM     75  C   UNL A   1      42.524  22.528  28.021  1.00  0.00     0.173 A 
ATOM     76  F   UNL A   1      43.820  24.854  25.549  1.00  0.00    -0.203 F 
ATOM     77  C   UNL A   1      43.307  22.562  25.358  1.00  0.00     0.198 A 
ATOM     78  C   UNL A   1      42.467  21.363  27.260  1.00  0.00     0.198 A 
ATOM     79  F   UNL A   1      42.136  22.483  29.304  1.00  0.00    -0.203 F 
ATOM     80  F   UNL A   1      43.655  22.592  24.065  1.00  0.00    -0.200 F 
ATOM     81  C   UNL A   1      42.853  21.382  25.928  1.00  0.00     0.200 A 
ATOM     82  F   UNL A   1      42.040  20.221  27.817  1.00  0.00    -0.200 F 
ATOM     83  F   UNL A   1      42.781  20.265  25.191  1.00  0.00    -0.200 F 
ENDBRANCH  49  73
BRANCH  61  84
ATOM     84  C   UNL A   1      48.084  26.709  31.184  1.00  0.00     0.064 A 
ATOM     85  C   UNL A   1      48.369  25.855  32.260  1.00  0.00     0.173 A 
ATOM     86  C   UNL A   1      49.150  27.127  30.374  1.00  0.00     0.173 A 
ATOM     87  F   UNL A   1      47.384  25.442  33.073  1.00  0.00    -0.203 F 
ATOM     88  C   UNL A   1      49.673  25.449  32.524  1.00  0.00     0.198 A 
ATOM     89  C   UNL A   1      50.450  26.698  30.624  1.00  0.00     0.198 A 
ATOM     90  F   UNL A   1      48.928  27.939  29.330  1.00  0.00    -0.203 F 
ATOM     91  F   UNL A   1      49.929  24.665  33.580  1.00  0.00    -0.200 F 
ATOM     92  C   UNL A   1      50.712  25.863  31.702  1.00  0.00     0.200 A 
ATOM     93  F   UNL A   1      51.449  27.088  29.822  1.00  0.00    -0.200 F 
ATOM     94  F   UNL A   1      51.966  25.464  31.951  1.00  0.00    -0.200 F 
ENDBRANCH  61  84
ENDBRANCH  35  36
ENDBRANCH  27  30
ENDBRANCH  25  26
ENDBRANCH  24  25
ENDBRANCH   1  24
TORSDOF 13
ENDMDL
MODEL 3
REMARK VINA RESULT:     -13.2      1.324      2.511
REMARK SMILES Cc1ccc(S(=O)(=O)N[C@H]2C=C[C@@H](C(=O)NCCCNC(=O)c3ccc(-c4c5nc(c(-c6c(F)c(F)c(F)c(F)c6F)c6ccc([nH]6)c(-c6c(F)c(F)c(F)c(F)c6F)c6nc(c(-c7c(F)c(F)c(F)c(F)c7F)c7ccc4[nH]7)C=C6)C=C5)cc3)C2)c(C)c1
REMARK SMILES IDX 17 1 16 2 14 3 15 4 13 6 10 7 11 8 86 9 12 10 9 11 6 13 7 14
REMARK SMILES IDX 8 15 5 16 1 17 2 18 3 19 89 20 4 21 87 22 88 23 18 24 19 25
REMARK SMILES IDX 20 26 21 27 22 29 23 30 24 31 85 32 25 33 84 34 26 35 27 36
REMARK SMILES IDX 28 37 78 38 29 39 83 40 77 41 79 42 30 43 82 44 76 45 75 46
REMARK SMILES IDX 31 48 63 49 43 50 62 51 44 52 47 53 61 54 80 55 45 56 46 57
REMARK SMILES IDX 60 59 81 60 48 61 32 62 33 63 41 64 34 65 35 66 39 67 42 68
REMARK SMILES IDX 36 69 37 70 40 71 38 72 64 73 65 74 73 75 66 76 67 77 71 78
REMARK SMILES IDX 74 79 68 80 69 81 72 82 70 83 49 84 50 85 58 86 51 87 52 88
REMARK SMILES IDX 56 89 59 90 53 91 54 92 57 93 55 94
REMARK H PARENT 16 5 9 12 20 28 79 47 47 58
REMARK Flexibility Score: inf
ROOT
ATOM      1  C   UNL A   1      31.805  30.604  26.181  1.00  0.00     0.117 C 
ENDROOT
BRANCH   1   2
ATOM      2  N   UNL A   1      31.117  30.238  24.954  1.00  0.00    -0.356 N 
ATOM      3  C   UNL A   1      31.478  29.424  23.926  1.00  0.00     0.226 C 
ATOM      4  O   UNL A   1      30.667  29.299  23.002  1.00  0.00    -0.274 OA
ATOM      5  H   UNL A   1      30.231  30.655  24.847  1.00  0.00     0.163 HD
BRANCH   3   6
ATOM      6  C   UNL A   1      32.816  28.685  23.871  1.00  0.00     0.103 C 
ATOM      7  C   UNL A   1      33.490  26.331  23.561  1.00  0.00     0.093 C 
ATOM      8  C   UNL A   1      33.661  27.139  22.323  1.00  0.00    -0.011 C 
ATOM      9  C   UNL A   1      32.822  27.312  24.546  1.00  0.00     0.042 C 
ATOM     10  C   UNL A   1      33.306  28.417  22.487  1.00  0.00    -0.016 C 
BRANCH   7  11
ATOM     11  N   UNL A   1      32.632  25.159  23.419  1.00  0.00    -0.204 NA
ATOM     12  H   UNL A   1      32.159  25.066  24.317  1.00  0.00     0.142 HD
BRANCH  11  13
ATOM     13  S   UNL A   1      33.130  23.611  23.023  1.00  0.00     0.241 S 
ATOM     14  O   UNL A   1      33.397  23.596  21.603  1.00  0.00    -0.207 OA
ATOM     15  O   UNL A   1      32.136  22.737  23.614  1.00  0.00    -0.207 OA
BRANCH  13  16
ATOM     16  C   UNL A   1      34.655  23.323  23.899  1.00  0.00     0.085 A 
ATOM     17  C   UNL A   1      38.297  22.193  25.913  1.00  0.00     0.044 C 
ATOM     18  C   UNL A   1      37.042  22.605  25.202  1.00  0.00    -0.051 A 
ATOM     19  C   UNL A   1      36.997  22.679  23.810  1.00  0.00     0.005 A 
ATOM     20  C   UNL A   1      35.905  22.966  25.937  1.00  0.00     0.008 A 
ATOM     21  C   UNL A   1      35.817  23.046  23.163  1.00  0.00     0.022 A 
ATOM     22  C   UNL A   1      34.706  23.347  25.304  1.00  0.00    -0.031 A 
ATOM     23  C   UNL A   1      33.572  23.778  26.194  1.00  0.00     0.046 C 
ENDBRANCH  13  16
ENDBRANCH  11  13
ENDBRANCH   7  11
ENDBRANCH   3   6
ENDBRANCH   1   2
BRANCH   1  24
ATOM     24  C   UNL A   1      31.514  32.042  26.595  1.00  0.00     0.042 C 
BRANCH  24  25
ATOM     25  C   UNL A   1      32.645  32.701  27.376  1.00  0.00     0.118 C 
BRANCH  25  26
ATOM     26  N   UNL A   1      32.383  34.100  27.682  1.00  0.00    -0.352 N 
ATOM     27  C   UNL A   1      32.983  34.923  28.604  1.00  0.00     0.251 C 
ATOM     28  H   UNL A   1      31.670  34.519  27.147  1.00  0.00     0.163 HD
ATOM     29  O   UNL A   1      32.524  36.039  28.828  1.00  0.00    -0.269 OA
BRANCH  27  30
ATOM     30  C   UNL A   1      34.173  34.458  29.346  1.00  0.00     0.039 A 
ATOM     31  C   UNL A   1      33.999  33.876  30.604  1.00  0.00     0.014 A 
ATOM     32  C   UNL A   1      35.453  34.593  28.803  1.00  0.00     0.014 A 
ATOM     33  C   UNL A   1      35.104  33.359  31.286  1.00  0.00     0.010 A 
ATOM     34  C   UNL A   1      36.540  34.014  29.450  1.00  0.00     0.010 A 
ATOM     35  C   UNL A   1      36.377  33.387  30.695  1.00  0.00    -0.014 A 
BRANCH  35  36
ATOM     36  C   UNL A   1      37.553  32.758  31.347  1.00  0.00     0.031 A 
ATOM     37  C   UNL A   1      38.244  31.598  30.690  1.00  0.00     0.074 A 
ATOM     38  C   UNL A   1      37.932  33.164  32.574  1.00  0.00     0.049 A 
ATOM     39  N   UNL A   1      39.191  30.823  31.158  1.00  0.00    -0.248 NA
ATOM     40  C   UNL A   1      37.786  31.238  29.339  1.00  0.00     0.031 C 
ATOM     41  C   UNL A   1      37.310  34.247  33.336  1.00  0.00     0.029 A 
ATOM     42  N   UNL A   1      38.917  32.694  33.407  1.00  0.00    -0.354 N 
ATOM     43  C   UNL A   1      39.418  29.869  30.174  1.00  0.00     0.074 A 
ATOM     44  C   UNL A   1      38.486  30.138  29.101  1.00  0.00     0.031 C 
ATOM     45  C   UNL A   1      37.929  34.362  34.522  1.00  0.00     0.029 A 
ATOM     46  C   UNL A   1      38.965  33.337  34.620  1.00  0.00     0.049 A 
ATOM     47  H   UNL A   1      39.530  31.965  33.160  1.00  0.00     0.167 HD
ATOM     48  C   UNL A   1      40.332  28.871  30.163  1.00  0.00     0.037 A 
ATOM     49  C   UNL A   1      39.742  33.115  35.696  1.00  0.00     0.037 A 
ATOM     50  C   UNL A   1      41.284  28.632  31.216  1.00  0.00     0.049 A 
ATOM     51  C   UNL A   1      40.766  32.014  35.649  1.00  0.00     0.074 A 
ATOM     52  C   UNL A   1      42.302  27.696  31.263  1.00  0.00     0.029 A 
ATOM     53  N   UNL A   1      41.333  29.337  32.410  1.00  0.00    -0.354 N 
ATOM     54  N   UNL A   1      41.016  31.159  34.689  1.00  0.00    -0.248 NA
ATOM     55  C   UNL A   1      41.619  31.852  36.835  1.00  0.00     0.031 C 
ATOM     56  C   UNL A   1      42.941  27.807  32.502  1.00  0.00     0.029 A 
ATOM     57  C   UNL A   1      42.353  28.844  33.208  1.00  0.00     0.049 A 
ATOM     58  H   UNL A   1      40.733  30.079  32.653  1.00  0.00     0.167 HD
ATOM     59  C   UNL A   1      42.070  30.376  35.139  1.00  0.00     0.074 A 
ATOM     60  C   UNL A   1      42.419  30.863  36.457  1.00  0.00     0.031 C 
ATOM     61  C   UNL A   1      42.693  29.347  34.515  1.00  0.00     0.037 A 
BRANCH  48  62
ATOM     62  C   UNL A   1      40.345  27.956  28.973  1.00  0.00     0.064 A 
ATOM     63  C   UNL A   1      41.093  28.251  27.823  1.00  0.00     0.173 A 
ATOM     64  C   UNL A   1      39.624  26.752  28.995  1.00  0.00     0.173 A 
ATOM     65  F   UNL A   1      41.791  29.394  27.748  1.00  0.00    -0.203 F 
ATOM     66  C   UNL A   1      41.093  27.392  26.728  1.00  0.00     0.198 A 
ATOM     67  C   UNL A   1      39.651  25.880  27.910  1.00  0.00     0.198 A 
ATOM     68  F   UNL A   1      38.898  26.417  30.073  1.00  0.00    -0.203 F 
ATOM     69  F   UNL A   1      41.773  27.720  25.621  1.00  0.00    -0.200 F 
ATOM     70  C   UNL A   1      40.377  26.205  26.774  1.00  0.00     0.200 A 
ATOM     71  F   UNL A   1      38.969  24.728  27.961  1.00  0.00    -0.200 F 
ATOM     72  F   UNL A   1      40.383  25.376  25.721  1.00  0.00    -0.200 F 
ENDBRANCH  48  62
BRANCH  49  73
ATOM     73  C   UNL A   1      39.590  33.968  36.902  1.00  0.00     0.064 A 
ATOM     74  C   UNL A   1      40.244  35.204  36.995  1.00  0.00     0.173 A 
ATOM     75  C   UNL A   1      38.781  33.574  37.978  1.00  0.00     0.173 A 
ATOM     76  F   UNL A   1      41.046  35.613  36.000  1.00  0.00    -0.203 F 
ATOM     77  C   UNL A   1      40.107  36.008  38.126  1.00  0.00     0.198 A 
ATOM     78  C   UNL A   1      38.624  34.389  39.096  1.00  0.00     0.198 A 
ATOM     79  F   UNL A   1      38.130  32.401  37.935  1.00  0.00    -0.203 F 
ATOM     80  F   UNL A   1      40.775  37.166  38.205  1.00  0.00    -0.200 F 
ATOM     81  C   UNL A   1      39.292  35.602  39.172  1.00  0.00     0.200 A 
ATOM     82  F   UNL A   1      37.827  34.001  40.101  1.00  0.00    -0.200 F 
ATOM     83  F   UNL A   1      39.156  36.378  40.256  1.00  0.00    -0.200 F 
ENDBRANCH  49  73
BRANCH  61  84
ATOM     84  C   UNL A   1      43.841  28.699  35.231  1.00  0.00     0.064 A 
ATOM     85  C   UNL A   1      43.653  27.595  36.075  1.00  0.00     0.173 A 
ATOM     86  C   UNL A   1      45.151  29.160  35.030  1.00  0.00     0.173 A 
ATOM     87  F   UNL A   1      42.417  27.129  36.311  1.00  0.00    -0.203 F 
ATOM     88  C   UNL A   1      44.734  26.986  36.706  1.00  0.00     0.198 A 
ATOM     89  C   UNL A   1      46.232  28.533  35.641  1.00  0.00     0.198 A 
ATOM     90  F   UNL A   1      45.383  30.210  34.228  1.00  0.00    -0.203 F 
ATOM     91  F   UNL A   1      44.528  25.957  37.539  1.00  0.00    -0.200 F 
ATOM     92  C   UNL A   1      46.023  27.449  36.483  1.00  0.00     0.200 A 
ATOM     93  F   UNL A   1      47.477  28.973  35.414  1.00  0.00    -0.200 F 
ATOM     94  F   UNL A   1      47.063  26.856  37.084  1.00  0.00    -0.200 F 
ENDBRANCH  61  84
ENDBRANCH  35  36
ENDBRANCH  27  30
ENDBRANCH  25  26
ENDBRANCH  24  25
ENDBRANCH   1  24
TORSDOF 13
ENDMDL
