MODEL 1
REMARK VINA RESULT:     -14.5      0.000      0.000
REMARK SMILES Cc1ccc(F)c(C(=O)Nc2cccc(C(=O)NCCCNC(=O)c3ccc(-c4c5nc(c(-c6c(F)c(F)c(F)c(F)c6F)c6ccc([nH]6)c(-c6c(F)c(F)c(F)c(F)c6F)c6nc(c(-c7c(F)c(F)c(F)c(F)c7F)c7ccc4[nH]7)C=C6)C=C5)cc3)c2)c1
REMARK SMILES IDX 20 1 19 2 18 3 16 4 17 5 15 7 11 8 12 9 88 10 13 11 14 12
REMARK SMILES IDX 10 13 8 14 9 15 7 17 1 18 2 19 3 20 89 21 4 22 5 23 6 24
REMARK SMILES IDX 21 25 22 26 23 27 24 29 25 30 26 31 87 32 27 33 86 34 28 35
REMARK SMILES IDX 29 36 30 37 80 38 31 39 85 40 79 41 81 42 32 43 84 44 78 45
REMARK SMILES IDX 77 46 33 48 65 49 45 50 64 51 46 52 49 53 63 54 82 55 47 56
REMARK SMILES IDX 48 57 62 59 83 60 50 61 34 62 35 63 43 64 36 65 37 66 41 67
REMARK SMILES IDX 44 68 38 69 39 70 42 71 40 72 66 73 67 74 75 75 68 76 69 77
REMARK SMILES IDX 73 78 76 79 70 80 71 81 74 82 72 83 51 84 52 85 60 86 53 87
REMARK SMILES IDX 54 88 58 89 61 90 55 91 56 92 59 93 57 94
REMARK H PARENT 18 6 10 16 22 28 81 47 49 58
REMARK Flexibility Score: inf
ROOT
ATOM      1  C   UNL A   1      33.450  28.960  27.185  1.00  0.00     0.042 C 
ENDROOT
BRANCH   1   2
ATOM      2  C   UNL A   1      32.720  29.891  26.216  1.00  0.00     0.118 C 
BRANCH   2   3
ATOM      3  N   UNL A   1      33.163  29.734  24.850  1.00  0.00    -0.352 N 
ATOM      4  C   UNL A   1      32.709  28.890  23.864  1.00  0.00     0.251 C 
ATOM      5  O   UNL A   1      33.188  29.022  22.738  1.00  0.00    -0.269 OA
ATOM      6  H   UNL A   1      33.906  30.322  24.583  1.00  0.00     0.163 HD
BRANCH   4   7
ATOM      7  C   UNL A   1      31.620  27.889  24.091  1.00  0.00     0.041 A 
ATOM      8  C   UNL A   1      30.602  26.036  25.299  1.00  0.00     0.042 A 
ATOM      9  C   UNL A   1      29.430  26.185  24.570  1.00  0.00     0.026 A 
ATOM     10  C   UNL A   1      31.714  26.798  24.959  1.00  0.00     0.040 A 
ATOM     11  C   UNL A   1      29.331  27.215  23.633  1.00  0.00     0.003 A 
ATOM     12  C   UNL A   1      30.405  28.087  23.424  1.00  0.00     0.014 A 
BRANCH   8  13
ATOM     13  N   UNL A   1      30.629  25.153  26.387  1.00  0.00    -0.322 N 
ATOM     14  C   UNL A   1      31.296  23.948  26.569  1.00  0.00     0.258 C 
ATOM     15  O   UNL A   1      30.935  23.245  27.514  1.00  0.00    -0.269 OA
ATOM     16  H   UNL A   1      30.079  25.435  27.155  1.00  0.00     0.170 HD
BRANCH  14  17
ATOM     17  C   UNL A   1      32.493  23.528  25.762  1.00  0.00     0.076 A 
ATOM     18  C   UNL A   1      36.298  23.818  25.757  1.00  0.00     0.044 C 
ATOM     19  C   UNL A   1      34.910  23.379  25.373  1.00  0.00    -0.050 A 
ATOM     20  C   UNL A   1      34.684  22.822  24.112  1.00  0.00     0.006 A 
ATOM     21  C   UNL A   1      33.815  23.635  26.226  1.00  0.00     0.020 A 
ATOM     22  C   UNL A   1      33.378  22.595  23.684  1.00  0.00     0.040 A 
ATOM     23  C   UNL A   1      32.299  22.971  24.490  1.00  0.00     0.135 A 
ATOM     24  F   UNL A   1      31.072  22.805  23.978  1.00  0.00    -0.206 F 
ENDBRANCH  14  17
ENDBRANCH   8  13
ENDBRANCH   4   7
ENDBRANCH   2   3
ENDBRANCH   1   2
BRANCH   1  25
ATOM     25  C   UNL A   1      34.923  29.167  27.043  1.00  0.00     0.118 C 
BRANCH  25  26
ATOM     26  N   UNL A   1      35.292  30.554  27.353  1.00  0.00    -0.352 N 
ATOM     27  C   UNL A   1      36.268  30.990  28.225  1.00  0.00     0.251 C 
ATOM     28  H   UNL A   1      34.782  31.254  26.886  1.00  0.00     0.163 HD
ATOM     29  O   UNL A   1      36.309  32.140  28.625  1.00  0.00    -0.269 OA
BRANCH  27  30
ATOM     30  C   UNL A   1      37.289  30.013  28.618  1.00  0.00     0.039 A 
ATOM     31  C   UNL A   1      37.124  29.113  29.675  1.00  0.00     0.014 A 
ATOM     32  C   UNL A   1      38.456  30.033  27.870  1.00  0.00     0.014 A 
ATOM     33  C   UNL A   1      38.170  28.244  29.972  1.00  0.00     0.010 A 
ATOM     34  C   UNL A   1      39.303  28.984  27.937  1.00  0.00     0.010 A 
ATOM     35  C   UNL A   1      39.256  28.221  29.100  1.00  0.00    -0.014 A 
BRANCH  35  36
ATOM     36  C   UNL A   1      40.549  27.625  29.344  1.00  0.00     0.031 A 
ATOM     37  C   UNL A   1      40.853  26.306  28.813  1.00  0.00     0.074 A 
ATOM     38  C   UNL A   1      41.485  28.549  29.668  1.00  0.00     0.049 A 
ATOM     39  N   UNL A   1      41.907  25.645  29.118  1.00  0.00    -0.248 NA
ATOM     40  C   UNL A   1      39.983  25.622  27.864  1.00  0.00     0.031 C 
ATOM     41  C   UNL A   1      42.922  28.565  29.462  1.00  0.00     0.029 A 
ATOM     42  N   UNL A   1      41.233  29.782  30.298  1.00  0.00    -0.354 N 
ATOM     43  C   UNL A   1      42.048  24.666  28.161  1.00  0.00     0.074 A 
ATOM     44  C   UNL A   1      40.759  24.592  27.511  1.00  0.00     0.031 C 
ATOM     45  C   UNL A   1      43.448  29.543  30.229  1.00  0.00     0.029 A 
ATOM     46  C   UNL A   1      42.374  30.059  31.068  1.00  0.00     0.049 A 
ATOM     47  H   UNL A   1      40.423  30.337  30.216  1.00  0.00     0.167 HD
ATOM     48  C   UNL A   1      43.303  24.183  27.924  1.00  0.00     0.037 A 
ATOM     49  C   UNL A   1      42.243  29.884  32.420  1.00  0.00     0.037 A 
ATOM     50  C   UNL A   1      44.278  24.860  28.794  1.00  0.00     0.049 A 
ATOM     51  C   UNL A   1      42.996  28.664  32.917  1.00  0.00     0.074 A 
ATOM     52  C   UNL A   1      45.193  25.886  28.614  1.00  0.00     0.029 A 
ATOM     53  N   UNL A   1      44.125  24.744  30.164  1.00  0.00    -0.354 N 
ATOM     54  N   UNL A   1      43.594  27.800  32.143  1.00  0.00    -0.248 NA
ATOM     55  C   UNL A   1      43.078  28.288  34.324  1.00  0.00     0.031 C 
ATOM     56  C   UNL A   1      45.554  26.395  29.904  1.00  0.00     0.029 A 
ATOM     57  C   UNL A   1      44.870  25.671  30.865  1.00  0.00     0.049 A 
ATOM     58  H   UNL A   1      43.547  24.072  30.592  1.00  0.00     0.167 HD
ATOM     59  C   UNL A   1      44.094  26.769  32.882  1.00  0.00     0.074 A 
ATOM     60  C   UNL A   1      43.732  27.115  34.248  1.00  0.00     0.031 C 
ATOM     61  C   UNL A   1      44.739  25.702  32.318  1.00  0.00     0.037 A 
BRANCH  48  62
ATOM     62  C   UNL A   1      43.701  23.302  26.758  1.00  0.00     0.064 A 
ATOM     63  C   UNL A   1      43.274  21.957  26.706  1.00  0.00     0.173 A 
ATOM     64  C   UNL A   1      44.489  23.704  25.662  1.00  0.00     0.173 A 
ATOM     65  F   UNL A   1      42.439  21.451  27.624  1.00  0.00    -0.203 F 
ATOM     66  C   UNL A   1      43.675  21.075  25.701  1.00  0.00     0.198 A 
ATOM     67  C   UNL A   1      44.929  22.810  24.678  1.00  0.00     0.198 A 
ATOM     68  F   UNL A   1      44.809  24.984  25.453  1.00  0.00    -0.203 F 
ATOM     69  F   UNL A   1      43.229  19.811  25.711  1.00  0.00    -0.200 F 
ATOM     70  C   UNL A   1      44.525  21.493  24.699  1.00  0.00     0.200 A 
ATOM     71  F   UNL A   1      45.735  23.244  23.698  1.00  0.00    -0.200 F 
ATOM     72  F   UNL A   1      44.925  20.643  23.745  1.00  0.00    -0.200 F 
ENDBRANCH  48  62
BRANCH  49  73
ATOM     73  C   UNL A   1      40.873  30.317  32.881  1.00  0.00     0.064 A 
ATOM     74  C   UNL A   1      40.501  31.666  32.665  1.00  0.00     0.173 A 
ATOM     75  C   UNL A   1      39.832  29.393  33.054  1.00  0.00     0.173 A 
ATOM     76  F   UNL A   1      41.448  32.599  32.481  1.00  0.00    -0.203 F 
ATOM     77  C   UNL A   1      39.168  32.035  32.473  1.00  0.00     0.198 A 
ATOM     78  C   UNL A   1      38.495  29.775  32.891  1.00  0.00     0.198 A 
ATOM     79  F   UNL A   1      40.102  28.096  33.256  1.00  0.00    -0.203 F 
ATOM     80  F   UNL A   1      38.868  33.292  32.114  1.00  0.00    -0.200 F 
ATOM     81  C   UNL A   1      38.169  31.082  32.559  1.00  0.00     0.200 A 
ATOM     82  F   UNL A   1      37.525  28.851  32.965  1.00  0.00    -0.200 F 
ATOM     83  F   UNL A   1      36.899  31.414  32.288  1.00  0.00    -0.200 F 
ENDBRANCH  49  73
BRANCH  61  84
ATOM     84  C   UNL A   1      45.283  24.555  33.128  1.00  0.00     0.064 A 
ATOM     85  C   UNL A   1      44.489  23.460  33.494  1.00  0.00     0.173 A 
ATOM     86  C   UNL A   1      46.599  24.560  33.646  1.00  0.00     0.173 A 
ATOM     87  F   UNL A   1      43.192  23.407  33.158  1.00  0.00    -0.203 F 
ATOM     88  C   UNL A   1      45.005  22.397  34.237  1.00  0.00     0.198 A 
ATOM     89  C   UNL A   1      47.088  23.535  34.447  1.00  0.00     0.198 A 
ATOM     90  F   UNL A   1      47.473  25.535  33.369  1.00  0.00    -0.203 F 
ATOM     91  F   UNL A   1      44.237  21.328  34.486  1.00  0.00    -0.200 F 
ATOM     92  C   UNL A   1      46.301  22.438  34.718  1.00  0.00     0.200 A 
ATOM     93  F   UNL A   1      48.333  23.616  34.938  1.00  0.00    -0.200 F 
ATOM     94  F   UNL A   1      46.793  21.421  35.438  1.00  0.00    -0.200 F 
ENDBRANCH  61  84
ENDBRANCH  35  36
ENDBRANCH  27  30
ENDBRANCH  25  26
ENDBRANCH   1  25
TORSDOF 12
ENDMDL
MODEL 2
REMARK VINA RESULT:     -14.4      1.137      1.986
REMARK SMILES Cc1ccc(F)c(C(=O)Nc2cccc(C(=O)NCCCNC(=O)c3ccc(-c4c5nc(c(-c6c(F)c(F)c(F)c(F)c6F)c6ccc([nH]6)c(-c6c(F)c(F)c(F)c(F)c6F)c6nc(c(-c7c(F)c(F)c(F)c(F)c7F)c7ccc4[nH]7)C=C6)C=C5)cc3)c2)c1
REMARK SMILES IDX 20 1 19 2 18 3 16 4 17 5 15 7 11 8 12 9 88 10 13 11 14 12
REMARK SMILES IDX 10 13 8 14 9 15 7 17 1 18 2 19 3 20 89 21 4 22 5 23 6 24
REMARK SMILES IDX 21 25 22 26 23 27 24 29 25 30 26 31 87 32 27 33 86 34 28 35
REMARK SMILES IDX 29 36 30 37 80 38 31 39 85 40 79 41 81 42 32 43 84 44 78 45
REMARK SMILES IDX 77 46 33 48 65 49 45 50 64 51 46 52 49 53 63 54 82 55 47 56
REMARK SMILES IDX 48 57 62 59 83 60 50 61 34 62 35 63 43 64 36 65 37 66 41 67
REMARK SMILES IDX 44 68 38 69 39 70 42 71 40 72 66 73 67 74 75 75 68 76 69 77
REMARK SMILES IDX 73 78 76 79 70 80 71 81 74 82 72 83 51 84 52 85 60 86 53 87
REMARK SMILES IDX 54 88 58 89 61 90 55 91 56 92 59 93 57 94
REMARK H PARENT 18 6 10 16 22 28 81 47 49 58
REMARK Flexibility Score: inf
ROOT
ATOM      1  C   UNL A   1      32.635  29.215  26.945  1.00  0.00     0.042 C 
ENDROOT
BRANCH   1   2
ATOM      2  C   UNL A   1      32.135  30.071  25.780  1.00  0.00     0.118 C 
BRANCH   2   3
ATOM      3  N   UNL A   1      32.710  29.681  24.514  1.00  0.00    -0.352 N 
ATOM      4  C   UNL A   1      32.309  28.716  23.620  1.00  0.00     0.251 C 
ATOM      5  O   UNL A   1      32.913  28.647  22.549  1.00  0.00    -0.269 OA
ATOM      6  H   UNL A   1      33.514  30.183  24.250  1.00  0.00     0.163 HD
BRANCH   4   7
ATOM      7  C   UNL A   1      31.138  27.817  23.866  1.00  0.00     0.041 A 
ATOM      8  C   UNL A   1      29.983  26.056  25.088  1.00  0.00     0.042 A 
ATOM      9  C   UNL A   1      28.813  26.317  24.388  1.00  0.00     0.026 A 
ATOM     10  C   UNL A   1      31.152  26.716  24.726  1.00  0.00     0.040 A 
ATOM     11  C   UNL A   1      28.788  27.359  23.459  1.00  0.00     0.003 A 
ATOM     12  C   UNL A   1      29.932  28.130  23.229  1.00  0.00     0.014 A 
BRANCH   8  13
ATOM     13  N   UNL A   1      29.953  25.166  26.171  1.00  0.00    -0.322 N 
ATOM     14  C   UNL A   1      30.616  23.964  26.382  1.00  0.00     0.258 C 
ATOM     15  O   UNL A   1      30.206  23.253  27.301  1.00  0.00    -0.269 OA
ATOM     16  H   UNL A   1      29.361  25.441  26.908  1.00  0.00     0.170 HD
BRANCH  14  17
ATOM     17  C   UNL A   1      31.858  23.554  25.641  1.00  0.00     0.076 A 
ATOM     18  C   UNL A   1      35.658  23.650  25.971  1.00  0.00     0.044 C 
ATOM     19  C   UNL A   1      34.291  23.317  25.438  1.00  0.00    -0.050 A 
ATOM     20  C   UNL A   1      34.149  22.882  24.118  1.00  0.00     0.006 A 
ATOM     21  C   UNL A   1      33.139  23.554  26.218  1.00  0.00     0.020 A 
ATOM     22  C   UNL A   1      32.876  22.759  23.566  1.00  0.00     0.040 A 
ATOM     23  C   UNL A   1      31.750  23.119  24.312  1.00  0.00     0.135 A 
ATOM     24  F   UNL A   1      30.564  23.060  23.690  1.00  0.00    -0.206 F 
ENDBRANCH  14  17
ENDBRANCH   8  13
ENDBRANCH   4   7
ENDBRANCH   2   3
ENDBRANCH   1   2
BRANCH   1  25
ATOM     25  C   UNL A   1      34.109  29.413  27.098  1.00  0.00     0.118 C 
BRANCH  25  26
ATOM     26  N   UNL A   1      34.443  30.840  27.172  1.00  0.00    -0.352 N 
ATOM     27  C   UNL A   1      35.459  31.430  27.894  1.00  0.00     0.251 C 
ATOM     28  H   UNL A   1      33.876  31.447  26.645  1.00  0.00     0.163 HD
ATOM     29  O   UNL A   1      35.482  32.627  28.117  1.00  0.00    -0.269 OA
BRANCH  27  30
ATOM     30  C   UNL A   1      36.542  30.552  28.351  1.00  0.00     0.039 A 
ATOM     31  C   UNL A   1      36.498  29.838  29.552  1.00  0.00     0.014 A 
ATOM     32  C   UNL A   1      37.641  30.469  27.509  1.00  0.00     0.014 A 
ATOM     33  C   UNL A   1      37.594  29.050  29.893  1.00  0.00     0.010 A 
ATOM     34  C   UNL A   1      38.526  29.463  27.672  1.00  0.00     0.010 A 
ATOM     35  C   UNL A   1      38.602  28.904  28.944  1.00  0.00    -0.014 A 
BRANCH  35  36
ATOM     36  C   UNL A   1      39.932  28.382  29.168  1.00  0.00     0.031 A 
ATOM     37  C   UNL A   1      40.236  27.001  28.828  1.00  0.00     0.074 A 
ATOM     38  C   UNL A   1      40.858  29.366  29.258  1.00  0.00     0.049 A 
ATOM     39  N   UNL A   1      41.334  26.420  29.142  1.00  0.00    -0.248 NA
ATOM     40  C   UNL A   1      39.315  26.156  28.079  1.00  0.00     0.031 C 
ATOM     41  C   UNL A   1      42.273  29.378  28.929  1.00  0.00     0.029 A 
ATOM     42  N   UNL A   1      40.617  30.679  29.703  1.00  0.00    -0.354 N 
ATOM     43  C   UNL A   1      41.429  25.303  28.345  1.00  0.00     0.074 A 
ATOM     44  C   UNL A   1      40.095  25.098  27.829  1.00  0.00     0.031 C 
ATOM     45  C   UNL A   1      42.825  30.478  29.482  1.00  0.00     0.029 A 
ATOM     46  C   UNL A   1      41.806  31.101  30.317  1.00  0.00     0.049 A 
ATOM     47  H   UNL A   1      39.784  31.197  29.604  1.00  0.00     0.167 HD
ATOM     48  C   UNL A   1      42.676  24.815  28.080  1.00  0.00     0.037 A 
ATOM     49  C   UNL A   1      41.793  31.143  31.686  1.00  0.00     0.037 A 
ATOM     50  C   UNL A   1      43.696  25.644  28.743  1.00  0.00     0.049 A 
ATOM     51  C   UNL A   1      42.626  30.035  32.304  1.00  0.00     0.074 A 
ATOM     52  C   UNL A   1      44.558  26.646  28.324  1.00  0.00     0.029 A 
ATOM     53  N   UNL A   1      43.659  25.747  30.123  1.00  0.00    -0.354 N 
ATOM     54  N   UNL A   1      43.188  29.070  31.628  1.00  0.00    -0.248 NA
ATOM     55  C   UNL A   1      42.836  29.893  33.740  1.00  0.00     0.031 C 
ATOM     56  C   UNL A   1      45.005  27.363  29.481  1.00  0.00     0.029 A 
ATOM     57  C   UNL A   1      44.427  26.790  30.600  1.00  0.00     0.049 A 
ATOM     58  H   UNL A   1      43.142  25.141  30.700  1.00  0.00     0.167 HD
ATOM     59  C   UNL A   1      43.782  28.182  32.476  1.00  0.00     0.074 A 
ATOM     60  C   UNL A   1      43.521  28.737  33.796  1.00  0.00     0.031 C 
ATOM     61  C   UNL A   1      44.415  27.052  32.035  1.00  0.00     0.037 A 
BRANCH  48  62
ATOM     62  C   UNL A   1      43.008  23.766  27.039  1.00  0.00     0.064 A 
ATOM     63  C   UNL A   1      42.691  22.409  27.272  1.00  0.00     0.173 A 
ATOM     64  C   UNL A   1      43.627  24.012  25.797  1.00  0.00     0.173 A 
ATOM     65  F   UNL A   1      42.014  22.025  28.363  1.00  0.00    -0.203 F 
ATOM     66  C   UNL A   1      43.044  21.388  26.387  1.00  0.00     0.198 A 
ATOM     67  C   UNL A   1      44.021  22.986  24.931  1.00  0.00     0.198 A 
ATOM     68  F   UNL A   1      43.812  25.252  25.335  1.00  0.00    -0.203 F 
ATOM     69  F   UNL A   1      42.710  20.121  26.670  1.00  0.00    -0.200 F 
ATOM     70  C   UNL A   1      43.734  21.672  25.228  1.00  0.00     0.200 A 
ATOM     71  F   UNL A   1      44.668  23.287  23.795  1.00  0.00    -0.200 F 
ATOM     72  F   UNL A   1      44.089  20.691  24.388  1.00  0.00    -0.200 F 
ENDBRANCH  48  62
BRANCH  49  73
ATOM     73  C   UNL A   1      40.451  31.616  32.190  1.00  0.00     0.064 A 
ATOM     74  C   UNL A   1      39.577  30.649  32.740  1.00  0.00     0.173 A 
ATOM     75  C   UNL A   1      40.239  32.951  32.567  1.00  0.00     0.173 A 
ATOM     76  F   UNL A   1      39.732  29.352  32.429  1.00  0.00    -0.203 F 
ATOM     77  C   UNL A   1      38.652  30.980  33.733  1.00  0.00     0.198 A 
ATOM     78  C   UNL A   1      39.288  33.281  33.541  1.00  0.00     0.198 A 
ATOM     79  F   UNL A   1      41.028  33.924  32.094  1.00  0.00    -0.203 F 
ATOM     80  F   UNL A   1      37.953  30.013  34.344  1.00  0.00    -0.200 F 
ATOM     81  C   UNL A   1      38.529  32.293  34.151  1.00  0.00     0.200 A 
ATOM     82  F   UNL A   1      39.174  34.552  33.955  1.00  0.00    -0.200 F 
ATOM     83  F   UNL A   1      37.707  32.601  35.164  1.00  0.00    -0.200 F 
ENDBRANCH  49  73
BRANCH  61  84
ATOM     84  C   UNL A   1      45.063  26.063  32.967  1.00  0.00     0.064 A 
ATOM     85  C   UNL A   1      46.438  25.797  32.932  1.00  0.00     0.173 A 
ATOM     86  C   UNL A   1      44.307  25.277  33.869  1.00  0.00     0.173 A 
ATOM     87  F   UNL A   1      47.233  26.399  32.036  1.00  0.00    -0.203 F 
ATOM     88  C   UNL A   1      47.029  24.886  33.808  1.00  0.00     0.198 A 
ATOM     89  C   UNL A   1      44.890  24.317  34.688  1.00  0.00     0.198 A 
ATOM     90  F   UNL A   1      42.986  25.431  34.018  1.00  0.00    -0.203 F 
ATOM     91  F   UNL A   1      48.360  24.730  33.803  1.00  0.00    -0.200 F 
ATOM     92  C   UNL A   1      46.256  24.143  34.681  1.00  0.00     0.200 A 
ATOM     93  F   UNL A   1      44.115  23.578  35.495  1.00  0.00    -0.200 F 
ATOM     94  F   UNL A   1      46.824  23.262  35.515  1.00  0.00    -0.200 F 
ENDBRANCH  61  84
ENDBRANCH  35  36
ENDBRANCH  27  30
ENDBRANCH  25  26
ENDBRANCH   1  25
TORSDOF 12
ENDMDL
MODEL 3
REMARK VINA RESULT:     -14.4      1.029      1.537
REMARK SMILES Cc1ccc(F)c(C(=O)Nc2cccc(C(=O)NCCCNC(=O)c3ccc(-c4c5nc(c(-c6c(F)c(F)c(F)c(F)c6F)c6ccc([nH]6)c(-c6c(F)c(F)c(F)c(F)c6F)c6nc(c(-c7c(F)c(F)c(F)c(F)c7F)c7ccc4[nH]7)C=C6)C=C5)cc3)c2)c1
REMARK SMILES IDX 20 1 19 2 18 3 16 4 17 5 15 7 11 8 12 9 88 10 13 11 14 12
REMARK SMILES IDX 10 13 8 14 9 15 7 17 1 18 2 19 3 20 89 21 4 22 5 23 6 24
REMARK SMILES IDX 21 25 22 26 23 27 24 29 25 30 26 31 87 32 27 33 86 34 28 35
REMARK SMILES IDX 29 36 30 37 80 38 31 39 85 40 79 41 81 42 32 43 84 44 78 45
REMARK SMILES IDX 77 46 33 48 65 49 45 50 64 51 46 52 49 53 63 54 82 55 47 56
REMARK SMILES IDX 48 57 62 59 83 60 50 61 34 62 35 63 43 64 36 65 37 66 41 67
REMARK SMILES IDX 44 68 38 69 39 70 42 71 40 72 66 73 67 74 75 75 68 76 69 77
REMARK SMILES IDX 73 78 76 79 70 80 71 81 74 82 72 83 51 84 52 85 60 86 53 87
REMARK SMILES IDX 54 88 58 89 61 90 55 91 56 92 59 93 57 94
REMARK H PARENT 18 6 10 16 22 28 81 47 49 58
REMARK Flexibility Score: inf
ROOT
ATOM      1  C   UNL A   1      32.640  29.160  26.945  1.00  0.00     0.042 C 
ENDROOT
BRANCH   1   2
ATOM      2  C   UNL A   1      32.114  30.065  25.829  1.00  0.00     0.118 C 
BRANCH   2   3
ATOM      3  N   UNL A   1      32.666  29.733  24.536  1.00  0.00    -0.352 N 
ATOM      4  C   UNL A   1      32.257  28.801  23.612  1.00  0.00     0.251 C 
ATOM      5  O   UNL A   1      32.838  28.784  22.527  1.00  0.00    -0.269 OA
ATOM      6  H   UNL A   1      33.459  30.257  24.276  1.00  0.00     0.163 HD
BRANCH   4   7
ATOM      7  C   UNL A   1      31.103  27.878  23.846  1.00  0.00     0.041 A 
ATOM      8  C   UNL A   1      29.966  26.102  25.062  1.00  0.00     0.042 A 
ATOM      9  C   UNL A   1      28.803  26.331  24.340  1.00  0.00     0.026 A 
ATOM     10  C   UNL A   1      31.126  26.785  24.715  1.00  0.00     0.040 A 
ATOM     11  C   UNL A   1      28.770  27.365  23.403  1.00  0.00     0.003 A 
ATOM     12  C   UNL A   1      29.901  28.160  23.186  1.00  0.00     0.014 A 
BRANCH   8  13
ATOM     13  N   UNL A   1      29.938  25.219  26.151  1.00  0.00    -0.322 N 
ATOM     14  C   UNL A   1      30.596  24.016  26.368  1.00  0.00     0.258 C 
ATOM     15  O   UNL A   1      30.188  23.313  27.294  1.00  0.00    -0.269 OA
ATOM     16  H   UNL A   1      29.350  25.501  26.889  1.00  0.00     0.170 HD
BRANCH  14  17
ATOM     17  C   UNL A   1      31.834  23.596  25.624  1.00  0.00     0.076 A 
ATOM     18  C   UNL A   1      35.634  23.617  25.969  1.00  0.00     0.044 C 
ATOM     19  C   UNL A   1      34.263  23.318  25.425  1.00  0.00    -0.050 A 
ATOM     20  C   UNL A   1      34.118  22.909  24.097  1.00  0.00     0.006 A 
ATOM     21  C   UNL A   1      33.113  23.562  26.206  1.00  0.00     0.020 A 
ATOM     22  C   UNL A   1      32.845  22.819  23.539  1.00  0.00     0.040 A 
ATOM     23  C   UNL A   1      31.723  23.187  24.288  1.00  0.00     0.135 A 
ATOM     24  F   UNL A   1      30.539  23.160  23.660  1.00  0.00    -0.206 F 
ENDBRANCH  14  17
ENDBRANCH   8  13
ENDBRANCH   4   7
ENDBRANCH   2   3
ENDBRANCH   1   2
BRANCH   1  25
ATOM     25  C   UNL A   1      34.116  29.358  27.078  1.00  0.00     0.118 C 
BRANCH  25  26
ATOM     26  N   UNL A   1      34.446  30.782  27.214  1.00  0.00    -0.352 N 
ATOM     27  C   UNL A   1      35.458  31.342  27.965  1.00  0.00     0.251 C 
ATOM     28  H   UNL A   1      33.878  31.409  26.713  1.00  0.00     0.163 HD
ATOM     29  O   UNL A   1      35.477  32.529  28.238  1.00  0.00    -0.269 OA
BRANCH  27  30
ATOM     30  C   UNL A   1      36.543  30.449  28.387  1.00  0.00     0.039 A 
ATOM     31  C   UNL A   1      36.468  29.629  29.516  1.00  0.00     0.014 A 
ATOM     32  C   UNL A   1      37.675  30.463  27.586  1.00  0.00     0.014 A 
ATOM     33  C   UNL A   1      37.567  28.836  29.832  1.00  0.00     0.010 A 
ATOM     34  C   UNL A   1      38.576  29.464  27.697  1.00  0.00     0.010 A 
ATOM     35  C   UNL A   1      38.615  28.796  28.916  1.00  0.00    -0.014 A 
BRANCH  35  36
ATOM     36  C   UNL A   1      39.947  28.282  29.148  1.00  0.00     0.031 A 
ATOM     37  C   UNL A   1      40.265  26.907  28.797  1.00  0.00     0.074 A 
ATOM     38  C   UNL A   1      40.864  29.272  29.257  1.00  0.00     0.049 A 
ATOM     39  N   UNL A   1      41.365  26.331  29.117  1.00  0.00    -0.248 NA
ATOM     40  C   UNL A   1      39.359  26.062  28.031  1.00  0.00     0.031 C 
ATOM     41  C   UNL A   1      42.282  29.299  28.942  1.00  0.00     0.029 A 
ATOM     42  N   UNL A   1      40.608  30.579  29.713  1.00  0.00    -0.354 N 
ATOM     43  C   UNL A   1      41.477  25.223  28.309  1.00  0.00     0.074 A 
ATOM     44  C   UNL A   1      40.150  25.013  27.778  1.00  0.00     0.031 C 
ATOM     45  C   UNL A   1      42.820  30.398  29.512  1.00  0.00     0.029 A 
ATOM     46  C   UNL A   1      41.788  31.003  30.343  1.00  0.00     0.049 A 
ATOM     47  H   UNL A   1      39.772  31.090  29.611  1.00  0.00     0.167 HD
ATOM     48  C   UNL A   1      42.731  24.747  28.052  1.00  0.00     0.037 A 
ATOM     49  C   UNL A   1      41.761  31.032  31.712  1.00  0.00     0.037 A 
ATOM     50  C   UNL A   1      43.737  25.578  28.733  1.00  0.00     0.049 A 
ATOM     51  C   UNL A   1      42.596  29.924  32.327  1.00  0.00     0.074 A 
ATOM     52  C   UNL A   1      44.594  26.591  28.333  1.00  0.00     0.029 A 
ATOM     53  N   UNL A   1      43.686  25.667  30.113  1.00  0.00    -0.354 N 
ATOM     54  N   UNL A   1      43.173  28.971  31.647  1.00  0.00    -0.248 NA
ATOM     55  C   UNL A   1      42.793  29.769  33.764  1.00  0.00     0.031 C 
ATOM     56  C   UNL A   1      45.025  27.301  29.501  1.00  0.00     0.029 A 
ATOM     57  C   UNL A   1      44.440  26.711  30.609  1.00  0.00     0.049 A 
ATOM     58  H   UNL A   1      43.168  25.051  30.679  1.00  0.00     0.167 HD
ATOM     59  C   UNL A   1      43.766  28.079  32.492  1.00  0.00     0.074 A 
ATOM     60  C   UNL A   1      43.488  28.619  33.815  1.00  0.00     0.031 C 
ATOM     61  C   UNL A   1      44.412  26.959  32.046  1.00  0.00     0.037 A 
BRANCH  48  62
ATOM     62  C   UNL A   1      43.081  23.712  27.004  1.00  0.00     0.064 A 
ATOM     63  C   UNL A   1      42.774  22.351  27.220  1.00  0.00     0.173 A 
ATOM     64  C   UNL A   1      43.709  23.976  25.770  1.00  0.00     0.173 A 
ATOM     65  F   UNL A   1      42.089  21.950  28.300  1.00  0.00    -0.203 F 
ATOM     66  C   UNL A   1      43.143  21.341  26.328  1.00  0.00     0.198 A 
ATOM     67  C   UNL A   1      44.121  22.962  24.897  1.00  0.00     0.198 A 
ATOM     68  F   UNL A   1      43.889  25.222  25.322  1.00  0.00    -0.203 F 
ATOM     69  F   UNL A   1      42.817  20.069  26.595  1.00  0.00    -0.200 F 
ATOM     70  C   UNL A   1      43.842  21.643  25.178  1.00  0.00     0.200 A 
ATOM     71  F   UNL A   1      44.776  23.280  23.771  1.00  0.00    -0.200 F 
ATOM     72  F   UNL A   1      44.213  20.673  24.333  1.00  0.00    -0.200 F 
ENDBRANCH  48  62
BRANCH  49  73
ATOM     73  C   UNL A   1      40.410  31.489  32.207  1.00  0.00     0.064 A 
ATOM     74  C   UNL A   1      39.984  32.790  31.850  1.00  0.00     0.173 A 
ATOM     75  C   UNL A   1      39.411  30.571  32.565  1.00  0.00     0.173 A 
ATOM     76  F   UNL A   1      40.888  33.714  31.487  1.00  0.00    -0.203 F 
ATOM     77  C   UNL A   1      38.630  33.102  31.703  1.00  0.00     0.198 A 
ATOM     78  C   UNL A   1      38.056  30.899  32.445  1.00  0.00     0.198 A 
ATOM     79  F   UNL A   1      39.733  29.317  32.909  1.00  0.00    -0.203 F 
ATOM     80  F   UNL A   1      38.270  34.296  31.210  1.00  0.00    -0.200 F 
ATOM     81  C   UNL A   1      37.669  32.146  31.975  1.00  0.00     0.200 A 
ATOM     82  F   UNL A   1      37.121  29.971  32.699  1.00  0.00    -0.200 F 
ATOM     83  F   UNL A   1      36.375  32.412  31.751  1.00  0.00    -0.200 F 
ENDBRANCH  49  73
BRANCH  61  84
ATOM     84  C   UNL A   1      45.058  25.966  32.975  1.00  0.00     0.064 A 
ATOM     85  C   UNL A   1      46.433  25.699  32.940  1.00  0.00     0.173 A 
ATOM     86  C   UNL A   1      44.302  25.176  33.873  1.00  0.00     0.173 A 
ATOM     87  F   UNL A   1      47.230  26.304  32.046  1.00  0.00    -0.203 F 
ATOM     88  C   UNL A   1      47.024  24.784  33.812  1.00  0.00     0.198 A 
ATOM     89  C   UNL A   1      44.883  24.212  34.688  1.00  0.00     0.198 A 
ATOM     90  F   UNL A   1      42.981  25.330  34.022  1.00  0.00    -0.203 F 
ATOM     91  F   UNL A   1      48.355  24.627  33.807  1.00  0.00    -0.200 F 
ATOM     92  C   UNL A   1      46.249  24.037  34.681  1.00  0.00     0.200 A 
ATOM     93  F   UNL A   1      44.108  23.470  35.492  1.00  0.00    -0.200 F 
ATOM     94  F   UNL A   1      46.816  23.152  35.512  1.00  0.00    -0.200 F 
ENDBRANCH  61  84
ENDBRANCH  35  36
ENDBRANCH  27  30
ENDBRANCH  25  26
ENDBRANCH   1  25
TORSDOF 12
ENDMDL
