MODEL 1
REMARK VINA RESULT:     -11.4      0.000      0.000
REMARK SMILES O=C(NCCCNC(=O)c1sc2ccccc2c1CSC[C@H](O)CO)c1ccc(-c2c3nc(c(-c4c(F)c(F)c(F)c(F)c4F)c4ccc([nH]4)c(-c4c(F)c(F)c(F)c(F)c4F)c4nc(c(-c5c(F)c(F)c(F)c(F)c5F)c5ccc2[nH]5)C=C4)C=C3)cc1
REMARK SMILES IDX 7 1 8 2 9 3 6 5 5 6 4 7 3 8 1 9 2 10 26 12 27 13 88 14 28 15
REMARK SMILES IDX 87 16 29 17 30 18 31 19 81 20 32 21 86 22 80 23 82 24 33 25
REMARK SMILES IDX 85 26 79 27 78 28 34 30 66 31 46 32 65 33 47 34 50 35 64 36
REMARK SMILES IDX 83 37 48 38 49 39 63 41 84 42 51 43 35 44 36 45 44 46 37 47
REMARK SMILES IDX 38 48 42 49 45 50 39 51 40 52 43 53 41 54 67 55 68 56 76 57
REMARK SMILES IDX 69 58 70 59 74 60 77 61 71 62 72 63 75 64 73 65 52 66 53 67
REMARK SMILES IDX 61 68 54 69 55 70 59 71 62 72 56 73 57 74 60 75 58 76 10 77
REMARK SMILES IDX 11 78 18 79 12 80 17 81 13 82 16 83 14 84 15 85 19 86 20 87
REMARK SMILES IDX 21 88 22 89 24 90 25 91 23 93
REMARK H PARENT 7 4 3 11 82 29 50 40 25 92 23 94
REMARK Flexibility Score: inf
ROOT
ATOM      1  N   UNL A   1      30.829  26.816  26.833  1.00  0.00    -0.351 N 
ATOM      2  C   UNL A   1      30.612  25.544  26.354  1.00  0.00     0.261 C 
ATOM      3  O   UNL A   1      29.485  25.073  26.498  1.00  0.00    -0.268 OA
ATOM      4  H   UNL A   1      30.034  27.256  27.211  1.00  0.00     0.163 HD
ENDROOT
BRANCH   1   5
ATOM      5  C   UNL A   1      32.044  27.612  26.871  1.00  0.00     0.118 C 
BRANCH   5   6
ATOM      6  C   UNL A   1      31.780  29.110  26.988  1.00  0.00     0.042 C 
BRANCH   6   7
ATOM      7  C   UNL A   1      32.720  30.002  26.178  1.00  0.00     0.118 C 
BRANCH   7   8
ATOM      8  N   UNL A   1      32.621  31.412  26.530  1.00  0.00    -0.352 N 
ATOM      9  O   UNL A   1      32.940  33.344  27.612  1.00  0.00    -0.269 OA
ATOM     10  C   UNL A   1      33.343  32.203  27.387  1.00  0.00     0.251 C 
ATOM     11  H   UNL A   1      31.895  31.888  26.065  1.00  0.00     0.163 HD
BRANCH  10  12
ATOM     12  C   UNL A   1      34.576  31.734  28.061  1.00  0.00     0.039 A 
ATOM     13  C   UNL A   1      34.730  30.423  28.515  1.00  0.00     0.014 A 
ATOM     14  C   UNL A   1      35.657  32.621  28.153  1.00  0.00     0.014 A 
ATOM     15  C   UNL A   1      35.906  30.040  29.163  1.00  0.00     0.010 A 
ATOM     16  C   UNL A   1      36.858  32.223  28.751  1.00  0.00     0.010 A 
ATOM     17  C   UNL A   1      36.979  30.937  29.294  1.00  0.00    -0.014 A 
BRANCH  17  18
ATOM     18  C   UNL A   1      38.215  30.504  29.992  1.00  0.00     0.031 A 
ATOM     19  C   UNL A   1      38.457  30.875  31.428  1.00  0.00     0.074 A 
ATOM     20  C   UNL A   1      39.108  29.731  29.345  1.00  0.00     0.049 A 
ATOM     21  N   UNL A   1      39.417  30.488  32.230  1.00  0.00    -0.248 NA
ATOM     22  C   UNL A   1      37.503  31.811  32.044  1.00  0.00     0.031 C 
ATOM     23  C   UNL A   1      39.019  29.331  27.941  1.00  0.00     0.029 A 
ATOM     24  N   UNL A   1      40.250  29.118  29.797  1.00  0.00    -0.354 N 
ATOM     25  C   UNL A   1      39.200  31.148  33.431  1.00  0.00     0.074 A 
ATOM     26  C   UNL A   1      38.019  31.966  33.255  1.00  0.00     0.031 C 
ATOM     27  C   UNL A   1      40.027  28.490  27.661  1.00  0.00     0.029 A 
ATOM     28  C   UNL A   1      40.835  28.300  28.863  1.00  0.00     0.049 A 
ATOM     29  H   UNL A   1      40.614  29.252  30.702  1.00  0.00     0.167 HD
ATOM     30  C   UNL A   1      39.917  31.076  34.577  1.00  0.00     0.037 A 
ATOM     31  C   UNL A   1      41.883  27.464  28.974  1.00  0.00     0.037 A 
ATOM     32  C   UNL A   1      41.064  30.235  34.782  1.00  0.00     0.049 A 
ATOM     33  C   UNL A   1      42.605  27.332  30.281  1.00  0.00     0.074 A 
ATOM     34  C   UNL A   1      41.825  30.073  35.927  1.00  0.00     0.029 A 
ATOM     35  N   UNL A   1      41.611  29.406  33.817  1.00  0.00    -0.354 N 
ATOM     36  N   UNL A   1      42.366  27.933  31.419  1.00  0.00    -0.248 NA
ATOM     37  C   UNL A   1      43.741  26.399  30.318  1.00  0.00     0.031 C 
ATOM     38  C   UNL A   1      42.836  29.143  35.653  1.00  0.00     0.029 A 
ATOM     39  C   UNL A   1      42.699  28.726  34.340  1.00  0.00     0.049 A 
ATOM     40  H   UNL A   1      41.276  29.314  32.896  1.00  0.00     0.167 HD
ATOM     41  C   UNL A   1      43.313  27.451  32.308  1.00  0.00     0.074 A 
ATOM     42  C   UNL A   1      44.130  26.499  31.582  1.00  0.00     0.031 C 
ATOM     43  C   UNL A   1      43.492  27.776  33.610  1.00  0.00     0.037 A 
BRANCH  30  44
ATOM     44  C   UNL A   1      39.471  31.940  35.713  1.00  0.00     0.064 A 
ATOM     45  C   UNL A   1      39.994  33.226  35.894  1.00  0.00     0.173 A 
ATOM     46  C   UNL A   1      38.490  31.488  36.607  1.00  0.00     0.173 A 
ATOM     47  F   UNL A   1      40.945  33.690  35.069  1.00  0.00    -0.203 F 
ATOM     48  C   UNL A   1      39.553  34.032  36.939  1.00  0.00     0.198 A 
ATOM     49  C   UNL A   1      38.046  32.299  37.647  1.00  0.00     0.198 A 
ATOM     50  F   UNL A   1      37.967  30.260  36.472  1.00  0.00    -0.203 F 
ATOM     51  F   UNL A   1      40.077  35.254  37.109  1.00  0.00    -0.200 F 
ATOM     52  C   UNL A   1      38.578  33.569  37.812  1.00  0.00     0.200 A 
ATOM     53  F   UNL A   1      37.107  31.852  38.492  1.00  0.00    -0.200 F 
ATOM     54  F   UNL A   1      38.157  34.347  38.820  1.00  0.00    -0.200 F 
ENDBRANCH  30  44
BRANCH  31  55
ATOM     55  C   UNL A   1      42.265  26.626  27.815  1.00  0.00     0.064 A 
ATOM     56  C   UNL A   1      43.262  27.054  26.929  1.00  0.00     0.173 A 
ATOM     57  C   UNL A   1      41.664  25.383  27.587  1.00  0.00     0.173 A 
ATOM     58  F   UNL A   1      43.851  28.244  27.108  1.00  0.00    -0.203 F 
ATOM     59  C   UNL A   1      43.644  26.263  25.849  1.00  0.00     0.198 A 
ATOM     60  C   UNL A   1      42.051  24.591  26.509  1.00  0.00     0.198 A 
ATOM     61  F   UNL A   1      40.701  24.943  28.411  1.00  0.00    -0.203 F 
ATOM     62  F   UNL A   1      44.592  26.696  25.007  1.00  0.00    -0.200 F 
ATOM     63  C   UNL A   1      43.040  25.032  25.641  1.00  0.00     0.200 A 
ATOM     64  F   UNL A   1      41.465  23.402  26.309  1.00  0.00    -0.200 F 
ATOM     65  F   UNL A   1      43.408  24.271  24.601  1.00  0.00    -0.200 F 
ENDBRANCH  31  55
BRANCH  43  66
ATOM     66  C   UNL A   1      44.606  27.093  34.335  1.00  0.00     0.064 A 
ATOM     67  C   UNL A   1      45.876  27.679  34.418  1.00  0.00     0.173 A 
ATOM     68  C   UNL A   1      44.395  25.866  34.977  1.00  0.00     0.173 A 
ATOM     69  F   UNL A   1      46.122  28.847  33.807  1.00  0.00    -0.203 F 
ATOM     70  C   UNL A   1      46.903  27.053  35.119  1.00  0.00     0.198 A 
ATOM     71  C   UNL A   1      45.424  25.246  35.681  1.00  0.00     0.198 A 
ATOM     72  F   UNL A   1      43.196  25.269  34.915  1.00  0.00    -0.203 F 
ATOM     73  F   UNL A   1      48.116  27.621  35.176  1.00  0.00    -0.200 F 
ATOM     74  C   UNL A   1      46.676  25.839  35.751  1.00  0.00     0.200 A 
ATOM     75  F   UNL A   1      45.205  24.071  36.288  1.00  0.00    -0.200 F 
ATOM     76  F   UNL A   1      47.666  25.237  36.423  1.00  0.00    -0.200 F 
ENDBRANCH  43  66
ENDBRANCH  17  18
ENDBRANCH  10  12
ENDBRANCH   7   8
ENDBRANCH   6   7
ENDBRANCH   5   6
ENDBRANCH   1   5
BRANCH   2  77
ATOM     77  C   UNL A   1      31.701  24.830  25.719  1.00  0.00     0.097 A 
ATOM     78  S   UNL A   1      32.582  23.714  26.665  1.00  0.00    -0.130 S 
ATOM     79  C   UNL A   1      32.086  24.806  24.383  1.00  0.00    -0.007 A 
ATOM     80  C   UNL A   1      33.660  23.351  25.385  1.00  0.00     0.035 A 
ATOM     81  C   UNL A   1      33.294  24.007  24.208  1.00  0.00    -0.003 A 
ATOM     82  C   UNL A   1      34.783  22.502  25.450  1.00  0.00     0.019 A 
ATOM     83  C   UNL A   1      34.115  23.796  23.067  1.00  0.00     0.010 A 
ATOM     84  C   UNL A   1      35.561  22.315  24.307  1.00  0.00     0.001 A 
ATOM     85  C   UNL A   1      35.232  22.957  23.124  1.00  0.00     0.001 A 
BRANCH  79  86
ATOM     86  C   UNL A   1      31.428  25.565  23.259  1.00  0.00     0.107 C 
BRANCH  86  87
ATOM     87  S   UNL A   1      31.852  27.329  23.132  1.00  0.00    -0.154 SA
BRANCH  87  88
ATOM     88  C   UNL A   1      30.245  28.147  23.457  1.00  0.00     0.104 C 
BRANCH  88  89
ATOM     89  C   UNL A   1      29.658  28.990  22.317  1.00  0.00     0.149 C 
BRANCH  89  90
ATOM     90  C   UNL A   1      28.567  29.974  22.752  1.00  0.00     0.188 C 
BRANCH  90  91
ATOM     91  O   UNL A   1      27.287  29.388  22.494  1.00  0.00    -0.394 OA
ATOM     92  H   UNL A   1      26.647  29.708  23.150  1.00  0.00     0.210 HD
ENDBRANCH  90  91
ENDBRANCH  89  90
BRANCH  89  93
ATOM     93  O   UNL A   1      30.677  29.726  21.625  1.00  0.00    -0.390 OA
ATOM     94  H   UNL A   1      30.717  29.433  20.700  1.00  0.00     0.211 HD
ENDBRANCH  89  93
ENDBRANCH  88  89
ENDBRANCH  87  88
ENDBRANCH  86  87
ENDBRANCH  79  86
ENDBRANCH   2  77
TORSDOF 17
ENDMDL
MODEL 2
REMARK VINA RESULT:     -11.4      1.255      2.458
REMARK SMILES O=C(NCCCNC(=O)c1sc2ccccc2c1CSC[C@H](O)CO)c1ccc(-c2c3nc(c(-c4c(F)c(F)c(F)c(F)c4F)c4ccc([nH]4)c(-c4c(F)c(F)c(F)c(F)c4F)c4nc(c(-c5c(F)c(F)c(F)c(F)c5F)c5ccc2[nH]5)C=C4)C=C3)cc1
REMARK SMILES IDX 7 1 8 2 9 3 6 5 5 6 4 7 3 8 1 9 2 10 26 12 27 13 88 14 28 15
REMARK SMILES IDX 87 16 29 17 30 18 31 19 81 20 32 21 86 22 80 23 82 24 33 25
REMARK SMILES IDX 85 26 79 27 78 28 34 30 66 31 46 32 65 33 47 34 50 35 64 36
REMARK SMILES IDX 83 37 48 38 49 39 63 41 84 42 51 43 35 44 36 45 44 46 37 47
REMARK SMILES IDX 38 48 42 49 45 50 39 51 40 52 43 53 41 54 67 55 68 56 76 57
REMARK SMILES IDX 69 58 70 59 74 60 77 61 71 62 72 63 75 64 73 65 52 66 53 67
REMARK SMILES IDX 61 68 54 69 55 70 59 71 62 72 56 73 57 74 60 75 58 76 10 77
REMARK SMILES IDX 11 78 18 79 12 80 17 81 13 82 16 83 14 84 15 85 19 86 20 87
REMARK SMILES IDX 21 88 22 89 24 90 25 91 23 93
REMARK H PARENT 7 4 3 11 82 29 50 40 25 92 23 94
REMARK Flexibility Score: inf
ROOT
ATOM      1  N   UNL A   1      33.850  27.633  22.082  1.00  0.00    -0.351 N 
ATOM      2  C   UNL A   1      33.289  26.381  21.985  1.00  0.00     0.261 C 
ATOM      3  O   UNL A   1      33.109  25.931  20.854  1.00  0.00    -0.268 OA
ATOM      4  H   UNL A   1      34.104  28.040  21.222  1.00  0.00     0.163 HD
ENDROOT
BRANCH   1   5
ATOM      5  C   UNL A   1      34.128  28.451  23.250  1.00  0.00     0.118 C 
BRANCH   5   6
ATOM      6  C   UNL A   1      32.869  28.906  23.982  1.00  0.00     0.042 C 
BRANCH   6   7
ATOM      7  C   UNL A   1      33.029  29.117  25.487  1.00  0.00     0.118 C 
BRANCH   7   8
ATOM      8  N   UNL A   1      32.632  30.447  25.927  1.00  0.00    -0.352 N 
ATOM      9  O   UNL A   1      32.494  32.307  27.162  1.00  0.00    -0.269 OA
ATOM     10  C   UNL A   1      33.128  31.288  26.890  1.00  0.00     0.251 C 
ATOM     11  H   UNL A   1      31.858  30.812  25.440  1.00  0.00     0.163 HD
BRANCH  10  12
ATOM     12  C   UNL A   1      34.384  31.009  27.625  1.00  0.00     0.039 A 
ATOM     13  C   UNL A   1      35.324  32.002  27.908  1.00  0.00     0.014 A 
ATOM     14  C   UNL A   1      34.579  29.717  28.134  1.00  0.00     0.014 A 
ATOM     15  C   UNL A   1      36.501  31.678  28.585  1.00  0.00     0.010 A 
ATOM     16  C   UNL A   1      35.732  29.404  28.862  1.00  0.00     0.010 A 
ATOM     17  C   UNL A   1      36.721  30.376  29.063  1.00  0.00    -0.014 A 
BRANCH  17  18
ATOM     18  C   UNL A   1      37.984  30.060  29.775  1.00  0.00     0.031 A 
ATOM     19  C   UNL A   1      38.205  30.519  31.189  1.00  0.00     0.074 A 
ATOM     20  C   UNL A   1      38.924  29.315  29.164  1.00  0.00     0.049 A 
ATOM     21  N   UNL A   1      39.190  30.236  32.004  1.00  0.00    -0.248 NA
ATOM     22  C   UNL A   1      37.193  31.422  31.761  1.00  0.00     0.031 C 
ATOM     23  C   UNL A   1      38.858  28.838  27.782  1.00  0.00     0.029 A 
ATOM     24  N   UNL A   1      40.105  28.801  29.640  1.00  0.00    -0.354 N 
ATOM     25  C   UNL A   1      38.933  30.942  33.171  1.00  0.00     0.074 A 
ATOM     26  C   UNL A   1      37.700  31.672  32.961  1.00  0.00     0.031 C 
ATOM     27  C   UNL A   1      39.919  28.052  27.540  1.00  0.00     0.029 A 
ATOM     28  C   UNL A   1      40.740  27.976  28.746  1.00  0.00     0.049 A 
ATOM     29  H   UNL A   1      40.461  29.005  30.534  1.00  0.00     0.167 HD
ATOM     30  C   UNL A   1      39.655  30.975  34.315  1.00  0.00     0.037 A 
ATOM     31  C   UNL A   1      41.840  27.217  28.893  1.00  0.00     0.037 A 
ATOM     32  C   UNL A   1      40.855  30.223  34.556  1.00  0.00     0.049 A 
ATOM     33  C   UNL A   1      42.572  27.199  30.201  1.00  0.00     0.074 A 
ATOM     34  C   UNL A   1      41.628  30.169  35.704  1.00  0.00     0.029 A 
ATOM     35  N   UNL A   1      41.452  29.382  33.632  1.00  0.00    -0.354 N 
ATOM     36  N   UNL A   1      42.297  27.841  31.308  1.00  0.00    -0.248 NA
ATOM     37  C   UNL A   1      43.766  26.344  30.279  1.00  0.00     0.031 C 
ATOM     38  C   UNL A   1      42.696  29.294  35.473  1.00  0.00     0.029 A 
ATOM     39  C   UNL A   1      42.583  28.802  34.183  1.00  0.00     0.049 A 
ATOM     40  H   UNL A   1      41.123  29.222  32.719  1.00  0.00     0.167 HD
ATOM     41  C   UNL A   1      43.275  27.468  32.216  1.00  0.00     0.074 A 
ATOM     42  C   UNL A   1      44.150  26.535  31.535  1.00  0.00     0.031 C 
ATOM     43  C   UNL A   1      43.435  27.869  33.499  1.00  0.00     0.037 A 
BRANCH  30  44
ATOM     44  C   UNL A   1      39.156  31.865  35.408  1.00  0.00     0.064 A 
ATOM     45  C   UNL A   1      38.349  31.366  36.438  1.00  0.00     0.173 A 
ATOM     46  C   UNL A   1      39.516  33.220  35.441  1.00  0.00     0.173 A 
ATOM     47  F   UNL A   1      37.971  30.079  36.436  1.00  0.00    -0.203 F 
ATOM     48  C   UNL A   1      37.912  32.198  37.466  1.00  0.00     0.198 A 
ATOM     49  C   UNL A   1      39.082  34.047  36.473  1.00  0.00     0.198 A 
ATOM     50  F   UNL A   1      40.282  33.739  34.470  1.00  0.00    -0.203 F 
ATOM     51  F   UNL A   1      37.126  31.708  38.434  1.00  0.00    -0.200 F 
ATOM     52  C   UNL A   1      38.281  33.536  37.483  1.00  0.00     0.200 A 
ATOM     53  F   UNL A   1      39.435  35.340  36.489  1.00  0.00    -0.200 F 
ATOM     54  F   UNL A   1      37.856  34.335  38.472  1.00  0.00    -0.200 F 
ENDBRANCH  30  44
BRANCH  31  55
ATOM     55  C   UNL A   1      42.274  26.347  27.777  1.00  0.00     0.064 A 
ATOM     56  C   UNL A   1      41.658  25.106  27.565  1.00  0.00     0.173 A 
ATOM     57  C   UNL A   1      43.286  26.745  26.896  1.00  0.00     0.173 A 
ATOM     58  F   UNL A   1      40.695  24.686  28.396  1.00  0.00    -0.203 F 
ATOM     59  C   UNL A   1      42.044  24.290  26.505  1.00  0.00     0.198 A 
ATOM     60  C   UNL A   1      43.667  25.929  25.833  1.00  0.00     0.198 A 
ATOM     61  F   UNL A   1      43.902  27.923  27.071  1.00  0.00    -0.203 F 
ATOM     62  F   UNL A   1      41.450  23.102  26.327  1.00  0.00    -0.200 F 
ATOM     63  C   UNL A   1      43.046  24.703  25.640  1.00  0.00     0.200 A 
ATOM     64  F   UNL A   1      44.636  26.328  24.998  1.00  0.00    -0.200 F 
ATOM     65  F   UNL A   1      43.417  23.916  24.620  1.00  0.00    -0.200 F 
ENDBRANCH  31  55
BRANCH  43  66
ATOM     66  C   UNL A   1      44.594  27.298  34.251  1.00  0.00     0.064 A 
ATOM     67  C   UNL A   1      45.839  27.940  34.251  1.00  0.00     0.173 A 
ATOM     68  C   UNL A   1      44.449  26.124  35.002  1.00  0.00     0.173 A 
ATOM     69  F   UNL A   1      46.021  29.059  33.534  1.00  0.00    -0.203 F 
ATOM     70  C   UNL A   1      46.907  27.420  34.976  1.00  0.00     0.198 A 
ATOM     71  C   UNL A   1      45.518  25.611  35.730  1.00  0.00     0.198 A 
ATOM     72  F   UNL A   1      43.274  25.477  35.023  1.00  0.00    -0.203 F 
ATOM     73  F   UNL A   1      48.095  28.039  34.953  1.00  0.00    -0.200 F 
ATOM     74  C   UNL A   1      46.745  26.258  35.717  1.00  0.00     0.200 A 
ATOM     75  F   UNL A   1      45.362  24.486  36.443  1.00  0.00    -0.200 F 
ATOM     76  F   UNL A   1      47.775  25.757  36.413  1.00  0.00    -0.200 F 
ENDBRANCH  43  66
ENDBRANCH  17  18
ENDBRANCH  10  12
ENDBRANCH   7   8
ENDBRANCH   6   7
ENDBRANCH   5   6
ENDBRANCH   1   5
BRANCH   2  77
ATOM     77  C   UNL A   1      32.937  25.666  23.195  1.00  0.00     0.097 A 
ATOM     78  S   UNL A   1      34.202  25.210  24.248  1.00  0.00    -0.130 S 
ATOM     79  C   UNL A   1      31.683  25.387  23.728  1.00  0.00    -0.007 A 
ATOM     80  C   UNL A   1      33.133  24.410  25.321  1.00  0.00     0.035 A 
ATOM     81  C   UNL A   1      31.803  24.570  24.930  1.00  0.00    -0.003 A 
ATOM     82  C   UNL A   1      33.493  23.677  26.471  1.00  0.00     0.019 A 
ATOM     83  C   UNL A   1      30.812  23.945  25.735  1.00  0.00     0.010 A 
ATOM     84  C   UNL A   1      32.491  23.083  27.239  1.00  0.00     0.001 A 
ATOM     85  C   UNL A   1      31.160  23.214  26.875  1.00  0.00     0.001 A 
BRANCH  79  86
ATOM     86  C   UNL A   1      30.358  25.777  23.123  1.00  0.00     0.107 C 
BRANCH  86  87
ATOM     87  S   UNL A   1      29.435  27.079  23.996  1.00  0.00    -0.154 SA
BRANCH  87  88
ATOM     88  C   UNL A   1      29.390  28.430  22.759  1.00  0.00     0.104 C 
BRANCH  88  89
ATOM     89  C   UNL A   1      28.175  29.365  22.804  1.00  0.00     0.149 C 
BRANCH  89  90
ATOM     90  C   UNL A   1      28.161  30.440  21.714  1.00  0.00     0.188 C 
BRANCH  90  91
ATOM     91  O   UNL A   1      29.403  30.394  21.004  1.00  0.00    -0.394 OA
ATOM     92  H   UNL A   1      30.138  30.402  21.638  1.00  0.00     0.210 HD
ENDBRANCH  90  91
ENDBRANCH  89  90
BRANCH  89  93
ATOM     93  O   UNL A   1      26.942  28.633  22.729  1.00  0.00    -0.390 OA
ATOM     94  H   UNL A   1      27.095  27.712  22.997  1.00  0.00     0.211 HD
ENDBRANCH  89  93
ENDBRANCH  88  89
ENDBRANCH  87  88
ENDBRANCH  86  87
ENDBRANCH  79  86
ENDBRANCH   2  77
TORSDOF 17
ENDMDL
MODEL 3
REMARK VINA RESULT:     -11.3      0.962      2.083
REMARK SMILES O=C(NCCCNC(=O)c1sc2ccccc2c1CSC[C@H](O)CO)c1ccc(-c2c3nc(c(-c4c(F)c(F)c(F)c(F)c4F)c4ccc([nH]4)c(-c4c(F)c(F)c(F)c(F)c4F)c4nc(c(-c5c(F)c(F)c(F)c(F)c5F)c5ccc2[nH]5)C=C4)C=C3)cc1
REMARK SMILES IDX 7 1 8 2 9 3 6 5 5 6 4 7 3 8 1 9 2 10 26 12 27 13 88 14 28 15
REMARK SMILES IDX 87 16 29 17 30 18 31 19 81 20 32 21 86 22 80 23 82 24 33 25
REMARK SMILES IDX 85 26 79 27 78 28 34 30 66 31 46 32 65 33 47 34 50 35 64 36
REMARK SMILES IDX 83 37 48 38 49 39 63 41 84 42 51 43 35 44 36 45 44 46 37 47
REMARK SMILES IDX 38 48 42 49 45 50 39 51 40 52 43 53 41 54 67 55 68 56 76 57
REMARK SMILES IDX 69 58 70 59 74 60 77 61 71 62 72 63 75 64 73 65 52 66 53 67
REMARK SMILES IDX 61 68 54 69 55 70 59 71 62 72 56 73 57 74 60 75 58 76 10 77
REMARK SMILES IDX 11 78 18 79 12 80 17 81 13 82 16 83 14 84 15 85 19 86 20 87
REMARK SMILES IDX 21 88 22 89 24 90 25 91 23 93
REMARK H PARENT 7 4 3 11 82 29 50 40 25 92 23 94
REMARK Flexibility Score: inf
ROOT
ATOM      1  N   UNL A   1      30.945  26.786  26.894  1.00  0.00    -0.351 N 
ATOM      2  C   UNL A   1      30.371  25.824  26.094  1.00  0.00     0.261 C 
ATOM      3  O   UNL A   1      29.411  25.208  26.555  1.00  0.00    -0.268 OA
ATOM      4  H   UNL A   1      30.495  26.927  27.758  1.00  0.00     0.163 HD
ENDROOT
BRANCH   1   5
ATOM      5  C   UNL A   1      32.108  27.626  26.667  1.00  0.00     0.118 C 
BRANCH   5   6
ATOM      6  C   UNL A   1      31.799  29.118  26.747  1.00  0.00     0.042 C 
BRANCH   6   7
ATOM      7  C   UNL A   1      32.802  30.030  26.041  1.00  0.00     0.118 C 
BRANCH   7   8
ATOM      8  N   UNL A   1      32.684  31.428  26.432  1.00  0.00    -0.352 N 
ATOM      9  O   UNL A   1      32.971  33.332  27.570  1.00  0.00    -0.269 OA
ATOM     10  C   UNL A   1      33.389  32.203  27.316  1.00  0.00     0.251 C 
ATOM     11  H   UNL A   1      31.956  31.908  25.974  1.00  0.00     0.163 HD
BRANCH  10  12
ATOM     12  C   UNL A   1      34.623  31.730  27.986  1.00  0.00     0.039 A 
ATOM     13  C   UNL A   1      34.772  30.419  28.444  1.00  0.00     0.014 A 
ATOM     14  C   UNL A   1      35.709  32.612  28.071  1.00  0.00     0.014 A 
ATOM     15  C   UNL A   1      35.949  30.032  29.088  1.00  0.00     0.010 A 
ATOM     16  C   UNL A   1      36.910  32.209  28.666  1.00  0.00     0.010 A 
ATOM     17  C   UNL A   1      37.027  30.924  29.212  1.00  0.00    -0.014 A 
BRANCH  17  18
ATOM     18  C   UNL A   1      38.264  30.487  29.906  1.00  0.00     0.031 A 
ATOM     19  C   UNL A   1      38.522  30.877  31.334  1.00  0.00     0.074 A 
ATOM     20  C   UNL A   1      39.142  29.695  29.263  1.00  0.00     0.049 A 
ATOM     21  N   UNL A   1      39.485  30.490  32.134  1.00  0.00    -0.248 NA
ATOM     22  C   UNL A   1      37.585  31.833  31.944  1.00  0.00     0.031 C 
ATOM     23  C   UNL A   1      39.037  29.275  27.866  1.00  0.00     0.029 A 
ATOM     24  N   UNL A   1      40.282  29.076  29.715  1.00  0.00    -0.354 N 
ATOM     25  C   UNL A   1      39.286  31.170  33.326  1.00  0.00     0.074 A 
ATOM     26  C   UNL A   1      38.112  32.000  33.149  1.00  0.00     0.031 C 
ATOM     27  C   UNL A   1      40.033  28.419  27.590  1.00  0.00     0.029 A 
ATOM     28  C   UNL A   1      40.849  28.237  28.788  1.00  0.00     0.049 A 
ATOM     29  H   UNL A   1      40.654  29.219  30.614  1.00  0.00     0.167 HD
ATOM     30  C   UNL A   1      40.010  31.107  34.468  1.00  0.00     0.037 A 
ATOM     31  C   UNL A   1      41.888  27.391  28.902  1.00  0.00     0.037 A 
ATOM     32  C   UNL A   1      41.150  30.256  34.675  1.00  0.00     0.049 A 
ATOM     33  C   UNL A   1      42.620  27.269  30.205  1.00  0.00     0.074 A 
ATOM     34  C   UNL A   1      41.919  30.102  35.817  1.00  0.00     0.029 A 
ATOM     35  N   UNL A   1      41.679  29.406  33.719  1.00  0.00    -0.354 N 
ATOM     36  N   UNL A   1      42.397  27.890  31.336  1.00  0.00    -0.248 NA
ATOM     37  C   UNL A   1      43.745  26.324  30.247  1.00  0.00     0.031 C 
ATOM     38  C   UNL A   1      42.916  29.156  35.549  1.00  0.00     0.029 A 
ATOM     39  C   UNL A   1      42.763  28.722  34.242  1.00  0.00     0.049 A 
ATOM     40  H   UNL A   1      41.336  29.305  32.802  1.00  0.00     0.167 HD
ATOM     41  C   UNL A   1      43.346  27.410  32.225  1.00  0.00     0.074 A 
ATOM     42  C   UNL A   1      44.145  26.438  31.507  1.00  0.00     0.031 C 
ATOM     43  C   UNL A   1      43.540  27.752  33.521  1.00  0.00     0.037 A 
BRANCH  30  44
ATOM     44  C   UNL A   1      39.584  31.992  35.594  1.00  0.00     0.064 A 
ATOM     45  C   UNL A   1      40.136  33.268  35.762  1.00  0.00     0.173 A 
ATOM     46  C   UNL A   1      38.594  31.572  36.493  1.00  0.00     0.173 A 
ATOM     47  F   UNL A   1      41.096  33.703  34.933  1.00  0.00    -0.203 F 
ATOM     48  C   UNL A   1      39.713  34.096  36.799  1.00  0.00     0.198 A 
ATOM     49  C   UNL A   1      38.168  32.404  37.524  1.00  0.00     0.198 A 
ATOM     50  F   UNL A   1      38.043  30.355  36.371  1.00  0.00    -0.203 F 
ATOM     51  F   UNL A   1      40.265  35.307  36.955  1.00  0.00    -0.200 F 
ATOM     52  C   UNL A   1      38.728  33.664  37.676  1.00  0.00     0.200 A 
ATOM     53  F   UNL A   1      37.220  31.987  38.374  1.00  0.00    -0.200 F 
ATOM     54  F   UNL A   1      38.325  34.461  38.676  1.00  0.00    -0.200 F 
ENDBRANCH  30  44
BRANCH  31  55
ATOM     55  C   UNL A   1      42.251  26.531  27.754  1.00  0.00     0.064 A 
ATOM     56  C   UNL A   1      41.602  25.306  27.552  1.00  0.00     0.173 A 
ATOM     57  C   UNL A   1      43.228  26.924  26.832  1.00  0.00     0.173 A 
ATOM     58  F   UNL A   1      40.670  24.891  28.421  1.00  0.00    -0.203 F 
ATOM     59  C   UNL A   1      41.921  24.500  26.463  1.00  0.00     0.198 A 
ATOM     60  C   UNL A   1      43.543  26.118  25.740  1.00  0.00     0.198 A 
ATOM     61  F   UNL A   1      43.875  28.087  26.996  1.00  0.00    -0.203 F 
ATOM     62  F   UNL A   1      41.296  23.327  26.295  1.00  0.00    -0.200 F 
ATOM     63  C   UNL A   1      42.889  24.908  25.557  1.00  0.00     0.200 A 
ATOM     64  F   UNL A   1      44.479  26.512  24.866  1.00  0.00    -0.200 F 
ATOM     65  F   UNL A   1      43.196  24.131  24.509  1.00  0.00    -0.200 F 
ENDBRANCH  31  55
BRANCH  43  66
ATOM     66  C   UNL A   1      44.652  27.066  34.246  1.00  0.00     0.064 A 
ATOM     67  C   UNL A   1      44.437  25.852  34.911  1.00  0.00     0.173 A 
ATOM     68  C   UNL A   1      45.944  27.608  34.250  1.00  0.00     0.173 A 
ATOM     69  F   UNL A   1      43.211  25.307  34.940  1.00  0.00    -0.203 F 
ATOM     70  C   UNL A   1      45.482  25.202  35.561  1.00  0.00     0.198 A 
ATOM     71  C   UNL A   1      46.987  26.953  34.897  1.00  0.00     0.198 A 
ATOM     72  F   UNL A   1      46.189  28.773  33.631  1.00  0.00    -0.203 F 
ATOM     73  F   UNL A   1      45.255  24.048  36.204  1.00  0.00    -0.200 F 
ATOM     74  C   UNL A   1      46.756  25.752  35.552  1.00  0.00     0.200 A 
ATOM     75  F   UNL A   1      48.217  27.486  34.892  1.00  0.00    -0.200 F 
ATOM     76  F   UNL A   1      47.760  25.127  36.180  1.00  0.00    -0.200 F 
ENDBRANCH  43  66
ENDBRANCH  17  18
ENDBRANCH  10  12
ENDBRANCH   7   8
ENDBRANCH   6   7
ENDBRANCH   5   6
ENDBRANCH   1   5
BRANCH   2  77
ATOM     77  C   UNL A   1      30.917  25.581  24.774  1.00  0.00     0.097 A 
ATOM     78  S   UNL A   1      31.920  24.215  24.565  1.00  0.00    -0.130 S 
ATOM     79  C   UNL A   1      30.651  26.227  23.572  1.00  0.00    -0.007 A 
ATOM     80  C   UNL A   1      32.228  24.587  22.922  1.00  0.00     0.035 A 
ATOM     81  C   UNL A   1      31.493  25.698  22.505  1.00  0.00    -0.003 A 
ATOM     82  C   UNL A   1      33.094  23.893  22.053  1.00  0.00     0.019 A 
ATOM     83  C   UNL A   1      31.664  26.119  21.157  1.00  0.00     0.010 A 
ATOM     84  C   UNL A   1      33.231  24.333  20.736  1.00  0.00     0.001 A 
ATOM     85  C   UNL A   1      32.524  25.437  20.290  1.00  0.00     0.001 A 
BRANCH  79  86
ATOM     86  C   UNL A   1      29.702  27.382  23.379  1.00  0.00     0.107 C 
BRANCH  86  87
ATOM     87  S   UNL A   1      30.451  28.950  22.842  1.00  0.00    -0.154 SA
BRANCH  87  88
ATOM     88  C   UNL A   1      29.245  30.192  23.442  1.00  0.00     0.104 C 
BRANCH  88  89
ATOM     89  C   UNL A   1      28.139  30.607  22.462  1.00  0.00     0.149 C 
BRANCH  89  90
ATOM     90  C   UNL A   1      28.324  31.999  21.850  1.00  0.00     0.188 C 
BRANCH  90  91
ATOM     91  O   UNL A   1      29.563  32.547  22.314  1.00  0.00    -0.394 OA
ATOM     92  H   UNL A   1      29.493  32.746  23.261  1.00  0.00     0.210 HD
ENDBRANCH  90  91
ENDBRANCH  89  90
BRANCH  89  93
ATOM     93  O   UNL A   1      27.998  29.660  21.392  1.00  0.00    -0.390 OA
ATOM     94  H   UNL A   1      27.467  28.906  21.695  1.00  0.00     0.211 HD
ENDBRANCH  89  93
ENDBRANCH  88  89
ENDBRANCH  87  88
ENDBRANCH  86  87
ENDBRANCH  79  86
ENDBRANCH   2  77
TORSDOF 17
ENDMDL
