MODEL 1
REMARK VINA RESULT:     -12.0      0.000      0.000
REMARK SMILES CCCc1cc(OC(F)(F)F)cc2c1O[C@@H](C(F)(F)F)C(C(=O)NCCCNC(=O)c1ccc(-c3c4nc(c(-c5c(F)c(F)c(F)c(F)c5F)c5ccc([nH]5)c(-c5c(F)c(F)c(F)c(F)c5F)c5nc(c(-c6c(F)c(F)c(F)c(F)c6F)c6ccc3[nH]6)C=C5)C=C4)cc1)=C2
REMARK SMILES IDX 26 1 25 2 24 3 22 4 23 5 21 7 4 8 5 9 14 10 6 11 13 12 15 13
REMARK SMILES IDX 12 14 94 15 16 16 3 17 2 18 1 19 7 20 8 21 9 22 10 23 11 24
REMARK SMILES IDX 17 25 18 26 19 27 20 28 27 29 28 30 29 31 30 33 31 34 32 35
REMARK SMILES IDX 93 36 33 37 92 38 34 39 35 40 36 41 86 42 37 43 91 44 85 45
REMARK SMILES IDX 87 46 38 47 90 48 84 49 83 50 39 52 71 53 51 54 70 55 52 56
REMARK SMILES IDX 55 57 69 58 88 59 53 60 54 61 68 63 89 64 56 65 40 66 41 67
REMARK SMILES IDX 49 68 42 69 43 70 47 71 50 72 44 73 45 74 48 75 46 76 72 77
REMARK SMILES IDX 73 78 81 79 74 80 75 81 79 82 82 83 76 84 77 85 80 86 78 87
REMARK SMILES IDX 57 88 58 89 66 90 59 91 60 92 64 93 67 94 61 95 62 96 65 97
REMARK SMILES IDX 63 98
REMARK H PARENT 24 6 28 32 87 51 55 62
REMARK Flexibility Score: inf
ROOT
ATOM      1  C   UNL A   1      35.425  23.515  26.280  1.00  0.00     0.042 C 
ENDROOT
BRANCH   1   2
ATOM      2  C   UNL A   1      34.215  23.389  25.347  1.00  0.00     0.118 C 
BRANCH   2   3
ATOM      3  N   UNL A   1      33.034  22.964  26.085  1.00  0.00    -0.352 N 
ATOM      4  C   UNL A   1      31.942  23.632  26.547  1.00  0.00     0.251 C 
ATOM      5  O   UNL A   1      31.138  23.021  27.247  1.00  0.00    -0.270 OA
ATOM      6  H   UNL A   1      33.023  22.002  26.291  1.00  0.00     0.163 HD
BRANCH   4   7
ATOM      7  C   UNL A   1      31.654  25.041  26.176  1.00  0.00     0.067 C 
ATOM      8  C   UNL A   1      31.075  28.952  24.729  1.00  0.00    -0.002 A 
ATOM      9  C   UNL A   1      31.709  30.005  25.415  1.00  0.00     0.054 A 
ATOM     10  C   UNL A   1      31.191  27.647  25.240  1.00  0.00     0.131 A 
ATOM     11  C   UNL A   1      32.372  29.791  26.622  1.00  0.00     0.130 A 
ATOM     12  C   UNL A   1      31.889  27.422  26.426  1.00  0.00     0.021 A 
ATOM     13  O   UNL A   1      30.669  26.625  24.502  1.00  0.00    -0.475 OA
ATOM     14  C   UNL A   1      32.461  28.494  27.120  1.00  0.00     0.058 A 
ATOM     15  C   UNL A   1      32.120  26.068  26.895  1.00  0.00     0.025 C 
ATOM     16  C   UNL A   1      30.677  25.264  25.031  1.00  0.00     0.314 C 
BRANCH   8  17
ATOM     17  C   UNL A   1      30.336  29.250  23.439  1.00  0.00     0.039 C 
BRANCH  17  18
ATOM     18  C   UNL A   1      29.386  30.456  23.500  1.00  0.00     0.001 C 
ATOM     19  C   UNL A   1      27.945  30.152  23.106  1.00  0.00     0.004 C 
ENDBRANCH  17  18
ENDBRANCH   8  17
BRANCH  11  20
ATOM     20  O   UNL A   1      32.999  30.736  27.381  1.00  0.00    -0.406 OA
BRANCH  20  21
ATOM     21  C   UNL A   1      34.411  30.654  27.492  1.00  0.00     0.573 C 
ATOM     22  F   UNL A   1      34.776  30.279  28.736  1.00  0.00    -0.132 F 
ATOM     23  F   UNL A   1      34.924  29.791  26.589  1.00  0.00    -0.132 F 
ATOM     24  F   UNL A   1      34.934  31.875  27.250  1.00  0.00    -0.132 F 
ENDBRANCH  20  21
ENDBRANCH  11  20
BRANCH  16  25
ATOM     25  C   UNL A   1      30.823  24.304  23.828  1.00  0.00     0.429 C 
ATOM     26  F   UNL A   1      30.623  23.011  24.162  1.00  0.00    -0.167 F 
ATOM     27  F   UNL A   1      29.901  24.581  22.867  1.00  0.00    -0.167 F 
ATOM     28  F   UNL A   1      32.040  24.402  23.240  1.00  0.00    -0.167 F 
ENDBRANCH  16  25
ENDBRANCH   4   7
ENDBRANCH   2   3
ENDBRANCH   1   2
BRANCH   1  29
ATOM     29  C   UNL A   1      36.755  23.646  25.542  1.00  0.00     0.118 C 
BRANCH  29  30
ATOM     30  N   UNL A   1      37.718  22.646  25.974  1.00  0.00    -0.352 N 
ATOM     31  C   UNL A   1      38.974  22.804  26.502  1.00  0.00     0.251 C 
ATOM     32  H   UNL A   1      37.424  21.712  25.872  1.00  0.00     0.163 HD
ATOM     33  O   UNL A   1      39.713  21.823  26.601  1.00  0.00    -0.269 OA
BRANCH  31  34
ATOM     34  C   UNL A   1      39.462  24.129  26.942  1.00  0.00     0.039 A 
ATOM     35  C   UNL A   1      39.282  24.497  28.281  1.00  0.00     0.014 A 
ATOM     36  C   UNL A   1      40.033  25.036  26.045  1.00  0.00     0.014 A 
ATOM     37  C   UNL A   1      39.711  25.749  28.727  1.00  0.00     0.010 A 
ATOM     38  C   UNL A   1      40.519  26.260  26.504  1.00  0.00     0.010 A 
ATOM     39  C   UNL A   1      40.354  26.633  27.846  1.00  0.00    -0.014 A 
BRANCH  39  40
ATOM     40  C   UNL A   1      40.855  27.950  28.315  1.00  0.00     0.031 A 
ATOM     41  C   UNL A   1      42.332  28.224  28.380  1.00  0.00     0.074 A 
ATOM     42  C   UNL A   1      39.980  28.878  28.745  1.00  0.00     0.049 A 
ATOM     43  N   UNL A   1      42.960  29.285  28.820  1.00  0.00    -0.248 NA
ATOM     44  C   UNL A   1      43.220  27.150  27.914  1.00  0.00     0.031 C 
ATOM     45  C   UNL A   1      38.527  28.711  28.784  1.00  0.00     0.029 A 
ATOM     46  N   UNL A   1      40.185  30.138  29.249  1.00  0.00    -0.354 N 
ATOM     47  C   UNL A   1      44.313  29.001  28.699  1.00  0.00     0.074 A 
ATOM     48  C   UNL A   1      44.416  27.650  28.191  1.00  0.00     0.031 C 
ATOM     49  C   UNL A   1      37.971  29.827  29.280  1.00  0.00     0.029 A 
ATOM     50  C   UNL A   1      39.028  30.775  29.620  1.00  0.00     0.049 A 
ATOM     51  H   UNL A   1      41.078  30.544  29.336  1.00  0.00     0.167 HD
ATOM     52  C   UNL A   1      45.374  29.802  28.966  1.00  0.00     0.037 A 
ATOM     53  C   UNL A   1      38.839  31.985  30.180  1.00  0.00     0.037 A 
ATOM     54  C   UNL A   1      45.267  31.153  29.453  1.00  0.00     0.049 A 
ATOM     55  C   UNL A   1      40.028  32.866  30.451  1.00  0.00     0.074 A 
ATOM     56  C   UNL A   1      46.277  32.069  29.691  1.00  0.00     0.029 A 
ATOM     57  N   UNL A   1      44.073  31.781  29.782  1.00  0.00    -0.354 N 
ATOM     58  N   UNL A   1      41.300  32.615  30.262  1.00  0.00    -0.248 NA
ATOM     59  C   UNL A   1      39.753  34.199  31.000  1.00  0.00     0.031 C 
ATOM     60  C   UNL A   1      45.698  33.236  30.204  1.00  0.00     0.029 A 
ATOM     61  C   UNL A   1      44.324  33.064  30.242  1.00  0.00     0.049 A 
ATOM     62  H   UNL A   1      43.181  31.374  29.702  1.00  0.00     0.167 HD
ATOM     63  C   UNL A   1      41.978  33.761  30.654  1.00  0.00     0.074 A 
ATOM     64  C   UNL A   1      40.972  34.716  31.073  1.00  0.00     0.031 C 
ATOM     65  C   UNL A   1      43.312  33.999  30.666  1.00  0.00     0.037 A 
BRANCH  52  66
ATOM     66  C   UNL A   1      46.742  29.229  28.737  1.00  0.00     0.064 A 
ATOM     67  C   UNL A   1      47.461  28.602  29.767  1.00  0.00     0.173 A 
ATOM     68  C   UNL A   1      47.343  29.298  27.469  1.00  0.00     0.173 A 
ATOM     69  F   UNL A   1      46.938  28.518  30.999  1.00  0.00    -0.203 F 
ATOM     70  C   UNL A   1      48.743  28.105  29.548  1.00  0.00     0.198 A 
ATOM     71  C   UNL A   1      48.613  28.772  27.246  1.00  0.00     0.198 A 
ATOM     72  F   UNL A   1      46.698  29.879  26.447  1.00  0.00    -0.203 F 
ATOM     73  F   UNL A   1      49.433  27.566  30.563  1.00  0.00    -0.200 F 
ATOM     74  C   UNL A   1      49.316  28.186  28.288  1.00  0.00     0.200 A 
ATOM     75  F   UNL A   1      49.159  28.840  26.026  1.00  0.00    -0.200 F 
ATOM     76  F   UNL A   1      50.551  27.710  28.080  1.00  0.00    -0.200 F 
ENDBRANCH  52  66
BRANCH  53  77
ATOM     77  C   UNL A   1      37.460  32.434  30.498  1.00  0.00     0.064 A 
ATOM     78  C   UNL A   1      36.887  32.174  31.749  1.00  0.00     0.173 A 
ATOM     79  C   UNL A   1      36.704  33.164  29.569  1.00  0.00     0.173 A 
ATOM     80  F   UNL A   1      37.566  31.464  32.662  1.00  0.00    -0.203 F 
ATOM     81  C   UNL A   1      35.605  32.622  32.059  1.00  0.00     0.198 A 
ATOM     82  C   UNL A   1      35.432  33.633  29.889  1.00  0.00     0.198 A 
ATOM     83  F   UNL A   1      37.214  33.445  28.361  1.00  0.00    -0.203 F 
ATOM     84  F   UNL A   1      35.069  32.337  33.253  1.00  0.00    -0.200 F 
ATOM     85  C   UNL A   1      34.882  33.358  31.132  1.00  0.00     0.200 A 
ATOM     86  F   UNL A   1      34.744  34.358  28.997  1.00  0.00    -0.200 F 
ATOM     87  F   UNL A   1      33.655  33.803  31.436  1.00  0.00    -0.200 F 
ENDBRANCH  53  77
BRANCH  65  88
ATOM     88  C   UNL A   1      43.761  35.352  31.137  1.00  0.00     0.064 A 
ATOM     89  C   UNL A   1      43.849  36.442  30.260  1.00  0.00     0.173 A 
ATOM     90  C   UNL A   1      44.074  35.567  32.489  1.00  0.00     0.173 A 
ATOM     91  F   UNL A   1      43.576  36.283  28.956  1.00  0.00    -0.203 F 
ATOM     92  C   UNL A   1      44.254  37.695  30.714  1.00  0.00     0.198 A 
ATOM     93  C   UNL A   1      44.453  36.827  32.943  1.00  0.00     0.198 A 
ATOM     94  F   UNL A   1      44.002  34.557  33.368  1.00  0.00    -0.203 F 
ATOM     95  F   UNL A   1      44.374  38.712  29.850  1.00  0.00    -0.200 F 
ATOM     96  C   UNL A   1      44.550  37.888  32.055  1.00  0.00     0.200 A 
ATOM     97  F   UNL A   1      44.728  37.014  34.242  1.00  0.00    -0.200 F 
ATOM     98  F   UNL A   1      44.935  39.094  32.491  1.00  0.00    -0.200 F 
ENDBRANCH  65  88
ENDBRANCH  39  40
ENDBRANCH  31  34
ENDBRANCH  29  30
ENDBRANCH   1  29
TORSDOF 15
ENDMDL
MODEL 2
REMARK VINA RESULT:     -11.9      1.167      1.510
REMARK SMILES CCCc1cc(OC(F)(F)F)cc2c1O[C@@H](C(F)(F)F)C(C(=O)NCCCNC(=O)c1ccc(-c3c4nc(c(-c5c(F)c(F)c(F)c(F)c5F)c5ccc([nH]5)c(-c5c(F)c(F)c(F)c(F)c5F)c5nc(c(-c6c(F)c(F)c(F)c(F)c6F)c6ccc3[nH]6)C=C5)C=C4)cc1)=C2
REMARK SMILES IDX 26 1 25 2 24 3 22 4 23 5 21 7 4 8 5 9 14 10 6 11 13 12 15 13
REMARK SMILES IDX 12 14 94 15 16 16 3 17 2 18 1 19 7 20 8 21 9 22 10 23 11 24
REMARK SMILES IDX 17 25 18 26 19 27 20 28 27 29 28 30 29 31 30 33 31 34 32 35
REMARK SMILES IDX 93 36 33 37 92 38 34 39 35 40 36 41 86 42 37 43 91 44 85 45
REMARK SMILES IDX 87 46 38 47 90 48 84 49 83 50 39 52 71 53 51 54 70 55 52 56
REMARK SMILES IDX 55 57 69 58 88 59 53 60 54 61 68 63 89 64 56 65 40 66 41 67
REMARK SMILES IDX 49 68 42 69 43 70 47 71 50 72 44 73 45 74 48 75 46 76 72 77
REMARK SMILES IDX 73 78 81 79 74 80 75 81 79 82 82 83 76 84 77 85 80 86 78 87
REMARK SMILES IDX 57 88 58 89 66 90 59 91 60 92 64 93 67 94 61 95 62 96 65 97
REMARK SMILES IDX 63 98
REMARK H PARENT 24 6 28 32 87 51 55 62
REMARK Flexibility Score: inf
ROOT
ATOM      1  C   UNL A   1      35.233  23.378  25.188  1.00  0.00     0.042 C 
ENDROOT
BRANCH   1   2
ATOM      2  C   UNL A   1      34.413  23.516  26.475  1.00  0.00     0.118 C 
BRANCH   2   3
ATOM      3  N   UNL A   1      33.094  22.920  26.315  1.00  0.00    -0.352 N 
ATOM      4  C   UNL A   1      31.858  23.451  26.111  1.00  0.00     0.251 C 
ATOM      5  O   UNL A   1      30.889  22.694  26.123  1.00  0.00    -0.270 OA
ATOM      6  H   UNL A   1      33.097  21.937  26.363  1.00  0.00     0.163 HD
BRANCH   4   7
ATOM      7  C   UNL A   1      31.648  24.889  25.804  1.00  0.00     0.067 C 
ATOM      8  C   UNL A   1      31.352  28.905  24.577  1.00  0.00    -0.002 A 
ATOM      9  C   UNL A   1      31.877  29.892  25.433  1.00  0.00     0.054 A 
ATOM     10  C   UNL A   1      31.370  27.565  25.002  1.00  0.00     0.131 A 
ATOM     11  C   UNL A   1      32.334  29.577  26.712  1.00  0.00     0.130 A 
ATOM     12  C   UNL A   1      31.864  27.240  26.265  1.00  0.00     0.021 A 
ATOM     13  O   UNL A   1      30.964  26.610  24.115  1.00  0.00    -0.475 OA
ATOM     14  C   UNL A   1      32.327  28.247  27.120  1.00  0.00     0.058 A 
ATOM     15  C   UNL A   1      32.002  25.851  26.663  1.00  0.00     0.025 C 
ATOM     16  C   UNL A   1      30.873  25.215  24.537  1.00  0.00     0.314 C 
BRANCH   8  17
ATOM     17  C   UNL A   1      30.835  29.311  23.211  1.00  0.00     0.039 C 
BRANCH  17  18
ATOM     18  C   UNL A   1      29.432  29.937  23.208  1.00  0.00     0.001 C 
ATOM     19  C   UNL A   1      28.302  28.966  22.885  1.00  0.00     0.004 C 
ENDBRANCH  17  18
ENDBRANCH   8  17
BRANCH  11  20
ATOM     20  O   UNL A   1      32.840  30.452  27.629  1.00  0.00    -0.406 OA
BRANCH  20  21
ATOM     21  C   UNL A   1      34.239  30.685  27.607  1.00  0.00     0.573 C 
ATOM     22  F   UNL A   1      34.516  31.909  27.109  1.00  0.00    -0.132 F 
ATOM     23  F   UNL A   1      34.774  30.567  28.841  1.00  0.00    -0.132 F 
ATOM     24  F   UNL A   1      34.817  29.764  26.807  1.00  0.00    -0.132 F 
ENDBRANCH  20  21
ENDBRANCH  11  20
BRANCH  16  25
ATOM     25  C   UNL A   1      31.202  24.341  23.305  1.00  0.00     0.429 C 
ATOM     26  F   UNL A   1      31.201  25.041  22.150  1.00  0.00    -0.167 F 
ATOM     27  F   UNL A   1      32.447  23.803  23.406  1.00  0.00    -0.167 F 
ATOM     28  F   UNL A   1      30.340  23.305  23.168  1.00  0.00    -0.167 F 
ENDBRANCH  16  25
ENDBRANCH   4   7
ENDBRANCH   2   3
ENDBRANCH   1   2
BRANCH   1  29
ATOM     29  C   UNL A   1      36.653  23.928  25.305  1.00  0.00     0.118 C 
BRANCH  29  30
ATOM     30  N   UNL A   1      37.619  22.884  25.605  1.00  0.00    -0.352 N 
ATOM     31  C   UNL A   1      38.864  22.972  26.173  1.00  0.00     0.251 C 
ATOM     32  H   UNL A   1      37.335  21.972  25.363  1.00  0.00     0.163 HD
ATOM     33  O   UNL A   1      39.610  21.993  26.142  1.00  0.00    -0.269 OA
BRANCH  31  34
ATOM     34  C   UNL A   1      39.331  24.223  26.811  1.00  0.00     0.039 A 
ATOM     35  C   UNL A   1      38.989  24.460  28.147  1.00  0.00     0.014 A 
ATOM     36  C   UNL A   1      40.041  25.191  26.095  1.00  0.00     0.014 A 
ATOM     37  C   UNL A   1      39.393  25.640  28.775  1.00  0.00     0.010 A 
ATOM     38  C   UNL A   1      40.500  26.339  26.740  1.00  0.00     0.010 A 
ATOM     39  C   UNL A   1      40.173  26.580  28.082  1.00  0.00    -0.014 A 
BRANCH  39  40
ATOM     40  C   UNL A   1      40.649  27.819  28.749  1.00  0.00     0.031 A 
ATOM     41  C   UNL A   1      42.073  27.935  29.214  1.00  0.00     0.074 A 
ATOM     42  C   UNL A   1      39.779  28.816  28.994  1.00  0.00     0.049 A 
ATOM     43  N   UNL A   1      42.655  28.907  29.870  1.00  0.00    -0.248 NA
ATOM     44  C   UNL A   1      42.953  26.792  28.928  1.00  0.00     0.031 C 
ATOM     45  C   UNL A   1      38.359  28.800  28.642  1.00  0.00     0.029 A 
ATOM     46  N   UNL A   1      39.956  30.028  29.613  1.00  0.00    -0.354 N 
ATOM     47  C   UNL A   1      43.961  28.488  30.088  1.00  0.00     0.074 A 
ATOM     48  C   UNL A   1      44.072  27.154  29.539  1.00  0.00     0.031 C 
ATOM     49  C   UNL A   1      37.795  29.949  29.046  1.00  0.00     0.029 A 
ATOM     50  C   UNL A   1      38.805  30.768  29.710  1.00  0.00     0.049 A 
ATOM     51  H   UNL A   1      40.827  30.336  29.956  1.00  0.00     0.167 HD
ATOM     52  C   UNL A   1      44.981  29.164  30.673  1.00  0.00     0.037 A 
ATOM     53  C   UNL A   1      38.584  31.969  30.278  1.00  0.00     0.037 A 
ATOM     54  C   UNL A   1      44.871  30.498  31.201  1.00  0.00     0.049 A 
ATOM     55  C   UNL A   1      39.733  32.710  30.904  1.00  0.00     0.074 A 
ATOM     56  C   UNL A   1      45.860  31.295  31.752  1.00  0.00     0.029 A 
ATOM     57  N   UNL A   1      43.695  31.235  31.247  1.00  0.00    -0.354 N 
ATOM     58  N   UNL A   1      40.982  32.335  31.038  1.00  0.00    -0.248 NA
ATOM     59  C   UNL A   1      39.444  34.044  31.447  1.00  0.00     0.031 C 
ATOM     60  C   UNL A   1      45.274  32.496  32.170  1.00  0.00     0.029 A 
ATOM     61  C   UNL A   1      43.930  32.467  31.837  1.00  0.00     0.049 A 
ATOM     62  H   UNL A   1      42.823  30.927  30.910  1.00  0.00     0.167 HD
ATOM     63  C   UNL A   1      41.632  33.389  31.666  1.00  0.00     0.074 A 
ATOM     64  C   UNL A   1      40.642  34.428  31.869  1.00  0.00     0.031 C 
ATOM     65  C   UNL A   1      42.931  33.486  32.041  1.00  0.00     0.037 A 
BRANCH  52  66
ATOM     66  C   UNL A   1      46.303  28.460  30.773  1.00  0.00     0.064 A 
ATOM     67  C   UNL A   1      46.641  27.680  31.890  1.00  0.00     0.173 A 
ATOM     68  C   UNL A   1      47.244  28.557  29.735  1.00  0.00     0.173 A 
ATOM     69  F   UNL A   1      45.782  27.561  32.914  1.00  0.00    -0.203 F 
ATOM     70  C   UNL A   1      47.884  27.060  31.983  1.00  0.00     0.198 A 
ATOM     71  C   UNL A   1      48.474  27.910  29.818  1.00  0.00     0.198 A 
ATOM     72  F   UNL A   1      46.970  29.283  28.641  1.00  0.00    -0.203 F 
ATOM     73  F   UNL A   1      48.205  26.371  33.088  1.00  0.00    -0.200 F 
ATOM     74  C   UNL A   1      48.798  27.172  30.947  1.00  0.00     0.200 A 
ATOM     75  F   UNL A   1      49.351  28.009  28.810  1.00  0.00    -0.200 F 
ATOM     76  F   UNL A   1      49.995  26.577  31.040  1.00  0.00    -0.200 F 
ENDBRANCH  52  66
BRANCH  53  77
ATOM     77  C   UNL A   1      37.217  32.547  30.252  1.00  0.00     0.064 A 
ATOM     78  C   UNL A   1      36.301  32.276  31.275  1.00  0.00     0.173 A 
ATOM     79  C   UNL A   1      36.816  33.412  29.224  1.00  0.00     0.173 A 
ATOM     80  F   UNL A   1      36.635  31.441  32.270  1.00  0.00    -0.203 F 
ATOM     81  C   UNL A   1      35.028  32.843  31.269  1.00  0.00     0.198 A 
ATOM     82  C   UNL A   1      35.552  33.998  29.231  1.00  0.00     0.198 A 
ATOM     83  F   UNL A   1      37.661  33.709  28.226  1.00  0.00    -0.203 F 
ATOM     84  F   UNL A   1      34.160  32.546  32.245  1.00  0.00    -0.200 F 
ATOM     85  C   UNL A   1      34.657  33.710  30.252  1.00  0.00     0.200 A 
ATOM     86  F   UNL A   1      35.204  34.848  28.256  1.00  0.00    -0.200 F 
ATOM     87  F   UNL A   1      33.439  34.268  30.254  1.00  0.00    -0.200 F 
ENDBRANCH  53  77
BRANCH  65  88
ATOM     88  C   UNL A   1      43.359  34.765  32.698  1.00  0.00     0.064 A 
ATOM     89  C   UNL A   1      43.732  35.888  31.945  1.00  0.00     0.173 A 
ATOM     90  C   UNL A   1      43.362  34.881  34.097  1.00  0.00     0.173 A 
ATOM     91  F   UNL A   1      43.761  35.822  30.606  1.00  0.00    -0.203 F 
ATOM     92  C   UNL A   1      44.115  37.073  32.568  1.00  0.00     0.198 A 
ATOM     93  C   UNL A   1      43.720  36.075  34.716  1.00  0.00     0.198 A 
ATOM     94  F   UNL A   1      43.009  33.837  34.862  1.00  0.00    -0.203 F 
ATOM     95  F   UNL A   1      44.511  38.118  31.830  1.00  0.00    -0.200 F 
ATOM     96  C   UNL A   1      44.102  37.168  33.952  1.00  0.00     0.200 A 
ATOM     97  F   UNL A   1      43.696  36.168  36.053  1.00  0.00    -0.200 F 
ATOM     98  F   UNL A   1      44.466  38.310  34.551  1.00  0.00    -0.200 F 
ENDBRANCH  65  88
ENDBRANCH  39  40
ENDBRANCH  31  34
ENDBRANCH  29  30
ENDBRANCH   1  29
TORSDOF 15
ENDMDL
MODEL 3
REMARK VINA RESULT:     -11.9      0.916      1.969
REMARK SMILES CCCc1cc(OC(F)(F)F)cc2c1O[C@@H](C(F)(F)F)C(C(=O)NCCCNC(=O)c1ccc(-c3c4nc(c(-c5c(F)c(F)c(F)c(F)c5F)c5ccc([nH]5)c(-c5c(F)c(F)c(F)c(F)c5F)c5nc(c(-c6c(F)c(F)c(F)c(F)c6F)c6ccc3[nH]6)C=C5)C=C4)cc1)=C2
REMARK SMILES IDX 26 1 25 2 24 3 22 4 23 5 21 7 4 8 5 9 14 10 6 11 13 12 15 13
REMARK SMILES IDX 12 14 94 15 16 16 3 17 2 18 1 19 7 20 8 21 9 22 10 23 11 24
REMARK SMILES IDX 17 25 18 26 19 27 20 28 27 29 28 30 29 31 30 33 31 34 32 35
REMARK SMILES IDX 93 36 33 37 92 38 34 39 35 40 36 41 86 42 37 43 91 44 85 45
REMARK SMILES IDX 87 46 38 47 90 48 84 49 83 50 39 52 71 53 51 54 70 55 52 56
REMARK SMILES IDX 55 57 69 58 88 59 53 60 54 61 68 63 89 64 56 65 40 66 41 67
REMARK SMILES IDX 49 68 42 69 43 70 47 71 50 72 44 73 45 74 48 75 46 76 72 77
REMARK SMILES IDX 73 78 81 79 74 80 75 81 79 82 82 83 76 84 77 85 80 86 78 87
REMARK SMILES IDX 57 88 58 89 66 90 59 91 60 92 64 93 67 94 61 95 62 96 65 97
REMARK SMILES IDX 63 98
REMARK H PARENT 24 6 28 32 87 51 55 62
REMARK Flexibility Score: inf
ROOT
ATOM      1  C   UNL A   1      35.064  23.373  26.529  1.00  0.00     0.042 C 
ENDROOT
BRANCH   1   2
ATOM      2  C   UNL A   1      33.888  23.199  25.561  1.00  0.00     0.118 C 
BRANCH   2   3
ATOM      3  N   UNL A   1      32.659  22.910  26.287  1.00  0.00    -0.352 N 
ATOM      4  C   UNL A   1      31.621  23.689  26.695  1.00  0.00     0.251 C 
ATOM      5  O   UNL A   1      30.752  23.180  27.399  1.00  0.00    -0.270 OA
ATOM      6  H   UNL A   1      32.560  21.962  26.531  1.00  0.00     0.163 HD
BRANCH   4   7
ATOM      7  C   UNL A   1      31.464  25.101  26.261  1.00  0.00     0.067 C 
ATOM      8  C   UNL A   1      31.295  28.993  24.665  1.00  0.00    -0.002 A 
ATOM      9  C   UNL A   1      31.917  30.026  25.392  1.00  0.00     0.054 A 
ATOM     10  C   UNL A   1      31.272  27.699  25.217  1.00  0.00     0.131 A 
ATOM     11  C   UNL A   1      32.431  29.809  26.669  1.00  0.00     0.130 A 
ATOM     12  C   UNL A   1      31.822  27.469  26.478  1.00  0.00     0.021 A 
ATOM     13  O   UNL A   1      30.768  26.689  24.451  1.00  0.00    -0.475 OA
ATOM     14  C   UNL A   1      32.383  28.526  27.205  1.00  0.00     0.058 A 
ATOM     15  C   UNL A   1      31.915  26.119  27.001  1.00  0.00     0.025 C 
ATOM     16  C   UNL A   1      30.633  25.347  25.010  1.00  0.00     0.314 C 
BRANCH   8  17
ATOM     17  C   UNL A   1      30.720  29.295  23.296  1.00  0.00     0.039 C 
BRANCH  17  18
ATOM     18  C   UNL A   1      29.273  29.814  23.299  1.00  0.00     0.001 C 
ATOM     19  C   UNL A   1      28.212  28.739  23.101  1.00  0.00     0.004 C 
ENDBRANCH  17  18
ENDBRANCH   8  17
BRANCH  11  20
ATOM     20  O   UNL A   1      33.032  30.738  27.469  1.00  0.00    -0.406 OA
BRANCH  20  21
ATOM     21  C   UNL A   1      34.447  30.706  27.558  1.00  0.00     0.573 C 
ATOM     22  F   UNL A   1      34.982  31.881  27.166  1.00  0.00    -0.132 F 
ATOM     23  F   UNL A   1      34.851  30.421  28.815  1.00  0.00    -0.132 F 
ATOM     24  F   UNL A   1      34.908  29.738  26.738  1.00  0.00    -0.132 F 
ENDBRANCH  20  21
ENDBRANCH  11  20
BRANCH  16  25
ATOM     25  C   UNL A   1      30.847  24.344  23.854  1.00  0.00     0.429 C 
ATOM     26  F   UNL A   1      30.580  23.069  24.211  1.00  0.00    -0.167 F 
ATOM     27  F   UNL A   1      30.014  24.614  22.813  1.00  0.00    -0.167 F 
ATOM     28  F   UNL A   1      32.109  24.387  23.365  1.00  0.00    -0.167 F 
ENDBRANCH  16  25
ENDBRANCH   4   7
ENDBRANCH   2   3
ENDBRANCH   1   2
BRANCH   1  29
ATOM     29  C   UNL A   1      36.349  23.845  25.851  1.00  0.00     0.118 C 
BRANCH  29  30
ATOM     30  N   UNL A   1      37.398  22.841  25.914  1.00  0.00    -0.352 N 
ATOM     31  C   UNL A   1      38.718  22.967  26.265  1.00  0.00     0.251 C 
ATOM     32  H   UNL A   1      37.118  21.930  25.665  1.00  0.00     0.163 HD
ATOM     33  O   UNL A   1      39.491  22.034  26.045  1.00  0.00    -0.269 OA
BRANCH  31  34
ATOM     34  C   UNL A   1      39.231  24.205  26.894  1.00  0.00     0.039 A 
ATOM     35  C   UNL A   1      39.954  25.105  26.104  1.00  0.00     0.014 A 
ATOM     36  C   UNL A   1      39.066  24.457  28.259  1.00  0.00     0.014 A 
ATOM     37  C   UNL A   1      40.473  26.272  26.668  1.00  0.00     0.010 A 
ATOM     38  C   UNL A   1      39.528  25.652  28.808  1.00  0.00     0.010 A 
ATOM     39  C   UNL A   1      40.243  26.567  28.022  1.00  0.00    -0.014 A 
BRANCH  39  40
ATOM     40  C   UNL A   1      40.750  27.825  28.627  1.00  0.00     0.031 A 
ATOM     41  C   UNL A   1      42.196  27.955  29.016  1.00  0.00     0.074 A 
ATOM     42  C   UNL A   1      39.891  28.829  28.888  1.00  0.00     0.049 A 
ATOM     43  N   UNL A   1      42.808  28.946  29.614  1.00  0.00    -0.248 NA
ATOM     44  C   UNL A   1      43.062  26.806  28.719  1.00  0.00     0.031 C 
ATOM     45  C   UNL A   1      38.455  28.802  28.609  1.00  0.00     0.029 A 
ATOM     46  N   UNL A   1      40.097  30.058  29.462  1.00  0.00    -0.354 N 
ATOM     47  C   UNL A   1      44.123  28.534  29.777  1.00  0.00     0.074 A 
ATOM     48  C   UNL A   1      44.209  27.185  29.262  1.00  0.00     0.031 C 
ATOM     49  C   UNL A   1      37.910  29.962  29.008  1.00  0.00     0.029 A 
ATOM     50  C   UNL A   1      38.951  30.800  29.595  1.00  0.00     0.049 A 
ATOM     51  H   UNL A   1      40.983  30.376  29.751  1.00  0.00     0.167 HD
ATOM     52  C   UNL A   1      45.170  29.227  30.290  1.00  0.00     0.037 A 
ATOM     53  C   UNL A   1      38.757  32.017  30.139  1.00  0.00     0.037 A 
ATOM     54  C   UNL A   1      45.085  30.576  30.785  1.00  0.00     0.049 A 
ATOM     55  C   UNL A   1      39.935  32.776  30.685  1.00  0.00     0.074 A 
ATOM     56  C   UNL A   1      46.099  31.389  31.261  1.00  0.00     0.029 A 
ATOM     57  N   UNL A   1      43.911  31.313  30.869  1.00  0.00    -0.354 N 
ATOM     58  N   UNL A   1      41.189  32.406  30.766  1.00  0.00    -0.248 NA
ATOM     59  C   UNL A   1      39.670  34.125  31.203  1.00  0.00     0.031 C 
ATOM     60  C   UNL A   1      45.533  32.601  31.674  1.00  0.00     0.029 A 
ATOM     61  C   UNL A   1      44.173  32.562  31.411  1.00  0.00     0.049 A 
ATOM     62  H   UNL A   1      43.024  30.995  30.586  1.00  0.00     0.167 HD
ATOM     63  C   UNL A   1      41.868  33.478  31.330  1.00  0.00     0.074 A 
ATOM     64  C   UNL A   1      40.887  34.521  31.552  1.00  0.00     0.031 C 
ATOM     65  C   UNL A   1      43.184  33.586  31.635  1.00  0.00     0.037 A 
BRANCH  52  66
ATOM     66  C   UNL A   1      46.497  28.527  30.343  1.00  0.00     0.064 A 
ATOM     67  C   UNL A   1      46.898  27.791  31.469  1.00  0.00     0.173 A 
ATOM     68  C   UNL A   1      47.379  28.584  29.252  1.00  0.00     0.173 A 
ATOM     69  F   UNL A   1      46.098  27.712  32.543  1.00  0.00    -0.203 F 
ATOM     70  C   UNL A   1      48.146  27.174  31.517  1.00  0.00     0.198 A 
ATOM     71  C   UNL A   1      48.613  27.940  29.291  1.00  0.00     0.198 A 
ATOM     72  F   UNL A   1      47.044  29.267  28.147  1.00  0.00    -0.203 F 
ATOM     73  F   UNL A   1      48.530  26.529  32.628  1.00  0.00    -0.200 F 
ATOM     74  C   UNL A   1      49.000  27.245  30.428  1.00  0.00     0.200 A 
ATOM     75  F   UNL A   1      49.432  28.000  28.233  1.00  0.00    -0.200 F 
ATOM     76  F   UNL A   1      50.202  26.655  30.477  1.00  0.00    -0.200 F 
ENDBRANCH  52  66
BRANCH  53  77
ATOM     77  C   UNL A   1      37.389  32.593  30.166  1.00  0.00     0.064 A 
ATOM     78  C   UNL A   1      36.966  33.494  29.181  1.00  0.00     0.173 A 
ATOM     79  C   UNL A   1      36.467  32.223  31.156  1.00  0.00     0.173 A 
ATOM     80  F   UNL A   1      37.820  33.890  28.226  1.00  0.00    -0.203 F 
ATOM     81  C   UNL A   1      35.672  34.011  29.188  1.00  0.00     0.198 A 
ATOM     82  C   UNL A   1      35.166  32.721  31.148  1.00  0.00     0.198 A 
ATOM     83  F   UNL A   1      36.822  31.356  32.115  1.00  0.00    -0.203 F 
ATOM     84  F   UNL A   1      35.301  34.893  28.250  1.00  0.00    -0.200 F 
ATOM     85  C   UNL A   1      34.771  33.618  30.166  1.00  0.00     0.200 A 
ATOM     86  F   UNL A   1      34.293  32.325  32.084  1.00  0.00    -0.200 F 
ATOM     87  F   UNL A   1      33.521  34.103  30.163  1.00  0.00    -0.200 F 
ENDBRANCH  53  77
BRANCH  65  88
ATOM     88  C   UNL A   1      43.642  34.884  32.234  1.00  0.00     0.064 A 
ATOM     89  C   UNL A   1      43.741  35.057  33.622  1.00  0.00     0.173 A 
ATOM     90  C   UNL A   1      44.020  35.955  31.409  1.00  0.00     0.173 A 
ATOM     91  F   UNL A   1      43.376  34.069  34.453  1.00  0.00    -0.203 F 
ATOM     92  C   UNL A   1      44.180  36.262  34.164  1.00  0.00     0.198 A 
ATOM     93  C   UNL A   1      44.483  37.149  31.953  1.00  0.00     0.198 A 
ATOM     94  F   UNL A   1      43.948  35.837  30.074  1.00  0.00    -0.203 F 
ATOM     95  F   UNL A   1      44.224  36.421  35.493  1.00  0.00    -0.200 F 
ATOM     96  C   UNL A   1      44.557  37.305  33.329  1.00  0.00     0.200 A 
ATOM     97  F   UNL A   1      44.858  38.151  31.145  1.00  0.00    -0.200 F 
ATOM     98  F   UNL A   1      44.983  38.462  33.851  1.00  0.00    -0.200 F 
ENDBRANCH  65  88
ENDBRANCH  39  40
ENDBRANCH  31  34
ENDBRANCH  29  30
ENDBRANCH   1  29
TORSDOF 15
ENDMDL
