MODEL 1
REMARK VINA RESULT:     -11.3      0.000      0.000
REMARK SMILES N#Cc1cccc(NCCCC(=O)NCCCNC(=O)c2ccc(-c3c4nc(c(-c5c(F)c(F)c(F)c(F)c5F)c5ccc([nH]5)c(-c5c(F)c(F)c(F)c(F)c5F)c5nc(c(-c6c(F)c(F)c(F)c(F)c6F)c6ccc3[nH]6)C=C5)C=C4)cc2)c1
REMARK SMILES IDX 12 1 13 2 14 3 11 5 10 6 9 7 8 8 7 10 3 11 4 12 84 13 5 14
REMARK SMILES IDX 6 15 2 16 1 17 15 18 16 19 17 20 18 21 19 22 20 24 21 25
REMARK SMILES IDX 22 26 83 27 23 28 82 29 24 30 25 31 26 32 76 33 27 34 81 35
REMARK SMILES IDX 75 36 77 37 28 38 80 39 74 40 73 41 29 43 61 44 41 45 60 46
REMARK SMILES IDX 42 47 45 48 59 49 78 50 43 51 44 52 58 54 79 55 46 56 30 57
REMARK SMILES IDX 31 58 39 59 32 60 33 61 37 62 40 63 34 64 35 65 38 66 36 67
REMARK SMILES IDX 62 68 63 69 71 70 64 71 65 72 69 73 72 74 66 75 67 76 70 77
REMARK SMILES IDX 68 78 47 79 48 80 56 81 49 82 50 83 54 84 57 85 51 86 52 87
REMARK SMILES IDX 55 88 53 89
REMARK H PARENT 14 4 8 9 18 23 77 42 45 53
REMARK Flexibility Score: inf
ROOT
ATOM      1  C   UNL A   1      33.453  29.127  26.201  1.00  0.00     0.220 C 
ATOM      2  O   UNL A   1      34.539  28.874  26.724  1.00  0.00    -0.275 OA
ATOM      3  N   UNL A   1      32.848  30.303  26.514  1.00  0.00    -0.356 N 
ATOM      4  H   UNL A   1      33.382  30.911  27.073  1.00  0.00     0.163 HD
ENDROOT
BRANCH   1   5
ATOM      5  C   UNL A   1      32.825  28.174  25.209  1.00  0.00     0.102 C 
BRANCH   5   6
ATOM      6  C   UNL A   1      33.340  28.304  23.774  1.00  0.00     0.031 C 
BRANCH   6   7
ATOM      7  C   UNL A   1      32.420  28.958  22.739  1.00  0.00     0.113 C 
BRANCH   7   8
ATOM      8  N   UNL A   1      31.146  28.271  22.630  1.00  0.00    -0.385 N 
ATOM      9  H   UNL A   1      31.165  27.314  22.398  1.00  0.00     0.160 HD
BRANCH   8  10
ATOM     10  C   UNL A   1      29.907  28.852  22.825  1.00  0.00     0.035 A 
ATOM     11  C   UNL A   1      28.582  30.909  22.897  1.00  0.00     0.054 A 
ATOM     12  C   UNL A   1      27.417  30.165  23.071  1.00  0.00     0.019 A 
ATOM     13  C   UNL A   1      29.816  30.253  22.790  1.00  0.00     0.045 A 
ATOM     14  C   UNL A   1      27.496  28.777  23.167  1.00  0.00     0.003 A 
ATOM     15  C   UNL A   1      28.733  28.132  23.058  1.00  0.00     0.026 A 
BRANCH  11  16
ATOM     16  C   UNL A   1      28.524  32.337  22.800  1.00  0.00     0.099 C 
ATOM     17  N   UNL A   1      28.479  33.495  22.712  1.00  0.00    -0.192 NA
ENDBRANCH  11  16
ENDBRANCH   8  10
ENDBRANCH   7   8
ENDBRANCH   6   7
ENDBRANCH   5   6
ENDBRANCH   1   5
BRANCH   3  18
ATOM     18  C   UNL A   1      31.534  30.799  26.150  1.00  0.00     0.117 C 
BRANCH  18  19
ATOM     19  C   UNL A   1      31.398  32.274  26.505  1.00  0.00     0.042 C 
BRANCH  19  20
ATOM     20  C   UNL A   1      32.598  32.826  27.252  1.00  0.00     0.118 C 
BRANCH  20  21
ATOM     21  N   UNL A   1      32.420  34.216  27.635  1.00  0.00    -0.352 N 
ATOM     22  C   UNL A   1      33.025  34.929  28.638  1.00  0.00     0.251 C 
ATOM     23  H   UNL A   1      31.768  34.720  27.094  1.00  0.00     0.163 HD
ATOM     24  O   UNL A   1      32.588  36.031  28.955  1.00  0.00    -0.269 OA
BRANCH  22  25
ATOM     25  C   UNL A   1      34.191  34.364  29.354  1.00  0.00     0.039 A 
ATOM     26  C   UNL A   1      33.983  33.669  30.547  1.00  0.00     0.014 A 
ATOM     27  C   UNL A   1      35.488  34.530  28.862  1.00  0.00     0.014 A 
ATOM     28  C   UNL A   1      35.067  33.098  31.216  1.00  0.00     0.010 A 
ATOM     29  C   UNL A   1      36.551  33.869  29.467  1.00  0.00     0.010 A 
ATOM     30  C   UNL A   1      36.358  33.163  30.662  1.00  0.00    -0.014 A 
BRANCH  30  31
ATOM     31  C   UNL A   1      37.526  32.544  31.339  1.00  0.00     0.031 A 
ATOM     32  C   UNL A   1      38.261  31.412  30.670  1.00  0.00     0.074 A 
ATOM     33  C   UNL A   1      37.896  32.964  32.565  1.00  0.00     0.049 A 
ATOM     34  N   UNL A   1      39.243  30.677  31.128  1.00  0.00    -0.248 NA
ATOM     35  C   UNL A   1      37.820  31.041  29.315  1.00  0.00     0.031 C 
ATOM     36  C   UNL A   1      37.247  34.032  33.328  1.00  0.00     0.029 A 
ATOM     37  N   UNL A   1      38.907  32.536  33.391  1.00  0.00    -0.354 N 
ATOM     38  C   UNL A   1      39.531  29.764  30.121  1.00  0.00     0.074 A 
ATOM     39  C   UNL A   1      38.573  29.982  29.062  1.00  0.00     0.031 C 
ATOM     40  C   UNL A   1      37.892  34.193  34.496  1.00  0.00     0.029 A 
ATOM     41  C   UNL A   1      38.962  33.207  34.591  1.00  0.00     0.049 A 
ATOM     42  H   UNL A   1      39.533  31.817  33.147  1.00  0.00     0.167 HD
ATOM     43  C   UNL A   1      40.529  28.852  30.066  1.00  0.00     0.037 A 
ATOM     44  C   UNL A   1      39.774  33.029  35.650  1.00  0.00     0.037 A 
ATOM     45  C   UNL A   1      41.489  28.643  31.117  1.00  0.00     0.049 A 
ATOM     46  C   UNL A   1      40.831  31.954  35.587  1.00  0.00     0.074 A 
ATOM     47  C   UNL A   1      42.546  27.751  31.154  1.00  0.00     0.029 A 
ATOM     48  N   UNL A   1      41.509  29.340  32.315  1.00  0.00    -0.354 N 
ATOM     49  N   UNL A   1      41.123  31.131  34.608  1.00  0.00    -0.248 NA
ATOM     50  C   UNL A   1      41.677  31.786  36.777  1.00  0.00     0.031 C 
ATOM     51  C   UNL A   1      43.172  27.869  32.397  1.00  0.00     0.029 A 
ATOM     52  C   UNL A   1      42.552  28.886  33.105  1.00  0.00     0.049 A 
ATOM     53  H   UNL A   1      40.876  30.051  32.567  1.00  0.00     0.167 HD
ATOM     54  C   UNL A   1      42.215  30.391  35.044  1.00  0.00     0.074 A 
ATOM     55  C   UNL A   1      42.541  30.870  36.369  1.00  0.00     0.031 C 
ATOM     56  C   UNL A   1      42.886  29.401  34.407  1.00  0.00     0.037 A 
BRANCH  43  57
ATOM     57  C   UNL A   1      40.654  28.023  28.820  1.00  0.00     0.064 A 
ATOM     58  C   UNL A   1      39.946  26.819  28.672  1.00  0.00     0.173 A 
ATOM     59  C   UNL A   1      41.427  28.466  27.736  1.00  0.00     0.173 A 
ATOM     60  F   UNL A   1      39.202  26.344  29.681  1.00  0.00    -0.203 F 
ATOM     61  C   UNL A   1      40.025  26.081  27.493  1.00  0.00     0.198 A 
ATOM     62  C   UNL A   1      41.474  27.743  26.547  1.00  0.00     0.198 A 
ATOM     63  F   UNL A   1      42.118  29.612  27.822  1.00  0.00    -0.203 F 
ATOM     64  F   UNL A   1      39.375  24.914  27.391  1.00  0.00    -0.200 F 
ATOM     65  C   UNL A   1      40.779  26.550  26.428  1.00  0.00     0.200 A 
ATOM     66  F   UNL A   1      42.189  28.207  25.512  1.00  0.00    -0.200 F 
ATOM     67  F   UNL A   1      40.837  25.849  25.287  1.00  0.00    -0.200 F 
ENDBRANCH  43  57
BRANCH  44  68
ATOM     68  C   UNL A   1      39.632  33.870  36.872  1.00  0.00     0.064 A 
ATOM     69  C   UNL A   1      38.878  33.429  37.971  1.00  0.00     0.173 A 
ATOM     70  C   UNL A   1      40.176  35.162  36.938  1.00  0.00     0.173 A 
ATOM     71  F   UNL A   1      38.324  32.208  37.955  1.00  0.00    -0.203 F 
ATOM     72  C   UNL A   1      38.626  34.265  39.056  1.00  0.00     0.198 A 
ATOM     73  C   UNL A   1      39.959  35.982  38.045  1.00  0.00     0.198 A 
ATOM     74  F   UNL A   1      40.914  35.635  35.923  1.00  0.00    -0.203 F 
ATOM     75  F   UNL A   1      37.825  33.849  40.048  1.00  0.00    -0.200 F 
ATOM     76  C   UNL A   1      39.166  35.541  39.092  1.00  0.00     0.200 A 
ATOM     77  F   UNL A   1      40.502  37.205  38.083  1.00  0.00    -0.200 F 
ATOM     78  F   UNL A   1      38.909  36.351  40.128  1.00  0.00    -0.200 F 
ENDBRANCH  44  68
BRANCH  56  79
ATOM     79  C   UNL A   1      44.093  28.824  35.093  1.00  0.00     0.064 A 
ATOM     80  C   UNL A   1      45.377  29.354  34.914  1.00  0.00     0.173 A 
ATOM     81  C   UNL A   1      43.944  27.749  35.986  1.00  0.00     0.173 A 
ATOM     82  F   UNL A   1      45.575  30.374  34.065  1.00  0.00    -0.203 F 
ATOM     83  C   UNL A   1      46.475  28.811  35.577  1.00  0.00     0.198 A 
ATOM     84  C   UNL A   1      45.037  27.235  36.677  1.00  0.00     0.198 A 
ATOM     85  F   UNL A   1      42.735  27.209  36.202  1.00  0.00    -0.203 F 
ATOM     86  F   UNL A   1      47.702  29.296  35.345  1.00  0.00    -0.200 F 
ATOM     87  C   UNL A   1      46.303  27.759  36.465  1.00  0.00     0.200 A 
ATOM     88  F   UNL A   1      44.863  26.234  37.551  1.00  0.00    -0.200 F 
ATOM     89  F   UNL A   1      47.357  27.246  37.112  1.00  0.00    -0.200 F 
ENDBRANCH  56  79
ENDBRANCH  30  31
ENDBRANCH  22  25
ENDBRANCH  20  21
ENDBRANCH  19  20
ENDBRANCH  18  19
ENDBRANCH   3  18
TORSDOF 15
ENDMDL
MODEL 2
REMARK VINA RESULT:     -11.3      3.786     10.212
REMARK SMILES N#Cc1cccc(NCCCC(=O)NCCCNC(=O)c2ccc(-c3c4nc(c(-c5c(F)c(F)c(F)c(F)c5F)c5ccc([nH]5)c(-c5c(F)c(F)c(F)c(F)c5F)c5nc(c(-c6c(F)c(F)c(F)c(F)c6F)c6ccc3[nH]6)C=C5)C=C4)cc2)c1
REMARK SMILES IDX 12 1 13 2 14 3 11 5 10 6 9 7 8 8 7 10 3 11 4 12 84 13 5 14
REMARK SMILES IDX 6 15 2 16 1 17 15 18 16 19 17 20 18 21 19 22 20 24 21 25
REMARK SMILES IDX 22 26 83 27 23 28 82 29 24 30 25 31 26 32 76 33 27 34 81 35
REMARK SMILES IDX 75 36 77 37 28 38 80 39 74 40 73 41 29 43 61 44 41 45 60 46
REMARK SMILES IDX 42 47 45 48 59 49 78 50 43 51 44 52 58 54 79 55 46 56 30 57
REMARK SMILES IDX 31 58 39 59 32 60 33 61 37 62 40 63 34 64 35 65 38 66 36 67
REMARK SMILES IDX 62 68 63 69 71 70 64 71 65 72 69 73 72 74 66 75 67 76 70 77
REMARK SMILES IDX 68 78 47 79 48 80 56 81 49 82 50 83 54 84 57 85 51 86 52 87
REMARK SMILES IDX 55 88 53 89
REMARK H PARENT 14 4 8 9 18 23 77 42 45 53
REMARK Flexibility Score: inf
ROOT
ATOM      1  C   UNL A   1      33.056  36.469  31.044  1.00  0.00     0.220 C 
ATOM      2  O   UNL A   1      32.903  37.671  31.265  1.00  0.00    -0.275 OA
ATOM      3  N   UNL A   1      33.136  36.059  29.751  1.00  0.00    -0.356 N 
ATOM      4  H   UNL A   1      33.158  36.783  29.085  1.00  0.00     0.163 HD
ENDROOT
BRANCH   1   5
ATOM      5  C   UNL A   1      33.190  35.478  32.179  1.00  0.00     0.102 C 
BRANCH   5   6
ATOM      6  C   UNL A   1      34.587  35.390  32.798  1.00  0.00     0.031 C 
BRANCH   6   7
ATOM      7  C   UNL A   1      35.640  34.546  32.074  1.00  0.00     0.113 C 
BRANCH   7   8
ATOM      8  N   UNL A   1      35.531  33.137  32.404  1.00  0.00    -0.385 N 
ATOM      9  H   UNL A   1      34.753  32.648  32.051  1.00  0.00     0.160 HD
BRANCH   8  10
ATOM     10  C   UNL A   1      36.431  32.427  33.176  1.00  0.00     0.035 A 
ATOM     11  C   UNL A   1      37.604  30.312  33.557  1.00  0.00     0.054 A 
ATOM     12  C   UNL A   1      38.344  30.896  34.584  1.00  0.00     0.019 A 
ATOM     13  C   UNL A   1      36.647  31.073  32.872  1.00  0.00     0.045 A 
ATOM     14  C   UNL A   1      38.102  32.222  34.938  1.00  0.00     0.003 A 
ATOM     15  C   UNL A   1      37.144  32.972  34.247  1.00  0.00     0.026 A 
BRANCH  11  16
ATOM     16  C   UNL A   1      37.835  28.950  33.180  1.00  0.00     0.099 C 
ATOM     17  N   UNL A   1      38.012  27.843  32.876  1.00  0.00    -0.192 NA
ENDBRANCH  11  16
ENDBRANCH   8  10
ENDBRANCH   7   8
ENDBRANCH   6   7
ENDBRANCH   5   6
ENDBRANCH   1   5
BRANCH   3  18
ATOM     18  C   UNL A   1      33.193  34.718  29.201  1.00  0.00     0.117 C 
BRANCH  18  19
ATOM     19  C   UNL A   1      34.405  34.561  28.290  1.00  0.00     0.042 C 
BRANCH  19  20
ATOM     20  C   UNL A   1      35.064  33.197  28.396  1.00  0.00     0.118 C 
BRANCH  20  21
ATOM     21  N   UNL A   1      34.211  32.132  27.896  1.00  0.00    -0.352 N 
ATOM     22  C   UNL A   1      34.520  30.823  27.626  1.00  0.00     0.251 C 
ATOM     23  H   UNL A   1      33.275  32.388  27.726  1.00  0.00     0.163 HD
ATOM     24  O   UNL A   1      33.728  30.125  27.001  1.00  0.00    -0.269 OA
BRANCH  22  25
ATOM     25  C   UNL A   1      35.813  30.256  28.070  1.00  0.00     0.039 A 
ATOM     26  C   UNL A   1      36.895  30.264  27.188  1.00  0.00     0.014 A 
ATOM     27  C   UNL A   1      35.958  29.703  29.345  1.00  0.00     0.014 A 
ATOM     28  C   UNL A   1      38.132  29.766  27.603  1.00  0.00     0.010 A 
ATOM     29  C   UNL A   1      37.214  29.312  29.794  1.00  0.00     0.010 A 
ATOM     30  C   UNL A   1      38.311  29.318  28.923  1.00  0.00    -0.014 A 
BRANCH  30  31
ATOM     31  C   UNL A   1      39.622  28.806  29.398  1.00  0.00     0.031 A 
ATOM     32  C   UNL A   1      40.412  29.603  30.404  1.00  0.00     0.074 A 
ATOM     33  C   UNL A   1      40.121  27.659  28.899  1.00  0.00     0.049 A 
ATOM     34  N   UNL A   1      41.613  29.382  30.877  1.00  0.00    -0.248 NA
ATOM     35  C   UNL A   1      39.779  30.824  30.931  1.00  0.00     0.031 C 
ATOM     36  C   UNL A   1      39.464  26.812  27.901  1.00  0.00     0.029 A 
ATOM     37  N   UNL A   1      41.303  27.008  29.156  1.00  0.00    -0.354 N 
ATOM     38  C   UNL A   1      41.873  30.431  31.751  1.00  0.00     0.074 A 
ATOM     39  C   UNL A   1      40.743  31.329  31.685  1.00  0.00     0.031 C 
ATOM     40  C   UNL A   1      40.238  25.743  27.652  1.00  0.00     0.029 A 
ATOM     41  C   UNL A   1      41.469  25.854  28.428  1.00  0.00     0.049 A 
ATOM     42  H   UNL A   1      41.969  27.337  29.802  1.00  0.00     0.167 HD
ATOM     43  C   UNL A   1      42.938  30.609  32.565  1.00  0.00     0.037 A 
ATOM     44  C   UNL A   1      42.506  24.996  28.380  1.00  0.00     0.037 A 
ATOM     45  C   UNL A   1      44.057  29.708  32.637  1.00  0.00     0.049 A 
ATOM     46  C   UNL A   1      43.712  25.263  29.247  1.00  0.00     0.074 A 
ATOM     47  C   UNL A   1      45.182  29.793  33.438  1.00  0.00     0.029 A 
ATOM     48  N   UNL A   1      44.188  28.552  31.882  1.00  0.00    -0.354 N 
ATOM     49  N   UNL A   1      43.922  26.232  30.105  1.00  0.00    -0.248 NA
ATOM     50  C   UNL A   1      44.826  24.309  29.143  1.00  0.00     0.031 C 
ATOM     51  C   UNL A   1      46.020  28.720  33.128  1.00  0.00     0.029 A 
ATOM     52  C   UNL A   1      45.384  27.925  32.187  1.00  0.00     0.049 A 
ATOM     53  H   UNL A   1      43.530  28.228  31.226  1.00  0.00     0.167 HD
ATOM     54  C   UNL A   1      45.162  25.974  30.677  1.00  0.00     0.074 A 
ATOM     55  C   UNL A   1      45.651  24.752  30.079  1.00  0.00     0.031 C 
ATOM     56  C   UNL A   1      45.838  26.687  31.610  1.00  0.00     0.037 A 
BRANCH  43  57
ATOM     57  C   UNL A   1      42.941  31.812  33.463  1.00  0.00     0.064 A 
ATOM     58  C   UNL A   1      43.565  33.010  33.077  1.00  0.00     0.173 A 
ATOM     59  C   UNL A   1      42.254  31.796  34.687  1.00  0.00     0.173 A 
ATOM     60  F   UNL A   1      44.244  33.075  31.923  1.00  0.00    -0.203 F 
ATOM     61  C   UNL A   1      43.518  34.137  33.892  1.00  0.00     0.198 A 
ATOM     62  C   UNL A   1      42.181  32.937  35.482  1.00  0.00     0.198 A 
ATOM     63  F   UNL A   1      41.636  30.681  35.102  1.00  0.00    -0.203 F 
ATOM     64  F   UNL A   1      44.158  35.255  33.522  1.00  0.00    -0.200 F 
ATOM     65  C   UNL A   1      42.817  34.104  35.087  1.00  0.00     0.200 A 
ATOM     66  F   UNL A   1      41.486  32.908  36.628  1.00  0.00    -0.200 F 
ATOM     67  F   UNL A   1      42.755  35.198  35.861  1.00  0.00    -0.200 F 
ENDBRANCH  43  57
BRANCH  44  68
ATOM     68  C   UNL A   1      42.474  23.807  27.483  1.00  0.00     0.064 A 
ATOM     69  C   UNL A   1      42.018  22.563  27.946  1.00  0.00     0.173 A 
ATOM     70  C   UNL A   1      42.972  23.865  26.173  1.00  0.00     0.173 A 
ATOM     71  F   UNL A   1      41.544  22.448  29.196  1.00  0.00    -0.203 F 
ATOM     72  C   UNL A   1      42.115  21.418  27.159  1.00  0.00     0.198 A 
ATOM     73  C   UNL A   1      43.028  22.727  25.370  1.00  0.00     0.198 A 
ATOM     74  F   UNL A   1      43.413  25.028  25.671  1.00  0.00    -0.203 F 
ATOM     75  F   UNL A   1      41.758  20.229  27.663  1.00  0.00    -0.200 F 
ATOM     76  C   UNL A   1      42.621  21.500  25.871  1.00  0.00     0.200 A 
ATOM     77  F   UNL A   1      43.497  22.817  24.118  1.00  0.00    -0.200 F 
ATOM     78  F   UNL A   1      42.731  20.397  25.120  1.00  0.00    -0.200 F 
ENDBRANCH  44  68
BRANCH  56  79
ATOM     79  C   UNL A   1      47.139  26.124  32.109  1.00  0.00     0.064 A 
ATOM     80  C   UNL A   1      47.211  25.312  33.249  1.00  0.00     0.173 A 
ATOM     81  C   UNL A   1      48.326  26.365  31.398  1.00  0.00     0.173 A 
ATOM     82  F   UNL A   1      46.109  25.059  33.970  1.00  0.00    -0.203 F 
ATOM     83  C   UNL A   1      48.429  24.788  33.678  1.00  0.00     0.198 A 
ATOM     84  C   UNL A   1      49.534  25.807  31.807  1.00  0.00     0.198 A 
ATOM     85  F   UNL A   1      48.312  27.127  30.294  1.00  0.00    -0.203 F 
ATOM     86  F   UNL A   1      48.483  24.064  34.804  1.00  0.00    -0.200 F 
ATOM     87  C   UNL A   1      49.586  25.028  32.952  1.00  0.00     0.200 A 
ATOM     88  F   UNL A   1      50.645  26.022  31.091  1.00  0.00    -0.200 F 
ATOM     89  F   UNL A   1      50.753  24.512  33.359  1.00  0.00    -0.200 F 
ENDBRANCH  56  79
ENDBRANCH  30  31
ENDBRANCH  22  25
ENDBRANCH  20  21
ENDBRANCH  19  20
ENDBRANCH  18  19
ENDBRANCH   3  18
TORSDOF 15
ENDMDL
MODEL 3
REMARK VINA RESULT:     -11.1      6.634     11.532
REMARK SMILES N#Cc1cccc(NCCCC(=O)NCCCNC(=O)c2ccc(-c3c4nc(c(-c5c(F)c(F)c(F)c(F)c5F)c5ccc([nH]5)c(-c5c(F)c(F)c(F)c(F)c5F)c5nc(c(-c6c(F)c(F)c(F)c(F)c6F)c6ccc3[nH]6)C=C5)C=C4)cc2)c1
REMARK SMILES IDX 12 1 13 2 14 3 11 5 10 6 9 7 8 8 7 10 3 11 4 12 84 13 5 14
REMARK SMILES IDX 6 15 2 16 1 17 15 18 16 19 17 20 18 21 19 22 20 24 21 25
REMARK SMILES IDX 22 26 83 27 23 28 82 29 24 30 25 31 26 32 76 33 27 34 81 35
REMARK SMILES IDX 75 36 77 37 28 38 80 39 74 40 73 41 29 43 61 44 41 45 60 46
REMARK SMILES IDX 42 47 45 48 59 49 78 50 43 51 44 52 58 54 79 55 46 56 30 57
REMARK SMILES IDX 31 58 39 59 32 60 33 61 37 62 40 63 34 64 35 65 38 66 36 67
REMARK SMILES IDX 62 68 63 69 71 70 64 71 65 72 69 73 72 74 66 75 67 76 70 77
REMARK SMILES IDX 68 78 47 79 48 80 56 81 49 82 50 83 54 84 57 85 51 86 52 87
REMARK SMILES IDX 55 88 53 89
REMARK H PARENT 14 4 8 9 18 23 77 42 45 53
REMARK Flexibility Score: inf
ROOT
ATOM      1  C   UNL A   1      36.025  22.751  25.359  1.00  0.00     0.220 C 
ATOM      2  O   UNL A   1      36.455  23.817  25.802  1.00  0.00    -0.275 OA
ATOM      3  N   UNL A   1      36.784  21.635  25.523  1.00  0.00    -0.356 N 
ATOM      4  H   UNL A   1      37.588  21.755  26.076  1.00  0.00     0.163 HD
ENDROOT
BRANCH   1   5
ATOM      5  C   UNL A   1      34.674  22.675  24.684  1.00  0.00     0.102 C 
BRANCH   5   6
ATOM      6  C   UNL A   1      33.474  22.761  25.629  1.00  0.00     0.031 C 
BRANCH   6   7
ATOM      7  C   UNL A   1      32.256  21.886  25.322  1.00  0.00     0.113 C 
BRANCH   7   8
ATOM      8  N   UNL A   1      32.481  20.494  25.670  1.00  0.00    -0.385 N 
ATOM      9  H   UNL A   1      32.455  20.257  26.625  1.00  0.00     0.160 HD
BRANCH   8  10
ATOM     10  C   UNL A   1      32.729  19.477  24.769  1.00  0.00     0.035 A 
ATOM     11  C   UNL A   1      33.752  17.292  24.354  1.00  0.00     0.054 A 
ATOM     12  C   UNL A   1      33.203  17.267  23.073  1.00  0.00     0.019 A 
ATOM     13  C   UNL A   1      33.525  18.398  25.184  1.00  0.00     0.045 A 
ATOM     14  C   UNL A   1      32.459  18.355  22.622  1.00  0.00     0.003 A 
ATOM     15  C   UNL A   1      32.239  19.454  23.460  1.00  0.00     0.026 A 
BRANCH  11  16
ATOM     16  C   UNL A   1      34.523  16.185  24.834  1.00  0.00     0.099 C 
ATOM     17  N   UNL A   1      35.156  15.290  25.219  1.00  0.00    -0.192 NA
ENDBRANCH  11  16
ENDBRANCH   8  10
ENDBRANCH   7   8
ENDBRANCH   6   7
ENDBRANCH   5   6
ENDBRANCH   1   5
BRANCH   3  18
ATOM     18  C   UNL A   1      36.588  20.293  25.008  1.00  0.00     0.117 C 
BRANCH  18  19
ATOM     19  C   UNL A   1      37.925  19.584  24.828  1.00  0.00     0.042 C 
BRANCH  19  20
ATOM     20  C   UNL A   1      38.992  20.060  25.797  1.00  0.00     0.118 C 
BRANCH  20  21
ATOM     21  N   UNL A   1      40.115  19.141  25.876  1.00  0.00    -0.352 N 
ATOM     22  C   UNL A   1      41.446  19.407  26.071  1.00  0.00     0.251 C 
ATOM     23  H   UNL A   1      39.886  18.188  25.774  1.00  0.00     0.163 HD
ATOM     24  O   UNL A   1      42.279  18.524  25.888  1.00  0.00    -0.269 OA
BRANCH  22  25
ATOM     25  C   UNL A   1      41.883  20.760  26.483  1.00  0.00     0.039 A 
ATOM     26  C   UNL A   1      42.044  21.035  27.843  1.00  0.00     0.014 A 
ATOM     27  C   UNL A   1      42.120  21.760  25.537  1.00  0.00     0.014 A 
ATOM     28  C   UNL A   1      42.491  22.295  28.247  1.00  0.00     0.010 A 
ATOM     29  C   UNL A   1      42.670  22.974  25.931  1.00  0.00     0.010 A 
ATOM     30  C   UNL A   1      42.842  23.264  27.292  1.00  0.00    -0.014 A 
BRANCH  30  31
ATOM     31  C   UNL A   1      43.343  24.604  27.692  1.00  0.00     0.031 A 
ATOM     32  C   UNL A   1      42.362  25.699  28.020  1.00  0.00     0.074 A 
ATOM     33  C   UNL A   1      44.668  24.850  27.718  1.00  0.00     0.049 A 
ATOM     34  N   UNL A   1      42.588  26.958  28.301  1.00  0.00    -0.248 NA
ATOM     35  C   UNL A   1      40.934  25.339  28.009  1.00  0.00     0.031 C 
ATOM     36  C   UNL A   1      45.717  23.880  27.395  1.00  0.00     0.029 A 
ATOM     37  N   UNL A   1      45.361  25.996  28.023  1.00  0.00    -0.354 N 
ATOM     38  C   UNL A   1      41.338  27.531  28.496  1.00  0.00     0.074 A 
ATOM     39  C   UNL A   1      40.354  26.508  28.226  1.00  0.00     0.031 C 
ATOM     40  C   UNL A   1      46.917  24.464  27.545  1.00  0.00     0.029 A 
ATOM     41  C   UNL A   1      46.726  25.861  27.920  1.00  0.00     0.049 A 
ATOM     42  H   UNL A   1      44.922  26.835  28.290  1.00  0.00     0.167 HD
ATOM     43  C   UNL A   1      41.037  28.786  28.904  1.00  0.00     0.037 A 
ATOM     44  C   UNL A   1      47.705  26.769  28.090  1.00  0.00     0.037 A 
ATOM     45  C   UNL A   1      42.018  29.800  29.182  1.00  0.00     0.049 A 
ATOM     46  C   UNL A   1      47.333  28.180  28.473  1.00  0.00     0.074 A 
ATOM     47  C   UNL A   1      41.816  31.100  29.610  1.00  0.00     0.029 A 
ATOM     48  N   UNL A   1      43.388  29.624  29.063  1.00  0.00    -0.354 N 
ATOM     49  N   UNL A   1      46.149  28.694  28.703  1.00  0.00    -0.248 NA
ATOM     50  C   UNL A   1      48.437  29.138  28.626  1.00  0.00     0.031 C 
ATOM     51  C   UNL A   1      43.060  31.728  29.697  1.00  0.00     0.029 A 
ATOM     52  C   UNL A   1      44.042  30.798  29.395  1.00  0.00     0.049 A 
ATOM     53  H   UNL A   1      43.829  28.790  28.783  1.00  0.00     0.167 HD
ATOM     54  C   UNL A   1      46.371  30.014  29.078  1.00  0.00     0.074 A 
ATOM     55  C   UNL A   1      47.802  30.217  29.058  1.00  0.00     0.031 C 
ATOM     56  C   UNL A   1      45.471  30.972  29.407  1.00  0.00     0.037 A 
BRANCH  43  57
ATOM     57  C   UNL A   1      39.588  29.132  29.096  1.00  0.00     0.064 A 
ATOM     58  C   UNL A   1      38.778  29.509  28.013  1.00  0.00     0.173 A 
ATOM     59  C   UNL A   1      38.984  29.018  30.357  1.00  0.00     0.173 A 
ATOM     60  F   UNL A   1      39.308  29.644  26.788  1.00  0.00    -0.203 F 
ATOM     61  C   UNL A   1      37.423  29.778  28.190  1.00  0.00     0.198 A 
ATOM     62  C   UNL A   1      37.621  29.253  30.523  1.00  0.00     0.198 A 
ATOM     63  F   UNL A   1      39.710  28.656  31.425  1.00  0.00    -0.203 F 
ATOM     64  F   UNL A   1      36.680  30.177  27.149  1.00  0.00    -0.200 F 
ATOM     65  C   UNL A   1      36.844  29.638  29.442  1.00  0.00     0.200 A 
ATOM     66  F   UNL A   1      37.060  29.100  31.730  1.00  0.00    -0.200 F 
ATOM     67  F   UNL A   1      35.535  29.876  29.607  1.00  0.00    -0.200 F 
ENDBRANCH  43  57
BRANCH  44  68
ATOM     68  C   UNL A   1      49.135  26.396  27.898  1.00  0.00     0.064 A 
ATOM     69  C   UNL A   1      49.986  26.200  28.996  1.00  0.00     0.173 A 
ATOM     70  C   UNL A   1      49.702  26.305  26.617  1.00  0.00     0.173 A 
ATOM     71  F   UNL A   1      49.500  26.289  30.244  1.00  0.00    -0.203 F 
ATOM     72  C   UNL A   1      51.352  25.990  28.824  1.00  0.00     0.198 A 
ATOM     73  C   UNL A   1      51.062  26.051  26.445  1.00  0.00     0.198 A 
ATOM     74  F   UNL A   1      48.936  26.473  25.528  1.00  0.00    -0.203 F 
ATOM     75  F   UNL A   1      52.155  25.900  29.894  1.00  0.00    -0.200 F 
ATOM     76  C   UNL A   1      51.890  25.916  27.549  1.00  0.00     0.200 A 
ATOM     77  F   UNL A   1      51.571  25.958  25.209  1.00  0.00    -0.200 F 
ATOM     78  F   UNL A   1      53.206  25.730  27.382  1.00  0.00    -0.200 F 
ENDBRANCH  44  68
BRANCH  56  79
ATOM     79  C   UNL A   1      46.006  32.305  29.853  1.00  0.00     0.064 A 
ATOM     80  C   UNL A   1      46.193  33.369  28.961  1.00  0.00     0.173 A 
ATOM     81  C   UNL A   1      46.286  32.528  31.211  1.00  0.00     0.173 A 
ATOM     82  F   UNL A   1      45.950  33.205  27.652  1.00  0.00    -0.203 F 
ATOM     83  C   UNL A   1      46.672  34.599  29.406  1.00  0.00     0.198 A 
ATOM     84  C   UNL A   1      46.727  33.771  31.657  1.00  0.00     0.198 A 
ATOM     85  F   UNL A   1      46.116  31.546  32.109  1.00  0.00    -0.203 F 
ATOM     86  F   UNL A   1      46.900  35.584  28.526  1.00  0.00    -0.200 F 
ATOM     87  C   UNL A   1      46.930  34.801  30.754  1.00  0.00     0.200 A 
ATOM     88  F   UNL A   1      46.952  33.969  32.963  1.00  0.00    -0.200 F 
ATOM     89  F   UNL A   1      47.378  35.989  31.181  1.00  0.00    -0.200 F 
ENDBRANCH  56  79
ENDBRANCH  30  31
ENDBRANCH  22  25
ENDBRANCH  20  21
ENDBRANCH  19  20
ENDBRANCH  18  19
ENDBRANCH   3  18
TORSDOF 15
ENDMDL
