MODEL 1
REMARK VINA RESULT:     -10.9      0.000      0.000
REMARK SMILES C[C@H](O)[C@H](NC(=O)C[NH3+])C(=O)NCCCNC(=O)c1ccc(-c2c3nc(c(-c4c(F)c(F)c(F)c(F)c4F)c4ccc([nH]4)c(-c4c(F)c(F)c(F)c(F)c4F)c4nc(c(-c5c(F)c(F)c(F)c(F)c5F)c5ccc2[nH]5)C=C4)C=C3)cc1
REMARK SMILES IDX 13 1 12 2 10 3 11 4 4 6 2 7 1 8 3 9 5 11 6 12 7 14 8 15 9 16
REMARK SMILES IDX 14 20 15 21 16 22 17 23 18 25 19 26 20 27 81 28 21 29 80 30
REMARK SMILES IDX 22 31 23 32 24 33 74 34 25 35 79 36 73 37 75 38 26 39 78 40
REMARK SMILES IDX 72 41 71 42 27 44 59 45 39 46 58 47 40 48 43 49 57 50 76 51
REMARK SMILES IDX 41 52 42 53 56 55 77 56 44 57 28 58 29 59 37 60 30 61 31 62
REMARK SMILES IDX 35 63 38 64 32 65 33 66 36 67 34 68 60 69 61 70 69 71 62 72
REMARK SMILES IDX 63 73 67 74 70 75 64 76 65 77 68 78 66 79 45 80 46 81 54 82
REMARK SMILES IDX 47 83 48 84 52 85 55 86 49 87 50 88 53 89 51 90
REMARK H PARENT 12 5 3 10 5 13 9 17 9 18 9 19 16 24 75 43 43 54
REMARK Flexibility Score: inf
ROOT
ATOM      1  C   UNL A   1      35.433  33.099  30.584  1.00  0.00     0.117 C 
ENDROOT
BRANCH   1   2
ATOM      2  N   UNL A   1      34.473  32.697  31.606  1.00  0.00    -0.354 N 
ATOM      3  C   UNL A   1      34.019  33.424  32.680  1.00  0.00     0.245 C 
ATOM      4  O   UNL A   1      33.047  33.007  33.309  1.00  0.00    -0.273 OA
ATOM      5  H   UNL A   1      34.103  31.789  31.515  1.00  0.00     0.163 HD
BRANCH   3   6
ATOM      6  C   UNL A   1      34.730  34.740  33.062  1.00  0.00     0.200 C 
BRANCH   6   7
ATOM      7  C   UNL A   1      35.733  34.529  34.232  1.00  0.00     0.143 C 
ATOM      8  C   UNL A   1      37.124  34.169  33.724  1.00  0.00     0.041 C 
BRANCH   7   9
ATOM      9  O   UNL A   1      35.343  33.508  35.155  1.00  0.00    -0.391 OA
ATOM     10  H   UNL A   1      36.108  33.247  35.690  1.00  0.00     0.211 HD
ENDBRANCH   7   9
ENDBRANCH   6   7
BRANCH   6  11
ATOM     11  N   UNL A   1      33.639  35.709  33.314  1.00  0.00    -0.337 N 
ATOM     12  C   UNL A   1      32.819  36.422  32.504  1.00  0.00     0.275 C 
ATOM     13  H   UNL A   1      33.475  35.868  34.272  1.00  0.00     0.164 HD
ATOM     14  O   UNL A   1      31.991  37.159  33.045  1.00  0.00    -0.268 OA
BRANCH  12  15
ATOM     15  C   UNL A   1      32.976  36.378  30.989  1.00  0.00     0.360 C 
BRANCH  15  16
ATOM     16  N   UNL A   1      33.392  37.684  30.460  1.00  0.00    -0.350 N 
ATOM     17  H   UNL A   1      32.566  38.223  30.196  1.00  0.00     0.344 HD
ATOM     18  H   UNL A   1      33.984  37.548  29.641  1.00  0.00     0.344 HD
ATOM     19  H   UNL A   1      33.913  38.191  31.175  1.00  0.00     0.344 HD
ENDBRANCH  15  16
ENDBRANCH  12  15
ENDBRANCH   6  11
ENDBRANCH   3   6
ENDBRANCH   1   2
BRANCH   1  20
ATOM     20  C   UNL A   1      34.760  33.766  29.397  1.00  0.00     0.042 C 
BRANCH  20  21
ATOM     21  C   UNL A   1      35.037  33.050  28.086  1.00  0.00     0.118 C 
BRANCH  21  22
ATOM     22  N   UNL A   1      34.118  31.941  27.854  1.00  0.00    -0.352 N 
ATOM     23  C   UNL A   1      34.365  30.592  27.789  1.00  0.00     0.251 C 
ATOM     24  H   UNL A   1      33.177  32.200  27.723  1.00  0.00     0.163 HD
ATOM     25  O   UNL A   1      33.497  29.826  27.389  1.00  0.00    -0.269 OA
BRANCH  23  26
ATOM     26  C   UNL A   1      35.691  30.071  28.181  1.00  0.00     0.039 A 
ATOM     27  C   UNL A   1      36.726  30.078  27.245  1.00  0.00     0.014 A 
ATOM     28  C   UNL A   1      35.912  29.586  29.472  1.00  0.00     0.014 A 
ATOM     29  C   UNL A   1      38.003  29.666  27.628  1.00  0.00     0.010 A 
ATOM     30  C   UNL A   1      37.202  29.273  29.879  1.00  0.00     0.010 A 
ATOM     31  C   UNL A   1      38.261  29.301  28.959  1.00  0.00    -0.014 A 
BRANCH  31  32
ATOM     32  C   UNL A   1      39.626  28.938  29.412  1.00  0.00     0.031 A 
ATOM     33  C   UNL A   1      40.388  29.860  30.324  1.00  0.00     0.074 A 
ATOM     34  C   UNL A   1      40.205  27.814  28.948  1.00  0.00     0.049 A 
ATOM     35  N   UNL A   1      41.615  29.759  30.768  1.00  0.00    -0.248 NA
ATOM     36  C   UNL A   1      39.687  31.074  30.772  1.00  0.00     0.031 C 
ATOM     37  C   UNL A   1      39.588  26.865  28.019  1.00  0.00     0.029 A 
ATOM     38  N   UNL A   1      41.448  27.283  29.185  1.00  0.00    -0.354 N 
ATOM     39  C   UNL A   1      41.835  30.898  31.531  1.00  0.00     0.074 A 
ATOM     40  C   UNL A   1      40.639  31.707  31.440  1.00  0.00     0.031 C 
ATOM     41  C   UNL A   1      40.442  25.857  27.787  1.00  0.00     0.029 A 
ATOM     42  C   UNL A   1      41.682  26.108  28.513  1.00  0.00     0.049 A 
ATOM     43  H   UNL A   1      42.110  27.704  29.780  1.00  0.00     0.167 HD
ATOM     44  C   UNL A   1      42.924  31.226  32.266  1.00  0.00     0.037 A 
ATOM     45  C   UNL A   1      42.780  25.328  28.480  1.00  0.00     0.037 A 
ATOM     46  C   UNL A   1      44.102  30.406  32.369  1.00  0.00     0.049 A 
ATOM     47  C   UNL A   1      43.985  25.725  29.291  1.00  0.00     0.074 A 
ATOM     48  C   UNL A   1      45.237  30.620  33.131  1.00  0.00     0.029 A 
ATOM     49  N   UNL A   1      44.298  29.215  31.685  1.00  0.00    -0.354 N 
ATOM     50  N   UNL A   1      44.154  26.767  30.068  1.00  0.00    -0.248 NA
ATOM     51  C   UNL A   1      45.149  24.832  29.224  1.00  0.00     0.031 C 
ATOM     52  C   UNL A   1      46.142  29.588  32.865  1.00  0.00     0.029 A 
ATOM     53  C   UNL A   1      45.547  28.698  31.987  1.00  0.00     0.049 A 
ATOM     54  H   UNL A   1      43.646  28.801  31.075  1.00  0.00     0.167 HD
ATOM     55  C   UNL A   1      45.427  26.639  30.607  1.00  0.00     0.074 A 
ATOM     56  C   UNL A   1      45.980  25.409  30.080  1.00  0.00     0.031 C 
ATOM     57  C   UNL A   1      46.079  27.465  31.461  1.00  0.00     0.037 A 
BRANCH  44  58
ATOM     58  C   UNL A   1      42.890  32.528  33.016  1.00  0.00     0.064 A 
ATOM     59  C   UNL A   1      43.337  33.725  32.436  1.00  0.00     0.173 A 
ATOM     60  C   UNL A   1      42.375  32.585  34.319  1.00  0.00     0.173 A 
ATOM     61  F   UNL A   1      43.852  33.725  31.196  1.00  0.00    -0.203 F 
ATOM     62  C   UNL A   1      43.299  34.924  33.144  1.00  0.00     0.198 A 
ATOM     63  C   UNL A   1      42.304  33.791  35.011  1.00  0.00     0.198 A 
ATOM     64  F   UNL A   1      41.928  31.473  34.921  1.00  0.00    -0.203 F 
ATOM     65  F   UNL A   1      43.783  36.044  32.588  1.00  0.00    -0.200 F 
ATOM     66  C   UNL A   1      42.775  34.958  34.426  1.00  0.00     0.200 A 
ATOM     67  F   UNL A   1      41.784  33.825  36.245  1.00  0.00    -0.200 F 
ATOM     68  F   UNL A   1      42.731  36.114  35.103  1.00  0.00    -0.200 F 
ENDBRANCH  44  58
BRANCH  45  69
ATOM     69  C   UNL A   1      42.784  24.082  27.668  1.00  0.00     0.064 A 
ATOM     70  C   UNL A   1      43.104  24.113  26.302  1.00  0.00     0.173 A 
ATOM     71  C   UNL A   1      42.458  22.840  28.231  1.00  0.00     0.173 A 
ATOM     72  F   UNL A   1      43.404  25.279  25.712  1.00  0.00    -0.203 F 
ATOM     73  C   UNL A   1      43.071  22.955  25.528  1.00  0.00     0.198 A 
ATOM     74  C   UNL A   1      42.457  21.678  27.462  1.00  0.00     0.198 A 
ATOM     75  F   UNL A   1      42.150  22.753  29.534  1.00  0.00    -0.203 F 
ATOM     76  F   UNL A   1      43.328  23.024  24.214  1.00  0.00    -0.200 F 
ATOM     77  C   UNL A   1      42.753  21.738  26.110  1.00  0.00     0.200 A 
ATOM     78  F   UNL A   1      42.164  20.501  28.032  1.00  0.00    -0.200 F 
ATOM     79  F   UNL A   1      42.723  20.625  25.365  1.00  0.00    -0.200 F 
ENDBRANCH  45  69
BRANCH  57  80
ATOM     80  C   UNL A   1      47.448  27.046  31.917  1.00  0.00     0.064 A 
ATOM     81  C   UNL A   1      48.610  27.471  31.257  1.00  0.00     0.173 A 
ATOM     82  C   UNL A   1      47.598  26.240  33.056  1.00  0.00     0.173 A 
ATOM     83  F   UNL A   1      48.521  28.231  30.154  1.00  0.00    -0.203 F 
ATOM     84  C   UNL A   1      49.870  27.080  31.703  1.00  0.00     0.198 A 
ATOM     85  C   UNL A   1      48.860  25.881  33.519  1.00  0.00     0.198 A 
ATOM     86  F   UNL A   1      46.519  25.812  33.729  1.00  0.00    -0.203 F 
ATOM     87  F   UNL A   1      50.963  27.454  31.024  1.00  0.00    -0.200 F 
ATOM     88  C   UNL A   1      49.994  26.293  32.838  1.00  0.00     0.200 A 
ATOM     89  F   UNL A   1      48.978  25.134  34.626  1.00  0.00    -0.200 F 
ATOM     90  F   UNL A   1      51.208  25.926  33.271  1.00  0.00    -0.200 F 
ENDBRANCH  57  80
ENDBRANCH  31  32
ENDBRANCH  23  26
ENDBRANCH  21  22
ENDBRANCH  20  21
ENDBRANCH   1  20
TORSDOF 15
ENDMDL
MODEL 2
REMARK VINA RESULT:     -10.8      0.188      2.053
REMARK SMILES C[C@H](O)[C@H](NC(=O)C[NH3+])C(=O)NCCCNC(=O)c1ccc(-c2c3nc(c(-c4c(F)c(F)c(F)c(F)c4F)c4ccc([nH]4)c(-c4c(F)c(F)c(F)c(F)c4F)c4nc(c(-c5c(F)c(F)c(F)c(F)c5F)c5ccc2[nH]5)C=C4)C=C3)cc1
REMARK SMILES IDX 13 1 12 2 10 3 11 4 4 6 2 7 1 8 3 9 5 11 6 12 7 14 8 15 9 16
REMARK SMILES IDX 14 20 15 21 16 22 17 23 18 25 19 26 20 27 81 28 21 29 80 30
REMARK SMILES IDX 22 31 23 32 24 33 74 34 25 35 79 36 73 37 75 38 26 39 78 40
REMARK SMILES IDX 72 41 71 42 27 44 59 45 39 46 58 47 40 48 43 49 57 50 76 51
REMARK SMILES IDX 41 52 42 53 56 55 77 56 44 57 28 58 29 59 37 60 30 61 31 62
REMARK SMILES IDX 35 63 38 64 32 65 33 66 36 67 34 68 60 69 61 70 69 71 62 72
REMARK SMILES IDX 63 73 67 74 70 75 64 76 65 77 68 78 66 79 45 80 46 81 54 82
REMARK SMILES IDX 47 83 48 84 52 85 55 86 49 87 50 88 53 89 51 90
REMARK H PARENT 12 5 3 10 5 13 9 17 9 18 9 19 16 24 75 43 43 54
REMARK Flexibility Score: inf
ROOT
ATOM      1  C   UNL A   1      35.479  33.291  30.549  1.00  0.00     0.117 C 
ENDROOT
BRANCH   1   2
ATOM      2  N   UNL A   1      34.542  32.825  31.565  1.00  0.00    -0.354 N 
ATOM      3  C   UNL A   1      34.089  33.496  32.675  1.00  0.00     0.245 C 
ATOM      4  O   UNL A   1      33.134  33.032  33.299  1.00  0.00    -0.273 OA
ATOM      5  H   UNL A   1      34.190  31.914  31.440  1.00  0.00     0.163 HD
BRANCH   3   6
ATOM      6  C   UNL A   1      34.777  34.809  33.104  1.00  0.00     0.200 C 
BRANCH   6   7
ATOM      7  C   UNL A   1      35.756  34.580  34.292  1.00  0.00     0.143 C 
ATOM      8  C   UNL A   1      37.104  34.050  33.816  1.00  0.00     0.041 C 
BRANCH   7   9
ATOM      9  O   UNL A   1      35.268  33.667  35.279  1.00  0.00    -0.391 OA
ATOM     10  H   UNL A   1      34.447  34.014  35.661  1.00  0.00     0.211 HD
ENDBRANCH   7   9
ENDBRANCH   6   7
BRANCH   6  11
ATOM     11  N   UNL A   1      33.671  35.761  33.354  1.00  0.00    -0.337 N 
ATOM     12  C   UNL A   1      32.824  36.441  32.543  1.00  0.00     0.275 C 
ATOM     13  H   UNL A   1      33.520  35.938  34.311  1.00  0.00     0.164 HD
ATOM     14  O   UNL A   1      31.990  37.172  33.083  1.00  0.00    -0.268 OA
BRANCH  12  15
ATOM     15  C   UNL A   1      32.957  36.367  31.026  1.00  0.00     0.360 C 
BRANCH  15  16
ATOM     16  N   UNL A   1      33.391  37.655  30.469  1.00  0.00    -0.350 N 
ATOM     17  H   UNL A   1      34.409  37.673  30.406  1.00  0.00     0.344 HD
ATOM     18  H   UNL A   1      33.075  38.412  31.075  1.00  0.00     0.344 HD
ATOM     19  H   UNL A   1      32.991  37.776  29.539  1.00  0.00     0.344 HD
ENDBRANCH  15  16
ENDBRANCH  12  15
ENDBRANCH   6  11
ENDBRANCH   3   6
ENDBRANCH   1   2
BRANCH   1  20
ATOM     20  C   UNL A   1      34.769  33.890  29.347  1.00  0.00     0.042 C 
BRANCH  20  21
ATOM     21  C   UNL A   1      35.090  33.161  28.053  1.00  0.00     0.118 C 
BRANCH  21  22
ATOM     22  N   UNL A   1      34.157  32.073  27.782  1.00  0.00    -0.352 N 
ATOM     23  C   UNL A   1      34.382  30.720  27.707  1.00  0.00     0.251 C 
ATOM     24  H   UNL A   1      33.225  32.350  27.630  1.00  0.00     0.163 HD
ATOM     25  O   UNL A   1      33.512  29.975  27.274  1.00  0.00    -0.269 OA
BRANCH  23  26
ATOM     26  C   UNL A   1      35.687  30.171  28.129  1.00  0.00     0.039 A 
ATOM     27  C   UNL A   1      36.737  30.137  27.210  1.00  0.00     0.014 A 
ATOM     28  C   UNL A   1      35.875  29.697  29.429  1.00  0.00     0.014 A 
ATOM     29  C   UNL A   1      37.997  29.698  27.619  1.00  0.00     0.010 A 
ATOM     30  C   UNL A   1      37.150  29.356  29.862  1.00  0.00     0.010 A 
ATOM     31  C   UNL A   1      38.223  29.345  28.959  1.00  0.00    -0.014 A 
BRANCH  31  32
ATOM     32  C   UNL A   1      39.571  28.952  29.440  1.00  0.00     0.031 A 
ATOM     33  C   UNL A   1      40.321  29.843  30.391  1.00  0.00     0.074 A 
ATOM     34  C   UNL A   1      40.147  27.830  28.966  1.00  0.00     0.049 A 
ATOM     35  N   UNL A   1      41.534  29.716  30.865  1.00  0.00    -0.248 NA
ATOM     36  C   UNL A   1      39.625  31.058  30.847  1.00  0.00     0.031 C 
ATOM     37  C   UNL A   1      39.541  26.911  28.001  1.00  0.00     0.029 A 
ATOM     38  N   UNL A   1      41.375  27.277  29.224  1.00  0.00    -0.354 N 
ATOM     39  C   UNL A   1      41.749  30.835  31.659  1.00  0.00     0.074 A 
ATOM     40  C   UNL A   1      40.568  31.662  31.553  1.00  0.00     0.031 C 
ATOM     41  C   UNL A   1      40.388  25.896  27.769  1.00  0.00     0.029 A 
ATOM     42  C   UNL A   1      41.612  26.114  28.533  1.00  0.00     0.049 A 
ATOM     43  H   UNL A   1      42.027  27.676  29.845  1.00  0.00     0.167 HD
ATOM     44  C   UNL A   1      42.823  31.132  32.428  1.00  0.00     0.037 A 
ATOM     45  C   UNL A   1      42.699  25.319  28.512  1.00  0.00     0.037 A 
ATOM     46  C   UNL A   1      43.987  30.293  32.545  1.00  0.00     0.049 A 
ATOM     47  C   UNL A   1      43.887  25.681  29.363  1.00  0.00     0.074 A 
ATOM     48  C   UNL A   1      45.104  30.474  33.340  1.00  0.00     0.029 A 
ATOM     49  N   UNL A   1      44.184  29.114  31.840  1.00  0.00    -0.354 N 
ATOM     50  N   UNL A   1      44.050  26.704  30.167  1.00  0.00    -0.248 NA
ATOM     51  C   UNL A   1      45.041  24.773  29.307  1.00  0.00     0.031 C 
ATOM     52  C   UNL A   1      46.001  29.436  33.075  1.00  0.00     0.029 A 
ATOM     53  C   UNL A   1      45.418  28.573  32.163  1.00  0.00     0.049 A 
ATOM     54  H   UNL A   1      43.544  28.722  31.204  1.00  0.00     0.167 HD
ATOM     55  C   UNL A   1      45.306  26.546  30.735  1.00  0.00     0.074 A 
ATOM     56  C   UNL A   1      45.856  25.320  30.196  1.00  0.00     0.031 C 
ATOM     57  C   UNL A   1      45.946  27.345  31.624  1.00  0.00     0.037 A 
BRANCH  44  58
ATOM     58  C   UNL A   1      42.788  32.417  33.206  1.00  0.00     0.064 A 
ATOM     59  C   UNL A   1      42.286  32.473  34.515  1.00  0.00     0.173 A 
ATOM     60  C   UNL A   1      43.292  33.601  32.648  1.00  0.00     0.173 A 
ATOM     61  F   UNL A   1      41.779  31.373  35.093  1.00  0.00    -0.203 F 
ATOM     62  C   UNL A   1      42.260  33.672  35.223  1.00  0.00     0.198 A 
ATOM     63  C   UNL A   1      43.299  34.790  33.371  1.00  0.00     0.198 A 
ATOM     64  F   UNL A   1      43.789  33.605  31.402  1.00  0.00    -0.203 F 
ATOM     65  F   UNL A   1      41.725  33.711  36.452  1.00  0.00    -0.200 F 
ATOM     66  C   UNL A   1      42.774  34.827  34.655  1.00  0.00     0.200 A 
ATOM     67  F   UNL A   1      43.809  35.902  32.826  1.00  0.00    -0.200 F 
ATOM     68  F   UNL A   1      42.757  35.978  35.341  1.00  0.00    -0.200 F 
ENDBRANCH  44  58
BRANCH  45  69
ATOM     69  C   UNL A   1      42.708  24.091  27.673  1.00  0.00     0.064 A 
ATOM     70  C   UNL A   1      42.406  22.838  28.227  1.00  0.00     0.173 A 
ATOM     71  C   UNL A   1      43.029  24.138  26.309  1.00  0.00     0.173 A 
ATOM     72  F   UNL A   1      42.111  22.737  29.531  1.00  0.00    -0.203 F 
ATOM     73  C   UNL A   1      42.451  21.679  27.456  1.00  0.00     0.198 A 
ATOM     74  C   UNL A   1      43.043  22.982  25.531  1.00  0.00     0.198 A 
ATOM     75  F   UNL A   1      43.321  25.311  25.728  1.00  0.00    -0.203 F 
ATOM     76  F   UNL A   1      42.211  20.489  28.024  1.00  0.00    -0.200 F 
ATOM     77  C   UNL A   1      42.764  21.753  26.107  1.00  0.00     0.200 A 
ATOM     78  F   UNL A   1      43.331  23.059  24.224  1.00  0.00    -0.200 F 
ATOM     79  F   UNL A   1      42.806  20.637  25.366  1.00  0.00    -0.200 F 
ENDBRANCH  45  69
BRANCH  57  80
ATOM     80  C   UNL A   1      47.297  26.896  32.106  1.00  0.00     0.064 A 
ATOM     81  C   UNL A   1      47.442  26.016  33.189  1.00  0.00     0.173 A 
ATOM     82  C   UNL A   1      48.461  27.322  31.447  1.00  0.00     0.173 A 
ATOM     83  F   UNL A   1      46.362  25.590  33.863  1.00  0.00    -0.203 F 
ATOM     84  C   UNL A   1      48.703  25.603  33.611  1.00  0.00     0.198 A 
ATOM     85  C   UNL A   1      49.716  26.880  31.850  1.00  0.00     0.198 A 
ATOM     86  F   UNL A   1      48.378  28.158  30.400  1.00  0.00    -0.203 F 
ATOM     87  F   UNL A   1      48.820  24.805  34.681  1.00  0.00    -0.200 F 
ATOM     88  C   UNL A   1      49.838  26.028  32.937  1.00  0.00     0.200 A 
ATOM     89  F   UNL A   1      50.811  27.278  31.186  1.00  0.00    -0.200 F 
ATOM     90  F   UNL A   1      51.050  25.622  33.340  1.00  0.00    -0.200 F 
ENDBRANCH  57  80
ENDBRANCH  31  32
ENDBRANCH  23  26
ENDBRANCH  21  22
ENDBRANCH  20  21
ENDBRANCH   1  20
TORSDOF 15
ENDMDL
MODEL 3
REMARK VINA RESULT:     -10.7      4.444     11.632
REMARK SMILES C[C@H](O)[C@H](NC(=O)C[NH3+])C(=O)NCCCNC(=O)c1ccc(-c2c3nc(c(-c4c(F)c(F)c(F)c(F)c4F)c4ccc([nH]4)c(-c4c(F)c(F)c(F)c(F)c4F)c4nc(c(-c5c(F)c(F)c(F)c(F)c5F)c5ccc2[nH]5)C=C4)C=C3)cc1
REMARK SMILES IDX 13 1 12 2 10 3 11 4 4 6 2 7 1 8 3 9 5 11 6 12 7 14 8 15 9 16
REMARK SMILES IDX 14 20 15 21 16 22 17 23 18 25 19 26 20 27 81 28 21 29 80 30
REMARK SMILES IDX 22 31 23 32 24 33 74 34 25 35 79 36 73 37 75 38 26 39 78 40
REMARK SMILES IDX 72 41 71 42 27 44 59 45 39 46 58 47 40 48 43 49 57 50 76 51
REMARK SMILES IDX 41 52 42 53 56 55 77 56 44 57 28 58 29 59 37 60 30 61 31 62
REMARK SMILES IDX 35 63 38 64 32 65 33 66 36 67 34 68 60 69 61 70 69 71 62 72
REMARK SMILES IDX 63 73 67 74 70 75 64 76 65 77 68 78 66 79 45 80 46 81 54 82
REMARK SMILES IDX 47 83 48 84 52 85 55 86 49 87 50 88 53 89 51 90
REMARK H PARENT 12 5 3 10 5 13 9 17 9 18 9 19 16 24 75 43 43 54
REMARK Flexibility Score: inf
ROOT
ATOM      1  C   UNL A   1      42.671  22.673  25.998  1.00  0.00     0.117 C 
ENDROOT
BRANCH   1   2
ATOM      2  N   UNL A   1      43.022  22.839  24.592  1.00  0.00    -0.354 N 
ATOM      3  C   UNL A   1      44.144  22.392  23.937  1.00  0.00     0.245 C 
ATOM      4  O   UNL A   1      44.166  22.432  22.707  1.00  0.00    -0.273 OA
ATOM      5  H   UNL A   1      42.372  23.335  24.043  1.00  0.00     0.163 HD
BRANCH   3   6
ATOM      6  C   UNL A   1      45.335  21.847  24.753  1.00  0.00     0.200 C 
BRANCH   6   7
ATOM      7  C   UNL A   1      46.439  22.926  24.943  1.00  0.00     0.143 C 
ATOM      8  C   UNL A   1      46.161  23.811  26.153  1.00  0.00     0.041 C 
BRANCH   7   9
ATOM      9  O   UNL A   1      46.605  23.792  23.816  1.00  0.00    -0.391 OA
ATOM     10  H   UNL A   1      46.159  23.407  23.045  1.00  0.00     0.211 HD
ENDBRANCH   7   9
ENDBRANCH   6   7
BRANCH   6  11
ATOM     11  N   UNL A   1      45.753  20.613  24.049  1.00  0.00    -0.337 N 
ATOM     12  C   UNL A   1      45.287  19.340  24.042  1.00  0.00     0.275 C 
ATOM     13  H   UNL A   1      46.534  20.745  23.465  1.00  0.00     0.164 HD
ATOM     14  O   UNL A   1      45.875  18.528  23.325  1.00  0.00    -0.268 OA
BRANCH  12  15
ATOM     15  C   UNL A   1      44.139  18.916  24.950  1.00  0.00     0.360 C 
BRANCH  15  16
ATOM     16  N   UNL A   1      44.639  18.377  26.222  1.00  0.00    -0.350 N 
ATOM     17  H   UNL A   1      45.468  17.807  26.047  1.00  0.00     0.344 HD
ATOM     18  H   UNL A   1      43.917  17.803  26.656  1.00  0.00     0.344 HD
ATOM     19  H   UNL A   1      44.882  19.146  26.846  1.00  0.00     0.344 HD
ENDBRANCH  15  16
ENDBRANCH  12  15
ENDBRANCH   6  11
ENDBRANCH   3   6
ENDBRANCH   1   2
BRANCH   1  20
ATOM     20  C   UNL A   1      41.731  21.501  26.220  1.00  0.00     0.042 C 
BRANCH  20  21
ATOM     21  C   UNL A   1      40.490  21.885  27.008  1.00  0.00     0.118 C 
BRANCH  21  22
ATOM     22  N   UNL A   1      39.413  22.364  26.149  1.00  0.00    -0.352 N 
ATOM     23  C   UNL A   1      38.777  23.581  26.132  1.00  0.00     0.251 C 
ATOM     24  H   UNL A   1      39.092  21.716  25.482  1.00  0.00     0.163 HD
ATOM     25  O   UNL A   1      37.759  23.734  25.468  1.00  0.00    -0.269 OA
BRANCH  23  26
ATOM     26  C   UNL A   1      39.314  24.699  26.935  1.00  0.00     0.039 A 
ATOM     27  C   UNL A   1      40.140  25.640  26.319  1.00  0.00     0.014 A 
ATOM     28  C   UNL A   1      38.996  24.820  28.289  1.00  0.00     0.014 A 
ATOM     29  C   UNL A   1      40.586  26.745  27.045  1.00  0.00     0.010 A 
ATOM     30  C   UNL A   1      39.356  25.969  28.982  1.00  0.00     0.010 A 
ATOM     31  C   UNL A   1      40.162  26.940  28.370  1.00  0.00    -0.014 A 
BRANCH  31  32
ATOM     32  C   UNL A   1      40.555  28.147  29.138  1.00  0.00     0.031 A 
ATOM     33  C   UNL A   1      41.930  28.242  29.740  1.00  0.00     0.074 A 
ATOM     34  C   UNL A   1      39.653  29.125  29.352  1.00  0.00     0.049 A 
ATOM     35  N   UNL A   1      42.437  29.174  30.507  1.00  0.00    -0.248 NA
ATOM     36  C   UNL A   1      42.848  27.123  29.472  1.00  0.00     0.031 C 
ATOM     37  C   UNL A   1      38.273  29.124  28.863  1.00  0.00     0.029 A 
ATOM     38  N   UNL A   1      39.758  30.304  30.044  1.00  0.00    -0.354 N 
ATOM     39  C   UNL A   1      43.721  28.748  30.820  1.00  0.00     0.074 A 
ATOM     40  C   UNL A   1      43.895  27.446  30.215  1.00  0.00     0.031 C 
ATOM     41  C   UNL A   1      37.670  30.260  29.248  1.00  0.00     0.029 A 
ATOM     42  C   UNL A   1      38.603  31.047  30.046  1.00  0.00     0.049 A 
ATOM     43  H   UNL A   1      40.584  30.591  30.499  1.00  0.00     0.167 HD
ATOM     44  C   UNL A   1      44.679  29.397  31.524  1.00  0.00     0.037 A 
ATOM     45  C   UNL A   1      38.326  32.225  30.636  1.00  0.00     0.037 A 
ATOM     46  C   UNL A   1      44.506  30.702  32.105  1.00  0.00     0.049 A 
ATOM     47  C   UNL A   1      39.403  32.918  31.429  1.00  0.00     0.074 A 
ATOM     48  C   UNL A   1      45.431  31.471  32.788  1.00  0.00     0.029 A 
ATOM     49  N   UNL A   1      43.325  31.431  32.073  1.00  0.00    -0.354 N 
ATOM     50  N   UNL A   1      40.638  32.540  31.656  1.00  0.00    -0.248 NA
ATOM     51  C   UNL A   1      39.048  34.205  32.041  1.00  0.00     0.031 C 
ATOM     52  C   UNL A   1      44.795  32.639  33.219  1.00  0.00     0.029 A 
ATOM     53  C   UNL A   1      43.492  32.628  32.750  1.00  0.00     0.049 A 
ATOM     54  H   UNL A   1      42.493  31.138  31.637  1.00  0.00     0.167 HD
ATOM     55  C   UNL A   1      41.215  33.554  32.408  1.00  0.00     0.074 A 
ATOM     56  C   UNL A   1      40.200  34.571  32.584  1.00  0.00     0.031 C 
ATOM     57  C   UNL A   1      42.473  33.635  32.907  1.00  0.00     0.037 A 
BRANCH  44  58
ATOM     58  C   UNL A   1      46.000  28.704  31.703  1.00  0.00     0.064 A 
ATOM     59  C   UNL A   1      47.047  28.862  30.781  1.00  0.00     0.173 A 
ATOM     60  C   UNL A   1      46.235  27.899  32.827  1.00  0.00     0.173 A 
ATOM     61  F   UNL A   1      46.871  29.611  29.681  1.00  0.00    -0.203 F 
ATOM     62  C   UNL A   1      48.266  28.214  30.962  1.00  0.00     0.198 A 
ATOM     63  C   UNL A   1      47.467  27.281  33.023  1.00  0.00     0.198 A 
ATOM     64  F   UNL A   1      45.272  27.717  33.744  1.00  0.00    -0.203 F 
ATOM     65  F   UNL A   1      49.230  28.336  30.039  1.00  0.00    -0.200 F 
ATOM     66  C   UNL A   1      48.478  27.431  32.086  1.00  0.00     0.200 A 
ATOM     67  F   UNL A   1      47.676  26.537  34.118  1.00  0.00    -0.200 F 
ATOM     68  F   UNL A   1      49.655  26.816  32.262  1.00  0.00    -0.200 F 
ENDBRANCH  44  58
BRANCH  45  69
ATOM     69  C   UNL A   1      36.980  32.838  30.482  1.00  0.00     0.064 A 
ATOM     70  C   UNL A   1      36.010  32.710  31.487  1.00  0.00     0.173 A 
ATOM     71  C   UNL A   1      36.628  33.551  29.326  1.00  0.00     0.173 A 
ATOM     72  F   UNL A   1      36.292  32.021  32.603  1.00  0.00    -0.203 F 
ATOM     73  C   UNL A   1      34.735  33.248  31.332  1.00  0.00     0.198 A 
ATOM     74  C   UNL A   1      35.362  34.116  29.186  1.00  0.00     0.198 A 
ATOM     75  F   UNL A   1      37.519  33.708  28.337  1.00  0.00    -0.203 F 
ATOM     76  F   UNL A   1      33.812  33.063  32.286  1.00  0.00    -0.200 F 
ATOM     77  C   UNL A   1      34.414  33.955  30.184  1.00  0.00     0.200 A 
ATOM     78  F   UNL A   1      35.060  34.812  28.081  1.00  0.00    -0.200 F 
ATOM     79  F   UNL A   1      33.187  34.473  30.035  1.00  0.00    -0.200 F 
ENDBRANCH  45  69
BRANCH  57  80
ATOM     80  C   UNL A   1      42.838  34.886  33.655  1.00  0.00     0.064 A 
ATOM     81  C   UNL A   1      42.778  34.956  35.055  1.00  0.00     0.173 A 
ATOM     82  C   UNL A   1      43.295  36.018  32.961  1.00  0.00     0.173 A 
ATOM     83  F   UNL A   1      42.335  33.907  35.765  1.00  0.00    -0.203 F 
ATOM     84  C   UNL A   1      43.133  36.122  35.728  1.00  0.00     0.198 A 
ATOM     85  C   UNL A   1      43.681  37.168  33.640  1.00  0.00     0.198 A 
ATOM     86  F   UNL A   1      43.379  36.001  31.622  1.00  0.00    -0.203 F 
ATOM     87  F   UNL A   1      43.016  36.183  37.062  1.00  0.00    -0.200 F 
ATOM     88  C   UNL A   1      43.592  37.224  35.022  1.00  0.00     0.200 A 
ATOM     89  F   UNL A   1      44.141  38.226  32.957  1.00  0.00    -0.200 F 
ATOM     90  F   UNL A   1      43.942  38.341  35.674  1.00  0.00    -0.200 F 
ENDBRANCH  57  80
ENDBRANCH  31  32
ENDBRANCH  23  26
ENDBRANCH  21  22
ENDBRANCH  20  21
ENDBRANCH   1  20
TORSDOF 15
ENDMDL
