MODEL 1
REMARK VINA RESULT:     -13.7      0.000      0.000
REMARK SMILES Cc1ccccc1NC(=O)c1ccccc1NC(=O)CCC(=O)NCCCNC(=O)c1ccc(-c2c3nc(c(-c4c(F)c(F)c(F)c(F)c4F)c4ccc([nH]4)c(-c4c(F)c(F)c(F)c(F)c4F)c4nc(c(-c5c(F)c(F)c(F)c(F)c5F)c5ccc2[nH]5)C=C4)C=C3)cc1
REMARK SMILES IDX 22 1 23 2 24 3 21 5 20 6 18 7 17 8 19 10 16 11 11 12 12 13
REMARK SMILES IDX 13 14 15 15 14 16 9 17 8 18 10 20 7 21 1 22 2 23 3 24 4 25
REMARK SMILES IDX 6 26 5 27 25 28 26 29 27 30 28 31 29 32 30 34 31 35 32 36
REMARK SMILES IDX 93 37 33 38 92 39 34 40 35 41 36 42 86 43 37 44 91 45 85 46
REMARK SMILES IDX 87 47 38 48 90 49 84 50 83 51 39 53 71 54 51 55 70 56 52 57
REMARK SMILES IDX 55 58 69 59 88 60 53 61 54 62 68 64 89 65 56 66 40 67 41 68
REMARK SMILES IDX 49 69 42 70 43 71 47 72 50 73 44 74 45 75 48 76 46 77 72 78
REMARK SMILES IDX 73 79 81 80 74 81 75 82 79 83 82 84 76 85 77 86 80 87 78 88
REMARK SMILES IDX 57 89 58 90 66 91 59 92 60 93 64 94 67 95 61 96 62 97 65 98
REMARK SMILES IDX 63 99
REMARK H PARENT 24 4 17 9 8 19 28 33 87 52 55 63
REMARK Flexibility Score: inf
ROOT
ATOM      1  C   UNL A   1      35.441  22.095  25.738  1.00  0.00     0.220 C 
ATOM      2  O   UNL A   1      34.679  21.203  25.361  1.00  0.00    -0.275 OA
ATOM      3  N   UNL A   1      36.785  21.834  25.776  1.00  0.00    -0.356 N 
ATOM      4  H   UNL A   1      37.033  20.884  25.708  1.00  0.00     0.163 HD
ENDROOT
BRANCH   1   5
ATOM      5  C   UNL A   1      34.882  23.432  26.191  1.00  0.00     0.110 C 
BRANCH   5   6
ATOM      6  C   UNL A   1      34.423  24.327  25.045  1.00  0.00     0.110 C 
BRANCH   6   7
ATOM      7  C   UNL A   1      32.925  24.403  24.968  1.00  0.00     0.224 C 
ATOM      8  N   UNL A   1      32.226  25.561  25.064  1.00  0.00    -0.325 N 
ATOM      9  H   UNL A   1      31.274  25.430  24.849  1.00  0.00     0.169 HD
ATOM     10  O   UNL A   1      32.289  23.388  24.659  1.00  0.00    -0.275 OA
BRANCH   8  11
ATOM     11  C   UNL A   1      32.508  26.899  25.391  1.00  0.00     0.054 A 
ATOM     12  C   UNL A   1      32.488  27.886  24.381  1.00  0.00     0.063 A 
ATOM     13  C   UNL A   1      33.014  29.170  24.662  1.00  0.00     0.016 A 
ATOM     14  C   UNL A   1      33.504  29.493  25.923  1.00  0.00     0.001 A 
ATOM     15  C   UNL A   1      32.878  27.291  26.683  1.00  0.00     0.027 A 
ATOM     16  C   UNL A   1      33.406  28.562  26.941  1.00  0.00     0.002 A 
BRANCH  12  17
ATOM     17  C   UNL A   1      32.264  27.640  22.935  1.00  0.00     0.257 C 
ATOM     18  N   UNL A   1      31.132  27.893  22.196  1.00  0.00    -0.322 N 
ATOM     19  H   UNL A   1      31.160  27.427  21.330  1.00  0.00     0.170 HD
ATOM     20  O   UNL A   1      33.156  27.016  22.348  1.00  0.00    -0.269 OA
BRANCH  18  21
ATOM     21  C   UNL A   1      29.949  28.634  22.336  1.00  0.00     0.044 A 
ATOM     22  C   UNL A   1      28.867  26.700  23.702  1.00  0.00     0.046 C 
ATOM     23  C   UNL A   1      28.881  28.074  23.083  1.00  0.00    -0.027 A 
ATOM     24  C   UNL A   1      27.752  28.863  23.357  1.00  0.00     0.005 A 
ATOM     25  C   UNL A   1      27.666  30.168  22.887  1.00  0.00     0.000 A 
ATOM     26  C   UNL A   1      29.831  29.929  21.829  1.00  0.00     0.026 A 
ATOM     27  C   UNL A   1      28.694  30.692  22.109  1.00  0.00     0.002 A 
ENDBRANCH  18  21
ENDBRANCH  12  17
ENDBRANCH   8  11
ENDBRANCH   6   7
ENDBRANCH   5   6
ENDBRANCH   1   5
BRANCH   3  28
ATOM     28  C   UNL A   1      37.899  22.763  25.901  1.00  0.00     0.117 C 
BRANCH  28  29
ATOM     29  C   UNL A   1      39.256  22.120  26.211  1.00  0.00     0.042 C 
BRANCH  29  30
ATOM     30  C   UNL A   1      40.088  22.758  27.341  1.00  0.00     0.118 C 
BRANCH  30  31
ATOM     31  N   UNL A   1      41.356  23.308  26.824  1.00  0.00    -0.352 N 
ATOM     32  C   UNL A   1      41.785  24.602  26.609  1.00  0.00     0.251 C 
ATOM     33  H   UNL A   1      42.022  22.623  26.588  1.00  0.00     0.163 HD
ATOM     34  O   UNL A   1      42.942  24.835  26.274  1.00  0.00    -0.269 OA
BRANCH  32  35
ATOM     35  C   UNL A   1      40.850  25.719  26.809  1.00  0.00     0.039 A 
ATOM     36  C   UNL A   1      41.116  26.950  26.215  1.00  0.00     0.014 A 
ATOM     37  C   UNL A   1      39.788  25.577  27.692  1.00  0.00     0.014 A 
ATOM     38  C   UNL A   1      40.517  28.095  26.739  1.00  0.00     0.010 A 
ATOM     39  C   UNL A   1      39.218  26.715  28.241  1.00  0.00     0.010 A 
ATOM     40  C   UNL A   1      39.676  27.978  27.850  1.00  0.00    -0.014 A 
BRANCH  40  41
ATOM     41  C   UNL A   1      39.507  29.083  28.800  1.00  0.00     0.031 A 
ATOM     42  C   UNL A   1      38.477  30.129  28.666  1.00  0.00     0.074 A 
ATOM     43  C   UNL A   1      40.289  29.110  29.906  1.00  0.00     0.049 A 
ATOM     44  N   UNL A   1      38.641  31.352  29.058  1.00  0.00    -0.248 NA
ATOM     45  C   UNL A   1      37.171  29.883  28.083  1.00  0.00     0.031 C 
ATOM     46  C   UNL A   1      40.130  29.959  31.085  1.00  0.00     0.029 A 
ATOM     47  N   UNL A   1      41.490  28.416  30.140  1.00  0.00    -0.354 N 
ATOM     48  C   UNL A   1      37.408  31.970  29.051  1.00  0.00     0.074 A 
ATOM     49  C   UNL A   1      36.549  31.036  28.353  1.00  0.00     0.031 C 
ATOM     50  C   UNL A   1      41.284  29.975  31.769  1.00  0.00     0.029 A 
ATOM     51  C   UNL A   1      42.263  29.236  30.995  1.00  0.00     0.049 A 
ATOM     52  H   UNL A   1      41.743  27.534  29.781  1.00  0.00     0.167 HD
ATOM     53  C   UNL A   1      37.231  33.133  29.752  1.00  0.00     0.037 A 
ATOM     54  C   UNL A   1      43.489  29.708  30.624  1.00  0.00     0.037 A 
ATOM     55  C   UNL A   1      38.464  33.535  30.443  1.00  0.00     0.049 A 
ATOM     56  C   UNL A   1      43.585  31.211  30.536  1.00  0.00     0.074 A 
ATOM     57  C   UNL A   1      38.855  33.456  31.771  1.00  0.00     0.029 A 
ATOM     58  N   UNL A   1      39.602  33.881  29.720  1.00  0.00    -0.354 N 
ATOM     59  N   UNL A   1      42.565  32.014  30.633  1.00  0.00    -0.248 NA
ATOM     60  C   UNL A   1      44.826  31.919  30.228  1.00  0.00     0.031 C 
ATOM     61  C   UNL A   1      40.241  33.735  31.842  1.00  0.00     0.029 A 
ATOM     62  C   UNL A   1      40.700  33.978  30.558  1.00  0.00     0.049 A 
ATOM     63  H   UNL A   1      39.624  34.036  28.749  1.00  0.00     0.167 HD
ATOM     64  C   UNL A   1      42.949  33.274  30.255  1.00  0.00     0.074 A 
ATOM     65  C   UNL A   1      44.385  33.180  30.090  1.00  0.00     0.031 C 
ATOM     66  C   UNL A   1      42.032  34.264  30.040  1.00  0.00     0.037 A 
BRANCH  53  67
ATOM     67  C   UNL A   1      35.887  33.783  30.077  1.00  0.00     0.064 A 
ATOM     68  C   UNL A   1      35.091  34.362  29.058  1.00  0.00     0.173 A 
ATOM     69  C   UNL A   1      35.335  33.904  31.366  1.00  0.00     0.173 A 
ATOM     70  F   UNL A   1      35.383  34.205  27.761  1.00  0.00    -0.203 F 
ATOM     71  C   UNL A   1      33.940  35.114  29.325  1.00  0.00     0.198 A 
ATOM     72  C   UNL A   1      34.211  34.696  31.641  1.00  0.00     0.198 A 
ATOM     73  F   UNL A   1      35.803  33.197  32.398  1.00  0.00    -0.203 F 
ATOM     74  F   UNL A   1      33.242  35.646  28.312  1.00  0.00    -0.200 F 
ATOM     75  C   UNL A   1      33.524  35.316  30.622  1.00  0.00     0.200 A 
ATOM     76  F   UNL A   1      33.795  34.837  32.908  1.00  0.00    -0.200 F 
ATOM     77  F   UNL A   1      32.444  36.065  30.884  1.00  0.00    -0.200 F 
ENDBRANCH  53  67
BRANCH  54  78
ATOM     78  C   UNL A   1      44.218  28.780  29.724  1.00  0.00     0.064 A 
ATOM     79  C   UNL A   1      44.154  29.018  28.339  1.00  0.00     0.173 A 
ATOM     80  C   UNL A   1      45.246  27.962  30.203  1.00  0.00     0.173 A 
ATOM     81  F   UNL A   1      43.173  29.780  27.832  1.00  0.00    -0.203 F 
ATOM     82  C   UNL A   1      45.165  28.581  27.491  1.00  0.00     0.198 A 
ATOM     83  C   UNL A   1      46.245  27.507  29.345  1.00  0.00     0.198 A 
ATOM     84  F   UNL A   1      45.358  27.707  31.515  1.00  0.00    -0.203 F 
ATOM     85  F   UNL A   1      45.157  28.943  26.200  1.00  0.00    -0.200 F 
ATOM     86  C   UNL A   1      46.230  27.859  28.003  1.00  0.00     0.200 A 
ATOM     87  F   UNL A   1      47.284  26.820  29.841  1.00  0.00    -0.200 F 
ATOM     88  F   UNL A   1      47.269  27.551  27.215  1.00  0.00    -0.200 F 
ENDBRANCH  54  78
BRANCH  66  89
ATOM     89  C   UNL A   1      42.334  35.601  29.411  1.00  0.00     0.064 A 
ATOM     90  C   UNL A   1      41.769  36.047  28.202  1.00  0.00     0.173 A 
ATOM     91  C   UNL A   1      43.157  36.536  30.077  1.00  0.00     0.173 A 
ATOM     92  F   UNL A   1      40.848  35.323  27.552  1.00  0.00    -0.203 F 
ATOM     93  C   UNL A   1      42.094  37.286  27.645  1.00  0.00     0.198 A 
ATOM     94  C   UNL A   1      43.431  37.798  29.548  1.00  0.00     0.198 A 
ATOM     95  F   UNL A   1      43.704  36.259  31.269  1.00  0.00    -0.203 F 
ATOM     96  F   UNL A   1      41.582  37.634  26.455  1.00  0.00    -0.200 F 
ATOM     97  C   UNL A   1      42.923  38.163  28.318  1.00  0.00     0.200 A 
ATOM     98  F   UNL A   1      44.183  38.664  30.243  1.00  0.00    -0.200 F 
ATOM     99  F   UNL A   1      43.212  39.361  27.794  1.00  0.00    -0.200 F 
ENDBRANCH  66  89
ENDBRANCH  40  41
ENDBRANCH  32  35
ENDBRANCH  30  31
ENDBRANCH  29  30
ENDBRANCH  28  29
ENDBRANCH   3  28
TORSDOF 15
ENDMDL
MODEL 2
REMARK VINA RESULT:     -13.6      4.001     10.464
REMARK SMILES Cc1ccccc1NC(=O)c1ccccc1NC(=O)CCC(=O)NCCCNC(=O)c1ccc(-c2c3nc(c(-c4c(F)c(F)c(F)c(F)c4F)c4ccc([nH]4)c(-c4c(F)c(F)c(F)c(F)c4F)c4nc(c(-c5c(F)c(F)c(F)c(F)c5F)c5ccc2[nH]5)C=C4)C=C3)cc1
REMARK SMILES IDX 22 1 23 2 24 3 21 5 20 6 18 7 17 8 19 10 16 11 11 12 12 13
REMARK SMILES IDX 13 14 15 15 14 16 9 17 8 18 10 20 7 21 1 22 2 23 3 24 4 25
REMARK SMILES IDX 6 26 5 27 25 28 26 29 27 30 28 31 29 32 30 34 31 35 32 36
REMARK SMILES IDX 93 37 33 38 92 39 34 40 35 41 36 42 86 43 37 44 91 45 85 46
REMARK SMILES IDX 87 47 38 48 90 49 84 50 83 51 39 53 71 54 51 55 70 56 52 57
REMARK SMILES IDX 55 58 69 59 88 60 53 61 54 62 68 64 89 65 56 66 40 67 41 68
REMARK SMILES IDX 49 69 42 70 43 71 47 72 50 73 44 74 45 75 48 76 46 77 72 78
REMARK SMILES IDX 73 79 81 80 74 81 75 82 79 83 82 84 76 85 77 86 80 87 78 88
REMARK SMILES IDX 57 89 58 90 66 91 59 92 60 93 64 94 67 95 61 96 62 97 65 98
REMARK SMILES IDX 63 99
REMARK H PARENT 24 4 17 9 8 19 28 33 87 52 55 63
REMARK Flexibility Score: inf
ROOT
ATOM      1  C   UNL A   1      32.442  27.475  26.734  1.00  0.00     0.220 C 
ATOM      2  O   UNL A   1      31.414  27.064  27.275  1.00  0.00    -0.275 OA
ATOM      3  N   UNL A   1      32.825  28.771  26.955  1.00  0.00    -0.356 N 
ATOM      4  H   UNL A   1      32.137  29.352  27.354  1.00  0.00     0.163 HD
ENDROOT
BRANCH   1   5
ATOM      5  C   UNL A   1      33.230  26.564  25.809  1.00  0.00     0.110 C 
BRANCH   5   6
ATOM      6  C   UNL A   1      33.075  25.081  26.127  1.00  0.00     0.110 C 
BRANCH   6   7
ATOM      7  C   UNL A   1      32.420  24.339  24.998  1.00  0.00     0.224 C 
ATOM      8  N   UNL A   1      33.019  23.336  24.310  1.00  0.00    -0.325 N 
ATOM      9  H   UNL A   1      32.387  22.880  23.708  1.00  0.00     0.169 HD
ATOM     10  O   UNL A   1      31.221  24.542  24.763  1.00  0.00    -0.275 OA
BRANCH   8  11
ATOM     11  C   UNL A   1      34.307  22.779  24.233  1.00  0.00     0.054 A 
ATOM     12  C   UNL A   1      34.629  21.645  25.012  1.00  0.00     0.063 A 
ATOM     13  C   UNL A   1      35.982  21.247  25.122  1.00  0.00     0.016 A 
ATOM     14  C   UNL A   1      36.995  21.918  24.445  1.00  0.00     0.001 A 
ATOM     15  C   UNL A   1      35.323  23.350  23.456  1.00  0.00     0.027 A 
ATOM     16  C   UNL A   1      36.659  22.950  23.586  1.00  0.00     0.002 A 
BRANCH  12  17
ATOM     17  C   UNL A   1      33.735  20.993  26.001  1.00  0.00     0.257 C 
ATOM     18  N   UNL A   1      33.078  19.791  25.888  1.00  0.00    -0.322 N 
ATOM     19  H   UNL A   1      32.375  19.704  26.571  1.00  0.00     0.170 HD
ATOM     20  O   UNL A   1      33.445  21.669  26.995  1.00  0.00    -0.269 OA
BRANCH  18  21
ATOM     21  C   UNL A   1      33.133  18.654  25.068  1.00  0.00     0.044 A 
ATOM     22  C   UNL A   1      32.152  20.010  23.074  1.00  0.00     0.046 C 
ATOM     23  C   UNL A   1      32.720  18.771  23.716  1.00  0.00    -0.027 A 
ATOM     24  C   UNL A   1      32.911  17.684  22.847  1.00  0.00     0.005 A 
ATOM     25  C   UNL A   1      33.475  16.499  23.304  1.00  0.00     0.000 A 
ATOM     26  C   UNL A   1      33.655  17.444  25.526  1.00  0.00     0.026 A 
ATOM     27  C   UNL A   1      33.828  16.373  24.644  1.00  0.00     0.002 A 
ENDBRANCH  18  21
ENDBRANCH  12  17
ENDBRANCH   8  11
ENDBRANCH   6   7
ENDBRANCH   5   6
ENDBRANCH   1   5
BRANCH   3  28
ATOM     28  C   UNL A   1      34.103  29.412  26.683  1.00  0.00     0.117 C 
BRANCH  28  29
ATOM     29  C   UNL A   1      34.271  30.816  27.274  1.00  0.00     0.042 C 
BRANCH  29  30
ATOM     30  C   UNL A   1      34.467  30.913  28.799  1.00  0.00     0.118 C 
BRANCH  30  31
ATOM     31  N   UNL A   1      35.621  31.767  29.136  1.00  0.00    -0.352 N 
ATOM     32  C   UNL A   1      36.981  31.527  29.146  1.00  0.00     0.251 C 
ATOM     33  H   UNL A   1      35.377  32.682  29.404  1.00  0.00     0.163 HD
ATOM     34  O   UNL A   1      37.780  32.435  29.354  1.00  0.00    -0.269 OA
BRANCH  32  35
ATOM     35  C   UNL A   1      37.479  30.169  28.879  1.00  0.00     0.039 A 
ATOM     36  C   UNL A   1      37.785  29.330  29.948  1.00  0.00     0.014 A 
ATOM     37  C   UNL A   1      37.767  29.786  27.576  1.00  0.00     0.014 A 
ATOM     38  C   UNL A   1      38.650  28.257  29.736  1.00  0.00     0.010 A 
ATOM     39  C   UNL A   1      38.656  28.743  27.368  1.00  0.00     0.010 A 
ATOM     40  C   UNL A   1      39.194  28.059  28.463  1.00  0.00    -0.014 A 
BRANCH  40  41
ATOM     41  C   UNL A   1      40.496  27.408  28.282  1.00  0.00     0.031 A 
ATOM     42  C   UNL A   1      40.661  25.968  28.009  1.00  0.00     0.074 A 
ATOM     43  C   UNL A   1      41.611  28.176  28.288  1.00  0.00     0.049 A 
ATOM     44  N   UNL A   1      41.672  25.271  28.419  1.00  0.00    -0.248 NA
ATOM     45  C   UNL A   1      39.700  25.192  27.247  1.00  0.00     0.031 C 
ATOM     46  C   UNL A   1      42.961  27.786  27.888  1.00  0.00     0.029 A 
ATOM     47  N   UNL A   1      41.761  29.487  28.776  1.00  0.00    -0.354 N 
ATOM     48  C   UNL A   1      41.653  24.063  27.756  1.00  0.00     0.074 A 
ATOM     49  C   UNL A   1      40.358  24.035  27.107  1.00  0.00     0.031 C 
ATOM     50  C   UNL A   1      43.837  28.669  28.391  1.00  0.00     0.029 A 
ATOM     51  C   UNL A   1      43.097  29.591  29.231  1.00  0.00     0.049 A 
ATOM     52  H   UNL A   1      41.075  30.193  28.797  1.00  0.00     0.167 HD
ATOM     53  C   UNL A   1      42.785  23.292  27.723  1.00  0.00     0.037 A 
ATOM     54  C   UNL A   1      43.393  29.879  30.531  1.00  0.00     0.037 A 
ATOM     55  C   UNL A   1      43.894  23.938  28.437  1.00  0.00     0.049 A 
ATOM     56  C   UNL A   1      44.153  28.797  31.259  1.00  0.00     0.074 A 
ATOM     57  C   UNL A   1      45.021  24.612  27.992  1.00  0.00     0.029 A 
ATOM     58  N   UNL A   1      43.818  24.166  29.809  1.00  0.00    -0.354 N 
ATOM     59  N   UNL A   1      44.375  27.609  30.773  1.00  0.00    -0.248 NA
ATOM     60  C   UNL A   1      44.630  28.937  32.633  1.00  0.00     0.031 C 
ATOM     61  C   UNL A   1      45.612  25.266  29.100  1.00  0.00     0.029 A 
ATOM     62  C   UNL A   1      44.845  24.999  30.221  1.00  0.00     0.049 A 
ATOM     63  H   UNL A   1      43.131  23.788  30.403  1.00  0.00     0.167 HD
ATOM     64  C   UNL A   1      44.852  26.800  31.770  1.00  0.00     0.074 A 
ATOM     65  C   UNL A   1      45.070  27.695  32.889  1.00  0.00     0.031 C 
ATOM     66  C   UNL A   1      44.954  25.448  31.603  1.00  0.00     0.037 A 
BRANCH  53  67
ATOM     67  C   UNL A   1      43.017  22.087  26.813  1.00  0.00     0.064 A 
ATOM     68  C   UNL A   1      42.338  20.863  27.035  1.00  0.00     0.173 A 
ATOM     69  C   UNL A   1      43.913  22.049  25.730  1.00  0.00     0.173 A 
ATOM     70  F   UNL A   1      41.338  20.762  27.921  1.00  0.00    -0.203 F 
ATOM     71  C   UNL A   1      42.640  19.686  26.339  1.00  0.00     0.198 A 
ATOM     72  C   UNL A   1      44.253  20.863  25.064  1.00  0.00     0.198 A 
ATOM     73  F   UNL A   1      44.434  23.165  25.212  1.00  0.00    -0.203 F 
ATOM     74  F   UNL A   1      41.967  18.559  26.611  1.00  0.00    -0.200 F 
ATOM     75  C   UNL A   1      43.628  19.678  25.381  1.00  0.00     0.200 A 
ATOM     76  F   UNL A   1      45.183  20.889  24.098  1.00  0.00    -0.200 F 
ATOM     77  F   UNL A   1      43.947  18.546  24.737  1.00  0.00    -0.200 F 
ENDBRANCH  53  67
BRANCH  54  78
ATOM     78  C   UNL A   1      42.383  30.753  31.176  1.00  0.00     0.064 A 
ATOM     79  C   UNL A   1      41.391  30.146  31.966  1.00  0.00     0.173 A 
ATOM     80  C   UNL A   1      42.611  32.123  31.347  1.00  0.00     0.173 A 
ATOM     81  F   UNL A   1      41.124  28.839  31.821  1.00  0.00    -0.203 F 
ATOM     82  C   UNL A   1      40.765  30.845  32.991  1.00  0.00     0.198 A 
ATOM     83  C   UNL A   1      41.964  32.826  32.361  1.00  0.00     0.198 A 
ATOM     84  F   UNL A   1      43.548  32.753  30.624  1.00  0.00    -0.203 F 
ATOM     85  F   UNL A   1      39.931  30.205  33.823  1.00  0.00    -0.200 F 
ATOM     86  C   UNL A   1      41.081  32.175  33.211  1.00  0.00     0.200 A 
ATOM     87  F   UNL A   1      42.278  34.109  32.586  1.00  0.00    -0.200 F 
ATOM     88  F   UNL A   1      40.579  32.813  34.278  1.00  0.00    -0.200 F 
ENDBRANCH  54  78
BRANCH  66  89
ATOM     89  C   UNL A   1      45.249  24.460  32.704  1.00  0.00     0.064 A 
ATOM     90  C   UNL A   1      44.376  23.426  33.088  1.00  0.00     0.173 A 
ATOM     91  C   UNL A   1      46.500  24.472  33.360  1.00  0.00     0.173 A 
ATOM     92  F   UNL A   1      43.227  23.204  32.436  1.00  0.00    -0.203 F 
ATOM     93  C   UNL A   1      44.682  22.545  34.128  1.00  0.00     0.198 A 
ATOM     94  C   UNL A   1      46.829  23.552  34.357  1.00  0.00     0.198 A 
ATOM     95  F   UNL A   1      47.447  25.366  33.040  1.00  0.00    -0.203 F 
ATOM     96  F   UNL A   1      43.785  21.622  34.502  1.00  0.00    -0.200 F 
ATOM     97  C   UNL A   1      45.909  22.607  34.762  1.00  0.00     0.200 A 
ATOM     98  F   UNL A   1      48.046  23.582  34.917  1.00  0.00    -0.200 F 
ATOM     99  F   UNL A   1      46.210  21.744  35.741  1.00  0.00    -0.200 F 
ENDBRANCH  66  89
ENDBRANCH  40  41
ENDBRANCH  32  35
ENDBRANCH  30  31
ENDBRANCH  29  30
ENDBRANCH  28  29
ENDBRANCH   3  28
TORSDOF 15
ENDMDL
MODEL 3
REMARK VINA RESULT:     -13.5      3.624      9.620
REMARK SMILES Cc1ccccc1NC(=O)c1ccccc1NC(=O)CCC(=O)NCCCNC(=O)c1ccc(-c2c3nc(c(-c4c(F)c(F)c(F)c(F)c4F)c4ccc([nH]4)c(-c4c(F)c(F)c(F)c(F)c4F)c4nc(c(-c5c(F)c(F)c(F)c(F)c5F)c5ccc2[nH]5)C=C4)C=C3)cc1
REMARK SMILES IDX 22 1 23 2 24 3 21 5 20 6 18 7 17 8 19 10 16 11 11 12 12 13
REMARK SMILES IDX 13 14 15 15 14 16 9 17 8 18 10 20 7 21 1 22 2 23 3 24 4 25
REMARK SMILES IDX 6 26 5 27 25 28 26 29 27 30 28 31 29 32 30 34 31 35 32 36
REMARK SMILES IDX 93 37 33 38 92 39 34 40 35 41 36 42 86 43 37 44 91 45 85 46
REMARK SMILES IDX 87 47 38 48 90 49 84 50 83 51 39 53 71 54 51 55 70 56 52 57
REMARK SMILES IDX 55 58 69 59 88 60 53 61 54 62 68 64 89 65 56 66 40 67 41 68
REMARK SMILES IDX 49 69 42 70 43 71 47 72 50 73 44 74 45 75 48 76 46 77 72 78
REMARK SMILES IDX 73 79 81 80 74 81 75 82 79 83 82 84 76 85 77 86 80 87 78 88
REMARK SMILES IDX 57 89 58 90 66 91 59 92 60 93 64 94 67 95 61 96 62 97 65 98
REMARK SMILES IDX 63 99
REMARK H PARENT 24 4 17 9 8 19 28 33 87 52 55 63
REMARK Flexibility Score: inf
ROOT
ATOM      1  C   UNL A   1      31.688  27.024  24.138  1.00  0.00     0.220 C 
ATOM      2  O   UNL A   1      30.536  27.355  23.852  1.00  0.00    -0.275 OA
ATOM      3  N   UNL A   1      32.492  27.934  24.770  1.00  0.00    -0.356 N 
ATOM      4  H   UNL A   1      32.169  28.864  24.757  1.00  0.00     0.163 HD
ENDROOT
BRANCH   1   5
ATOM      5  C   UNL A   1      32.203  25.649  23.751  1.00  0.00     0.110 C 
BRANCH   5   6
ATOM      6  C   UNL A   1      31.615  24.515  24.584  1.00  0.00     0.110 C 
BRANCH   6   7
ATOM      7  C   UNL A   1      32.222  24.465  25.957  1.00  0.00     0.224 C 
ATOM      8  N   UNL A   1      33.470  24.000  26.209  1.00  0.00    -0.325 N 
ATOM      9  H   UNL A   1      33.743  24.178  27.138  1.00  0.00     0.169 HD
ATOM     10  O   UNL A   1      31.624  25.004  26.896  1.00  0.00    -0.275 OA
BRANCH   8  11
ATOM     11  C   UNL A   1      34.474  23.329  25.490  1.00  0.00     0.054 A 
ATOM     12  C   UNL A   1      34.631  21.933  25.641  1.00  0.00     0.063 A 
ATOM     13  C   UNL A   1      35.790  21.310  25.119  1.00  0.00     0.016 A 
ATOM     14  C   UNL A   1      36.752  22.033  24.421  1.00  0.00     0.001 A 
ATOM     15  C   UNL A   1      35.385  24.006  24.669  1.00  0.00     0.027 A 
ATOM     16  C   UNL A   1      36.531  23.376  24.169  1.00  0.00     0.002 A 
BRANCH  12  17
ATOM     17  C   UNL A   1      33.863  21.071  26.573  1.00  0.00     0.257 C 
ATOM     18  N   UNL A   1      33.127  19.948  26.279  1.00  0.00    -0.322 N 
ATOM     19  H   UNL A   1      32.533  19.706  27.026  1.00  0.00     0.170 HD
ATOM     20  O   UNL A   1      33.768  21.483  27.736  1.00  0.00    -0.269 OA
BRANCH  18  21
ATOM     21  C   UNL A   1      32.990  19.052  25.209  1.00  0.00     0.044 A 
ATOM     22  C   UNL A   1      32.151  20.975  23.669  1.00  0.00     0.046 C 
ATOM     23  C   UNL A   1      32.553  19.551  23.955  1.00  0.00    -0.027 A 
ATOM     24  C   UNL A   1      32.555  18.697  22.841  1.00  0.00     0.005 A 
ATOM     25  C   UNL A   1      32.956  17.372  22.962  1.00  0.00     0.000 A 
ATOM     26  C   UNL A   1      33.344  17.708  25.329  1.00  0.00     0.026 A 
ATOM     27  C   UNL A   1      33.331  16.874  24.207  1.00  0.00     0.002 A 
ENDBRANCH  18  21
ENDBRANCH  12  17
ENDBRANCH   8  11
ENDBRANCH   6   7
ENDBRANCH   5   6
ENDBRANCH   1   5
BRANCH   3  28
ATOM     28  C   UNL A   1      33.758  27.723  25.458  1.00  0.00     0.117 C 
BRANCH  28  29
ATOM     29  C   UNL A   1      33.841  28.308  26.872  1.00  0.00     0.042 C 
BRANCH  29  30
ATOM     30  C   UNL A   1      34.793  29.503  27.078  1.00  0.00     0.118 C 
BRANCH  30  31
ATOM     31  N   UNL A   1      34.040  30.755  27.283  1.00  0.00    -0.352 N 
ATOM     32  C   UNL A   1      34.324  31.900  28.001  1.00  0.00     0.251 C 
ATOM     33  H   UNL A   1      33.172  30.780  26.820  1.00  0.00     0.163 HD
ATOM     34  O   UNL A   1      33.590  32.881  27.937  1.00  0.00    -0.269 OA
BRANCH  32  35
ATOM     35  C   UNL A   1      35.534  31.952  28.834  1.00  0.00     0.039 A 
ATOM     36  C   UNL A   1      36.472  32.958  28.616  1.00  0.00     0.014 A 
ATOM     37  C   UNL A   1      35.795  30.927  29.733  1.00  0.00     0.014 A 
ATOM     38  C   UNL A   1      37.779  32.769  29.061  1.00  0.00     0.010 A 
ATOM     39  C   UNL A   1      37.102  30.717  30.145  1.00  0.00     0.010 A 
ATOM     40  C   UNL A   1      38.116  31.573  29.703  1.00  0.00    -0.014 A 
BRANCH  40  41
ATOM     41  C   UNL A   1      39.481  31.037  29.652  1.00  0.00     0.031 A 
ATOM     42  C   UNL A   1      39.845  29.786  28.960  1.00  0.00     0.074 A 
ATOM     43  C   UNL A   1      40.482  31.763  30.204  1.00  0.00     0.049 A 
ATOM     44  N   UNL A   1      40.792  28.998  29.355  1.00  0.00    -0.248 NA
ATOM     45  C   UNL A   1      39.173  29.322  27.760  1.00  0.00     0.031 C 
ATOM     46  C   UNL A   1      41.920  31.548  30.056  1.00  0.00     0.029 A 
ATOM     47  N   UNL A   1      40.384  32.819  31.128  1.00  0.00    -0.354 N 
ATOM     48  C   UNL A   1      41.049  28.100  28.340  1.00  0.00     0.074 A 
ATOM     49  C   UNL A   1      39.955  28.293  27.412  1.00  0.00     0.031 C 
ATOM     50  C   UNL A   1      42.561  32.205  31.035  1.00  0.00     0.029 A 
ATOM     51  C   UNL A   1      41.557  32.766  31.917  1.00  0.00     0.049 A 
ATOM     52  H   UNL A   1      39.647  33.466  31.210  1.00  0.00     0.167 HD
ATOM     53  C   UNL A   1      42.226  27.399  28.339  1.00  0.00     0.037 A 
ATOM     54  C   UNL A   1      41.506  32.580  33.269  1.00  0.00     0.037 A 
ATOM     55  C   UNL A   1      43.066  27.761  29.489  1.00  0.00     0.049 A 
ATOM     56  C   UNL A   1      42.173  31.317  33.755  1.00  0.00     0.074 A 
ATOM     57  C   UNL A   1      44.195  28.557  29.604  1.00  0.00     0.029 A 
ATOM     58  N   UNL A   1      42.645  27.491  30.789  1.00  0.00    -0.354 N 
ATOM     59  N   UNL A   1      42.618  30.378  32.971  1.00  0.00    -0.248 NA
ATOM     60  C   UNL A   1      42.294  30.967  35.170  1.00  0.00     0.031 C 
ATOM     61  C   UNL A   1      44.440  28.784  30.980  1.00  0.00     0.029 A 
ATOM     62  C   UNL A   1      43.458  28.133  31.707  1.00  0.00     0.049 A 
ATOM     63  H   UNL A   1      41.877  26.922  31.023  1.00  0.00     0.167 HD
ATOM     64  C   UNL A   1      42.922  29.273  33.722  1.00  0.00     0.074 A 
ATOM     65  C   UNL A   1      42.780  29.717  35.094  1.00  0.00     0.031 C 
ATOM     66  C   UNL A   1      43.192  28.067  33.138  1.00  0.00     0.037 A 
BRANCH  53  67
ATOM     67  C   UNL A   1      42.784  26.594  27.167  1.00  0.00     0.064 A 
ATOM     68  C   UNL A   1      42.295  25.297  26.875  1.00  0.00     0.173 A 
ATOM     69  C   UNL A   1      43.819  27.015  26.313  1.00  0.00     0.173 A 
ATOM     70  F   UNL A   1      41.210  24.799  27.482  1.00  0.00    -0.203 F 
ATOM     71  C   UNL A   1      42.885  24.455  25.923  1.00  0.00     0.198 A 
ATOM     72  C   UNL A   1      44.444  26.160  25.395  1.00  0.00     0.198 A 
ATOM     73  F   UNL A   1      44.214  28.290  26.267  1.00  0.00    -0.203 F 
ATOM     74  F   UNL A   1      42.378  23.234  25.708  1.00  0.00    -0.200 F 
ATOM     75  C   UNL A   1      43.988  24.873  25.212  1.00  0.00     0.200 A 
ATOM     76  F   UNL A   1      45.485  26.606  24.677  1.00  0.00    -0.200 F 
ATOM     77  F   UNL A   1      44.579  24.059  24.327  1.00  0.00    -0.200 F 
ENDBRANCH  53  67
BRANCH  54  78
ATOM     78  C   UNL A   1      40.292  33.163  33.889  1.00  0.00     0.064 A 
ATOM     79  C   UNL A   1      39.220  32.301  34.181  1.00  0.00     0.173 A 
ATOM     80  C   UNL A   1      40.330  34.404  34.533  1.00  0.00     0.173 A 
ATOM     81  F   UNL A   1      39.131  31.109  33.571  1.00  0.00    -0.203 F 
ATOM     82  C   UNL A   1      38.312  32.604  35.189  1.00  0.00     0.198 A 
ATOM     83  C   UNL A   1      39.403  34.714  35.527  1.00  0.00     0.198 A 
ATOM     84  F   UNL A   1      41.332  35.263  34.297  1.00  0.00    -0.203 F 
ATOM     85  F   UNL A   1      37.387  31.702  35.547  1.00  0.00    -0.200 F 
ATOM     86  C   UNL A   1      38.429  33.794  35.886  1.00  0.00     0.200 A 
ATOM     87  F   UNL A   1      39.523  35.859  36.214  1.00  0.00    -0.200 F 
ATOM     88  F   UNL A   1      37.639  34.029  36.944  1.00  0.00    -0.200 F 
ENDBRANCH  54  78
BRANCH  66  89
ATOM     89  C   UNL A   1      43.312  26.757  33.876  1.00  0.00     0.064 A 
ATOM     90  C   UNL A   1      42.248  26.135  34.554  1.00  0.00     0.173 A 
ATOM     91  C   UNL A   1      44.518  26.023  33.841  1.00  0.00     0.173 A 
ATOM     92  F   UNL A   1      41.009  26.647  34.527  1.00  0.00    -0.203 F 
ATOM     93  C   UNL A   1      42.409  24.930  35.242  1.00  0.00     0.198 A 
ATOM     94  C   UNL A   1      44.661  24.789  34.477  1.00  0.00     0.198 A 
ATOM     95  F   UNL A   1      45.590  26.474  33.172  1.00  0.00    -0.203 F 
ATOM     96  F   UNL A   1      41.380  24.416  35.931  1.00  0.00    -0.200 F 
ATOM     97  C   UNL A   1      43.615  24.256  35.203  1.00  0.00     0.200 A 
ATOM     98  F   UNL A   1      45.815  24.115  34.375  1.00  0.00    -0.200 F 
ATOM     99  F   UNL A   1      43.759  23.088  35.841  1.00  0.00    -0.200 F 
ENDBRANCH  66  89
ENDBRANCH  40  41
ENDBRANCH  32  35
ENDBRANCH  30  31
ENDBRANCH  29  30
ENDBRANCH  28  29
ENDBRANCH   3  28
TORSDOF 15
ENDMDL
