MODEL 1
REMARK VINA RESULT:     -12.4      0.000      0.000
REMARK SMILES CSc1nc(N)cc(Nc2cccc(C(=O)NCCCNC(=O)c3ccc(-c4c5nc(c(-c6c(F)c(F)c(F)c(F)c6F)c6ccc([nH]6)c(-c6c(F)c(F)c(F)c(F)c6F)c6nc(c(-c7c(F)c(F)c(F)c(F)c7F)c7ccc4[nH]7)C=C6)C=C5)cc3)c2)n1
REMARK SMILES IDX 18 1 17 2 15 3 16 4 14 6 10 7 11 8 87 9 12 10 13 11 9 12
REMARK SMILES IDX 8 14 3 15 4 16 88 17 5 18 7 19 2 20 1 21 6 22 19 25 20 26
REMARK SMILES IDX 21 27 22 28 23 30 24 31 25 32 86 33 26 34 85 35 27 36 28 37
REMARK SMILES IDX 29 38 79 39 30 40 84 41 78 42 80 43 31 44 83 45 77 46 76 47
REMARK SMILES IDX 32 49 64 50 44 51 63 52 45 53 48 54 62 55 81 56 46 57 47 58
REMARK SMILES IDX 61 60 82 61 49 62 33 63 34 64 42 65 35 66 36 67 40 68 43 69
REMARK SMILES IDX 37 70 38 71 41 72 39 73 65 74 66 75 74 76 67 77 68 78 72 79
REMARK SMILES IDX 75 80 69 81 70 82 73 83 71 84 50 85 51 86 59 87 52 88 53 89
REMARK SMILES IDX 57 90 60 91 54 92 55 93 58 94 56 95
REMARK H PARENT 17 5 9 13 6 23 6 24 21 29 80 48 48 59
REMARK Flexibility Score: inf
ROOT
ATOM      1  C   UNL A   1      31.374  30.923  26.298  1.00  0.00     0.118 C 
ENDROOT
BRANCH   1   2
ATOM      2  N   UNL A   1      32.500  30.242  26.927  1.00  0.00    -0.352 N 
ATOM      3  C   UNL A   1      33.265  29.142  26.607  1.00  0.00     0.251 C 
ATOM      4  O   UNL A   1      34.127  28.803  27.421  1.00  0.00    -0.269 OA
ATOM      5  H   UNL A   1      32.777  30.664  27.772  1.00  0.00     0.163 HD
BRANCH   3   6
ATOM      6  C   UNL A   1      33.083  28.318  25.379  1.00  0.00     0.041 A 
ATOM      7  C   UNL A   1      32.089  27.924  23.173  1.00  0.00     0.040 A 
ATOM      8  C   UNL A   1      32.668  26.652  23.158  1.00  0.00     0.026 A 
ATOM      9  C   UNL A   1      32.384  28.759  24.260  1.00  0.00     0.040 A 
ATOM     10  C   UNL A   1      33.493  26.234  24.208  1.00  0.00     0.003 A 
ATOM     11  C   UNL A   1      33.681  27.055  25.322  1.00  0.00     0.014 A 
BRANCH   7  12
ATOM     12  N   UNL A   1      31.220  28.324  22.138  1.00  0.00    -0.340 N 
ATOM     13  H   UNL A   1      31.582  28.246  21.225  1.00  0.00     0.168 HD
BRANCH  12  14
ATOM     14  C   UNL A   1      29.903  28.819  22.226  1.00  0.00     0.137 A 
ATOM     15  C   UNL A   1      28.402  30.534  21.942  1.00  0.00     0.191 A 
ATOM     16  N   UNL A   1      27.407  29.886  22.558  1.00  0.00    -0.206 NA
ATOM     17  N   UNL A   1      29.627  30.039  21.752  1.00  0.00    -0.205 NA
ATOM     18  C   UNL A   1      27.689  28.659  23.003  1.00  0.00     0.130 A 
ATOM     19  C   UNL A   1      28.938  28.085  22.881  1.00  0.00     0.093 A 
BRANCH  15  20
ATOM     20  S   UNL A   1      28.177  32.215  21.418  1.00  0.00    -0.090 SA
ATOM     21  C   UNL A   1      28.890  33.084  22.828  1.00  0.00     0.094 C 
ENDBRANCH  15  20
BRANCH  18  22
ATOM     22  N   UNL A   1      26.676  28.008  23.683  1.00  0.00    -0.383 N 
ATOM     23  H   UNL A   1      25.735  28.193  23.460  1.00  0.00     0.158 HD
ATOM     24  H   UNL A   1      26.895  27.359  24.391  1.00  0.00     0.158 HD
ENDBRANCH  18  22
ENDBRANCH  12  14
ENDBRANCH   7  12
ENDBRANCH   3   6
ENDBRANCH   1   2
BRANCH   1  25
ATOM     25  C   UNL A   1      31.339  32.421  26.567  1.00  0.00     0.042 C 
BRANCH  25  26
ATOM     26  C   UNL A   1      32.653  33.007  27.064  1.00  0.00     0.118 C 
BRANCH  26  27
ATOM     27  N   UNL A   1      32.497  34.330  27.654  1.00  0.00    -0.352 N 
ATOM     28  C   UNL A   1      33.084  34.930  28.740  1.00  0.00     0.251 C 
ATOM     29  H   UNL A   1      31.849  34.903  27.185  1.00  0.00     0.163 HD
ATOM     30  O   UNL A   1      32.628  35.995  29.149  1.00  0.00    -0.269 OA
BRANCH  28  31
ATOM     31  C   UNL A   1      34.243  34.328  29.440  1.00  0.00     0.039 A 
ATOM     32  C   UNL A   1      34.002  33.534  30.569  1.00  0.00     0.014 A 
ATOM     33  C   UNL A   1      35.560  34.591  29.062  1.00  0.00     0.014 A 
ATOM     34  C   UNL A   1      35.068  32.968  31.273  1.00  0.00     0.010 A 
ATOM     35  C   UNL A   1      36.619  33.952  29.704  1.00  0.00     0.010 A 
ATOM     36  C   UNL A   1      36.387  33.144  30.827  1.00  0.00    -0.014 A 
BRANCH  36  37
ATOM     37  C   UNL A   1      37.529  32.506  31.531  1.00  0.00     0.031 A 
ATOM     38  C   UNL A   1      38.270  31.357  30.899  1.00  0.00     0.074 A 
ATOM     39  C   UNL A   1      37.863  32.923  32.767  1.00  0.00     0.049 A 
ATOM     40  N   UNL A   1      39.254  30.641  31.381  1.00  0.00    -0.248 NA
ATOM     41  C   UNL A   1      37.825  30.937  29.561  1.00  0.00     0.031 C 
ATOM     42  C   UNL A   1      37.185  33.985  33.513  1.00  0.00     0.029 A 
ATOM     43  N   UNL A   1      38.853  32.501  33.619  1.00  0.00    -0.354 N 
ATOM     44  C   UNL A   1      39.528  29.677  30.419  1.00  0.00     0.074 A 
ATOM     45  C   UNL A   1      38.575  29.867  29.348  1.00  0.00     0.031 C 
ATOM     46  C   UNL A   1      37.794  34.149  34.697  1.00  0.00     0.029 A 
ATOM     47  C   UNL A   1      38.885  33.185  34.809  1.00  0.00     0.049 A 
ATOM     48  H   UNL A   1      39.482  31.776  33.397  1.00  0.00     0.167 HD
ATOM     49  C   UNL A   1      40.502  28.735  30.418  1.00  0.00     0.037 A 
ATOM     50  C   UNL A   1      39.702  33.051  35.870  1.00  0.00     0.037 A 
ATOM     51  C   UNL A   1      41.475  28.575  31.466  1.00  0.00     0.049 A 
ATOM     52  C   UNL A   1      40.798  32.024  35.826  1.00  0.00     0.074 A 
ATOM     53  C   UNL A   1      42.545  27.698  31.525  1.00  0.00     0.029 A 
ATOM     54  N   UNL A   1      41.498  29.313  32.639  1.00  0.00    -0.354 N 
ATOM     55  N   UNL A   1      41.091  31.166  34.879  1.00  0.00    -0.248 NA
ATOM     56  C   UNL A   1      41.686  31.954  36.996  1.00  0.00     0.031 C 
ATOM     57  C   UNL A   1      43.194  27.882  32.752  1.00  0.00     0.029 A 
ATOM     58  C   UNL A   1      42.555  28.903  33.437  1.00  0.00     0.049 A 
ATOM     59  H   UNL A   1      40.858  30.024  32.871  1.00  0.00     0.167 HD
ATOM     60  C   UNL A   1      42.206  30.470  35.326  1.00  0.00     0.074 A 
ATOM     61  C   UNL A   1      42.551  31.021  36.621  1.00  0.00     0.031 C 
ATOM     62  C   UNL A   1      42.883  29.463  34.722  1.00  0.00     0.037 A 
BRANCH  49  63
ATOM     63  C   UNL A   1      40.571  27.808  29.238  1.00  0.00     0.064 A 
ATOM     64  C   UNL A   1      39.729  26.691  29.131  1.00  0.00     0.173 A 
ATOM     65  C   UNL A   1      41.462  28.061  28.184  1.00  0.00     0.173 A 
ATOM     66  F   UNL A   1      38.867  26.398  30.115  1.00  0.00    -0.203 F 
ATOM     67  C   UNL A   1      39.796  25.845  28.026  1.00  0.00     0.198 A 
ATOM     68  C   UNL A   1      41.506  27.230  27.067  1.00  0.00     0.198 A 
ATOM     69  F   UNL A   1      42.285  29.119  28.232  1.00  0.00    -0.203 F 
ATOM     70  F   UNL A   1      39.014  24.759  27.968  1.00  0.00    -0.200 F 
ATOM     71  C   UNL A   1      40.679  26.119  26.992  1.00  0.00     0.200 A 
ATOM     72  F   UNL A   1      42.351  27.502  26.063  1.00  0.00    -0.200 F 
ATOM     73  F   UNL A   1      40.736  25.310  25.927  1.00  0.00    -0.200 F 
ENDBRANCH  49  63
BRANCH  50  74
ATOM     74  C   UNL A   1      39.537  33.941  37.049  1.00  0.00     0.064 A 
ATOM     75  C   UNL A   1      38.784  33.530  38.158  1.00  0.00     0.173 A 
ATOM     76  C   UNL A   1      40.125  35.212  37.093  1.00  0.00     0.173 A 
ATOM     77  F   UNL A   1      38.186  32.329  38.154  1.00  0.00    -0.203 F 
ATOM     78  C   UNL A   1      38.609  34.366  39.259  1.00  0.00     0.198 A 
ATOM     79  C   UNL A   1      39.971  36.036  38.206  1.00  0.00     0.198 A 
ATOM     80  F   UNL A   1      40.859  35.649  36.060  1.00  0.00    -0.203 F 
ATOM     81  F   UNL A   1      37.849  33.965  40.287  1.00  0.00    -0.200 F 
ATOM     82  C   UNL A   1      39.207  35.616  39.284  1.00  0.00     0.200 A 
ATOM     83  F   UNL A   1      40.563  37.239  38.233  1.00  0.00    -0.200 F 
ATOM     84  F   UNL A   1      39.044  36.418  40.345  1.00  0.00    -0.200 F 
ENDBRANCH  50  74
BRANCH  62  85
ATOM     85  C   UNL A   1      44.076  28.913  35.444  1.00  0.00     0.064 A 
ATOM     86  C   UNL A   1      45.361  29.439  35.245  1.00  0.00     0.173 A 
ATOM     87  C   UNL A   1      43.931  27.861  36.360  1.00  0.00     0.173 A 
ATOM     88  F   UNL A   1      45.554  30.435  34.366  1.00  0.00    -0.203 F 
ATOM     89  C   UNL A   1      46.461  28.912  35.916  1.00  0.00     0.198 A 
ATOM     90  C   UNL A   1      45.028  27.355  37.051  1.00  0.00     0.198 A 
ATOM     91  F   UNL A   1      42.721  27.327  36.590  1.00  0.00    -0.203 F 
ATOM     92  F   UNL A   1      47.686  29.396  35.671  1.00  0.00    -0.200 F 
ATOM     93  C   UNL A   1      46.293  27.875  36.821  1.00  0.00     0.200 A 
ATOM     94  F   UNL A   1      44.863  26.361  37.934  1.00  0.00    -0.200 F 
ATOM     95  F   UNL A   1      47.353  27.370  37.467  1.00  0.00    -0.200 F 
ENDBRANCH  62  85
ENDBRANCH  36  37
ENDBRANCH  28  31
ENDBRANCH  26  27
ENDBRANCH  25  26
ENDBRANCH   1  25
TORSDOF 14
ENDMDL
MODEL 2
REMARK VINA RESULT:     -12.4      0.976      7.425
REMARK SMILES CSc1nc(N)cc(Nc2cccc(C(=O)NCCCNC(=O)c3ccc(-c4c5nc(c(-c6c(F)c(F)c(F)c(F)c6F)c6ccc([nH]6)c(-c6c(F)c(F)c(F)c(F)c6F)c6nc(c(-c7c(F)c(F)c(F)c(F)c7F)c7ccc4[nH]7)C=C6)C=C5)cc3)c2)n1
REMARK SMILES IDX 18 1 17 2 15 3 16 4 14 6 10 7 11 8 87 9 12 10 13 11 9 12
REMARK SMILES IDX 8 14 3 15 4 16 88 17 5 18 7 19 2 20 1 21 6 22 19 25 20 26
REMARK SMILES IDX 21 27 22 28 23 30 24 31 25 32 86 33 26 34 85 35 27 36 28 37
REMARK SMILES IDX 29 38 79 39 30 40 84 41 78 42 80 43 31 44 83 45 77 46 76 47
REMARK SMILES IDX 32 49 64 50 44 51 63 52 45 53 48 54 62 55 81 56 46 57 47 58
REMARK SMILES IDX 61 60 82 61 49 62 33 63 34 64 42 65 35 66 36 67 40 68 43 69
REMARK SMILES IDX 37 70 38 71 41 72 39 73 65 74 66 75 74 76 67 77 68 78 72 79
REMARK SMILES IDX 75 80 69 81 70 82 73 83 71 84 50 85 51 86 59 87 52 88 53 89
REMARK SMILES IDX 57 90 60 91 54 92 55 93 58 94 56 95
REMARK H PARENT 17 5 9 13 6 23 6 24 21 29 80 48 48 59
REMARK Flexibility Score: inf
ROOT
ATOM      1  C   UNL A   1      31.748  30.729  26.797  1.00  0.00     0.118 C 
ENDROOT
BRANCH   1   2
ATOM      2  N   UNL A   1      33.098  30.281  27.119  1.00  0.00    -0.352 N 
ATOM      3  C   UNL A   1      33.940  29.312  26.619  1.00  0.00     0.251 C 
ATOM      4  O   UNL A   1      35.024  29.165  27.187  1.00  0.00    -0.269 OA
ATOM      5  H   UNL A   1      33.499  30.786  27.863  1.00  0.00     0.163 HD
BRANCH   3   6
ATOM      6  C   UNL A   1      33.603  28.409  25.483  1.00  0.00     0.041 A 
ATOM      7  C   UNL A   1      32.515  27.962  23.332  1.00  0.00     0.040 A 
ATOM      8  C   UNL A   1      32.881  26.618  23.446  1.00  0.00     0.026 A 
ATOM      9  C   UNL A   1      32.962  28.843  24.326  1.00  0.00     0.040 A 
ATOM     10  C   UNL A   1      33.648  26.179  24.531  1.00  0.00     0.003 A 
ATOM     11  C   UNL A   1      33.988  27.067  25.554  1.00  0.00     0.014 A 
BRANCH   7  12
ATOM     12  N   UNL A   1      31.702  28.390  22.264  1.00  0.00    -0.340 N 
ATOM     13  H   UNL A   1      32.152  28.464  21.391  1.00  0.00     0.168 HD
BRANCH  12  14
ATOM     14  C   UNL A   1      30.334  28.729  22.271  1.00  0.00     0.137 A 
ATOM     15  C   UNL A   1      28.657  30.235  21.830  1.00  0.00     0.191 A 
ATOM     16  N   UNL A   1      27.717  29.506  22.441  1.00  0.00    -0.206 NA
ATOM     17  N   UNL A   1      29.938  29.881  21.717  1.00  0.00    -0.205 NA
ATOM     18  C   UNL A   1      28.120  28.345  22.966  1.00  0.00     0.130 A 
ATOM     19  C   UNL A   1      29.431  27.920  22.927  1.00  0.00     0.093 A 
BRANCH  15  20
ATOM     20  S   UNL A   1      28.261  31.848  21.202  1.00  0.00    -0.090 SA
ATOM     21  C   UNL A   1      28.738  32.862  22.614  1.00  0.00     0.094 C 
ENDBRANCH  15  20
BRANCH  18  22
ATOM     22  N   UNL A   1      27.159  27.614  23.640  1.00  0.00    -0.383 N 
ATOM     23  H   UNL A   1      27.187  26.630  23.622  1.00  0.00     0.158 HD
ATOM     24  H   UNL A   1      26.447  28.077  24.139  1.00  0.00     0.158 HD
ENDBRANCH  18  22
ENDBRANCH  12  14
ENDBRANCH   7  12
ENDBRANCH   3   6
ENDBRANCH   1   2
BRANCH   1  25
ATOM     25  C   UNL A   1      31.543  32.227  26.976  1.00  0.00     0.042 C 
BRANCH  25  26
ATOM     26  C   UNL A   1      32.826  33.045  26.991  1.00  0.00     0.118 C 
BRANCH  26  27
ATOM     27  N   UNL A   1      32.713  34.263  27.786  1.00  0.00    -0.352 N 
ATOM     28  C   UNL A   1      33.327  34.667  28.945  1.00  0.00     0.251 C 
ATOM     29  H   UNL A   1      32.078  34.920  27.421  1.00  0.00     0.163 HD
ATOM     30  O   UNL A   1      32.905  35.665  29.522  1.00  0.00    -0.269 OA
BRANCH  28  31
ATOM     31  C   UNL A   1      34.474  33.930  29.526  1.00  0.00     0.039 A 
ATOM     32  C   UNL A   1      35.769  34.385  29.245  1.00  0.00     0.014 A 
ATOM     33  C   UNL A   1      34.309  32.761  30.269  1.00  0.00     0.014 A 
ATOM     34  C   UNL A   1      36.880  33.706  29.752  1.00  0.00     0.010 A 
ATOM     35  C   UNL A   1      35.410  32.136  30.853  1.00  0.00     0.010 A 
ATOM     36  C   UNL A   1      36.709  32.593  30.590  1.00  0.00    -0.014 A 
BRANCH  36  37
ATOM     37  C   UNL A   1      37.877  31.889  31.182  1.00  0.00     0.031 A 
ATOM     38  C   UNL A   1      38.346  32.226  32.572  1.00  0.00     0.074 A 
ATOM     39  C   UNL A   1      38.551  30.987  30.444  1.00  0.00     0.049 A 
ATOM     40  N   UNL A   1      39.373  31.758  33.236  1.00  0.00    -0.248 NA
ATOM     41  C   UNL A   1      37.577  33.245  33.303  1.00  0.00     0.031 C 
ATOM     42  C   UNL A   1      38.234  30.617  29.063  1.00  0.00     0.029 A 
ATOM     43  N   UNL A   1      39.648  30.219  30.749  1.00  0.00    -0.354 N 
ATOM     44  C   UNL A   1      39.386  32.441  34.445  1.00  0.00     0.074 A 
ATOM     45  C   UNL A   1      38.296  33.390  34.407  1.00  0.00     0.031 C 
ATOM     46  C   UNL A   1      39.099  29.677  28.650  1.00  0.00     0.029 A 
ATOM     47  C   UNL A   1      40.049  29.399  29.723  1.00  0.00     0.049 A 
ATOM     48  H   UNL A   1      40.104  30.255  31.621  1.00  0.00     0.167 HD
ATOM     49  C   UNL A   1      40.217  32.275  35.503  1.00  0.00     0.037 A 
ATOM     50  C   UNL A   1      41.067  28.522  29.655  1.00  0.00     0.037 A 
ATOM     51  C   UNL A   1      41.277  31.302  35.555  1.00  0.00     0.049 A 
ATOM     52  C   UNL A   1      41.950  28.329  30.857  1.00  0.00     0.074 A 
ATOM     53  C   UNL A   1      42.127  31.006  36.607  1.00  0.00     0.029 A 
ATOM     54  N   UNL A   1      41.627  30.462  34.509  1.00  0.00    -0.354 N 
ATOM     55  N   UNL A   1      41.907  28.931  32.021  1.00  0.00    -0.248 NA
ATOM     56  C   UNL A   1      43.018  27.326  30.738  1.00  0.00     0.031 C 
ATOM     57  C   UNL A   1      43.016  30.011  36.184  1.00  0.00     0.029 A 
ATOM     58  C   UNL A   1      42.691  29.656  34.885  1.00  0.00     0.049 A 
ATOM     59  H   UNL A   1      41.185  30.440  33.630  1.00  0.00     0.167 HD
ATOM     60  C   UNL A   1      42.923  28.367  32.780  1.00  0.00     0.074 A 
ATOM     61  C   UNL A   1      43.553  27.359  31.951  1.00  0.00     0.031 C 
ATOM     62  C   UNL A   1      43.304  28.658  34.047  1.00  0.00     0.037 A 
BRANCH  49  63
ATOM     63  C   UNL A   1      40.007  33.160  36.698  1.00  0.00     0.064 A 
ATOM     64  C   UNL A   1      40.768  34.322  36.895  1.00  0.00     0.173 A 
ATOM     65  C   UNL A   1      39.007  32.863  37.637  1.00  0.00     0.173 A 
ATOM     66  F   UNL A   1      41.744  34.644  36.034  1.00  0.00    -0.203 F 
ATOM     67  C   UNL A   1      40.556  35.139  38.002  1.00  0.00     0.198 A 
ATOM     68  C   UNL A   1      38.778  33.699  38.728  1.00  0.00     0.198 A 
ATOM     69  F   UNL A   1      38.246  31.769  37.493  1.00  0.00    -0.203 F 
ATOM     70  F   UNL A   1      41.327  36.219  38.194  1.00  0.00    -0.200 F 
ATOM     71  C   UNL A   1      39.556  34.831  38.914  1.00  0.00     0.200 A 
ATOM     72  F   UNL A   1      37.803  33.408  39.601  1.00  0.00    -0.200 F 
ATOM     73  F   UNL A   1      39.348  35.624  39.973  1.00  0.00    -0.200 F 
ENDBRANCH  49  63
BRANCH  50  74
ATOM     74  C   UNL A   1      41.282  27.730  28.416  1.00  0.00     0.064 A 
ATOM     75  C   UNL A   1      40.572  26.542  28.192  1.00  0.00     0.173 A 
ATOM     76  C   UNL A   1      42.194  28.141  27.435  1.00  0.00     0.173 A 
ATOM     77  F   UNL A   1      39.701  26.099  29.112  1.00  0.00    -0.203 F 
ATOM     78  C   UNL A   1      40.781  25.784  27.042  1.00  0.00     0.198 A 
ATOM     79  C   UNL A   1      42.383  27.396  26.273  1.00  0.00     0.198 A 
ATOM     80  F   UNL A   1      42.893  29.273  27.600  1.00  0.00    -0.203 F 
ATOM     81  F   UNL A   1      40.121  24.630  26.874  1.00  0.00    -0.200 F 
ATOM     82  C   UNL A   1      41.683  26.215  26.081  1.00  0.00     0.200 A 
ATOM     83  F   UNL A   1      43.245  27.823  25.339  1.00  0.00    -0.200 F 
ATOM     84  F   UNL A   1      41.881  25.489  24.972  1.00  0.00    -0.200 F 
ENDBRANCH  50  74
BRANCH  62  85
ATOM     85  C   UNL A   1      44.436  27.860  34.620  1.00  0.00     0.064 A 
ATOM     86  C   UNL A   1      45.765  28.301  34.529  1.00  0.00     0.173 A 
ATOM     87  C   UNL A   1      44.189  26.650  35.287  1.00  0.00     0.173 A 
ATOM     88  F   UNL A   1      46.053  29.443  33.887  1.00  0.00    -0.203 F 
ATOM     89  C   UNL A   1      46.807  27.546  35.059  1.00  0.00     0.198 A 
ATOM     90  C   UNL A   1      45.231  25.911  35.840  1.00  0.00     0.198 A 
ATOM     91  F   UNL A   1      42.935  26.188  35.405  1.00  0.00    -0.203 F 
ATOM     92  F   UNL A   1      48.073  27.960  34.913  1.00  0.00    -0.200 F 
ATOM     93  C   UNL A   1      46.538  26.355  35.717  1.00  0.00     0.200 A 
ATOM     94  F   UNL A   1      44.969  24.767  36.486  1.00  0.00    -0.200 F 
ATOM     95  F   UNL A   1      47.543  25.629  36.227  1.00  0.00    -0.200 F 
ENDBRANCH  62  85
ENDBRANCH  36  37
ENDBRANCH  28  31
ENDBRANCH  26  27
ENDBRANCH  25  26
ENDBRANCH   1  25
TORSDOF 14
ENDMDL
MODEL 3
REMARK VINA RESULT:     -12.3      6.963     12.050
REMARK SMILES CSc1nc(N)cc(Nc2cccc(C(=O)NCCCNC(=O)c3ccc(-c4c5nc(c(-c6c(F)c(F)c(F)c(F)c6F)c6ccc([nH]6)c(-c6c(F)c(F)c(F)c(F)c6F)c6nc(c(-c7c(F)c(F)c(F)c(F)c7F)c7ccc4[nH]7)C=C6)C=C5)cc3)c2)n1
REMARK SMILES IDX 18 1 17 2 15 3 16 4 14 6 10 7 11 8 87 9 12 10 13 11 9 12
REMARK SMILES IDX 8 14 3 15 4 16 88 17 5 18 7 19 2 20 1 21 6 22 19 25 20 26
REMARK SMILES IDX 21 27 22 28 23 30 24 31 25 32 86 33 26 34 85 35 27 36 28 37
REMARK SMILES IDX 29 38 79 39 30 40 84 41 78 42 80 43 31 44 83 45 77 46 76 47
REMARK SMILES IDX 32 49 64 50 44 51 63 52 45 53 48 54 62 55 81 56 46 57 47 58
REMARK SMILES IDX 61 60 82 61 49 62 33 63 34 64 42 65 35 66 36 67 40 68 43 69
REMARK SMILES IDX 37 70 38 71 41 72 39 73 65 74 66 75 74 76 67 77 68 78 72 79
REMARK SMILES IDX 75 80 69 81 70 82 73 83 71 84 50 85 51 86 59 87 52 88 53 89
REMARK SMILES IDX 57 90 60 91 54 92 55 93 58 94 56 95
REMARK H PARENT 17 5 9 13 6 23 6 24 21 29 80 48 48 59
REMARK Flexibility Score: inf
ROOT
ATOM      1  C   UNL A   1      37.522  20.492  24.615  1.00  0.00     0.118 C 
ENDROOT
BRANCH   1   2
ATOM      2  N   UNL A   1      37.905  21.758  25.229  1.00  0.00    -0.352 N 
ATOM      3  C   UNL A   1      37.211  22.837  25.731  1.00  0.00     0.251 C 
ATOM      4  O   UNL A   1      37.879  23.792  26.135  1.00  0.00    -0.269 OA
ATOM      5  H   UNL A   1      38.880  21.866  25.301  1.00  0.00     0.163 HD
BRANCH   3   6
ATOM      6  C   UNL A   1      35.726  22.940  25.768  1.00  0.00     0.041 A 
ATOM      7  C   UNL A   1      33.498  21.937  25.968  1.00  0.00     0.040 A 
ATOM      8  C   UNL A   1      32.931  23.182  25.682  1.00  0.00     0.026 A 
ATOM      9  C   UNL A   1      34.893  21.871  26.084  1.00  0.00     0.040 A 
ATOM     10  C   UNL A   1      33.741  24.307  25.498  1.00  0.00     0.003 A 
ATOM     11  C   UNL A   1      35.132  24.182  25.520  1.00  0.00     0.014 A 
BRANCH   7  12
ATOM     12  N   UNL A   1      32.682  20.796  26.104  1.00  0.00    -0.340 N 
ATOM     13  H   UNL A   1      32.123  20.767  26.915  1.00  0.00     0.168 HD
BRANCH  12  14
ATOM     14  C   UNL A   1      32.553  19.689  25.241  1.00  0.00     0.137 A 
ATOM     15  C   UNL A   1      32.702  17.427  24.874  1.00  0.00     0.191 A 
ATOM     16  N   UNL A   1      32.503  17.535  23.556  1.00  0.00    -0.206 NA
ATOM     17  N   UNL A   1      32.720  18.454  25.727  1.00  0.00    -0.205 NA
ATOM     18  C   UNL A   1      32.311  18.772  23.089  1.00  0.00     0.130 A 
ATOM     19  C   UNL A   1      32.350  19.892  23.893  1.00  0.00     0.093 A 
BRANCH  15  20
ATOM     20  S   UNL A   1      33.087  15.847  25.588  1.00  0.00    -0.090 SA
ATOM     21  C   UNL A   1      34.877  15.829  25.366  1.00  0.00     0.094 C 
ENDBRANCH  15  20
BRANCH  18  22
ATOM     22  N   UNL A   1      32.154  18.890  21.720  1.00  0.00    -0.383 N 
ATOM     23  H   UNL A   1      32.330  18.117  21.136  1.00  0.00     0.158 HD
ATOM     24  H   UNL A   1      31.867  19.747  21.329  1.00  0.00     0.158 HD
ENDBRANCH  18  22
ENDBRANCH  12  14
ENDBRANCH   7  12
ENDBRANCH   3   6
ENDBRANCH   1   2
BRANCH   1  25
ATOM     25  C   UNL A   1      38.428  19.329  24.998  1.00  0.00     0.042 C 
BRANCH  25  26
ATOM     26  C   UNL A   1      39.405  19.631  26.125  1.00  0.00     0.118 C 
BRANCH  26  27
ATOM     27  N   UNL A   1      40.621  18.831  26.051  1.00  0.00    -0.352 N 
ATOM     28  C   UNL A   1      41.950  19.173  26.036  1.00  0.00     0.251 C 
ATOM     29  H   UNL A   1      40.459  17.861  26.004  1.00  0.00     0.163 HD
ATOM     30  O   UNL A   1      42.782  18.311  25.766  1.00  0.00    -0.269 OA
BRANCH  28  31
ATOM     31  C   UNL A   1      42.410  20.552  26.326  1.00  0.00     0.039 A 
ATOM     32  C   UNL A   1      42.828  21.354  25.255  1.00  0.00     0.014 A 
ATOM     33  C   UNL A   1      42.517  21.043  27.627  1.00  0.00     0.014 A 
ATOM     34  C   UNL A   1      43.293  22.651  25.487  1.00  0.00     0.010 A 
ATOM     35  C   UNL A   1      42.890  22.367  27.852  1.00  0.00     0.010 A 
ATOM     36  C   UNL A   1      43.297  23.183  26.786  1.00  0.00    -0.014 A 
BRANCH  36  37
ATOM     37  C   UNL A   1      43.737  24.578  27.045  1.00  0.00     0.031 A 
ATOM     38  C   UNL A   1      42.763  25.601  27.567  1.00  0.00     0.074 A 
ATOM     39  C   UNL A   1      45.002  24.940  26.755  1.00  0.00     0.049 A 
ATOM     40  N   UNL A   1      42.948  26.875  27.803  1.00  0.00    -0.248 NA
ATOM     41  C   UNL A   1      41.392  25.138  27.828  1.00  0.00     0.031 C 
ATOM     42  C   UNL A   1      46.024  24.058  26.187  1.00  0.00     0.029 A 
ATOM     43  N   UNL A   1      45.643  26.145  26.890  1.00  0.00    -0.354 N 
ATOM     44  C   UNL A   1      41.717  27.367  28.217  1.00  0.00     0.074 A 
ATOM     45  C   UNL A   1      40.780  26.268  28.152  1.00  0.00     0.031 C 
ATOM     46  C   UNL A   1      47.169  24.744  26.048  1.00  0.00     0.029 A 
ATOM     47  C   UNL A   1      46.955  26.120  26.486  1.00  0.00     0.049 A 
ATOM     48  H   UNL A   1      45.203  26.952  27.243  1.00  0.00     0.167 HD
ATOM     49  C   UNL A   1      41.401  28.616  28.636  1.00  0.00     0.037 A 
ATOM     50  C   UNL A   1      47.882  27.095  26.472  1.00  0.00     0.037 A 
ATOM     51  C   UNL A   1      42.344  29.699  28.738  1.00  0.00     0.049 A 
ATOM     52  C   UNL A   1      47.515  28.462  26.979  1.00  0.00     0.074 A 
ATOM     53  C   UNL A   1      42.139  30.981  29.219  1.00  0.00     0.029 A 
ATOM     54  N   UNL A   1      43.675  29.623  28.356  1.00  0.00    -0.354 N 
ATOM     55  N   UNL A   1      46.365  28.895  27.435  1.00  0.00    -0.248 NA
ATOM     56  C   UNL A   1      48.581  29.475  26.979  1.00  0.00     0.031 C 
ATOM     57  C   UNL A   1      43.339  31.691  29.094  1.00  0.00     0.029 A 
ATOM     58  C   UNL A   1      44.301  30.840  28.576  1.00  0.00     0.049 A 
ATOM     59  H   UNL A   1      44.110  28.823  27.983  1.00  0.00     0.167 HD
ATOM     60  C   UNL A   1      46.571  30.219  27.796  1.00  0.00     0.074 A 
ATOM     61  C   UNL A   1      47.964  30.513  27.526  1.00  0.00     0.031 C 
ATOM     62  C   UNL A   1      45.688  31.113  28.303  1.00  0.00     0.037 A 
BRANCH  49  63
ATOM     63  C   UNL A   1      39.975  28.879  29.027  1.00  0.00     0.064 A 
ATOM     64  C   UNL A   1      39.012  29.263  28.082  1.00  0.00     0.173 A 
ATOM     65  C   UNL A   1      39.557  28.707  30.356  1.00  0.00     0.173 A 
ATOM     66  F   UNL A   1      39.361  29.452  26.802  1.00  0.00    -0.203 F 
ATOM     67  C   UNL A   1      37.691  29.492  28.457  1.00  0.00     0.198 A 
ATOM     68  C   UNL A   1      38.229  28.909  30.722  1.00  0.00     0.198 A 
ATOM     69  F   UNL A   1      40.436  28.334  31.299  1.00  0.00    -0.203 F 
ATOM     70  F   UNL A   1      36.799  29.904  27.544  1.00  0.00    -0.200 F 
ATOM     71  C   UNL A   1      37.298  29.308  29.775  1.00  0.00     0.200 A 
ATOM     72  F   UNL A   1      37.848  28.718  31.993  1.00  0.00    -0.200 F 
ATOM     73  F   UNL A   1      36.025  29.522  30.131  1.00  0.00    -0.200 F 
ENDBRANCH  49  63
BRANCH  50  74
ATOM     74  C   UNL A   1      49.259  26.803  25.995  1.00  0.00     0.064 A 
ATOM     75  C   UNL A   1      49.611  27.003  24.653  1.00  0.00     0.173 A 
ATOM     76  C   UNL A   1      50.246  26.321  26.865  1.00  0.00     0.173 A 
ATOM     77  F   UNL A   1      48.694  27.444  23.779  1.00  0.00    -0.203 F 
ATOM     78  C   UNL A   1      50.894  26.712  24.195  1.00  0.00     0.198 A 
ATOM     79  C   UNL A   1      51.536  26.056  26.411  1.00  0.00     0.198 A 
ATOM     80  F   UNL A   1      49.960  26.118  28.159  1.00  0.00    -0.203 F 
ATOM     81  F   UNL A   1      51.191  26.872  22.898  1.00  0.00    -0.200 F 
ATOM     82  C   UNL A   1      51.857  26.244  25.075  1.00  0.00     0.200 A 
ATOM     83  F   UNL A   1      52.470  25.617  27.268  1.00  0.00    -0.200 F 
ATOM     84  F   UNL A   1      53.093  25.970  24.636  1.00  0.00    -0.200 F 
ENDBRANCH  50  74
BRANCH  62  85
ATOM     85  C   UNL A   1      46.209  32.483  28.620  1.00  0.00     0.064 A 
ATOM     86  C   UNL A   1      46.730  32.795  29.885  1.00  0.00     0.173 A 
ATOM     87  C   UNL A   1      46.206  33.490  27.643  1.00  0.00     0.173 A 
ATOM     88  F   UNL A   1      46.739  31.871  30.857  1.00  0.00    -0.203 F 
ATOM     89  C   UNL A   1      47.202  34.073  30.168  1.00  0.00     0.198 A 
ATOM     90  C   UNL A   1      46.706  34.759  27.921  1.00  0.00     0.198 A 
ATOM     91  F   UNL A   1      45.724  33.240  26.417  1.00  0.00    -0.203 F 
ATOM     92  F   UNL A   1      47.646  34.363  31.399  1.00  0.00    -0.200 F 
ATOM     93  C   UNL A   1      47.194  35.052  29.185  1.00  0.00     0.200 A 
ATOM     94  F   UNL A   1      46.708  35.700  26.967  1.00  0.00    -0.200 F 
ATOM     95  F   UNL A   1      47.650  36.282  29.460  1.00  0.00    -0.200 F 
ENDBRANCH  62  85
ENDBRANCH  36  37
ENDBRANCH  28  31
ENDBRANCH  26  27
ENDBRANCH  25  26
ENDBRANCH   1  25
TORSDOF 14
ENDMDL
