MODEL 1
REMARK VINA RESULT:     -14.2      0.000      0.000
REMARK SMILES Cc1cccc2nc([C@@H]3CCCC[C@@H]3C(=O)NCCCNC(=O)c3ccc(-c4c5nc(c(-c6c(F)c(F)c(F)c(F)c6F)c6ccc([nH]6)c(-c6c(F)c(F)c(F)c(F)c6F)c6nc(c(-c7c(F)c(F)c(F)c(F)c7F)c7ccc4[nH]7)C=C6)C=C5)cc3)oc12
REMARK SMILES IDX 19 1 18 2 17 3 15 4 16 5 14 7 9 8 10 9 11 10 13 11 12 12
REMARK SMILES IDX 8 13 1 14 2 15 3 16 88 17 4 18 6 19 87 20 5 21 7 22 20 23
REMARK SMILES IDX 21 24 22 25 23 27 24 28 25 29 86 30 26 31 85 32 27 33 28 34
REMARK SMILES IDX 29 35 79 36 30 37 84 38 78 39 80 40 31 41 83 42 77 43 76 44
REMARK SMILES IDX 32 46 64 47 44 48 63 49 45 50 48 51 62 52 81 53 46 54 47 55
REMARK SMILES IDX 61 57 82 58 49 59 33 60 34 61 42 62 35 63 36 64 40 65 43 66
REMARK SMILES IDX 37 67 38 68 41 69 39 70 65 71 66 72 74 73 67 74 68 75 72 76
REMARK SMILES IDX 75 77 69 78 70 79 73 80 71 81 50 82 51 83 59 84 52 85 53 86
REMARK SMILES IDX 57 87 60 88 54 89 55 90 58 91 56 92
REMARK H PARENT 17 6 21 26 80 45 48 56
REMARK Flexibility Score: inf
ROOT
ATOM      1  C   UNL A   1      32.879  30.480  26.797  1.00  0.00     0.042 C 
ENDROOT
BRANCH   1   2
ATOM      2  C   UNL A   1      33.230  29.143  26.152  1.00  0.00     0.117 C 
BRANCH   2   3
ATOM      3  N   UNL A   1      33.809  29.267  24.837  1.00  0.00    -0.356 N 
ATOM      4  C   UNL A   1      33.647  28.519  23.718  1.00  0.00     0.223 C 
ATOM      5  O   UNL A   1      34.202  28.952  22.698  1.00  0.00    -0.275 OA
ATOM      6  H   UNL A   1      34.427  30.025  24.734  1.00  0.00     0.163 HD
BRANCH   4   7
ATOM      7  C   UNL A   1      32.930  27.157  23.653  1.00  0.00     0.091 C 
ATOM      8  C   UNL A   1      31.426  27.024  23.940  1.00  0.00     0.088 C 
ATOM      9  C   UNL A   1      31.001  26.669  25.370  1.00  0.00     0.014 C 
ATOM     10  C   UNL A   1      31.967  25.770  26.149  1.00  0.00     0.001 C 
ATOM     11  C   UNL A   1      33.733  26.027  24.290  1.00  0.00     0.014 C 
ATOM     12  C   UNL A   1      33.443  25.795  25.760  1.00  0.00     0.001 C 
BRANCH   8  13
ATOM     13  C   UNL A   1      30.641  28.165  23.380  1.00  0.00     0.199 A 
ATOM     14  C   UNL A   1      29.957  32.123  25.049  1.00  0.00     0.048 C 
ATOM     15  C   UNL A   1      29.369  31.410  23.876  1.00  0.00    -0.006 A 
ATOM     16  C   UNL A   1      28.395  32.001  23.049  1.00  0.00     0.007 A 
ATOM     17  C   UNL A   1      29.756  30.127  23.489  1.00  0.00     0.157 A 
ATOM     18  C   UNL A   1      27.860  31.330  21.940  1.00  0.00     0.003 A 
ATOM     19  C   UNL A   1      29.270  29.438  22.391  1.00  0.00     0.110 A 
ATOM     20  O   UNL A   1      30.653  29.316  24.122  1.00  0.00    -0.440 OA
ATOM     21  C   UNL A   1      28.294  30.042  21.590  1.00  0.00     0.032 A 
ATOM     22  N   UNL A   1      29.876  28.208  22.306  1.00  0.00    -0.213 NA
ENDBRANCH   8  13
ENDBRANCH   4   7
ENDBRANCH   2   3
ENDBRANCH   1   2
BRANCH   1  23
ATOM     23  C   UNL A   1      33.863  30.846  27.873  1.00  0.00     0.118 C 
BRANCH  23  24
ATOM     24  N   UNL A   1      34.543  32.119  27.616  1.00  0.00    -0.352 N 
ATOM     25  C   UNL A   1      35.820  32.461  28.007  1.00  0.00     0.251 C 
ATOM     26  H   UNL A   1      34.037  32.798  27.113  1.00  0.00     0.163 HD
ATOM     27  O   UNL A   1      36.195  33.631  28.042  1.00  0.00    -0.269 OA
BRANCH  25  28
ATOM     28  C   UNL A   1      36.723  31.368  28.392  1.00  0.00     0.039 A 
ATOM     29  C   UNL A   1      36.696  30.131  27.752  1.00  0.00     0.014 A 
ATOM     30  C   UNL A   1      37.690  31.661  29.353  1.00  0.00     0.014 A 
ATOM     31  C   UNL A   1      37.709  29.225  28.042  1.00  0.00     0.010 A 
ATOM     32  C   UNL A   1      38.801  30.873  29.455  1.00  0.00     0.010 A 
ATOM     33  C   UNL A   1      38.774  29.619  28.876  1.00  0.00    -0.014 A 
BRANCH  33  34
ATOM     34  C   UNL A   1      39.905  28.739  29.116  1.00  0.00     0.031 A 
ATOM     35  C   UNL A   1      40.192  28.492  30.546  1.00  0.00     0.074 A 
ATOM     36  C   UNL A   1      40.600  28.128  28.135  1.00  0.00     0.049 A 
ATOM     37  N   UNL A   1      41.138  29.039  31.230  1.00  0.00    -0.248 NA
ATOM     38  C   UNL A   1      39.254  27.697  31.348  1.00  0.00     0.031 C 
ATOM     39  C   UNL A   1      40.322  28.034  26.698  1.00  0.00     0.029 A 
ATOM     40  N   UNL A   1      41.745  27.407  28.260  1.00  0.00    -0.354 N 
ATOM     41  C   UNL A   1      41.039  28.527  32.515  1.00  0.00     0.074 A 
ATOM     42  C   UNL A   1      39.778  27.829  32.570  1.00  0.00     0.031 C 
ATOM     43  C   UNL A   1      41.154  27.132  26.127  1.00  0.00     0.029 A 
ATOM     44  C   UNL A   1      42.137  26.729  27.114  1.00  0.00     0.049 A 
ATOM     45  H   UNL A   1      42.256  27.367  29.100  1.00  0.00     0.167 HD
ATOM     46  C   UNL A   1      42.118  28.560  33.345  1.00  0.00     0.037 A 
ATOM     47  C   UNL A   1      43.212  25.911  26.991  1.00  0.00     0.037 A 
ATOM     48  C   UNL A   1      43.118  29.475  32.846  1.00  0.00     0.049 A 
ATOM     49  C   UNL A   1      44.169  26.303  28.058  1.00  0.00     0.074 A 
ATOM     50  C   UNL A   1      43.142  30.835  32.599  1.00  0.00     0.029 A 
ATOM     51  N   UNL A   1      44.169  28.951  32.132  1.00  0.00    -0.354 N 
ATOM     52  N   UNL A   1      44.796  27.448  28.072  1.00  0.00    -0.248 NA
ATOM     53  C   UNL A   1      44.045  25.639  29.347  1.00  0.00     0.031 C 
ATOM     54  C   UNL A   1      43.871  30.974  31.381  1.00  0.00     0.029 A 
ATOM     55  C   UNL A   1      44.318  29.708  30.999  1.00  0.00     0.049 A 
ATOM     56  H   UNL A   1      44.716  28.173  32.388  1.00  0.00     0.167 HD
ATOM     57  C   UNL A   1      44.752  27.855  29.398  1.00  0.00     0.074 A 
ATOM     58  C   UNL A   1      44.337  26.669  30.147  1.00  0.00     0.031 C 
ATOM     59  C   UNL A   1      44.773  29.177  29.734  1.00  0.00     0.037 A 
BRANCH  46  60
ATOM     60  C   UNL A   1      42.441  27.516  34.380  1.00  0.00     0.064 A 
ATOM     61  C   UNL A   1      43.046  26.312  33.964  1.00  0.00     0.173 A 
ATOM     62  C   UNL A   1      41.904  27.510  35.684  1.00  0.00     0.173 A 
ATOM     63  F   UNL A   1      43.585  26.204  32.740  1.00  0.00    -0.203 F 
ATOM     64  C   UNL A   1      43.021  25.163  34.756  1.00  0.00     0.198 A 
ATOM     65  C   UNL A   1      41.926  26.374  36.491  1.00  0.00     0.198 A 
ATOM     66  F   UNL A   1      41.238  28.554  36.187  1.00  0.00    -0.203 F 
ATOM     67  F   UNL A   1      43.486  24.006  34.263  1.00  0.00    -0.200 F 
ATOM     68  C   UNL A   1      42.453  25.192  36.014  1.00  0.00     0.200 A 
ATOM     69  F   UNL A   1      41.354  26.417  37.703  1.00  0.00    -0.200 F 
ATOM     70  F   UNL A   1      42.365  24.075  36.748  1.00  0.00    -0.200 F 
ENDBRANCH  46  60
BRANCH  47  71
ATOM     71  C   UNL A   1      43.286  24.604  26.292  1.00  0.00     0.064 A 
ATOM     72  C   UNL A   1      44.196  24.403  25.241  1.00  0.00     0.173 A 
ATOM     73  C   UNL A   1      42.691  23.448  26.834  1.00  0.00     0.173 A 
ATOM     74  F   UNL A   1      44.837  25.447  24.695  1.00  0.00    -0.203 F 
ATOM     75  C   UNL A   1      44.526  23.120  24.790  1.00  0.00     0.198 A 
ATOM     76  C   UNL A   1      43.020  22.168  26.381  1.00  0.00     0.198 A 
ATOM     77  F   UNL A   1      41.856  23.530  27.880  1.00  0.00    -0.203 F 
ATOM     78  F   UNL A   1      45.453  22.965  23.834  1.00  0.00    -0.200 F 
ATOM     79  C   UNL A   1      43.949  22.004  25.371  1.00  0.00     0.200 A 
ATOM     80  F   UNL A   1      42.482  21.094  26.977  1.00  0.00    -0.200 F 
ATOM     81  F   UNL A   1      44.318  20.772  24.990  1.00  0.00    -0.200 F 
ENDBRANCH  47  71
BRANCH  59  82
ATOM     82  C   UNL A   1      45.078  30.182  28.656  1.00  0.00     0.064 A 
ATOM     83  C   UNL A   1      44.116  30.733  27.791  1.00  0.00     0.173 A 
ATOM     84  C   UNL A   1      46.366  30.735  28.617  1.00  0.00     0.173 A 
ATOM     85  F   UNL A   1      42.842  30.323  27.824  1.00  0.00    -0.203 F 
ATOM     86  C   UNL A   1      44.438  31.771  26.915  1.00  0.00     0.198 A 
ATOM     87  C   UNL A   1      46.674  31.794  27.769  1.00  0.00     0.198 A 
ATOM     88  F   UNL A   1      47.314  30.284  29.453  1.00  0.00    -0.203 F 
ATOM     89  F   UNL A   1      43.500  32.280  26.101  1.00  0.00    -0.200 F 
ATOM     90  C   UNL A   1      45.714  32.307  26.914  1.00  0.00     0.200 A 
ATOM     91  F   UNL A   1      47.898  32.341  27.806  1.00  0.00    -0.200 F 
ATOM     92  F   UNL A   1      46.010  33.339  26.110  1.00  0.00    -0.200 F 
ENDBRANCH  59  82
ENDBRANCH  33  34
ENDBRANCH  25  28
ENDBRANCH  23  24
ENDBRANCH   1  23
TORSDOF 11
ENDMDL
MODEL 2
REMARK VINA RESULT:     -14.0      5.312     11.662
REMARK SMILES Cc1cccc2nc([C@@H]3CCCC[C@@H]3C(=O)NCCCNC(=O)c3ccc(-c4c5nc(c(-c6c(F)c(F)c(F)c(F)c6F)c6ccc([nH]6)c(-c6c(F)c(F)c(F)c(F)c6F)c6nc(c(-c7c(F)c(F)c(F)c(F)c7F)c7ccc4[nH]7)C=C6)C=C5)cc3)oc12
REMARK SMILES IDX 19 1 18 2 17 3 15 4 16 5 14 7 9 8 10 9 11 10 13 11 12 12
REMARK SMILES IDX 8 13 1 14 2 15 3 16 88 17 4 18 6 19 87 20 5 21 7 22 20 23
REMARK SMILES IDX 21 24 22 25 23 27 24 28 25 29 86 30 26 31 85 32 27 33 28 34
REMARK SMILES IDX 29 35 79 36 30 37 84 38 78 39 80 40 31 41 83 42 77 43 76 44
REMARK SMILES IDX 32 46 64 47 44 48 63 49 45 50 48 51 62 52 81 53 46 54 47 55
REMARK SMILES IDX 61 57 82 58 49 59 33 60 34 61 42 62 35 63 36 64 40 65 43 66
REMARK SMILES IDX 37 67 38 68 41 69 39 70 65 71 66 72 74 73 67 74 68 75 72 76
REMARK SMILES IDX 75 77 69 78 70 79 73 80 71 81 50 82 51 83 59 84 52 85 53 86
REMARK SMILES IDX 57 87 60 88 54 89 55 90 58 91 56 92
REMARK H PARENT 17 6 21 26 80 45 48 56
REMARK Flexibility Score: inf
ROOT
ATOM      1  C   UNL A   1      43.877  22.709  25.274  1.00  0.00     0.042 C 
ENDROOT
BRANCH   1   2
ATOM      2  C   UNL A   1      44.901  23.588  24.562  1.00  0.00     0.117 C 
BRANCH   2   3
ATOM      3  N   UNL A   1      44.798  24.987  24.896  1.00  0.00    -0.356 N 
ATOM      4  C   UNL A   1      45.743  25.886  25.264  1.00  0.00     0.223 C 
ATOM      5  O   UNL A   1      45.353  27.057  25.378  1.00  0.00    -0.275 OA
ATOM      6  H   UNL A   1      43.885  25.350  24.849  1.00  0.00     0.163 HD
BRANCH   4   7
ATOM      7  C   UNL A   1      47.198  25.547  25.640  1.00  0.00     0.091 C 
ATOM      8  C   UNL A   1      47.697  25.632  27.091  1.00  0.00     0.088 C 
ATOM      9  C   UNL A   1      48.363  26.938  27.541  1.00  0.00     0.014 C 
ATOM     10  C   UNL A   1      49.148  27.691  26.462  1.00  0.00     0.001 C 
ATOM     11  C   UNL A   1      48.218  26.109  24.654  1.00  0.00     0.014 C 
ATOM     12  C   UNL A   1      48.744  27.487  25.005  1.00  0.00     0.001 C 
BRANCH   8  13
ATOM     13  C   UNL A   1      46.675  25.150  28.069  1.00  0.00     0.199 A 
ATOM     14  C   UNL A   1      46.029  26.347  32.200  1.00  0.00     0.048 C 
ATOM     15  C   UNL A   1      45.461  25.242  31.372  1.00  0.00    -0.006 A 
ATOM     16  C   UNL A   1      44.521  24.328  31.883  1.00  0.00     0.007 A 
ATOM     17  C   UNL A   1      45.789  25.047  30.030  1.00  0.00     0.157 A 
ATOM     18  C   UNL A   1      43.980  23.302  31.094  1.00  0.00     0.003 A 
ATOM     19  C   UNL A   1      45.263  24.062  29.211  1.00  0.00     0.110 A 
ATOM     20  O   UNL A   1      46.688  25.761  29.294  1.00  0.00    -0.440 OA
ATOM     21  C   UNL A   1      44.338  23.158  29.745  1.00  0.00     0.032 A 
ATOM     22  N   UNL A   1      45.802  24.168  27.951  1.00  0.00    -0.213 NA
ENDBRANCH   8  13
ENDBRANCH   4   7
ENDBRANCH   2   3
ENDBRANCH   1   2
BRANCH   1  23
ATOM     23  C   UNL A   1      42.558  23.415  25.424  1.00  0.00     0.118 C 
BRANCH  23  24
ATOM     24  N   UNL A   1      41.462  22.509  25.777  1.00  0.00    -0.352 N 
ATOM     25  C   UNL A   1      40.630  22.613  26.873  1.00  0.00     0.251 C 
ATOM     26  H   UNL A   1      41.302  21.750  25.171  1.00  0.00     0.163 HD
ATOM     27  O   UNL A   1      39.964  21.661  27.272  1.00  0.00    -0.269 OA
BRANCH  25  28
ATOM     28  C   UNL A   1      40.576  23.912  27.557  1.00  0.00     0.039 A 
ATOM     29  C   UNL A   1      41.622  24.367  28.356  1.00  0.00     0.014 A 
ATOM     30  C   UNL A   1      39.478  24.724  27.278  1.00  0.00     0.014 A 
ATOM     31  C   UNL A   1      41.576  25.682  28.804  1.00  0.00     0.010 A 
ATOM     32  C   UNL A   1      39.552  26.066  27.516  1.00  0.00     0.010 A 
ATOM     33  C   UNL A   1      40.548  26.533  28.353  1.00  0.00    -0.014 A 
BRANCH  33  34
ATOM     34  C   UNL A   1      40.526  27.940  28.712  1.00  0.00     0.031 A 
ATOM     35  C   UNL A   1      41.627  28.735  28.125  1.00  0.00     0.074 A 
ATOM     36  C   UNL A   1      39.553  28.509  29.452  1.00  0.00     0.049 A 
ATOM     37  N   UNL A   1      42.686  29.129  28.745  1.00  0.00    -0.248 NA
ATOM     38  C   UNL A   1      41.651  28.984  26.678  1.00  0.00     0.031 C 
ATOM     39  C   UNL A   1      38.266  27.965  29.901  1.00  0.00     0.029 A 
ATOM     40  N   UNL A   1      39.525  29.775  29.945  1.00  0.00    -0.354 N 
ATOM     41  C   UNL A   1      43.442  29.835  27.822  1.00  0.00     0.074 A 
ATOM     42  C   UNL A   1      42.836  29.586  26.537  1.00  0.00     0.031 C 
ATOM     43  C   UNL A   1      37.504  28.956  30.419  1.00  0.00     0.029 A 
ATOM     44  C   UNL A   1      38.314  30.156  30.507  1.00  0.00     0.049 A 
ATOM     45  H   UNL A   1      40.303  30.376  29.907  1.00  0.00     0.167 HD
ATOM     46  C   UNL A   1      44.376  30.729  28.249  1.00  0.00     0.037 A 
ATOM     47  C   UNL A   1      38.016  31.373  31.027  1.00  0.00     0.037 A 
ATOM     48  C   UNL A   1      44.677  30.524  29.646  1.00  0.00     0.049 A 
ATOM     49  C   UNL A   1      39.308  32.003  31.402  1.00  0.00     0.074 A 
ATOM     50  C   UNL A   1      45.204  29.474  30.375  1.00  0.00     0.029 A 
ATOM     51  N   UNL A   1      44.047  31.331  30.564  1.00  0.00    -0.354 N 
ATOM     52  N   UNL A   1      40.068  31.561  32.367  1.00  0.00    -0.248 NA
ATOM     53  C   UNL A   1      39.981  32.807  30.392  1.00  0.00     0.031 C 
ATOM     54  C   UNL A   1      44.444  29.446  31.582  1.00  0.00     0.029 A 
ATOM     55  C   UNL A   1      43.557  30.523  31.558  1.00  0.00     0.049 A 
ATOM     56  H   UNL A   1      43.963  32.311  30.517  1.00  0.00     0.167 HD
ATOM     57  C   UNL A   1      41.358  31.645  31.864  1.00  0.00     0.074 A 
ATOM     58  C   UNL A   1      41.247  32.483  30.670  1.00  0.00     0.031 C 
ATOM     59  C   UNL A   1      42.341  30.800  32.289  1.00  0.00     0.037 A 
BRANCH  46  60
ATOM     60  C   UNL A   1      44.738  32.004  27.536  1.00  0.00     0.064 A 
ATOM     61  C   UNL A   1      45.975  32.079  26.864  1.00  0.00     0.173 A 
ATOM     62  C   UNL A   1      44.084  33.236  27.749  1.00  0.00     0.173 A 
ATOM     63  F   UNL A   1      46.685  30.967  26.612  1.00  0.00    -0.203 F 
ATOM     64  C   UNL A   1      46.557  33.300  26.525  1.00  0.00     0.198 A 
ATOM     65  C   UNL A   1      44.647  34.451  27.364  1.00  0.00     0.198 A 
ATOM     66  F   UNL A   1      42.941  33.329  28.435  1.00  0.00    -0.203 F 
ATOM     67  F   UNL A   1      47.796  33.327  26.012  1.00  0.00    -0.200 F 
ATOM     68  C   UNL A   1      45.898  34.486  26.784  1.00  0.00     0.200 A 
ATOM     69  F   UNL A   1      44.000  35.592  27.639  1.00  0.00    -0.200 F 
ATOM     70  F   UNL A   1      46.483  35.663  26.524  1.00  0.00    -0.200 F 
ENDBRANCH  46  60
BRANCH  47  71
ATOM     71  C   UNL A   1      36.765  32.154  30.857  1.00  0.00     0.064 A 
ATOM     72  C   UNL A   1      35.914  32.392  31.949  1.00  0.00     0.173 A 
ATOM     73  C   UNL A   1      36.538  32.932  29.706  1.00  0.00     0.173 A 
ATOM     74  F   UNL A   1      36.087  31.722  33.098  1.00  0.00    -0.203 F 
ATOM     75  C   UNL A   1      34.924  33.380  31.908  1.00  0.00     0.198 A 
ATOM     76  C   UNL A   1      35.548  33.918  29.666  1.00  0.00     0.198 A 
ATOM     77  F   UNL A   1      37.335  32.824  28.634  1.00  0.00    -0.203 F 
ATOM     78  F   UNL A   1      34.180  33.628  32.995  1.00  0.00    -0.200 F 
ATOM     79  C   UNL A   1      34.753  34.152  30.771  1.00  0.00     0.200 A 
ATOM     80  F   UNL A   1      35.417  34.683  28.572  1.00  0.00    -0.200 F 
ATOM     81  F   UNL A   1      33.855  35.148  30.755  1.00  0.00    -0.200 F 
ENDBRANCH  47  71
BRANCH  59  82
ATOM     82  C   UNL A   1      42.063  29.925  33.482  1.00  0.00     0.064 A 
ATOM     83  C   UNL A   1      41.589  28.604  33.402  1.00  0.00     0.173 A 
ATOM     84  C   UNL A   1      42.459  30.388  34.744  1.00  0.00     0.173 A 
ATOM     85  F   UNL A   1      41.271  28.054  32.224  1.00  0.00    -0.203 F 
ATOM     86  C   UNL A   1      41.495  27.797  34.537  1.00  0.00     0.198 A 
ATOM     87  C   UNL A   1      42.398  29.570  35.868  1.00  0.00     0.198 A 
ATOM     88  F   UNL A   1      42.965  31.625  34.876  1.00  0.00    -0.203 F 
ATOM     89  F   UNL A   1      41.041  26.538  34.433  1.00  0.00    -0.200 F 
ATOM     90  C   UNL A   1      41.911  28.278  35.766  1.00  0.00     0.200 A 
ATOM     91  F   UNL A   1      42.848  30.025  37.047  1.00  0.00    -0.200 F 
ATOM     92  F   UNL A   1      41.871  27.486  36.848  1.00  0.00    -0.200 F 
ENDBRANCH  59  82
ENDBRANCH  33  34
ENDBRANCH  25  28
ENDBRANCH  23  24
ENDBRANCH   1  23
TORSDOF 11
ENDMDL
MODEL 3
REMARK VINA RESULT:     -14.0      3.705      8.980
REMARK SMILES Cc1cccc2nc([C@@H]3CCCC[C@@H]3C(=O)NCCCNC(=O)c3ccc(-c4c5nc(c(-c6c(F)c(F)c(F)c(F)c6F)c6ccc([nH]6)c(-c6c(F)c(F)c(F)c(F)c6F)c6nc(c(-c7c(F)c(F)c(F)c(F)c7F)c7ccc4[nH]7)C=C6)C=C5)cc3)oc12
REMARK SMILES IDX 19 1 18 2 17 3 15 4 16 5 14 7 9 8 10 9 11 10 13 11 12 12
REMARK SMILES IDX 8 13 1 14 2 15 3 16 88 17 4 18 6 19 87 20 5 21 7 22 20 23
REMARK SMILES IDX 21 24 22 25 23 27 24 28 25 29 86 30 26 31 85 32 27 33 28 34
REMARK SMILES IDX 29 35 79 36 30 37 84 38 78 39 80 40 31 41 83 42 77 43 76 44
REMARK SMILES IDX 32 46 64 47 44 48 63 49 45 50 48 51 62 52 81 53 46 54 47 55
REMARK SMILES IDX 61 57 82 58 49 59 33 60 34 61 42 62 35 63 36 64 40 65 43 66
REMARK SMILES IDX 37 67 38 68 41 69 39 70 65 71 66 72 74 73 67 74 68 75 72 76
REMARK SMILES IDX 75 77 69 78 70 79 73 80 71 81 50 82 51 83 59 84 52 85 53 86
REMARK SMILES IDX 57 87 60 88 54 89 55 90 58 91 56 92
REMARK H PARENT 17 6 21 26 80 45 48 56
REMARK Flexibility Score: inf
ROOT
ATOM      1  C   UNL A   1      38.548  22.059  25.752  1.00  0.00     0.042 C 
ENDROOT
BRANCH   1   2
ATOM      2  C   UNL A   1      37.563  23.224  25.765  1.00  0.00     0.117 C 
BRANCH   2   3
ATOM      3  N   UNL A   1      36.362  22.960  26.518  1.00  0.00    -0.356 N 
ATOM      4  C   UNL A   1      35.260  22.231  26.211  1.00  0.00     0.223 C 
ATOM      5  O   UNL A   1      34.433  22.100  27.124  1.00  0.00    -0.275 OA
ATOM      6  H   UNL A   1      36.337  23.382  27.406  1.00  0.00     0.163 HD
BRANCH   4   7
ATOM      7  C   UNL A   1      34.930  21.660  24.820  1.00  0.00     0.091 C 
ATOM      8  C   UNL A   1      33.729  22.167  24.004  1.00  0.00     0.088 C 
ATOM      9  C   UNL A   1      32.406  21.403  24.133  1.00  0.00     0.014 C 
ATOM     10  C   UNL A   1      32.528  19.895  24.377  1.00  0.00     0.001 C 
ATOM     11  C   UNL A   1      35.066  20.141  24.748  1.00  0.00     0.014 C 
ATOM     12  C   UNL A   1      33.793  19.377  25.055  1.00  0.00     0.001 C 
BRANCH   8  13
ATOM     13  C   UNL A   1      33.547  23.645  24.128  1.00  0.00     0.199 A 
ATOM     14  C   UNL A   1      30.292  25.879  25.951  1.00  0.00     0.048 C 
ATOM     15  C   UNL A   1      31.455  26.298  25.115  1.00  0.00    -0.006 A 
ATOM     16  C   UNL A   1      31.682  27.642  24.763  1.00  0.00     0.007 A 
ATOM     17  C   UNL A   1      32.419  25.406  24.644  1.00  0.00     0.157 A 
ATOM     18  C   UNL A   1      32.786  28.029  23.990  1.00  0.00     0.003 A 
ATOM     19  C   UNL A   1      33.534  25.748  23.898  1.00  0.00     0.110 A 
ATOM     20  O   UNL A   1      32.431  24.051  24.809  1.00  0.00    -0.440 OA
ATOM     21  C   UNL A   1      33.731  27.090  23.551  1.00  0.00     0.032 A 
ATOM     22  N   UNL A   1      34.269  24.622  23.614  1.00  0.00    -0.213 NA
ENDBRANCH   8  13
ENDBRANCH   4   7
ENDBRANCH   2   3
ENDBRANCH   1   2
BRANCH   1  23
ATOM     23  C   UNL A   1      39.539  22.164  26.878  1.00  0.00     0.118 C 
BRANCH  23  24
ATOM     24  N   UNL A   1      40.930  22.103  26.422  1.00  0.00    -0.352 N 
ATOM     25  C   UNL A   1      41.805  23.163  26.310  1.00  0.00     0.251 C 
ATOM     26  H   UNL A   1      41.276  21.216  26.170  1.00  0.00     0.163 HD
ATOM     27  O   UNL A   1      42.825  23.092  25.628  1.00  0.00    -0.269 OA
BRANCH  25  28
ATOM     28  C   UNL A   1      41.467  24.396  27.035  1.00  0.00     0.039 A 
ATOM     29  C   UNL A   1      42.028  24.699  28.273  1.00  0.00     0.014 A 
ATOM     30  C   UNL A   1      40.645  25.307  26.373  1.00  0.00     0.014 A 
ATOM     31  C   UNL A   1      41.806  25.968  28.795  1.00  0.00     0.010 A 
ATOM     32  C   UNL A   1      40.628  26.613  26.770  1.00  0.00     0.010 A 
ATOM     33  C   UNL A   1      41.127  26.929  28.020  1.00  0.00    -0.014 A 
BRANCH  33  34
ATOM     34  C   UNL A   1      40.972  28.295  28.485  1.00  0.00     0.031 A 
ATOM     35  C   UNL A   1      42.046  29.214  28.049  1.00  0.00     0.074 A 
ATOM     36  C   UNL A   1      39.908  28.730  29.191  1.00  0.00     0.049 A 
ATOM     37  N   UNL A   1      43.026  29.628  28.777  1.00  0.00    -0.248 NA
ATOM     38  C   UNL A   1      42.154  29.585  26.632  1.00  0.00     0.031 C 
ATOM     39  C   UNL A   1      38.638  28.060  29.495  1.00  0.00     0.029 A 
ATOM     40  N   UNL A   1      39.747  29.945  29.778  1.00  0.00    -0.354 N 
ATOM     41  C   UNL A   1      43.788  30.462  27.972  1.00  0.00     0.074 A 
ATOM     42  C   UNL A   1      43.296  30.279  26.629  1.00  0.00     0.031 C 
ATOM     43  C   UNL A   1      37.767  28.948  30.030  1.00  0.00     0.029 A 
ATOM     44  C   UNL A   1      38.474  30.190  30.274  1.00  0.00     0.049 A 
ATOM     45  H   UNL A   1      40.478  30.601  29.847  1.00  0.00     0.167 HD
ATOM     46  C   UNL A   1      44.618  31.380  28.539  1.00  0.00     0.037 A 
ATOM     47  C   UNL A   1      38.047  31.335  30.863  1.00  0.00     0.037 A 
ATOM     48  C   UNL A   1      44.834  31.081  29.935  1.00  0.00     0.049 A 
ATOM     49  C   UNL A   1      39.257  32.022  31.385  1.00  0.00     0.074 A 
ATOM     50  C   UNL A   1      45.388  30.013  30.617  1.00  0.00     0.029 A 
ATOM     51  N   UNL A   1      44.081  31.761  30.862  1.00  0.00    -0.354 N 
ATOM     52  N   UNL A   1      39.978  31.555  32.367  1.00  0.00    -0.248 NA
ATOM     53  C   UNL A   1      39.935  32.953  30.495  1.00  0.00     0.031 C 
ATOM     54  C   UNL A   1      44.549  29.830  31.756  1.00  0.00     0.029 A 
ATOM     55  C   UNL A   1      43.585  30.840  31.749  1.00  0.00     0.049 A 
ATOM     56  H   UNL A   1      43.925  32.733  30.886  1.00  0.00     0.167 HD
ATOM     57  C   UNL A   1      41.291  31.773  31.972  1.00  0.00     0.074 A 
ATOM     58  C   UNL A   1      41.200  32.698  30.843  1.00  0.00     0.031 C 
ATOM     59  C   UNL A   1      42.303  30.967  32.404  1.00  0.00     0.037 A 
BRANCH  46  60
ATOM     60  C   UNL A   1      44.930  32.734  27.958  1.00  0.00     0.064 A 
ATOM     61  C   UNL A   1      46.248  33.004  27.536  1.00  0.00     0.173 A 
ATOM     62  C   UNL A   1      44.090  33.859  28.092  1.00  0.00     0.173 A 
ATOM     63  F   UNL A   1      47.134  32.008  27.380  1.00  0.00    -0.203 F 
ATOM     64  C   UNL A   1      46.713  34.308  27.361  1.00  0.00     0.198 A 
ATOM     65  C   UNL A   1      44.545  35.157  27.869  1.00  0.00     0.198 A 
ATOM     66  F   UNL A   1      42.838  33.765  28.553  1.00  0.00    -0.203 F 
ATOM     67  F   UNL A   1      48.010  34.520  27.093  1.00  0.00    -0.200 F 
ATOM     68  C   UNL A   1      45.865  35.383  27.538  1.00  0.00     0.200 A 
ATOM     69  F   UNL A   1      43.712  36.189  28.061  1.00  0.00    -0.200 F 
ATOM     70  F   UNL A   1      46.325  36.637  27.440  1.00  0.00    -0.200 F 
ENDBRANCH  46  60
BRANCH  47  71
ATOM     71  C   UNL A   1      36.755  32.036  30.660  1.00  0.00     0.064 A 
ATOM     72  C   UNL A   1      35.842  32.181  31.718  1.00  0.00     0.173 A 
ATOM     73  C   UNL A   1      36.526  32.836  29.523  1.00  0.00     0.173 A 
ATOM     74  F   UNL A   1      36.010  31.486  32.852  1.00  0.00    -0.203 F 
ATOM     75  C   UNL A   1      34.790  33.102  31.661  1.00  0.00     0.198 A 
ATOM     76  C   UNL A   1      35.475  33.754  29.467  1.00  0.00     0.198 A 
ATOM     77  F   UNL A   1      37.375  32.817  28.486  1.00  0.00    -0.203 F 
ATOM     78  F   UNL A   1      33.984  33.263  32.719  1.00  0.00    -0.200 F 
ATOM     79  C   UNL A   1      34.617  33.898  30.542  1.00  0.00     0.200 A 
ATOM     80  F   UNL A   1      35.340  34.545  28.393  1.00  0.00    -0.200 F 
ATOM     81  F   UNL A   1      33.655  34.832  30.514  1.00  0.00    -0.200 F 
ENDBRANCH  47  71
BRANCH  59  82
ATOM     82  C   UNL A   1      42.010  29.978  33.500  1.00  0.00     0.064 A 
ATOM     83  C   UNL A   1      41.600  28.650  33.280  1.00  0.00     0.173 A 
ATOM     84  C   UNL A   1      42.326  30.341  34.816  1.00  0.00     0.173 A 
ATOM     85  F   UNL A   1      41.361  28.197  32.044  1.00  0.00    -0.203 F 
ATOM     86  C   UNL A   1      41.490  27.742  34.333  1.00  0.00     0.198 A 
ATOM     87  C   UNL A   1      42.251  29.422  35.859  1.00  0.00     0.198 A 
ATOM     88  F   UNL A   1      42.769  31.579  35.082  1.00  0.00    -0.203 F 
ATOM     89  F   UNL A   1      41.098  26.480  34.096  1.00  0.00    -0.200 F 
ATOM     90  C   UNL A   1      41.827  28.126  35.620  1.00  0.00     0.200 A 
ATOM     91  F   UNL A   1      42.624  29.787  37.094  1.00  0.00    -0.200 F 
ATOM     92  F   UNL A   1      41.772  27.239  36.624  1.00  0.00    -0.200 F 
ENDBRANCH  59  82
ENDBRANCH  33  34
ENDBRANCH  25  28
ENDBRANCH  23  24
ENDBRANCH   1  23
TORSDOF 11
ENDMDL
