MODEL 1
REMARK VINA RESULT:     -12.9      0.000      0.000
REMARK SMILES COc1cccc(Cn2c(=O)c(=O)n(CC(=O)NCCCNC(=O)c3ccc(-c4c5nc(c(-c6c(F)c(F)c(F)c(F)c6F)c6ccc([nH]6)c(-c6c(F)c(F)c(F)c(F)c6F)c6nc(c(-c7c(F)c(F)c(F)c(F)c7F)c7ccc4[nH]7)C=C6)C=C5)cc3)c3ccccc32)c1
REMARK SMILES IDX 19 1 18 2 16 3 17 4 15 6 14 7 9 8 10 9 93 10 11 11 12 12
REMARK SMILES IDX 88 13 92 14 13 15 89 16 91 17 90 18 8 19 7 20 3 21 4 22
REMARK SMILES IDX 94 23 5 24 6 25 2 26 1 27 20 28 21 29 22 30 23 31 24 33
REMARK SMILES IDX 25 34 26 35 87 36 27 37 86 38 28 39 29 40 30 41 80 42 31 43
REMARK SMILES IDX 85 44 79 45 81 46 32 47 84 48 78 49 77 50 33 52 65 53 45 54
REMARK SMILES IDX 64 55 46 56 49 57 63 58 82 59 47 60 48 61 62 63 83 64 50 65
REMARK SMILES IDX 34 66 35 67 43 68 36 69 37 70 41 71 44 72 38 73 39 74 42 75
REMARK SMILES IDX 40 76 66 77 67 78 75 79 68 80 69 81 73 82 76 83 70 84 71 85
REMARK SMILES IDX 74 86 72 87 51 88 52 89 60 90 53 91 54 92 58 93 61 94 55 95
REMARK SMILES IDX 56 96 59 97 57 98
REMARK H PARENT 18 5 22 32 81 51 49 62
REMARK Flexibility Score: inf
ROOT
ATOM      1  C   UNL A   1      31.546  30.740  26.862  1.00  0.00     0.117 C 
ENDROOT
BRANCH   1   2
ATOM      2  N   UNL A   1      32.881  30.348  27.263  1.00  0.00    -0.354 N 
ATOM      3  C   UNL A   1      33.770  29.494  26.694  1.00  0.00     0.240 C 
ATOM      4  O   UNL A   1      34.857  29.375  27.275  1.00  0.00    -0.273 OA
ATOM      5  H   UNL A   1      33.200  30.775  28.091  1.00  0.00     0.163 HD
BRANCH   3   6
ATOM      6  C   UNL A   1      33.594  28.870  25.304  1.00  0.00     0.226 C 
BRANCH   6   7
ATOM      7  N   UNL A   1      32.684  27.773  25.003  1.00  0.00    -0.293 N 
ATOM      8  N   UNL A   1      30.945  25.584  24.686  1.00  0.00    -0.298 N 
ATOM      9  C   UNL A   1      31.740  25.655  25.814  1.00  0.00     0.317 A 
ATOM     10  C   UNL A   1      30.582  26.830  24.111  1.00  0.00     0.068 A 
ATOM     11  O   UNL A   1      31.559  25.032  26.857  1.00  0.00    -0.263 OA
ATOM     12  C   UNL A   1      32.945  26.570  25.649  1.00  0.00     0.317 A 
ATOM     13  C   UNL A   1      31.437  27.952  24.319  1.00  0.00     0.069 A 
ATOM     14  C   UNL A   1      29.333  27.005  23.503  1.00  0.00     0.028 A 
ATOM     15  O   UNL A   1      34.028  26.243  26.127  1.00  0.00    -0.263 OA
ATOM     16  C   UNL A   1      31.025  29.210  23.863  1.00  0.00     0.028 A 
ATOM     17  C   UNL A   1      28.914  28.282  23.124  1.00  0.00     0.002 A 
ATOM     18  C   UNL A   1      29.760  29.375  23.293  1.00  0.00     0.002 A 
BRANCH   8  19
ATOM     19  C   UNL A   1      30.464  24.267  24.263  1.00  0.00     0.162 C 
BRANCH  19  20
ATOM     20  C   UNL A   1      31.672  23.436  23.811  1.00  0.00    -0.024 A 
ATOM     21  C   UNL A   1      33.342  21.832  24.543  1.00  0.00     0.119 A 
ATOM     22  C   UNL A   1      34.255  22.341  23.630  1.00  0.00     0.046 A 
ATOM     23  C   UNL A   1      32.033  22.298  24.558  1.00  0.00     0.052 A 
ATOM     24  C   UNL A   1      33.856  23.351  22.751  1.00  0.00     0.004 A 
ATOM     25  C   UNL A   1      32.584  23.926  22.867  1.00  0.00     0.006 A 
BRANCH  21  26
ATOM     26  O   UNL A   1      33.781  21.147  25.642  1.00  0.00    -0.497 OA
ATOM     27  C   UNL A   1      35.091  21.499  26.050  1.00  0.00     0.278 C 
ENDBRANCH  21  26
ENDBRANCH  19  20
ENDBRANCH   8  19
ENDBRANCH   6   7
ENDBRANCH   3   6
ENDBRANCH   1   2
BRANCH   1  28
ATOM     28  C   UNL A   1      31.403  32.259  26.815  1.00  0.00     0.042 C 
BRANCH  28  29
ATOM     29  C   UNL A   1      32.697  33.010  27.130  1.00  0.00     0.118 C 
BRANCH  29  30
ATOM     30  N   UNL A   1      32.453  34.343  27.659  1.00  0.00    -0.352 N 
ATOM     31  C   UNL A   1      33.003  34.974  28.747  1.00  0.00     0.251 C 
ATOM     32  H   UNL A   1      31.791  34.875  27.160  1.00  0.00     0.163 HD
ATOM     33  O   UNL A   1      32.528  36.041  29.129  1.00  0.00    -0.269 OA
BRANCH  31  34
ATOM     34  C   UNL A   1      34.150  34.388  29.481  1.00  0.00     0.039 A 
ATOM     35  C   UNL A   1      35.437  34.578  28.963  1.00  0.00     0.014 A 
ATOM     36  C   UNL A   1      33.971  33.594  30.616  1.00  0.00     0.014 A 
ATOM     37  C   UNL A   1      36.541  34.001  29.595  1.00  0.00     0.010 A 
ATOM     38  C   UNL A   1      35.078  33.064  31.280  1.00  0.00     0.010 A 
ATOM     39  C   UNL A   1      36.372  33.250  30.767  1.00  0.00    -0.014 A 
BRANCH  39  40
ATOM     40  C   UNL A   1      37.527  32.618  31.451  1.00  0.00     0.031 A 
ATOM     41  C   UNL A   1      38.240  31.464  30.803  1.00  0.00     0.074 A 
ATOM     42  C   UNL A   1      37.891  33.040  32.676  1.00  0.00     0.049 A 
ATOM     43  N   UNL A   1      39.196  30.707  31.279  1.00  0.00    -0.248 NA
ATOM     44  C   UNL A   1      37.801  31.097  29.447  1.00  0.00     0.031 C 
ATOM     45  C   UNL A   1      37.256  34.131  33.416  1.00  0.00     0.029 A 
ATOM     46  N   UNL A   1      38.873  32.590  33.521  1.00  0.00    -0.354 N 
ATOM     47  C   UNL A   1      39.452  29.761  30.294  1.00  0.00     0.074 A 
ATOM     48  C   UNL A   1      38.529  30.015  29.210  1.00  0.00     0.031 C 
ATOM     49  C   UNL A   1      37.871  34.272  34.602  1.00  0.00     0.029 A 
ATOM     50  C   UNL A   1      38.916  33.260  34.720  1.00  0.00     0.049 A 
ATOM     51  H   UNL A   1      39.489  31.858  33.292  1.00  0.00     0.167 HD
ATOM     52  C   UNL A   1      40.386  28.781  30.291  1.00  0.00     0.037 A 
ATOM     53  C   UNL A   1      39.703  33.069  35.796  1.00  0.00     0.037 A 
ATOM     54  C   UNL A   1      41.329  28.559  31.354  1.00  0.00     0.049 A 
ATOM     55  C   UNL A   1      40.735  31.975  35.764  1.00  0.00     0.074 A 
ATOM     56  C   UNL A   1      42.363  27.641  31.416  1.00  0.00     0.029 A 
ATOM     57  N   UNL A   1      41.353  29.270  32.545  1.00  0.00    -0.354 N 
ATOM     58  N   UNL A   1      41.002  31.120  34.809  1.00  0.00    -0.248 NA
ATOM     59  C   UNL A   1      41.573  31.820  36.961  1.00  0.00     0.031 C 
ATOM     60  C   UNL A   1      42.991  27.773  32.660  1.00  0.00     0.029 A 
ATOM     61  C   UNL A   1      42.371  28.798  33.357  1.00  0.00     0.049 A 
ATOM     62  H   UNL A   1      40.738  30.002  32.778  1.00  0.00     0.167 HD
ATOM     63  C   UNL A   1      42.049  30.338  35.277  1.00  0.00     0.074 A 
ATOM     64  C   UNL A   1      42.378  30.831  36.599  1.00  0.00     0.031 C 
ATOM     65  C   UNL A   1      42.680  29.305  34.669  1.00  0.00     0.037 A 
BRANCH  52  66
ATOM     66  C   UNL A   1      40.437  27.873  29.096  1.00  0.00     0.064 A 
ATOM     67  C   UNL A   1      39.672  26.699  29.032  1.00  0.00     0.173 A 
ATOM     68  C   UNL A   1      41.233  28.199  27.988  1.00  0.00     0.173 A 
ATOM     69  F   UNL A   1      38.903  26.337  30.070  1.00  0.00    -0.203 F 
ATOM     70  C   UNL A   1      39.725  25.870  27.915  1.00  0.00     0.198 A 
ATOM     71  C   UNL A   1      41.262  27.382  26.860  1.00  0.00     0.198 A 
ATOM     72  F   UNL A   1      41.979  29.314  27.995  1.00  0.00    -0.203 F 
ATOM     73  F   UNL A   1      39.021  24.729  27.895  1.00  0.00    -0.200 F 
ATOM     74  C   UNL A   1      40.515  26.214  26.828  1.00  0.00     0.200 A 
ATOM     75  F   UNL A   1      42.018  27.721  25.807  1.00  0.00    -0.200 F 
ATOM     76  F   UNL A   1      40.560  25.418  25.751  1.00  0.00    -0.200 F 
ENDBRANCH  52  66
BRANCH  53  77
ATOM     77  C   UNL A   1      39.550  33.944  36.985  1.00  0.00     0.064 A 
ATOM     78  C   UNL A   1      38.778  33.537  38.082  1.00  0.00     0.173 A 
ATOM     79  C   UNL A   1      40.179  35.195  37.057  1.00  0.00     0.173 A 
ATOM     80  F   UNL A   1      38.141  32.357  38.049  1.00  0.00    -0.203 F 
ATOM     81  C   UNL A   1      38.632  34.352  39.202  1.00  0.00     0.198 A 
ATOM     82  C   UNL A   1      40.053  35.999  38.189  1.00  0.00     0.198 A 
ATOM     83  F   UNL A   1      40.932  35.629  36.036  1.00  0.00    -0.203 F 
ATOM     84  F   UNL A   1      37.863  33.952  40.223  1.00  0.00    -0.200 F 
ATOM     85  C   UNL A   1      39.275  35.579  39.257  1.00  0.00     0.200 A 
ATOM     86  F   UNL A   1      40.687  37.179  38.244  1.00  0.00    -0.200 F 
ATOM     87  F   UNL A   1      39.143  36.360  40.339  1.00  0.00    -0.200 F 
ENDBRANCH  53  77
BRANCH  65  88
ATOM     88  C   UNL A   1      43.800  28.650  35.419  1.00  0.00     0.064 A 
ATOM     89  C   UNL A   1      45.126  29.082  35.274  1.00  0.00     0.173 A 
ATOM     90  C   UNL A   1      43.538  27.614  36.328  1.00  0.00     0.173 A 
ATOM     91  F   UNL A   1      45.426  30.058  34.404  1.00  0.00    -0.203 F 
ATOM     92  C   UNL A   1      46.153  28.489  36.003  1.00  0.00     0.198 A 
ATOM     93  C   UNL A   1      44.564  27.040  37.072  1.00  0.00     0.198 A 
ATOM     94  F   UNL A   1      42.284  27.170  36.504  1.00  0.00    -0.203 F 
ATOM     95  F   UNL A   1      47.419  28.892  35.824  1.00  0.00    -0.200 F 
ATOM     96  C   UNL A   1      45.870  27.475  36.906  1.00  0.00     0.200 A 
ATOM     97  F   UNL A   1      44.288  26.067  37.952  1.00  0.00    -0.200 F 
ATOM     98  F   UNL A   1      46.860  26.912  37.614  1.00  0.00    -0.200 F 
ENDBRANCH  65  88
ENDBRANCH  39  40
ENDBRANCH  31  34
ENDBRANCH  29  30
ENDBRANCH  28  29
ENDBRANCH   1  28
TORSDOF 14
ENDMDL
MODEL 2
REMARK VINA RESULT:     -12.9      0.146      1.106
REMARK SMILES COc1cccc(Cn2c(=O)c(=O)n(CC(=O)NCCCNC(=O)c3ccc(-c4c5nc(c(-c6c(F)c(F)c(F)c(F)c6F)c6ccc([nH]6)c(-c6c(F)c(F)c(F)c(F)c6F)c6nc(c(-c7c(F)c(F)c(F)c(F)c7F)c7ccc4[nH]7)C=C6)C=C5)cc3)c3ccccc32)c1
REMARK SMILES IDX 19 1 18 2 16 3 17 4 15 6 14 7 9 8 10 9 93 10 11 11 12 12
REMARK SMILES IDX 88 13 92 14 13 15 89 16 91 17 90 18 8 19 7 20 3 21 4 22
REMARK SMILES IDX 94 23 5 24 6 25 2 26 1 27 20 28 21 29 22 30 23 31 24 33
REMARK SMILES IDX 25 34 26 35 87 36 27 37 86 38 28 39 29 40 30 41 80 42 31 43
REMARK SMILES IDX 85 44 79 45 81 46 32 47 84 48 78 49 77 50 33 52 65 53 45 54
REMARK SMILES IDX 64 55 46 56 49 57 63 58 82 59 47 60 48 61 62 63 83 64 50 65
REMARK SMILES IDX 34 66 35 67 43 68 36 69 37 70 41 71 44 72 38 73 39 74 42 75
REMARK SMILES IDX 40 76 66 77 67 78 75 79 68 80 69 81 73 82 76 83 70 84 71 85
REMARK SMILES IDX 74 86 72 87 51 88 52 89 60 90 53 91 54 92 58 93 61 94 55 95
REMARK SMILES IDX 56 96 59 97 57 98
REMARK H PARENT 18 5 22 32 81 51 49 62
REMARK Flexibility Score: inf
ROOT
ATOM      1  C   UNL A   1      31.560  30.784  26.837  1.00  0.00     0.117 C 
ENDROOT
BRANCH   1   2
ATOM      2  N   UNL A   1      32.895  30.393  27.239  1.00  0.00    -0.354 N 
ATOM      3  C   UNL A   1      33.782  29.534  26.675  1.00  0.00     0.240 C 
ATOM      4  O   UNL A   1      34.869  29.417  27.254  1.00  0.00    -0.273 OA
ATOM      5  H   UNL A   1      33.216  30.825  28.063  1.00  0.00     0.163 HD
BRANCH   3   6
ATOM      6  C   UNL A   1      33.602  28.900  25.289  1.00  0.00     0.226 C 
BRANCH   6   7
ATOM      7  N   UNL A   1      32.687  27.805  24.996  1.00  0.00    -0.293 N 
ATOM      8  N   UNL A   1      30.938  25.621  24.697  1.00  0.00    -0.298 N 
ATOM      9  C   UNL A   1      31.737  25.695  25.822  1.00  0.00     0.317 A 
ATOM     10  C   UNL A   1      30.579  26.865  24.116  1.00  0.00     0.068 A 
ATOM     11  O   UNL A   1      31.555  25.079  26.870  1.00  0.00    -0.263 OA
ATOM     12  C   UNL A   1      32.945  26.605  25.649  1.00  0.00     0.317 A 
ATOM     13  C   UNL A   1      31.438  27.985  24.315  1.00  0.00     0.069 A 
ATOM     14  C   UNL A   1      29.328  27.042  23.510  1.00  0.00     0.028 A 
ATOM     15  O   UNL A   1      34.028  26.276  26.126  1.00  0.00    -0.263 OA
ATOM     16  C   UNL A   1      31.030  29.242  23.853  1.00  0.00     0.028 A 
ATOM     17  C   UNL A   1      28.914  28.318  23.124  1.00  0.00     0.002 A 
ATOM     18  C   UNL A   1      29.765  29.409  23.286  1.00  0.00     0.002 A 
BRANCH   8  19
ATOM     19  C   UNL A   1      30.451  24.304  24.282  1.00  0.00     0.162 C 
BRANCH  19  20
ATOM     20  C   UNL A   1      31.653  23.468  23.825  1.00  0.00    -0.024 A 
ATOM     21  C   UNL A   1      33.322  21.859  24.548  1.00  0.00     0.119 A 
ATOM     22  C   UNL A   1      34.232  22.365  23.629  1.00  0.00     0.046 A 
ATOM     23  C   UNL A   1      32.015  22.329  24.571  1.00  0.00     0.052 A 
ATOM     24  C   UNL A   1      33.831  23.374  22.751  1.00  0.00     0.004 A 
ATOM     25  C   UNL A   1      32.561  23.954  22.874  1.00  0.00     0.006 A 
BRANCH  21  26
ATOM     26  O   UNL A   1      33.766  21.175  25.646  1.00  0.00    -0.497 OA
ATOM     27  C   UNL A   1      34.144  22.010  26.727  1.00  0.00     0.278 C 
ENDBRANCH  21  26
ENDBRANCH  19  20
ENDBRANCH   8  19
ENDBRANCH   6   7
ENDBRANCH   3   6
ENDBRANCH   1   2
BRANCH   1  28
ATOM     28  C   UNL A   1      31.403  32.302  26.831  1.00  0.00     0.042 C 
BRANCH  28  29
ATOM     29  C   UNL A   1      32.699  33.056  27.132  1.00  0.00     0.118 C 
BRANCH  29  30
ATOM     30  N   UNL A   1      32.457  34.390  27.662  1.00  0.00    -0.352 N 
ATOM     31  C   UNL A   1      33.008  35.018  28.751  1.00  0.00     0.251 C 
ATOM     32  H   UNL A   1      31.796  34.923  27.164  1.00  0.00     0.163 HD
ATOM     33  O   UNL A   1      32.535  36.084  29.135  1.00  0.00    -0.269 OA
BRANCH  31  34
ATOM     34  C   UNL A   1      34.154  34.428  29.484  1.00  0.00     0.039 A 
ATOM     35  C   UNL A   1      35.435  34.572  28.939  1.00  0.00     0.014 A 
ATOM     36  C   UNL A   1      33.977  33.675  30.648  1.00  0.00     0.014 A 
ATOM     37  C   UNL A   1      36.537  33.989  29.570  1.00  0.00     0.010 A 
ATOM     38  C   UNL A   1      35.083  33.141  31.309  1.00  0.00     0.010 A 
ATOM     39  C   UNL A   1      36.371  33.280  30.768  1.00  0.00    -0.014 A 
BRANCH  39  40
ATOM     40  C   UNL A   1      37.523  32.643  31.453  1.00  0.00     0.031 A 
ATOM     41  C   UNL A   1      38.232  31.487  30.805  1.00  0.00     0.074 A 
ATOM     42  C   UNL A   1      37.888  33.063  32.679  1.00  0.00     0.049 A 
ATOM     43  N   UNL A   1      39.185  30.726  31.281  1.00  0.00    -0.248 NA
ATOM     44  C   UNL A   1      37.793  31.122  29.449  1.00  0.00     0.031 C 
ATOM     45  C   UNL A   1      37.258  34.156  33.419  1.00  0.00     0.029 A 
ATOM     46  N   UNL A   1      38.868  32.609  33.524  1.00  0.00    -0.354 N 
ATOM     47  C   UNL A   1      39.439  29.779  30.296  1.00  0.00     0.074 A 
ATOM     48  C   UNL A   1      38.517  30.038  29.211  1.00  0.00     0.031 C 
ATOM     49  C   UNL A   1      37.872  34.294  34.605  1.00  0.00     0.029 A 
ATOM     50  C   UNL A   1      38.913  33.278  34.723  1.00  0.00     0.049 A 
ATOM     51  H   UNL A   1      39.482  31.874  33.295  1.00  0.00     0.167 HD
ATOM     52  C   UNL A   1      40.369  28.795  30.292  1.00  0.00     0.037 A 
ATOM     53  C   UNL A   1      39.698  33.083  35.799  1.00  0.00     0.037 A 
ATOM     54  C   UNL A   1      41.310  28.569  31.357  1.00  0.00     0.049 A 
ATOM     55  C   UNL A   1      40.726  31.985  35.768  1.00  0.00     0.074 A 
ATOM     56  C   UNL A   1      42.340  27.647  31.418  1.00  0.00     0.029 A 
ATOM     57  N   UNL A   1      41.336  29.280  32.547  1.00  0.00    -0.354 N 
ATOM     58  N   UNL A   1      40.991  31.130  34.813  1.00  0.00    -0.248 NA
ATOM     59  C   UNL A   1      41.563  31.827  36.965  1.00  0.00     0.031 C 
ATOM     60  C   UNL A   1      42.967  27.776  32.663  1.00  0.00     0.029 A 
ATOM     61  C   UNL A   1      42.351  28.803  33.360  1.00  0.00     0.049 A 
ATOM     62  H   UNL A   1      40.724  30.014  32.781  1.00  0.00     0.167 HD
ATOM     63  C   UNL A   1      42.034  30.344  35.281  1.00  0.00     0.074 A 
ATOM     64  C   UNL A   1      42.364  30.835  36.604  1.00  0.00     0.031 C 
ATOM     65  C   UNL A   1      42.662  29.309  34.673  1.00  0.00     0.037 A 
BRANCH  52  66
ATOM     66  C   UNL A   1      40.417  27.888  29.097  1.00  0.00     0.064 A 
ATOM     67  C   UNL A   1      39.661  26.708  29.039  1.00  0.00     0.173 A 
ATOM     68  C   UNL A   1      41.201  28.221  27.983  1.00  0.00     0.173 A 
ATOM     69  F   UNL A   1      38.903  26.341  30.083  1.00  0.00    -0.203 F 
ATOM     70  C   UNL A   1      39.711  25.880  27.921  1.00  0.00     0.198 A 
ATOM     71  C   UNL A   1      41.228  27.403  26.855  1.00  0.00     0.198 A 
ATOM     72  F   UNL A   1      41.939  29.341  27.984  1.00  0.00    -0.203 F 
ATOM     73  F   UNL A   1      39.015  24.734  27.907  1.00  0.00    -0.200 F 
ATOM     74  C   UNL A   1      40.489  26.230  26.828  1.00  0.00     0.200 A 
ATOM     75  F   UNL A   1      41.973  27.749  25.796  1.00  0.00    -0.200 F 
ATOM     76  F   UNL A   1      40.532  25.434  25.751  1.00  0.00    -0.200 F 
ENDBRANCH  52  66
BRANCH  53  77
ATOM     77  C   UNL A   1      39.548  33.958  36.990  1.00  0.00     0.064 A 
ATOM     78  C   UNL A   1      38.761  33.560  38.078  1.00  0.00     0.173 A 
ATOM     79  C   UNL A   1      40.195  35.200  37.069  1.00  0.00     0.173 A 
ATOM     80  F   UNL A   1      38.107  32.390  38.038  1.00  0.00    -0.203 F 
ATOM     81  C   UNL A   1      38.617  34.375  39.199  1.00  0.00     0.198 A 
ATOM     82  C   UNL A   1      40.070  36.003  38.201  1.00  0.00     0.198 A 
ATOM     83  F   UNL A   1      40.963  35.625  36.055  1.00  0.00    -0.203 F 
ATOM     84  F   UNL A   1      37.833  33.985  40.213  1.00  0.00    -0.200 F 
ATOM     85  C   UNL A   1      39.278  35.593  39.262  1.00  0.00     0.200 A 
ATOM     86  F   UNL A   1      40.720  37.173  38.264  1.00  0.00    -0.200 F 
ATOM     87  F   UNL A   1      39.147  36.373  40.344  1.00  0.00    -0.200 F 
ENDBRANCH  53  77
BRANCH  65  88
ATOM     88  C   UNL A   1      43.779  28.648  35.423  1.00  0.00     0.064 A 
ATOM     89  C   UNL A   1      43.533  27.603  36.325  1.00  0.00     0.173 A 
ATOM     90  C   UNL A   1      45.110  29.031  35.201  1.00  0.00     0.173 A 
ATOM     91  F   UNL A   1      42.275  27.214  36.581  1.00  0.00    -0.203 F 
ATOM     92  C   UNL A   1      44.583  26.973  36.989  1.00  0.00     0.198 A 
ATOM     93  C   UNL A   1      46.157  28.384  35.849  1.00  0.00     0.198 A 
ATOM     94  F   UNL A   1      45.393  30.024  34.344  1.00  0.00    -0.203 F 
ATOM     95  F   UNL A   1      44.325  26.000  37.873  1.00  0.00    -0.200 F 
ATOM     96  C   UNL A   1      45.892  27.359  36.745  1.00  0.00     0.200 A 
ATOM     97  F   UNL A   1      47.423  28.751  35.605  1.00  0.00    -0.200 F 
ATOM     98  F   UNL A   1      46.901  26.745  37.379  1.00  0.00    -0.200 F 
ENDBRANCH  65  88
ENDBRANCH  39  40
ENDBRANCH  31  34
ENDBRANCH  29  30
ENDBRANCH  28  29
ENDBRANCH   1  28
TORSDOF 14
ENDMDL
MODEL 3
REMARK VINA RESULT:     -12.8      5.591     11.086
REMARK SMILES COc1cccc(Cn2c(=O)c(=O)n(CC(=O)NCCCNC(=O)c3ccc(-c4c5nc(c(-c6c(F)c(F)c(F)c(F)c6F)c6ccc([nH]6)c(-c6c(F)c(F)c(F)c(F)c6F)c6nc(c(-c7c(F)c(F)c(F)c(F)c7F)c7ccc4[nH]7)C=C6)C=C5)cc3)c3ccccc32)c1
REMARK SMILES IDX 19 1 18 2 16 3 17 4 15 6 14 7 9 8 10 9 93 10 11 11 12 12
REMARK SMILES IDX 88 13 92 14 13 15 89 16 91 17 90 18 8 19 7 20 3 21 4 22
REMARK SMILES IDX 94 23 5 24 6 25 2 26 1 27 20 28 21 29 22 30 23 31 24 33
REMARK SMILES IDX 25 34 26 35 87 36 27 37 86 38 28 39 29 40 30 41 80 42 31 43
REMARK SMILES IDX 85 44 79 45 81 46 32 47 84 48 78 49 77 50 33 52 65 53 45 54
REMARK SMILES IDX 64 55 46 56 49 57 63 58 82 59 47 60 48 61 62 63 83 64 50 65
REMARK SMILES IDX 34 66 35 67 43 68 36 69 37 70 41 71 44 72 38 73 39 74 42 75
REMARK SMILES IDX 40 76 66 77 67 78 75 79 68 80 69 81 73 82 76 83 70 84 71 85
REMARK SMILES IDX 74 86 72 87 51 88 52 89 60 90 53 91 54 92 58 93 61 94 55 95
REMARK SMILES IDX 56 96 59 97 57 98
REMARK H PARENT 18 5 22 32 81 51 49 62
REMARK Flexibility Score: inf
ROOT
ATOM      1  C   UNL A   1      37.557  20.790  24.358  1.00  0.00     0.117 C 
ENDROOT
BRANCH   1   2
ATOM      2  N   UNL A   1      37.985  22.015  25.001  1.00  0.00    -0.354 N 
ATOM      3  C   UNL A   1      37.289  22.943  25.706  1.00  0.00     0.240 C 
ATOM      4  O   UNL A   1      37.948  23.892  26.152  1.00  0.00    -0.273 OA
ATOM      5  H   UNL A   1      38.946  22.207  24.913  1.00  0.00     0.163 HD
BRANCH   3   6
ATOM      6  C   UNL A   1      35.833  22.769  26.154  1.00  0.00     0.226 C 
BRANCH   6   7
ATOM      7  N   UNL A   1      34.679  22.889  25.274  1.00  0.00    -0.293 N 
ATOM      8  N   UNL A   1      32.608  23.279  23.409  1.00  0.00    -0.298 N 
ATOM      9  C   UNL A   1      33.707  24.115  23.380  1.00  0.00     0.317 A 
ATOM     10  C   UNL A   1      32.847  21.967  23.896  1.00  0.00     0.068 A 
ATOM     11  O   UNL A   1      34.041  24.824  22.433  1.00  0.00    -0.263 OA
ATOM     12  C   UNL A   1      34.490  24.134  24.685  1.00  0.00     0.317 A 
ATOM     13  C   UNL A   1      33.933  21.762  24.798  1.00  0.00     0.069 A 
ATOM     14  C   UNL A   1      32.153  20.868  23.375  1.00  0.00     0.028 A 
ATOM     15  O   UNL A   1      34.948  25.194  25.105  1.00  0.00    -0.263 OA
ATOM     16  C   UNL A   1      34.253  20.455  25.184  1.00  0.00     0.028 A 
ATOM     17  C   UNL A   1      32.540  19.571  23.718  1.00  0.00     0.002 A 
ATOM     18  C   UNL A   1      33.576  19.367  24.626  1.00  0.00     0.002 A 
BRANCH   8  19
ATOM     19  C   UNL A   1      31.351  23.771  22.842  1.00  0.00     0.162 C 
BRANCH  19  20
ATOM     20  C   UNL A   1      30.808  24.875  23.759  1.00  0.00    -0.024 A 
ATOM     21  C   UNL A   1      30.744  27.274  24.127  1.00  0.00     0.119 A 
ATOM     22  C   UNL A   1      30.652  27.078  25.499  1.00  0.00     0.046 A 
ATOM     23  C   UNL A   1      30.711  26.188  23.261  1.00  0.00     0.052 A 
ATOM     24  C   UNL A   1      30.561  25.778  26.001  1.00  0.00     0.004 A 
ATOM     25  C   UNL A   1      30.681  24.678  25.141  1.00  0.00     0.006 A 
BRANCH  21  26
ATOM     26  O   UNL A   1      31.213  28.461  23.634  1.00  0.00    -0.497 OA
ATOM     27  C   UNL A   1      31.732  29.328  24.628  1.00  0.00     0.278 C 
ENDBRANCH  21  26
ENDBRANCH  19  20
ENDBRANCH   8  19
ENDBRANCH   6   7
ENDBRANCH   3   6
ENDBRANCH   1   2
BRANCH   1  28
ATOM     28  C   UNL A   1      38.206  19.567  25.001  1.00  0.00     0.042 C 
BRANCH  28  29
ATOM     29  C   UNL A   1      39.277  19.912  26.036  1.00  0.00     0.118 C 
BRANCH  29  30
ATOM     30  N   UNL A   1      40.406  18.994  25.997  1.00  0.00    -0.352 N 
ATOM     31  C   UNL A   1      41.754  19.253  26.023  1.00  0.00     0.251 C 
ATOM     32  H   UNL A   1      40.166  18.041  25.943  1.00  0.00     0.163 HD
ATOM     33  O   UNL A   1      42.546  18.341  25.802  1.00  0.00    -0.269 OA
BRANCH  31  34
ATOM     34  C   UNL A   1      42.273  20.614  26.300  1.00  0.00     0.039 A 
ATOM     35  C   UNL A   1      42.426  21.008  27.634  1.00  0.00     0.014 A 
ATOM     36  C   UNL A   1      42.534  21.526  25.275  1.00  0.00     0.014 A 
ATOM     37  C   UNL A   1      42.864  22.298  27.941  1.00  0.00     0.010 A 
ATOM     38  C   UNL A   1      43.025  22.795  25.577  1.00  0.00     0.010 A 
ATOM     39  C   UNL A   1      43.181  23.199  26.913  1.00  0.00    -0.014 A 
BRANCH  39  40
ATOM     40  C   UNL A   1      43.638  24.578  27.212  1.00  0.00     0.031 A 
ATOM     41  C   UNL A   1      42.660  25.595  27.731  1.00  0.00     0.074 A 
ATOM     42  C   UNL A   1      44.912  24.930  26.957  1.00  0.00     0.049 A 
ATOM     43  N   UNL A   1      42.831  26.874  27.949  1.00  0.00    -0.248 NA
ATOM     44  C   UNL A   1      41.300  25.113  28.018  1.00  0.00     0.031 C 
ATOM     45  C   UNL A   1      45.945  24.038  26.427  1.00  0.00     0.029 A 
ATOM     46  N   UNL A   1      45.552  26.136  27.096  1.00  0.00    -0.354 N 
ATOM     47  C   UNL A   1      41.597  27.352  28.373  1.00  0.00     0.074 A 
ATOM     48  C   UNL A   1      40.678  26.236  28.347  1.00  0.00     0.031 C 
ATOM     49  C   UNL A   1      47.091  24.724  26.293  1.00  0.00     0.029 A 
ATOM     50  C   UNL A   1      46.865  26.110  26.692  1.00  0.00     0.049 A 
ATOM     51  H   UNL A   1      45.113  26.942  27.450  1.00  0.00     0.167 HD
ATOM     52  C   UNL A   1      41.269  28.606  28.765  1.00  0.00     0.037 A 
ATOM     53  C   UNL A   1      47.778  27.099  26.639  1.00  0.00     0.037 A 
ATOM     54  C   UNL A   1      42.198  29.703  28.828  1.00  0.00     0.049 A 
ATOM     55  C   UNL A   1      47.388  28.482  27.084  1.00  0.00     0.074 A 
ATOM     56  C   UNL A   1      41.983  30.993  29.281  1.00  0.00     0.029 A 
ATOM     57  N   UNL A   1      43.524  29.633  28.429  1.00  0.00    -0.354 N 
ATOM     58  N   UNL A   1      46.233  28.910  27.529  1.00  0.00    -0.248 NA
ATOM     59  C   UNL A   1      48.428  29.518  27.016  1.00  0.00     0.031 C 
ATOM     60  C   UNL A   1      43.171  31.715  29.121  1.00  0.00     0.029 A 
ATOM     61  C   UNL A   1      44.135  30.864  28.604  1.00  0.00     0.049 A 
ATOM     62  H   UNL A   1      43.966  28.829  28.072  1.00  0.00     0.167 HD
ATOM     63  C   UNL A   1      46.409  30.257  27.814  1.00  0.00     0.074 A 
ATOM     64  C   UNL A   1      47.789  30.572  27.503  1.00  0.00     0.031 C 
ATOM     65  C   UNL A   1      45.510  31.153  28.288  1.00  0.00     0.037 A 
BRANCH  52  66
ATOM     66  C   UNL A   1      39.842  28.860  29.159  1.00  0.00     0.064 A 
ATOM     67  C   UNL A   1      39.405  28.698  30.481  1.00  0.00     0.173 A 
ATOM     68  C   UNL A   1      38.910  29.304  28.208  1.00  0.00     0.173 A 
ATOM     69  F   UNL A   1      40.254  28.265  31.425  1.00  0.00    -0.203 F 
ATOM     70  C   UNL A   1      38.080  28.943  30.833  1.00  0.00     0.198 A 
ATOM     71  C   UNL A   1      37.592  29.574  28.569  1.00  0.00     0.198 A 
ATOM     72  F   UNL A   1      39.278  29.480  26.931  1.00  0.00    -0.203 F 
ATOM     73  F   UNL A   1      37.674  28.738  32.094  1.00  0.00    -0.200 F 
ATOM     74  C   UNL A   1      37.176  29.386  29.879  1.00  0.00     0.200 A 
ATOM     75  F   UNL A   1      36.724  30.012  27.648  1.00  0.00    -0.200 F 
ATOM     76  F   UNL A   1      35.903  29.627  30.220  1.00  0.00    -0.200 F 
ENDBRANCH  52  66
BRANCH  53  77
ATOM     77  C   UNL A   1      49.153  26.807  26.159  1.00  0.00     0.064 A 
ATOM     78  C   UNL A   1      50.129  26.314  27.035  1.00  0.00     0.173 A 
ATOM     79  C   UNL A   1      49.515  27.003  24.819  1.00  0.00     0.173 A 
ATOM     80  F   UNL A   1      49.834  26.131  28.331  1.00  0.00    -0.203 F 
ATOM     81  C   UNL A   1      51.420  26.037  26.592  1.00  0.00     0.198 A 
ATOM     82  C   UNL A   1      50.800  26.702  24.371  1.00  0.00     0.198 A 
ATOM     83  F   UNL A   1      48.616  27.469  23.940  1.00  0.00    -0.203 F 
ATOM     84  F   UNL A   1      52.343  25.597  27.457  1.00  0.00    -0.200 F 
ATOM     85  C   UNL A   1      51.753  26.224  25.259  1.00  0.00     0.200 A 
ATOM     86  F   UNL A   1      51.114  26.872  23.080  1.00  0.00    -0.200 F 
ATOM     87  F   UNL A   1      52.992  25.949  24.830  1.00  0.00    -0.200 F 
ENDBRANCH  53  77
BRANCH  65  88
ATOM     88  C   UNL A   1      45.994  32.553  28.516  1.00  0.00     0.064 A 
ATOM     89  C   UNL A   1      46.584  32.933  29.730  1.00  0.00     0.173 A 
ATOM     90  C   UNL A   1      45.912  33.510  27.493  1.00  0.00     0.173 A 
ATOM     91  F   UNL A   1      46.669  32.057  30.742  1.00  0.00    -0.203 F 
ATOM     92  C   UNL A   1      47.061  34.227  29.916  1.00  0.00     0.198 A 
ATOM     93  C   UNL A   1      46.412  34.795  27.675  1.00  0.00     0.198 A 
ATOM     94  F   UNL A   1      45.359  33.191  26.313  1.00  0.00    -0.203 F 
ATOM     95  F   UNL A   1      47.590  34.580  31.096  1.00  0.00    -0.200 F 
ATOM     96  C   UNL A   1      46.982  35.154  28.888  1.00  0.00     0.200 A 
ATOM     97  F   UNL A   1      46.343  35.687  26.677  1.00  0.00    -0.200 F 
ATOM     98  F   UNL A   1      47.451  36.397  29.067  1.00  0.00    -0.200 F 
ENDBRANCH  65  88
ENDBRANCH  39  40
ENDBRANCH  31  34
ENDBRANCH  29  30
ENDBRANCH  28  29
ENDBRANCH   1  28
TORSDOF 14
ENDMDL
