MODEL 1
REMARK VINA RESULT:     -13.5      0.000      0.000
REMARK SMILES C[C@H](NC(=O)c1c(C(=O)NCCCNC(=O)c2ccc(-c3c4nc(c(-c5c(F)c(F)c(F)c(F)c5F)c5ccc([nH]5)c(-c5c(F)c(F)c(F)c(F)c5F)c5nc(c(-c6c(F)c(F)c(F)c(F)c6F)c6ccc3[nH]6)C=C5)C=C4)cc2)cnn1C)[C@]12C[C@H]3C[C@H](C[C@H](C3)C1)C2
REMARK SMILES IDX 11 1 10 2 8 3 9 4 7 6 6 7 82 8 80 9 81 10 83 11 4 12 3 13
REMARK SMILES IDX 5 15 2 16 1 17 84 18 85 19 92 20 93 21 86 22 90 23 88 24
REMARK SMILES IDX 87 25 91 26 89 27 12 28 13 29 14 30 15 31 16 33 17 34 18 35
REMARK SMILES IDX 79 36 19 37 78 38 20 39 21 40 22 41 72 42 23 43 77 44 71 45
REMARK SMILES IDX 73 46 24 47 76 48 70 49 69 50 25 52 57 53 37 54 56 55 38 56
REMARK SMILES IDX 41 57 55 58 74 59 39 60 40 61 54 63 75 64 42 65 26 66 27 67
REMARK SMILES IDX 35 68 28 69 29 70 33 71 36 72 30 73 31 74 34 75 32 76 58 77
REMARK SMILES IDX 59 78 67 79 60 80 61 81 65 82 68 83 62 84 63 85 66 86 64 87
REMARK SMILES IDX 43 88 44 89 52 90 45 91 46 92 50 93 53 94 47 95 48 96 51 97
REMARK SMILES IDX 49 98
REMARK H PARENT 10 5 3 14 14 32 73 51 41 62
REMARK Flexibility Score: inf
ROOT
ATOM      1  C   UNL A   1      31.628  30.844  26.012  1.00  0.00     0.118 C 
ENDROOT
BRANCH   1   2
ATOM      2  N   UNL A   1      31.559  29.629  26.811  1.00  0.00    -0.352 N 
ATOM      3  C   UNL A   1      31.711  28.292  26.581  1.00  0.00     0.255 C 
ATOM      4  O   UNL A   1      31.611  27.606  27.609  1.00  0.00    -0.269 OA
ATOM      5  H   UNL A   1      31.352  29.820  27.755  1.00  0.00     0.163 HD
BRANCH   3   6
ATOM      6  C   UNL A   1      32.006  27.633  25.314  1.00  0.00     0.090 A 
ATOM      7  C   UNL A   1      31.365  26.741  24.449  1.00  0.00     0.138 A 
ATOM      8  N   UNL A   1      32.177  26.672  23.332  1.00  0.00    -0.262 N 
ATOM      9  C   UNL A   1      33.278  27.817  24.687  1.00  0.00     0.149 A 
ATOM     10  N   UNL A   1      33.389  27.216  23.507  1.00  0.00    -0.180 NA
ATOM     11  C   UNL A   1      31.885  26.093  22.038  1.00  0.00     0.174 C 
BRANCH   7  12
ATOM     12  C   UNL A   1      30.090  26.096  24.481  1.00  0.00     0.270 C 
ATOM     13  N   UNL A   1      29.926  24.880  25.100  1.00  0.00    -0.348 N 
ATOM     14  H   UNL A   1      29.004  24.543  25.025  1.00  0.00     0.164 HD
ATOM     15  O   UNL A   1      29.112  26.571  23.902  1.00  0.00    -0.267 OA
BRANCH  13  16
ATOM     16  C   UNL A   1      30.802  23.956  25.855  1.00  0.00     0.085 C 
ATOM     17  C   UNL A   1      30.082  23.164  26.946  1.00  0.00     0.031 C 
BRANCH  16  18
ATOM     18  C   UNL A   1      31.790  23.124  24.959  1.00  0.00    -0.009 C 
ATOM     19  C   UNL A   1      33.226  23.693  24.952  1.00  0.00     0.012 C 
ATOM     20  C   UNL A   1      31.309  23.064  23.479  1.00  0.00     0.012 C 
ATOM     21  C   UNL A   1      31.865  21.656  25.487  1.00  0.00     0.012 C 
ATOM     22  C   UNL A   1      34.176  22.835  24.098  1.00  0.00    -0.010 C 
ATOM     23  C   UNL A   1      32.249  22.208  22.612  1.00  0.00    -0.010 C 
ATOM     24  C   UNL A   1      32.799  20.794  24.617  1.00  0.00    -0.010 C 
ATOM     25  C   UNL A   1      34.210  21.399  24.649  1.00  0.00     0.007 C 
ATOM     26  C   UNL A   1      33.662  22.813  22.652  1.00  0.00     0.007 C 
ATOM     27  C   UNL A   1      32.285  20.778  23.169  1.00  0.00     0.007 C 
ENDBRANCH  16  18
ENDBRANCH  13  16
ENDBRANCH   7  12
ENDBRANCH   3   6
ENDBRANCH   1   2
BRANCH   1  28
ATOM     28  C   UNL A   1      31.415  32.092  26.883  1.00  0.00     0.042 C 
BRANCH  28  29
ATOM     29  C   UNL A   1      32.705  32.870  27.147  1.00  0.00     0.118 C 
BRANCH  29  30
ATOM     30  N   UNL A   1      32.462  34.218  27.633  1.00  0.00    -0.352 N 
ATOM     31  C   UNL A   1      33.017  34.940  28.659  1.00  0.00     0.251 C 
ATOM     32  H   UNL A   1      31.768  34.705  27.132  1.00  0.00     0.163 HD
ATOM     33  O   UNL A   1      32.525  36.036  28.932  1.00  0.00    -0.269 OA
BRANCH  31  34
ATOM     34  C   UNL A   1      34.157  34.449  29.479  1.00  0.00     0.039 A 
ATOM     35  C   UNL A   1      35.445  34.593  28.943  1.00  0.00     0.014 A 
ATOM     36  C   UNL A   1      34.004  33.749  30.678  1.00  0.00     0.014 A 
ATOM     37  C   UNL A   1      36.561  34.060  29.599  1.00  0.00     0.010 A 
ATOM     38  C   UNL A   1      35.126  33.267  31.367  1.00  0.00     0.010 A 
ATOM     39  C   UNL A   1      36.414  33.396  30.824  1.00  0.00    -0.014 A 
BRANCH  39  40
ATOM     40  C   UNL A   1      37.577  32.774  31.514  1.00  0.00     0.031 A 
ATOM     41  C   UNL A   1      38.359  31.679  30.836  1.00  0.00     0.074 A 
ATOM     42  C   UNL A   1      37.916  33.150  32.761  1.00  0.00     0.049 A 
ATOM     43  N   UNL A   1      39.288  30.897  31.328  1.00  0.00    -0.248 NA
ATOM     44  C   UNL A   1      38.039  31.413  29.425  1.00  0.00     0.031 C 
ATOM     45  C   UNL A   1      37.246  34.185  33.549  1.00  0.00     0.029 A 
ATOM     46  N   UNL A   1      38.914  32.694  33.588  1.00  0.00    -0.354 N 
ATOM     47  C   UNL A   1      39.605  30.000  30.316  1.00  0.00     0.074 A 
ATOM     48  C   UNL A   1      38.791  30.351  29.170  1.00  0.00     0.031 C 
ATOM     49  C   UNL A   1      37.863  34.298  34.737  1.00  0.00     0.029 A 
ATOM     50  C   UNL A   1      38.950  33.324  34.807  1.00  0.00     0.049 A 
ATOM     51  H   UNL A   1      39.544  31.982  33.330  1.00  0.00     0.167 HD
ATOM     52  C   UNL A   1      40.482  28.969  30.345  1.00  0.00     0.037 A 
ATOM     53  C   UNL A   1      39.759  33.131  35.864  1.00  0.00     0.037 A 
ATOM     54  C   UNL A   1      41.359  28.663  31.444  1.00  0.00     0.049 A 
ATOM     55  C   UNL A   1      40.823  32.073  35.818  1.00  0.00     0.074 A 
ATOM     56  C   UNL A   1      42.300  27.651  31.546  1.00  0.00     0.029 A 
ATOM     57  N   UNL A   1      41.426  29.392  32.619  1.00  0.00    -0.354 N 
ATOM     58  N   UNL A   1      41.076  31.203  34.873  1.00  0.00    -0.248 NA
ATOM     59  C   UNL A   1      41.708  31.967  36.988  1.00  0.00     0.031 C 
ATOM     60  C   UNL A   1      42.942  27.773  32.784  1.00  0.00     0.029 A 
ATOM     61  C   UNL A   1      42.406  28.867  33.444  1.00  0.00     0.049 A 
ATOM     62  H   UNL A   1      40.862  30.169  32.836  1.00  0.00     0.167 HD
ATOM     63  C   UNL A   1      42.145  30.447  35.332  1.00  0.00     0.074 A 
ATOM     64  C   UNL A   1      42.506  30.969  36.634  1.00  0.00     0.031 C 
ATOM     65  C   UNL A   1      42.763  29.405  34.728  1.00  0.00     0.037 A 
BRANCH  52  66
ATOM     66  C   UNL A   1      40.518  28.068  29.151  1.00  0.00     0.064 A 
ATOM     67  C   UNL A   1      39.709  26.926  29.066  1.00  0.00     0.173 A 
ATOM     68  C   UNL A   1      41.352  28.377  28.066  1.00  0.00     0.173 A 
ATOM     69  F   UNL A   1      38.909  26.586  30.089  1.00  0.00    -0.203 F 
ATOM     70  C   UNL A   1      39.745  26.114  27.937  1.00  0.00     0.198 A 
ATOM     71  C   UNL A   1      41.375  27.569  26.932  1.00  0.00     0.198 A 
ATOM     72  F   UNL A   1      42.144  29.460  28.104  1.00  0.00    -0.203 F 
ATOM     73  F   UNL A   1      38.985  25.011  27.884  1.00  0.00    -0.200 F 
ATOM     74  C   UNL A   1      40.573  26.438  26.870  1.00  0.00     0.200 A 
ATOM     75  F   UNL A   1      42.174  27.886  25.904  1.00  0.00    -0.200 F 
ATOM     76  F   UNL A   1      40.605  25.653  25.784  1.00  0.00    -0.200 F 
ENDBRANCH  52  66
BRANCH  53  77
ATOM     77  C   UNL A   1      39.598  33.983  37.066  1.00  0.00     0.064 A 
ATOM     78  C   UNL A   1      40.205  35.244  37.132  1.00  0.00     0.173 A 
ATOM     79  C   UNL A   1      38.824  33.561  38.155  1.00  0.00     0.173 A 
ATOM     80  F   UNL A   1      40.970  35.674  36.118  1.00  0.00    -0.203 F 
ATOM     81  C   UNL A   1      40.045  36.056  38.252  1.00  0.00     0.198 A 
ATOM     82  C   UNL A   1      38.655  34.379  39.269  1.00  0.00     0.198 A 
ATOM     83  F   UNL A   1      38.226  32.361  38.132  1.00  0.00    -0.203 F 
ATOM     84  F   UNL A   1      40.648  37.251  38.301  1.00  0.00    -0.200 F 
ATOM     85  C   UNL A   1      39.267  35.625  39.317  1.00  0.00     0.200 A 
ATOM     86  F   UNL A   1      37.900  33.963  40.295  1.00  0.00    -0.200 F 
ATOM     87  F   UNL A   1      39.109  36.409  40.393  1.00  0.00    -0.200 F 
ENDBRANCH  53  77
BRANCH  65  88
ATOM     88  C   UNL A   1      43.902  28.770  35.459  1.00  0.00     0.064 A 
ATOM     89  C   UNL A   1      45.222  29.190  35.244  1.00  0.00     0.173 A 
ATOM     90  C   UNL A   1      43.669  27.763  36.407  1.00  0.00     0.173 A 
ATOM     91  F   UNL A   1      45.489  30.142  34.337  1.00  0.00    -0.203 F 
ATOM     92  C   UNL A   1      46.275  28.616  35.951  1.00  0.00     0.198 A 
ATOM     93  C   UNL A   1      44.724  27.197  37.116  1.00  0.00     0.198 A 
ATOM     94  F   UNL A   1      42.422  27.330  36.639  1.00  0.00    -0.203 F 
ATOM     95  F   UNL A   1      47.532  29.018  35.720  1.00  0.00    -0.200 F 
ATOM     96  C   UNL A   1      46.025  27.622  36.887  1.00  0.00     0.200 A 
ATOM     97  F   UNL A   1      44.483  26.235  38.018  1.00  0.00    -0.200 F 
ATOM     98  F   UNL A   1      47.040  27.070  37.565  1.00  0.00    -0.200 F 
ENDBRANCH  65  88
ENDBRANCH  39  40
ENDBRANCH  31  34
ENDBRANCH  29  30
ENDBRANCH  28  29
ENDBRANCH   1  28
TORSDOF 13
ENDMDL
MODEL 2
REMARK VINA RESULT:     -13.5      0.053      1.560
REMARK SMILES C[C@H](NC(=O)c1c(C(=O)NCCCNC(=O)c2ccc(-c3c4nc(c(-c5c(F)c(F)c(F)c(F)c5F)c5ccc([nH]5)c(-c5c(F)c(F)c(F)c(F)c5F)c5nc(c(-c6c(F)c(F)c(F)c(F)c6F)c6ccc3[nH]6)C=C5)C=C4)cc2)cnn1C)[C@]12C[C@H]3C[C@H](C[C@H](C3)C1)C2
REMARK SMILES IDX 11 1 10 2 8 3 9 4 7 6 6 7 82 8 80 9 81 10 83 11 4 12 3 13
REMARK SMILES IDX 5 15 2 16 1 17 84 18 85 19 92 20 93 21 86 22 90 23 88 24
REMARK SMILES IDX 87 25 91 26 89 27 12 28 13 29 14 30 15 31 16 33 17 34 18 35
REMARK SMILES IDX 79 36 19 37 78 38 20 39 21 40 22 41 72 42 23 43 77 44 71 45
REMARK SMILES IDX 73 46 24 47 76 48 70 49 69 50 25 52 57 53 37 54 56 55 38 56
REMARK SMILES IDX 41 57 55 58 74 59 39 60 40 61 54 63 75 64 42 65 26 66 27 67
REMARK SMILES IDX 35 68 28 69 29 70 33 71 36 72 30 73 31 74 34 75 32 76 58 77
REMARK SMILES IDX 59 78 67 79 60 80 61 81 65 82 68 83 62 84 63 85 66 86 64 87
REMARK SMILES IDX 43 88 44 89 52 90 45 91 46 92 50 93 53 94 47 95 48 96 51 97
REMARK SMILES IDX 49 98
REMARK H PARENT 10 5 3 14 14 32 73 51 41 62
REMARK Flexibility Score: inf
ROOT
ATOM      1  C   UNL A   1      31.618  30.859  25.999  1.00  0.00     0.118 C 
ENDROOT
BRANCH   1   2
ATOM      2  N   UNL A   1      31.566  29.648  26.804  1.00  0.00    -0.352 N 
ATOM      3  C   UNL A   1      31.733  28.312  26.580  1.00  0.00     0.255 C 
ATOM      4  O   UNL A   1      31.644  27.630  27.612  1.00  0.00    -0.269 OA
ATOM      5  H   UNL A   1      31.359  29.841  27.747  1.00  0.00     0.163 HD
BRANCH   3   6
ATOM      6  C   UNL A   1      32.033  27.649  25.316  1.00  0.00     0.090 A 
ATOM      7  C   UNL A   1      31.393  26.760  24.448  1.00  0.00     0.138 A 
ATOM      8  N   UNL A   1      32.211  26.686  23.336  1.00  0.00    -0.262 N 
ATOM      9  C   UNL A   1      33.310  27.827  24.696  1.00  0.00     0.149 A 
ATOM     10  N   UNL A   1      33.424  27.224  23.518  1.00  0.00    -0.180 NA
ATOM     11  C   UNL A   1      31.923  26.107  22.041  1.00  0.00     0.174 C 
BRANCH   7  12
ATOM     12  C   UNL A   1      30.114  26.121  24.473  1.00  0.00     0.270 C 
ATOM     13  N   UNL A   1      29.943  24.902  25.084  1.00  0.00    -0.348 N 
ATOM     14  H   UNL A   1      29.019  24.570  25.004  1.00  0.00     0.164 HD
ATOM     15  O   UNL A   1      29.139  26.605  23.895  1.00  0.00    -0.267 OA
BRANCH  13  16
ATOM     16  C   UNL A   1      30.812  23.968  25.834  1.00  0.00     0.085 C 
ATOM     17  C   UNL A   1      30.084  23.166  26.914  1.00  0.00     0.031 C 
BRANCH  16  18
ATOM     18  C   UNL A   1      31.804  23.143  24.936  1.00  0.00    -0.009 C 
ATOM     19  C   UNL A   1      33.233  23.730  24.915  1.00  0.00     0.012 C 
ATOM     20  C   UNL A   1      31.312  23.070  23.459  1.00  0.00     0.012 C 
ATOM     21  C   UNL A   1      31.900  21.679  25.470  1.00  0.00     0.012 C 
ATOM     22  C   UNL A   1      34.187  22.878  24.058  1.00  0.00    -0.010 C 
ATOM     23  C   UNL A   1      32.257  22.221  22.590  1.00  0.00    -0.010 C 
ATOM     24  C   UNL A   1      32.838  20.824  24.599  1.00  0.00    -0.010 C 
ATOM     25  C   UNL A   1      34.242  21.445  24.617  1.00  0.00     0.007 C 
ATOM     26  C   UNL A   1      33.663  22.843  22.616  1.00  0.00     0.007 C 
ATOM     27  C   UNL A   1      32.314  20.794  23.154  1.00  0.00     0.007 C 
ENDBRANCH  16  18
ENDBRANCH  13  16
ENDBRANCH   7  12
ENDBRANCH   3   6
ENDBRANCH   1   2
BRANCH   1  28
ATOM     28  C   UNL A   1      31.396  32.109  26.865  1.00  0.00     0.042 C 
BRANCH  28  29
ATOM     29  C   UNL A   1      32.690  32.857  27.189  1.00  0.00     0.118 C 
BRANCH  29  30
ATOM     30  N   UNL A   1      32.458  34.215  27.650  1.00  0.00    -0.352 N 
ATOM     31  C   UNL A   1      33.025  34.954  28.658  1.00  0.00     0.251 C 
ATOM     32  H   UNL A   1      31.763  34.695  27.145  1.00  0.00     0.163 HD
ATOM     33  O   UNL A   1      32.541  36.057  28.913  1.00  0.00    -0.269 OA
BRANCH  31  34
ATOM     34  C   UNL A   1      34.170  34.473  29.479  1.00  0.00     0.039 A 
ATOM     35  C   UNL A   1      35.447  34.538  28.903  1.00  0.00     0.014 A 
ATOM     36  C   UNL A   1      34.025  33.852  30.721  1.00  0.00     0.014 A 
ATOM     37  C   UNL A   1      36.561  34.006  29.563  1.00  0.00     0.010 A 
ATOM     38  C   UNL A   1      35.148  33.372  31.411  1.00  0.00     0.010 A 
ATOM     39  C   UNL A   1      36.424  33.423  30.830  1.00  0.00    -0.014 A 
BRANCH  39  40
ATOM     40  C   UNL A   1      37.583  32.802  31.527  1.00  0.00     0.031 A 
ATOM     41  C   UNL A   1      38.368  31.704  30.857  1.00  0.00     0.074 A 
ATOM     42  C   UNL A   1      37.917  33.183  32.774  1.00  0.00     0.049 A 
ATOM     43  N   UNL A   1      39.293  30.922  31.357  1.00  0.00    -0.248 NA
ATOM     44  C   UNL A   1      38.053  31.432  29.446  1.00  0.00     0.031 C 
ATOM     45  C   UNL A   1      37.245  34.222  33.554  1.00  0.00     0.029 A 
ATOM     46  N   UNL A   1      38.910  32.730  33.607  1.00  0.00    -0.354 N 
ATOM     47  C   UNL A   1      39.613  30.021  30.351  1.00  0.00     0.074 A 
ATOM     48  C   UNL A   1      38.805  30.368  29.199  1.00  0.00     0.031 C 
ATOM     49  C   UNL A   1      37.856  34.340  34.745  1.00  0.00     0.029 A 
ATOM     50  C   UNL A   1      38.942  33.364  34.824  1.00  0.00     0.049 A 
ATOM     51  H   UNL A   1      39.541  32.016  33.356  1.00  0.00     0.167 HD
ATOM     52  C   UNL A   1      40.489  28.989  30.387  1.00  0.00     0.037 A 
ATOM     53  C   UNL A   1      39.746  33.175  35.886  1.00  0.00     0.037 A 
ATOM     54  C   UNL A   1      41.361  28.686  31.491  1.00  0.00     0.049 A 
ATOM     55  C   UNL A   1      40.808  32.116  35.849  1.00  0.00     0.074 A 
ATOM     56  C   UNL A   1      42.300  27.674  31.602  1.00  0.00     0.029 A 
ATOM     57  N   UNL A   1      41.423  29.420  32.664  1.00  0.00    -0.354 N 
ATOM     58  N   UNL A   1      41.065  31.242  34.909  1.00  0.00    -0.248 NA
ATOM     59  C   UNL A   1      41.688  32.014  37.023  1.00  0.00     0.031 C 
ATOM     60  C   UNL A   1      42.937  27.800  32.843  1.00  0.00     0.029 A 
ATOM     61  C   UNL A   1      42.399  28.897  33.496  1.00  0.00     0.049 A 
ATOM     62  H   UNL A   1      40.859  30.199  32.875  1.00  0.00     0.167 HD
ATOM     63  C   UNL A   1      42.131  30.486  35.376  1.00  0.00     0.074 A 
ATOM     64  C   UNL A   1      42.486  31.013  36.677  1.00  0.00     0.031 C 
ATOM     65  C   UNL A   1      42.750  29.440  34.779  1.00  0.00     0.037 A 
BRANCH  52  66
ATOM     66  C   UNL A   1      40.529  28.083  29.197  1.00  0.00     0.064 A 
ATOM     67  C   UNL A   1      39.711  26.948  29.108  1.00  0.00     0.173 A 
ATOM     68  C   UNL A   1      41.378  28.379  28.120  1.00  0.00     0.173 A 
ATOM     69  F   UNL A   1      38.896  26.620  30.123  1.00  0.00    -0.203 F 
ATOM     70  C   UNL A   1      39.751  26.131  27.983  1.00  0.00     0.198 A 
ATOM     71  C   UNL A   1      41.406  27.567  26.990  1.00  0.00     0.198 A 
ATOM     72  F   UNL A   1      42.180  29.455  28.163  1.00  0.00    -0.203 F 
ATOM     73  F   UNL A   1      38.981  25.035  27.926  1.00  0.00    -0.200 F 
ATOM     74  C   UNL A   1      40.594  26.443  26.923  1.00  0.00     0.200 A 
ATOM     75  F   UNL A   1      42.219  27.872  25.970  1.00  0.00    -0.200 F 
ATOM     76  F   UNL A   1      40.630  25.654  25.841  1.00  0.00    -0.200 F 
ENDBRANCH  52  66
BRANCH  53  77
ATOM     77  C   UNL A   1      39.580  34.032  37.083  1.00  0.00     0.064 A 
ATOM     78  C   UNL A   1      38.817  33.593  38.173  1.00  0.00     0.173 A 
ATOM     79  C   UNL A   1      40.195  35.289  37.165  1.00  0.00     0.173 A 
ATOM     80  F   UNL A   1      38.197  32.405  38.123  1.00  0.00    -0.203 F 
ATOM     81  C   UNL A   1      38.670  34.387  39.308  1.00  0.00     0.198 A 
ATOM     82  C   UNL A   1      40.056  36.076  38.306  1.00  0.00     0.198 A 
ATOM     83  F   UNL A   1      40.934  35.745  36.144  1.00  0.00    -0.203 F 
ATOM     84  F   UNL A   1      37.922  33.955  40.331  1.00  0.00    -0.200 F 
ATOM     85  C   UNL A   1      39.293  35.625  39.375  1.00  0.00     0.200 A 
ATOM     86  F   UNL A   1      40.663  37.269  38.371  1.00  0.00    -0.200 F 
ATOM     87  F   UNL A   1      39.156  36.386  40.469  1.00  0.00    -0.200 F 
ENDBRANCH  53  77
BRANCH  65  88
ATOM     88  C   UNL A   1      43.885  28.807  35.518  1.00  0.00     0.064 A 
ATOM     89  C   UNL A   1      43.661  27.773  36.438  1.00  0.00     0.173 A 
ATOM     90  C   UNL A   1      45.206  29.210  35.278  1.00  0.00     0.173 A 
ATOM     91  F   UNL A   1      42.411  27.366  36.706  1.00  0.00    -0.203 F 
ATOM     92  C   UNL A   1      44.725  27.166  37.099  1.00  0.00     0.198 A 
ATOM     93  C   UNL A   1      46.268  28.597  35.936  1.00  0.00     0.198 A 
ATOM     94  F   UNL A   1      45.463  30.199  34.409  1.00  0.00    -0.203 F 
ATOM     95  F   UNL A   1      44.491  26.191  37.988  1.00  0.00    -0.200 F 
ATOM     96  C   UNL A   1      46.027  27.577  36.846  1.00  0.00     0.200 A 
ATOM     97  F   UNL A   1      47.525  28.995  35.694  1.00  0.00    -0.200 F 
ATOM     98  F   UNL A   1      47.050  26.993  37.485  1.00  0.00    -0.200 F 
ENDBRANCH  65  88
ENDBRANCH  39  40
ENDBRANCH  31  34
ENDBRANCH  29  30
ENDBRANCH  28  29
ENDBRANCH   1  28
TORSDOF 13
ENDMDL
MODEL 3
REMARK VINA RESULT:     -13.3      3.947      8.774
REMARK SMILES C[C@H](NC(=O)c1c(C(=O)NCCCNC(=O)c2ccc(-c3c4nc(c(-c5c(F)c(F)c(F)c(F)c5F)c5ccc([nH]5)c(-c5c(F)c(F)c(F)c(F)c5F)c5nc(c(-c6c(F)c(F)c(F)c(F)c6F)c6ccc3[nH]6)C=C5)C=C4)cc2)cnn1C)[C@]12C[C@H]3C[C@H](C[C@H](C3)C1)C2
REMARK SMILES IDX 11 1 10 2 8 3 9 4 7 6 6 7 82 8 80 9 81 10 83 11 4 12 3 13
REMARK SMILES IDX 5 15 2 16 1 17 84 18 85 19 92 20 93 21 86 22 90 23 88 24
REMARK SMILES IDX 87 25 91 26 89 27 12 28 13 29 14 30 15 31 16 33 17 34 18 35
REMARK SMILES IDX 79 36 19 37 78 38 20 39 21 40 22 41 72 42 23 43 77 44 71 45
REMARK SMILES IDX 73 46 24 47 76 48 70 49 69 50 25 52 57 53 37 54 56 55 38 56
REMARK SMILES IDX 41 57 55 58 74 59 39 60 40 61 54 63 75 64 42 65 26 66 27 67
REMARK SMILES IDX 35 68 28 69 29 70 33 71 36 72 30 73 31 74 34 75 32 76 58 77
REMARK SMILES IDX 59 78 67 79 60 80 61 81 65 82 68 83 62 84 63 85 66 86 64 87
REMARK SMILES IDX 43 88 44 89 52 90 45 91 46 92 50 93 53 94 47 95 48 96 51 97
REMARK SMILES IDX 49 98
REMARK H PARENT 10 5 3 14 14 32 73 51 41 62
REMARK Flexibility Score: inf
ROOT
ATOM      1  C   UNL A   1      32.226  29.060  25.087  1.00  0.00     0.118 C 
ENDROOT
BRANCH   1   2
ATOM      2  N   UNL A   1      31.102  28.714  24.230  1.00  0.00    -0.352 N 
ATOM      3  C   UNL A   1      30.852  27.778  23.268  1.00  0.00     0.255 C 
ATOM      4  O   UNL A   1      29.693  27.826  22.829  1.00  0.00    -0.269 OA
ATOM      5  H   UNL A   1      30.327  29.302  24.382  1.00  0.00     0.163 HD
BRANCH   3   6
ATOM      6  C   UNL A   1      31.758  26.751  22.765  1.00  0.00     0.090 A 
ATOM      7  C   UNL A   1      31.882  25.361  22.855  1.00  0.00     0.138 A 
ATOM      8  N   UNL A   1      32.897  25.031  21.976  1.00  0.00    -0.262 N 
ATOM      9  C   UNL A   1      32.904  27.118  21.993  1.00  0.00     0.149 A 
ATOM     10  N   UNL A   1      33.603  26.083  21.541  1.00  0.00    -0.180 NA
ATOM     11  C   UNL A   1      33.280  23.722  21.491  1.00  0.00     0.174 C 
BRANCH   7  12
ATOM     12  C   UNL A   1      31.115  24.353  23.516  1.00  0.00     0.270 C 
ATOM     13  N   UNL A   1      31.472  23.893  24.761  1.00  0.00    -0.348 N 
ATOM     14  H   UNL A   1      30.870  23.184  25.085  1.00  0.00     0.164 HD
ATOM     15  O   UNL A   1      30.149  23.815  22.971  1.00  0.00    -0.267 OA
BRANCH  13  16
ATOM     16  C   UNL A   1      32.543  24.207  25.733  1.00  0.00     0.085 C 
ATOM     17  C   UNL A   1      32.081  24.219  27.190  1.00  0.00     0.031 C 
BRANCH  16  18
ATOM     18  C   UNL A   1      33.901  23.463  25.462  1.00  0.00    -0.009 C 
ATOM     19  C   UNL A   1      33.748  22.244  24.525  1.00  0.00     0.012 C 
ATOM     20  C   UNL A   1      34.547  22.951  26.785  1.00  0.00     0.012 C 
ATOM     21  C   UNL A   1      34.914  24.447  24.797  1.00  0.00     0.012 C 
ATOM     22  C   UNL A   1      35.100  21.562  24.250  1.00  0.00    -0.010 C 
ATOM     23  C   UNL A   1      35.901  22.266  26.525  1.00  0.00    -0.010 C 
ATOM     24  C   UNL A   1      36.273  23.769  24.542  1.00  0.00    -0.010 C 
ATOM     25  C   UNL A   1      36.065  22.571  23.604  1.00  0.00     0.007 C 
ATOM     26  C   UNL A   1      35.689  21.072  25.580  1.00  0.00     0.007 C 
ATOM     27  C   UNL A   1      36.859  23.274  25.875  1.00  0.00     0.007 C 
ENDBRANCH  16  18
ENDBRANCH  13  16
ENDBRANCH   7  12
ENDBRANCH   3   6
ENDBRANCH   1   2
BRANCH   1  28
ATOM     28  C   UNL A   1      32.236  28.202  26.361  1.00  0.00     0.042 C 
BRANCH  28  29
ATOM     29  C   UNL A   1      33.438  28.476  27.265  1.00  0.00     0.118 C 
BRANCH  29  30
ATOM     30  N   UNL A   1      33.558  29.875  27.638  1.00  0.00    -0.352 N 
ATOM     31  C   UNL A   1      34.605  30.608  28.136  1.00  0.00     0.251 C 
ATOM     32  H   UNL A   1      32.732  30.395  27.510  1.00  0.00     0.163 HD
ATOM     33  O   UNL A   1      34.388  31.768  28.487  1.00  0.00    -0.269 OA
BRANCH  31  34
ATOM     34  C   UNL A   1      35.978  30.059  28.307  1.00  0.00     0.039 A 
ATOM     35  C   UNL A   1      36.291  29.483  29.547  1.00  0.00     0.014 A 
ATOM     36  C   UNL A   1      36.992  30.199  27.357  1.00  0.00     0.014 A 
ATOM     37  C   UNL A   1      37.591  29.042  29.827  1.00  0.00     0.010 A 
ATOM     38  C   UNL A   1      38.279  29.705  27.613  1.00  0.00     0.010 A 
ATOM     39  C   UNL A   1      38.598  29.142  28.859  1.00  0.00    -0.014 A 
BRANCH  39  40
ATOM     40  C   UNL A   1      39.999  28.732  29.152  1.00  0.00     0.031 A 
ATOM     41  C   UNL A   1      40.905  29.645  29.936  1.00  0.00     0.074 A 
ATOM     42  C   UNL A   1      40.482  27.565  28.686  1.00  0.00     0.049 A 
ATOM     43  N   UNL A   1      42.195  29.551  30.147  1.00  0.00    -0.248 NA
ATOM     44  C   UNL A   1      40.284  30.832  30.542  1.00  0.00     0.031 C 
ATOM     45  C   UNL A   1      39.730  26.585  27.903  1.00  0.00     0.029 A 
ATOM     46  N   UNL A   1      41.733  27.010  28.803  1.00  0.00    -0.354 N 
ATOM     47  C   UNL A   1      42.550  30.700  30.840  1.00  0.00     0.074 A 
ATOM     48  C   UNL A   1      41.337  31.466  31.041  1.00  0.00     0.031 C 
ATOM     49  C   UNL A   1      40.529  25.540  27.626  1.00  0.00     0.029 A 
ATOM     50  C   UNL A   1      41.856  25.791  28.184  1.00  0.00     0.049 A 
ATOM     51  H   UNL A   1      42.473  27.445  29.287  1.00  0.00     0.167 HD
ATOM     52  C   UNL A   1      43.778  31.090  31.258  1.00  0.00     0.037 A 
ATOM     53  C   UNL A   1      42.918  24.974  28.069  1.00  0.00     0.037 A 
ATOM     54  C   UNL A   1      44.976  30.302  31.143  1.00  0.00     0.049 A 
ATOM     55  C   UNL A   1      44.239  25.364  28.667  1.00  0.00     0.074 A 
ATOM     56  C   UNL A   1      46.260  30.609  31.565  1.00  0.00     0.029 A 
ATOM     57  N   UNL A   1      45.029  29.031  30.595  1.00  0.00    -0.354 N 
ATOM     58  N   UNL A   1      44.569  26.475  29.276  1.00  0.00    -0.248 NA
ATOM     59  C   UNL A   1      45.334  24.389  28.555  1.00  0.00     0.031 C 
ATOM     60  C   UNL A   1      47.089  29.518  31.277  1.00  0.00     0.029 A 
ATOM     61  C   UNL A   1      46.317  28.531  30.686  1.00  0.00     0.049 A 
ATOM     62  H   UNL A   1      44.264  28.553  30.201  1.00  0.00     0.167 HD
ATOM     63  C   UNL A   1      45.906  26.336  29.618  1.00  0.00     0.074 A 
ATOM     64  C   UNL A   1      46.326  25.026  29.164  1.00  0.00     0.031 C 
ATOM     65  C   UNL A   1      46.715  27.223  30.244  1.00  0.00     0.037 A 
BRANCH  52  66
ATOM     66  C   UNL A   1      43.895  32.455  31.858  1.00  0.00     0.064 A 
ATOM     67  C   UNL A   1      44.207  33.578  31.077  1.00  0.00     0.173 A 
ATOM     68  C   UNL A   1      43.659  32.640  33.229  1.00  0.00     0.173 A 
ATOM     69  F   UNL A   1      44.456  33.442  29.766  1.00  0.00    -0.203 F 
ATOM     70  C   UNL A   1      44.291  34.842  31.654  1.00  0.00     0.198 A 
ATOM     71  C   UNL A   1      43.731  33.908  33.799  1.00  0.00     0.198 A 
ATOM     72  F   UNL A   1      43.359  31.594  34.013  1.00  0.00    -0.203 F 
ATOM     73  F   UNL A   1      44.617  35.900  30.898  1.00  0.00    -0.200 F 
ATOM     74  C   UNL A   1      44.049  35.007  33.012  1.00  0.00     0.200 A 
ATOM     75  F   UNL A   1      43.495  34.064  35.109  1.00  0.00    -0.200 F 
ATOM     76  F   UNL A   1      44.131  36.225  33.565  1.00  0.00    -0.200 F 
ENDBRANCH  52  66
BRANCH  53  77
ATOM     77  C   UNL A   1      42.767  23.682  27.361  1.00  0.00     0.064 A 
ATOM     78  C   UNL A   1      43.155  23.554  26.021  1.00  0.00     0.173 A 
ATOM     79  C   UNL A   1      42.252  22.553  28.014  1.00  0.00     0.173 A 
ATOM     80  F   UNL A   1      43.632  24.617  25.356  1.00  0.00    -0.203 F 
ATOM     81  C   UNL A   1      43.030  22.338  25.354  1.00  0.00     0.198 A 
ATOM     82  C   UNL A   1      42.139  21.335  27.349  1.00  0.00     0.198 A 
ATOM     83  F   UNL A   1      41.870  22.633  29.297  1.00  0.00    -0.203 F 
ATOM     84  F   UNL A   1      43.390  22.242  24.067  1.00  0.00    -0.200 F 
ATOM     85  C   UNL A   1      42.526  21.229  26.020  1.00  0.00     0.200 A 
ATOM     86  F   UNL A   1      41.657  20.264  27.995  1.00  0.00    -0.200 F 
ATOM     87  F   UNL A   1      42.411  20.057  25.379  1.00  0.00    -0.200 F 
ENDBRANCH  53  77
BRANCH  65  88
ATOM     88  C   UNL A   1      48.128  26.803  30.490  1.00  0.00     0.064 A 
ATOM     89  C   UNL A   1      48.477  26.075  31.637  1.00  0.00     0.173 A 
ATOM     90  C   UNL A   1      49.133  27.096  29.557  1.00  0.00     0.173 A 
ATOM     91  F   UNL A   1      47.548  25.784  32.561  1.00  0.00    -0.203 F 
ATOM     92  C   UNL A   1      49.789  25.660  31.844  1.00  0.00     0.198 A 
ATOM     93  C   UNL A   1      50.442  26.674  29.765  1.00  0.00     0.198 A 
ATOM     94  F   UNL A   1      48.842  27.794  28.449  1.00  0.00    -0.203 F 
ATOM     95  F   UNL A   1      50.107  24.980  32.954  1.00  0.00    -0.200 F 
ATOM     96  C   UNL A   1      50.769  25.958  30.908  1.00  0.00     0.200 A 
ATOM     97  F   UNL A   1      51.390  26.965  28.862  1.00  0.00    -0.200 F 
ATOM     98  F   UNL A   1      52.033  25.559  31.111  1.00  0.00    -0.200 F 
ENDBRANCH  65  88
ENDBRANCH  39  40
ENDBRANCH  31  34
ENDBRANCH  29  30
ENDBRANCH  28  29
ENDBRANCH   1  28
TORSDOF 13
ENDMDL
