MODEL 1
REMARK VINA RESULT:     -12.1      0.000      0.000
REMARK SMILES CO[C@@H]1C[C@@H](C(=O)NCCCNC(=O)c2ccc(-c3c4nc(c(-c5c(F)c(F)c(F)c(F)c5F)c5ccc([nH]5)c(-c5c(F)c(F)c(F)c(F)c5F)c5nc(c(-c6c(F)c(F)c(F)c(F)c6F)c6ccc3[nH]6)C=C5)C=C4)cc2)N(S(=O)(=O)/C=C/c2ccccc2)C1
REMARK SMILES IDX 9 1 8 2 6 3 7 4 5 6 3 7 4 8 90 9 78 10 2 11 1 12 79 13 80 14
REMARK SMILES IDX 81 15 82 16 83 17 84 18 85 19 89 20 86 21 88 22 87 23 10 24
REMARK SMILES IDX 11 25 12 26 13 27 14 29 15 30 16 31 77 32 17 33 76 34 18 35
REMARK SMILES IDX 19 36 20 37 70 38 21 39 75 40 69 41 71 42 22 43 74 44 68 45
REMARK SMILES IDX 67 46 23 48 55 49 35 50 54 51 36 52 39 53 53 54 72 55 37 56
REMARK SMILES IDX 38 57 52 59 73 60 40 61 24 62 25 63 33 64 26 65 27 66 31 67
REMARK SMILES IDX 34 68 28 69 29 70 32 71 30 72 56 73 57 74 65 75 58 76 59 77
REMARK SMILES IDX 63 78 66 79 60 80 61 81 64 82 62 83 41 84 42 85 50 86 43 87
REMARK SMILES IDX 44 88 48 89 51 90 45 91 46 92 49 93 47 94
REMARK H PARENT 8 5 12 28 71 47 39 58
REMARK Flexibility Score: inf
ROOT
ATOM      1  C   UNL A   1      32.281  27.631  23.749  1.00  0.00     0.117 C 
ENDROOT
BRANCH   1   2
ATOM      2  N   UNL A   1      33.429  26.809  24.066  1.00  0.00    -0.355 N 
ATOM      3  C   UNL A   1      33.564  25.867  25.046  1.00  0.00     0.238 C 
ATOM      4  O   UNL A   1      34.682  25.836  25.554  1.00  0.00    -0.273 OA
ATOM      5  H   UNL A   1      34.220  26.947  23.497  1.00  0.00     0.163 HD
BRANCH   3   6
ATOM      6  C   UNL A   1      32.444  24.871  25.336  1.00  0.00     0.165 C 
ATOM      7  C   UNL A   1      31.486  23.011  26.518  1.00  0.00     0.135 C 
ATOM      8  C   UNL A   1      32.638  24.002  26.576  1.00  0.00     0.064 C 
ATOM      9  C   UNL A   1      31.176  22.838  25.029  1.00  0.00     0.135 C 
ATOM     10  N   UNL A   1      31.959  23.900  24.286  1.00  0.00    -0.183 NA
BRANCH   7  11
ATOM     11  O   UNL A   1      30.364  23.363  27.332  1.00  0.00    -0.380 OA
ATOM     12  C   UNL A   1      29.197  22.562  27.255  1.00  0.00     0.195 C 
ENDBRANCH   7  11
BRANCH  10  13
ATOM     13  S   UNL A   1      33.101  23.192  23.206  1.00  0.00     0.237 S 
ATOM     14  O   UNL A   1      32.428  22.050  22.618  1.00  0.00    -0.207 OA
ATOM     15  O   UNL A   1      33.540  24.271  22.339  1.00  0.00    -0.207 OA
BRANCH  13  16
ATOM     16  C   UNL A   1      34.492  22.673  24.079  1.00  0.00     0.123 C 
ATOM     17  C   UNL A   1      35.725  22.974  23.649  1.00  0.00     0.021 C 
BRANCH  17  18
ATOM     18  C   UNL A   1      36.872  22.708  24.518  1.00  0.00    -0.025 A 
ATOM     19  C   UNL A   1      37.351  23.733  25.343  1.00  0.00     0.008 A 
ATOM     20  C   UNL A   1      37.453  21.438  24.591  1.00  0.00     0.008 A 
ATOM     21  C   UNL A   1      38.395  23.488  26.237  1.00  0.00     0.001 A 
ATOM     22  C   UNL A   1      38.498  21.195  25.485  1.00  0.00     0.001 A 
ATOM     23  C   UNL A   1      38.967  22.220  26.309  1.00  0.00     0.000 A 
ENDBRANCH  17  18
ENDBRANCH  13  16
ENDBRANCH  10  13
ENDBRANCH   3   6
ENDBRANCH   1   2
BRANCH   1  24
ATOM     24  C   UNL A   1      31.930  28.539  24.931  1.00  0.00     0.042 C 
BRANCH  24  25
ATOM     25  C   UNL A   1      33.115  29.351  25.465  1.00  0.00     0.118 C 
BRANCH  25  26
ATOM     26  N   UNL A   1      32.719  30.679  25.906  1.00  0.00    -0.352 N 
ATOM     27  C   UNL A   1      33.197  31.441  26.938  1.00  0.00     0.251 C 
ATOM     28  H   UNL A   1      31.998  31.095  25.381  1.00  0.00     0.163 HD
ATOM     29  O   UNL A   1      32.592  32.453  27.277  1.00  0.00    -0.269 OA
BRANCH  27  30
ATOM     30  C   UNL A   1      34.428  31.046  27.653  1.00  0.00     0.039 A 
ATOM     31  C   UNL A   1      35.410  32.015  27.871  1.00  0.00     0.014 A 
ATOM     32  C   UNL A   1      34.639  29.725  28.058  1.00  0.00     0.014 A 
ATOM     33  C   UNL A   1      36.590  31.669  28.529  1.00  0.00     0.010 A 
ATOM     34  C   UNL A   1      35.793  29.392  28.767  1.00  0.00     0.010 A 
ATOM     35  C   UNL A   1      36.783  30.359  28.998  1.00  0.00    -0.014 A 
BRANCH  35  36
ATOM     36  C   UNL A   1      38.023  29.999  29.726  1.00  0.00     0.031 A 
ATOM     37  C   UNL A   1      38.268  30.518  31.114  1.00  0.00     0.074 A 
ATOM     38  C   UNL A   1      38.941  29.223  29.119  1.00  0.00     0.049 A 
ATOM     39  N   UNL A   1      39.286  30.300  31.910  1.00  0.00    -0.248 NA
ATOM     40  C   UNL A   1      37.249  31.419  31.674  1.00  0.00     0.031 C 
ATOM     41  C   UNL A   1      38.841  28.712  27.751  1.00  0.00     0.029 A 
ATOM     42  N   UNL A   1      40.138  28.732  29.574  1.00  0.00    -0.354 N 
ATOM     43  C   UNL A   1      39.033  31.042  33.057  1.00  0.00     0.074 A 
ATOM     44  C   UNL A   1      37.793  31.755  32.835  1.00  0.00     0.031 C 
ATOM     45  C   UNL A   1      39.918  27.957  27.487  1.00  0.00     0.029 A 
ATOM     46  C   UNL A   1      40.791  27.947  28.657  1.00  0.00     0.049 A 
ATOM     47  H   UNL A   1      40.493  28.923  30.471  1.00  0.00     0.167 HD
ATOM     48  C   UNL A   1      39.758  31.103  34.199  1.00  0.00     0.037 A 
ATOM     49  C   UNL A   1      41.959  27.284  28.756  1.00  0.00     0.037 A 
ATOM     50  C   UNL A   1      40.980  30.376  34.424  1.00  0.00     0.049 A 
ATOM     51  C   UNL A   1      42.722  27.335  30.050  1.00  0.00     0.074 A 
ATOM     52  C   UNL A   1      41.765  30.334  35.563  1.00  0.00     0.029 A 
ATOM     53  N   UNL A   1      41.593  29.560  33.486  1.00  0.00    -0.354 N 
ATOM     54  N   UNL A   1      42.438  27.984  31.152  1.00  0.00    -0.248 NA
ATOM     55  C   UNL A   1      43.958  26.545  30.117  1.00  0.00     0.031 C 
ATOM     56  C   UNL A   1      42.869  29.513  35.303  1.00  0.00     0.029 A 
ATOM     57  C   UNL A   1      42.752  29.014  34.016  1.00  0.00     0.049 A 
ATOM     58  H   UNL A   1      41.255  29.392  32.575  1.00  0.00     0.167 HD
ATOM     59  C   UNL A   1      43.447  27.669  32.050  1.00  0.00     0.074 A 
ATOM     60  C   UNL A   1      44.339  26.750  31.371  1.00  0.00     0.031 C 
ATOM     61  C   UNL A   1      43.625  28.104  33.322  1.00  0.00     0.037 A 
BRANCH  48  62
ATOM     62  C   UNL A   1      39.239  31.982  35.300  1.00  0.00     0.064 A 
ATOM     63  C   UNL A   1      38.433  31.468  36.328  1.00  0.00     0.173 A 
ATOM     64  C   UNL A   1      39.570  33.344  35.345  1.00  0.00     0.173 A 
ATOM     65  F   UNL A   1      38.078  30.175  36.324  1.00  0.00    -0.203 F 
ATOM     66  C   UNL A   1      37.956  32.291  37.345  1.00  0.00     0.198 A 
ATOM     67  C   UNL A   1      39.113  34.159  36.379  1.00  0.00     0.198 A 
ATOM     68  F   UNL A   1      40.340  33.885  34.389  1.00  0.00    -0.203 F 
ATOM     69  F   UNL A   1      37.151  31.787  38.290  1.00  0.00    -0.200 F 
ATOM     70  C   UNL A   1      38.301  33.634  37.373  1.00  0.00     0.200 A 
ATOM     71  F   UNL A   1      39.455  35.455  36.410  1.00  0.00    -0.200 F 
ATOM     72  F   UNL A   1      37.845  34.423  38.354  1.00  0.00    -0.200 F 
ENDBRANCH  48  62
BRANCH  49  73
ATOM     73  C   UNL A   1      42.449  26.478  27.610  1.00  0.00     0.064 A 
ATOM     74  C   UNL A   1      43.385  27.005  26.710  1.00  0.00     0.173 A 
ATOM     75  C   UNL A   1      42.001  25.167  27.396  1.00  0.00     0.173 A 
ATOM     76  F   UNL A   1      43.828  28.262  26.865  1.00  0.00    -0.203 F 
ATOM     77  C   UNL A   1      43.842  26.259  25.627  1.00  0.00     0.198 A 
ATOM     78  C   UNL A   1      42.477  24.412  26.326  1.00  0.00     0.198 A 
ATOM     79  F   UNL A   1      41.112  24.616  28.234  1.00  0.00    -0.203 F 
ATOM     80  F   UNL A   1      44.707  26.800  24.759  1.00  0.00    -0.200 F 
ATOM     81  C   UNL A   1      43.391  24.960  25.439  1.00  0.00     0.200 A 
ATOM     82  F   UNL A   1      42.051  23.153  26.155  1.00  0.00    -0.200 F 
ATOM     83  F   UNL A   1      43.835  24.240  24.400  1.00  0.00    -0.200 F 
ENDBRANCH  49  73
BRANCH  61  84
ATOM     84  C   UNL A   1      44.819  27.573  34.060  1.00  0.00     0.064 A 
ATOM     85  C   UNL A   1      44.757  26.379  34.792  1.00  0.00     0.173 A 
ATOM     86  C   UNL A   1      46.041  28.262  34.023  1.00  0.00     0.173 A 
ATOM     87  F   UNL A   1      43.605  25.695  34.870  1.00  0.00    -0.203 F 
ATOM     88  C   UNL A   1      45.866  25.910  35.490  1.00  0.00     0.198 A 
ATOM     89  C   UNL A   1      47.155  27.775  34.699  1.00  0.00     0.198 A 
ATOM     90  F   UNL A   1      46.152  29.406  33.332  1.00  0.00    -0.203 F 
ATOM     91  F   UNL A   1      45.769  24.795  36.226  1.00  0.00    -0.200 F 
ATOM     92  C   UNL A   1      47.065  26.605  35.439  1.00  0.00     0.200 A 
ATOM     93  F   UNL A   1      48.316  28.443  34.642  1.00  0.00    -0.200 F 
ATOM     94  F   UNL A   1      48.131  26.153  36.113  1.00  0.00    -0.200 F 
ENDBRANCH  61  84
ENDBRANCH  35  36
ENDBRANCH  27  30
ENDBRANCH  25  26
ENDBRANCH  24  25
ENDBRANCH   1  24
TORSDOF 14
ENDMDL
MODEL 2
REMARK VINA RESULT:     -12.0      1.385      3.836
REMARK SMILES CO[C@@H]1C[C@@H](C(=O)NCCCNC(=O)c2ccc(-c3c4nc(c(-c5c(F)c(F)c(F)c(F)c5F)c5ccc([nH]5)c(-c5c(F)c(F)c(F)c(F)c5F)c5nc(c(-c6c(F)c(F)c(F)c(F)c6F)c6ccc3[nH]6)C=C5)C=C4)cc2)N(S(=O)(=O)/C=C/c2ccccc2)C1
REMARK SMILES IDX 9 1 8 2 6 3 7 4 5 6 3 7 4 8 90 9 78 10 2 11 1 12 79 13 80 14
REMARK SMILES IDX 81 15 82 16 83 17 84 18 85 19 89 20 86 21 88 22 87 23 10 24
REMARK SMILES IDX 11 25 12 26 13 27 14 29 15 30 16 31 77 32 17 33 76 34 18 35
REMARK SMILES IDX 19 36 20 37 70 38 21 39 75 40 69 41 71 42 22 43 74 44 68 45
REMARK SMILES IDX 67 46 23 48 55 49 35 50 54 51 36 52 39 53 53 54 72 55 37 56
REMARK SMILES IDX 38 57 52 59 73 60 40 61 24 62 25 63 33 64 26 65 27 66 31 67
REMARK SMILES IDX 34 68 28 69 29 70 32 71 30 72 56 73 57 74 65 75 58 76 59 77
REMARK SMILES IDX 63 78 66 79 60 80 61 81 64 82 62 83 41 84 42 85 50 86 43 87
REMARK SMILES IDX 44 88 48 89 51 90 45 91 46 92 49 93 47 94
REMARK H PARENT 8 5 12 28 71 47 39 58
REMARK Flexibility Score: inf
ROOT
ATOM      1  C   UNL A   1      34.239  28.216  22.712  1.00  0.00     0.117 C 
ENDROOT
BRANCH   1   2
ATOM      2  N   UNL A   1      33.426  27.103  22.274  1.00  0.00    -0.355 N 
ATOM      3  C   UNL A   1      33.606  25.768  22.500  1.00  0.00     0.238 C 
ATOM      4  O   UNL A   1      33.287  25.056  21.553  1.00  0.00    -0.273 OA
ATOM      5  H   UNL A   1      32.635  27.340  21.739  1.00  0.00     0.163 HD
BRANCH   3   6
ATOM      6  C   UNL A   1      34.026  25.257  23.876  1.00  0.00     0.165 C 
ATOM      7  C   UNL A   1      34.646  23.519  25.416  1.00  0.00     0.135 C 
ATOM      8  C   UNL A   1      34.460  23.793  23.932  1.00  0.00     0.064 C 
ATOM      9  C   UNL A   1      33.666  24.456  26.127  1.00  0.00     0.135 C 
ATOM     10  N   UNL A   1      33.132  25.415  25.084  1.00  0.00    -0.183 NA
BRANCH   7  11
ATOM     11  O   UNL A   1      36.001  23.607  25.867  1.00  0.00    -0.380 OA
ATOM     12  C   UNL A   1      37.026  23.113  25.021  1.00  0.00     0.195 C 
ENDBRANCH   7  11
BRANCH  10  13
ATOM     13  S   UNL A   1      31.427  25.244  24.895  1.00  0.00     0.237 S 
ATOM     14  O   UNL A   1      31.246  24.407  23.726  1.00  0.00    -0.207 OA
ATOM     15  O   UNL A   1      30.937  24.774  26.179  1.00  0.00    -0.207 OA
BRANCH  13  16
ATOM     16  C   UNL A   1      30.708  26.787  24.636  1.00  0.00     0.123 C 
ATOM     17  C   UNL A   1      30.143  27.093  23.460  1.00  0.00     0.021 C 
BRANCH  17  18
ATOM     18  C   UNL A   1      29.356  28.321  23.340  1.00  0.00    -0.025 A 
ATOM     19  C   UNL A   1      27.976  28.225  23.126  1.00  0.00     0.008 A 
ATOM     20  C   UNL A   1      29.941  29.581  23.501  1.00  0.00     0.008 A 
ATOM     21  C   UNL A   1      27.188  29.376  23.082  1.00  0.00     0.001 A 
ATOM     22  C   UNL A   1      29.151  30.732  23.455  1.00  0.00     0.001 A 
ATOM     23  C   UNL A   1      27.775  30.629  23.249  1.00  0.00     0.000 A 
ENDBRANCH  17  18
ENDBRANCH  13  16
ENDBRANCH  10  13
ENDBRANCH   3   6
ENDBRANCH   1   2
BRANCH   1  24
ATOM     24  C   UNL A   1      33.377  29.256  23.435  1.00  0.00     0.042 C 
BRANCH  24  25
ATOM     25  C   UNL A   1      33.544  29.251  24.958  1.00  0.00     0.118 C 
BRANCH  25  26
ATOM     26  N   UNL A   1      32.878  30.379  25.589  1.00  0.00    -0.352 N 
ATOM     27  C   UNL A   1      33.148  31.008  26.775  1.00  0.00     0.251 C 
ATOM     28  H   UNL A   1      32.118  30.750  25.085  1.00  0.00     0.163 HD
ATOM     29  O   UNL A   1      32.343  31.813  27.233  1.00  0.00    -0.269 OA
BRANCH  27  30
ATOM     30  C   UNL A   1      34.394  30.714  27.512  1.00  0.00     0.039 A 
ATOM     31  C   UNL A   1      34.552  29.445  28.072  1.00  0.00     0.014 A 
ATOM     32  C   UNL A   1      35.373  31.695  27.699  1.00  0.00     0.014 A 
ATOM     33  C   UNL A   1      35.711  29.143  28.787  1.00  0.00     0.010 A 
ATOM     34  C   UNL A   1      36.556  31.375  28.363  1.00  0.00     0.010 A 
ATOM     35  C   UNL A   1      36.730  30.101  28.923  1.00  0.00    -0.014 A 
BRANCH  35  36
ATOM     36  C   UNL A   1      37.976  29.770  29.655  1.00  0.00     0.031 A 
ATOM     37  C   UNL A   1      38.220  30.324  31.030  1.00  0.00     0.074 A 
ATOM     38  C   UNL A   1      38.900  28.990  29.063  1.00  0.00     0.049 A 
ATOM     39  N   UNL A   1      39.242  30.135  31.827  1.00  0.00    -0.248 NA
ATOM     40  C   UNL A   1      37.194  31.227  31.572  1.00  0.00     0.031 C 
ATOM     41  C   UNL A   1      38.801  28.446  27.708  1.00  0.00     0.029 A 
ATOM     42  N   UNL A   1      40.103  28.521  29.525  1.00  0.00    -0.354 N 
ATOM     43  C   UNL A   1      38.985  30.900  32.957  1.00  0.00     0.074 A 
ATOM     44  C   UNL A   1      37.738  31.595  32.723  1.00  0.00     0.031 C 
ATOM     45  C   UNL A   1      39.885  27.696  27.457  1.00  0.00     0.029 A 
ATOM     46  C   UNL A   1      40.761  27.722  28.625  1.00  0.00     0.049 A 
ATOM     47  H   UNL A   1      40.459  28.736  30.416  1.00  0.00     0.167 HD
ATOM     48  C   UNL A   1      39.714  30.996  34.096  1.00  0.00     0.037 A 
ATOM     49  C   UNL A   1      41.936  27.072  28.735  1.00  0.00     0.037 A 
ATOM     50  C   UNL A   1      40.944  30.285  34.333  1.00  0.00     0.049 A 
ATOM     51  C   UNL A   1      42.702  27.161  30.025  1.00  0.00     0.074 A 
ATOM     52  C   UNL A   1      41.732  30.278  35.470  1.00  0.00     0.029 A 
ATOM     53  N   UNL A   1      41.562  29.454  33.412  1.00  0.00    -0.354 N 
ATOM     54  N   UNL A   1      42.415  27.833  31.113  1.00  0.00    -0.248 NA
ATOM     55  C   UNL A   1      43.947  26.385  30.107  1.00  0.00     0.031 C 
ATOM     56  C   UNL A   1      42.844  29.462  35.225  1.00  0.00     0.029 A 
ATOM     57  C   UNL A   1      42.728  28.932  33.951  1.00  0.00     0.049 A 
ATOM     58  H   UNL A   1      41.223  29.262  32.507  1.00  0.00     0.167 HD
ATOM     59  C   UNL A   1      43.431  27.549  32.015  1.00  0.00     0.074 A 
ATOM     60  C   UNL A   1      44.329  26.623  31.354  1.00  0.00     0.031 C 
ATOM     61  C   UNL A   1      43.608  28.015  33.275  1.00  0.00     0.037 A 
BRANCH  48  62
ATOM     62  C   UNL A   1      39.189  31.895  35.177  1.00  0.00     0.064 A 
ATOM     63  C   UNL A   1      38.442  31.387  36.252  1.00  0.00     0.173 A 
ATOM     64  C   UNL A   1      39.457  33.271  35.156  1.00  0.00     0.173 A 
ATOM     65  F   UNL A   1      38.148  30.079  36.311  1.00  0.00    -0.203 F 
ATOM     66  C   UNL A   1      37.959  32.228  37.251  1.00  0.00     0.198 A 
ATOM     67  C   UNL A   1      38.995  34.106  36.172  1.00  0.00     0.198 A 
ATOM     68  F   UNL A   1      40.169  33.806  34.155  1.00  0.00    -0.203 F 
ATOM     69  F   UNL A   1      37.210  31.727  38.242  1.00  0.00    -0.200 F 
ATOM     70  C   UNL A   1      38.241  33.586  37.213  1.00  0.00     0.200 A 
ATOM     71  F   UNL A   1      39.277  35.416  36.140  1.00  0.00    -0.200 F 
ATOM     72  F   UNL A   1      37.780  34.393  38.177  1.00  0.00    -0.200 F 
ENDBRANCH  48  62
BRANCH  49  73
ATOM     73  C   UNL A   1      42.430  26.245  27.606  1.00  0.00     0.064 A 
ATOM     74  C   UNL A   1      43.333  26.771  26.672  1.00  0.00     0.173 A 
ATOM     75  C   UNL A   1      42.020  24.915  27.443  1.00  0.00     0.173 A 
ATOM     76  F   UNL A   1      43.739  28.046  26.779  1.00  0.00    -0.203 F 
ATOM     77  C   UNL A   1      43.793  26.005  25.605  1.00  0.00     0.198 A 
ATOM     78  C   UNL A   1      42.500  24.140  26.389  1.00  0.00     0.198 A 
ATOM     79  F   UNL A   1      41.164  24.364  28.315  1.00  0.00    -0.203 F 
ATOM     80  F   UNL A   1      44.626  26.544  24.704  1.00  0.00    -0.200 F 
ATOM     81  C   UNL A   1      43.381  24.687  25.468  1.00  0.00     0.200 A 
ATOM     82  F   UNL A   1      42.112  22.864  26.267  1.00  0.00    -0.200 F 
ATOM     83  F   UNL A   1      43.828  23.947  24.445  1.00  0.00    -0.200 F 
ENDBRANCH  49  73
BRANCH  61  84
ATOM     84  C   UNL A   1      44.809  27.514  34.021  1.00  0.00     0.064 A 
ATOM     85  C   UNL A   1      46.036  28.193  33.975  1.00  0.00     0.173 A 
ATOM     86  C   UNL A   1      44.729  26.349  34.799  1.00  0.00     0.173 A 
ATOM     87  F   UNL A   1      46.166  29.302  33.231  1.00  0.00    -0.203 F 
ATOM     88  C   UNL A   1      47.148  27.705  34.654  1.00  0.00     0.198 A 
ATOM     89  C   UNL A   1      45.836  25.880  35.499  1.00  0.00     0.198 A 
ATOM     90  F   UNL A   1      43.577  25.668  34.879  1.00  0.00    -0.203 F 
ATOM     91  F   UNL A   1      48.324  28.340  34.554  1.00  0.00    -0.200 F 
ATOM     92  C   UNL A   1      47.047  26.553  35.420  1.00  0.00     0.200 A 
ATOM     93  F   UNL A   1      45.734  24.771  36.246  1.00  0.00    -0.200 F 
ATOM     94  F   UNL A   1      48.119  26.084  36.071  1.00  0.00    -0.200 F 
ENDBRANCH  61  84
ENDBRANCH  35  36
ENDBRANCH  27  30
ENDBRANCH  25  26
ENDBRANCH  24  25
ENDBRANCH   1  24
TORSDOF 14
ENDMDL
MODEL 3
REMARK VINA RESULT:     -12.0      2.210      4.482
REMARK SMILES CO[C@@H]1C[C@@H](C(=O)NCCCNC(=O)c2ccc(-c3c4nc(c(-c5c(F)c(F)c(F)c(F)c5F)c5ccc([nH]5)c(-c5c(F)c(F)c(F)c(F)c5F)c5nc(c(-c6c(F)c(F)c(F)c(F)c6F)c6ccc3[nH]6)C=C5)C=C4)cc2)N(S(=O)(=O)/C=C/c2ccccc2)C1
REMARK SMILES IDX 9 1 8 2 6 3 7 4 5 6 3 7 4 8 90 9 78 10 2 11 1 12 79 13 80 14
REMARK SMILES IDX 81 15 82 16 83 17 84 18 85 19 89 20 86 21 88 22 87 23 10 24
REMARK SMILES IDX 11 25 12 26 13 27 14 29 15 30 16 31 77 32 17 33 76 34 18 35
REMARK SMILES IDX 19 36 20 37 70 38 21 39 75 40 69 41 71 42 22 43 74 44 68 45
REMARK SMILES IDX 67 46 23 48 55 49 35 50 54 51 36 52 39 53 53 54 72 55 37 56
REMARK SMILES IDX 38 57 52 59 73 60 40 61 24 62 25 63 33 64 26 65 27 66 31 67
REMARK SMILES IDX 34 68 28 69 29 70 32 71 30 72 56 73 57 74 65 75 58 76 59 77
REMARK SMILES IDX 63 78 66 79 60 80 61 81 64 82 62 83 41 84 42 85 50 86 43 87
REMARK SMILES IDX 44 88 48 89 51 90 45 91 46 92 49 93 47 94
REMARK H PARENT 8 5 12 28 71 47 39 58
REMARK Flexibility Score: inf
ROOT
ATOM      1  C   UNL A   1      31.303  30.426  26.174  1.00  0.00     0.117 C 
ENDROOT
BRANCH   1   2
ATOM      2  N   UNL A   1      32.613  29.968  25.767  1.00  0.00    -0.355 N 
ATOM      3  C   UNL A   1      33.219  28.769  26.017  1.00  0.00     0.238 C 
ATOM      4  O   UNL A   1      34.429  28.854  26.208  1.00  0.00    -0.273 OA
ATOM      5  H   UNL A   1      33.140  30.608  25.236  1.00  0.00     0.163 HD
BRANCH   3   6
ATOM      6  C   UNL A   1      32.441  27.460  25.907  1.00  0.00     0.165 C 
ATOM      7  C   UNL A   1      32.286  25.065  25.807  1.00  0.00     0.135 C 
ATOM      8  C   UNL A   1      33.252  26.189  26.146  1.00  0.00     0.064 C 
ATOM      9  C   UNL A   1      31.343  25.646  24.750  1.00  0.00     0.135 C 
ATOM     10  N   UNL A   1      31.609  27.135  24.689  1.00  0.00    -0.183 NA
BRANCH   7  11
ATOM     11  O   UNL A   1      31.637  24.482  26.940  1.00  0.00    -0.380 OA
ATOM     12  C   UNL A   1      30.927  23.268  26.762  1.00  0.00     0.195 C 
ENDBRANCH   7  11
BRANCH  10  13
ATOM     13  S   UNL A   1      32.183  27.603  23.132  1.00  0.00     0.237 S 
ATOM     14  O   UNL A   1      33.554  28.030  23.333  1.00  0.00    -0.207 OA
ATOM     15  O   UNL A   1      31.921  26.469  22.263  1.00  0.00    -0.207 OA
BRANCH  13  16
ATOM     16  C   UNL A   1      31.239  28.908  22.525  1.00  0.00     0.123 C 
ATOM     17  C   UNL A   1      29.960  29.061  22.894  1.00  0.00     0.021 C 
BRANCH  17  18
ATOM     18  C   UNL A   1      29.252  30.290  22.535  1.00  0.00    -0.025 A 
ATOM     19  C   UNL A   1      29.179  31.330  23.470  1.00  0.00     0.008 A 
ATOM     20  C   UNL A   1      28.707  30.473  21.259  1.00  0.00     0.008 A 
ATOM     21  C   UNL A   1      28.576  32.542  23.131  1.00  0.00     0.001 A 
ATOM     22  C   UNL A   1      28.104  31.687  20.922  1.00  0.00     0.001 A 
ATOM     23  C   UNL A   1      28.041  32.721  21.857  1.00  0.00     0.000 A 
ENDBRANCH  17  18
ENDBRANCH  13  16
ENDBRANCH  10  13
ENDBRANCH   3   6
ENDBRANCH   1   2
BRANCH   1  24
ATOM     24  C   UNL A   1      31.320  31.935  26.432  1.00  0.00     0.042 C 
BRANCH  24  25
ATOM     25  C   UNL A   1      32.623  32.445  27.057  1.00  0.00     0.118 C 
BRANCH  25  26
ATOM     26  N   UNL A   1      32.515  33.822  27.511  1.00  0.00    -0.352 N 
ATOM     27  C   UNL A   1      33.208  34.481  28.490  1.00  0.00     0.251 C 
ATOM     28  H   UNL A   1      31.841  34.364  27.040  1.00  0.00     0.163 HD
ATOM     29  O   UNL A   1      32.829  35.587  28.863  1.00  0.00    -0.269 OA
BRANCH  27  30
ATOM     30  C   UNL A   1      34.401  33.866  29.108  1.00  0.00     0.039 A 
ATOM     31  C   UNL A   1      34.213  32.893  30.091  1.00  0.00     0.014 A 
ATOM     32  C   UNL A   1      35.691  34.281  28.763  1.00  0.00     0.014 A 
ATOM     33  C   UNL A   1      35.320  32.306  30.704  1.00  0.00     0.010 A 
ATOM     34  C   UNL A   1      36.797  33.653  29.333  1.00  0.00     0.010 A 
ATOM     35  C   UNL A   1      36.620  32.668  30.317  1.00  0.00    -0.014 A 
BRANCH  35  36
ATOM     36  C   UNL A   1      37.797  32.020  30.945  1.00  0.00     0.031 A 
ATOM     37  C   UNL A   1      38.226  32.404  32.332  1.00  0.00     0.074 A 
ATOM     38  C   UNL A   1      38.494  31.104  30.247  1.00  0.00     0.049 A 
ATOM     39  N   UNL A   1      39.219  31.938  33.048  1.00  0.00    -0.248 NA
ATOM     40  C   UNL A   1      37.454  33.466  32.995  1.00  0.00     0.031 C 
ATOM     41  C   UNL A   1      38.209  30.697  28.870  1.00  0.00     0.029 A 
ATOM     42  N   UNL A   1      39.585  30.352  30.600  1.00  0.00    -0.354 N 
ATOM     43  C   UNL A   1      39.195  32.655  34.238  1.00  0.00     0.074 A 
ATOM     44  C   UNL A   1      38.123  33.621  34.128  1.00  0.00     0.031 C 
ATOM     45  C   UNL A   1      39.086  29.750  28.504  1.00  0.00     0.029 A 
ATOM     46  C   UNL A   1      40.004  29.497  29.611  1.00  0.00     0.049 A 
ATOM     47  H   UNL A   1      40.024  30.417  31.478  1.00  0.00     0.167 HD
ATOM     48  C   UNL A   1      39.982  32.505  35.330  1.00  0.00     0.037 A 
ATOM     49  C   UNL A   1      41.009  28.602  29.604  1.00  0.00     0.037 A 
ATOM     50  C   UNL A   1      41.035  31.528  35.443  1.00  0.00     0.049 A 
ATOM     51  C   UNL A   1      41.840  28.425  30.845  1.00  0.00     0.074 A 
ATOM     52  C   UNL A   1      41.858  31.264  36.523  1.00  0.00     0.029 A 
ATOM     53  N   UNL A   1      41.407  30.653  34.434  1.00  0.00    -0.354 N 
ATOM     54  N   UNL A   1      41.763  29.061  31.989  1.00  0.00    -0.248 NA
ATOM     55  C   UNL A   1      42.884  27.393  30.798  1.00  0.00     0.031 C 
ATOM     56  C   UNL A   1      42.747  30.247  36.157  1.00  0.00     0.029 A 
ATOM     57  C   UNL A   1      42.453  29.851  34.863  1.00  0.00     0.049 A 
ATOM     58  H   UNL A   1      40.988  30.607  33.543  1.00  0.00     0.167 HD
ATOM     59  C   UNL A   1      42.734  28.496  32.804  1.00  0.00     0.074 A 
ATOM     60  C   UNL A   1      43.371  27.449  32.030  1.00  0.00     0.031 C 
ATOM     61  C   UNL A   1      43.073  28.817  34.076  1.00  0.00     0.037 A 
BRANCH  48  62
ATOM     62  C   UNL A   1      39.725  33.413  36.496  1.00  0.00     0.064 A 
ATOM     63  C   UNL A   1      40.364  34.658  36.609  1.00  0.00     0.173 A 
ATOM     64  C   UNL A   1      38.812  33.051  37.498  1.00  0.00     0.173 A 
ATOM     65  F   UNL A   1      41.255  35.045  35.684  1.00  0.00    -0.203 F 
ATOM     66  C   UNL A   1      40.119  35.495  37.694  1.00  0.00     0.198 A 
ATOM     67  C   UNL A   1      38.549  33.903  38.569  1.00  0.00     0.198 A 
ATOM     68  F   UNL A   1      38.171  31.875  37.436  1.00  0.00    -0.203 F 
ATOM     69  F   UNL A   1      40.775  36.658  37.804  1.00  0.00    -0.200 F 
ATOM     70  C   UNL A   1      39.207  35.119  38.670  1.00  0.00     0.200 A 
ATOM     71  F   UNL A   1      37.660  33.544  39.506  1.00  0.00    -0.200 F 
ATOM     72  F   UNL A   1      38.970  35.927  39.712  1.00  0.00    -0.200 F 
ENDBRANCH  48  62
BRANCH  49  73
ATOM     73  C   UNL A   1      41.251  27.773  28.397  1.00  0.00     0.064 A 
ATOM     74  C   UNL A   1      42.147  28.194  27.406  1.00  0.00     0.173 A 
ATOM     75  C   UNL A   1      40.602  26.544  28.214  1.00  0.00     0.173 A 
ATOM     76  F   UNL A   1      42.778  29.372  27.530  1.00  0.00    -0.203 F 
ATOM     77  C   UNL A   1      42.372  27.426  26.266  1.00  0.00     0.198 A 
ATOM     78  C   UNL A   1      40.845  25.765  27.085  1.00  0.00     0.198 A 
ATOM     79  F   UNL A   1      39.742  26.095  29.139  1.00  0.00    -0.203 F 
ATOM     80  F   UNL A   1      43.204  27.870  25.314  1.00  0.00    -0.200 F 
ATOM     81  C   UNL A   1      41.724  26.210  26.109  1.00  0.00     0.200 A 
ATOM     82  F   UNL A   1      40.230  24.583  26.944  1.00  0.00    -0.200 F 
ATOM     83  F   UNL A   1      41.945  25.468  25.016  1.00  0.00    -0.200 F 
ENDBRANCH  49  73
BRANCH  61  84
ATOM     84  C   UNL A   1      44.169  28.012  34.710  1.00  0.00     0.064 A 
ATOM     85  C   UNL A   1      43.901  26.810  35.380  1.00  0.00     0.173 A 
ATOM     86  C   UNL A   1      45.502  28.444  34.635  1.00  0.00     0.173 A 
ATOM     87  F   UNL A   1      42.640  26.366  35.492  1.00  0.00    -0.203 F 
ATOM     88  C   UNL A   1      44.925  26.085  35.983  1.00  0.00     0.198 A 
ATOM     89  C   UNL A   1      46.526  27.701  35.215  1.00  0.00     0.198 A 
ATOM     90  F   UNL A   1      45.809  29.584  34.001  1.00  0.00    -0.203 F 
ATOM     91  F   UNL A   1      44.640  24.966  36.664  1.00  0.00    -0.200 F 
ATOM     92  C   UNL A   1      46.237  26.527  35.895  1.00  0.00     0.200 A 
ATOM     93  F   UNL A   1      47.794  28.125  35.123  1.00  0.00    -0.200 F 
ATOM     94  F   UNL A   1      47.221  25.829  36.478  1.00  0.00    -0.200 F 
ENDBRANCH  61  84
ENDBRANCH  35  36
ENDBRANCH  27  30
ENDBRANCH  25  26
ENDBRANCH  24  25
ENDBRANCH   1  24
TORSDOF 14
ENDMDL
