MODEL 1
REMARK VINA RESULT:     -13.1      0.000      0.000
REMARK SMILES CC(C)(C(=O)NCCCNC(=O)c1ccc(-c2c3nc(c(-c4c(F)c(F)c(F)c(F)c4F)c4ccc([nH]4)c(-c4c(F)c(F)c(F)c(F)c4F)c4nc(c(-c5c(F)c(F)c(F)c(F)c5F)c5ccc2[nH]5)C=C4)C=C3)cc1)N1C(=O)/C(=C/c2ccc(C=O)cc2)SC1=S
REMARK SMILES IDX 7 1 6 2 4 3 5 4 2 6 1 7 3 8 76 9 77 10 90 11 78 12 79 13
REMARK SMILES IDX 89 14 91 15 80 16 81 17 82 18 88 19 83 20 87 21 84 22 85 23
REMARK SMILES IDX 86 24 8 25 9 26 10 27 11 28 12 30 13 31 14 32 75 33 15 34
REMARK SMILES IDX 74 35 16 36 17 37 18 38 68 39 19 40 73 41 67 42 69 43 20 44
REMARK SMILES IDX 72 45 66 46 65 47 21 49 53 50 33 51 52 52 34 53 37 54 51 55
REMARK SMILES IDX 70 56 35 57 36 58 50 60 71 61 38 62 22 63 23 64 31 65 24 66
REMARK SMILES IDX 25 67 29 68 32 69 26 70 27 71 30 72 28 73 54 74 55 75 63 76
REMARK SMILES IDX 56 77 57 78 61 79 64 80 58 81 59 82 62 83 60 84 39 85 40 86
REMARK SMILES IDX 48 87 41 88 42 89 46 90 49 91 43 92 44 93 47 94 45 95
REMARK H PARENT 6 5 10 29 69 48 37 59
REMARK Flexibility Score: inf
ROOT
ATOM      1  C   UNL A   1      31.624  30.851  25.871  1.00  0.00     0.117 C 
ENDROOT
BRANCH   1   2
ATOM      2  N   UNL A   1      32.785  30.099  26.315  1.00  0.00    -0.354 N 
ATOM      3  C   UNL A   1      33.517  29.118  25.715  1.00  0.00     0.245 C 
ATOM      4  O   UNL A   1      34.645  28.932  26.187  1.00  0.00    -0.272 OA
ATOM      5  H   UNL A   1      33.103  30.344  27.215  1.00  0.00     0.163 HD
BRANCH   3   6
ATOM      6  C   UNL A   1      33.039  28.368  24.434  1.00  0.00     0.122 C 
ATOM      7  C   UNL A   1      31.657  28.788  23.902  1.00  0.00     0.046 C 
ATOM      8  C   UNL A   1      34.138  28.724  23.394  1.00  0.00     0.046 C 
BRANCH   6   9
ATOM      9  N   UNL A   1      32.988  26.880  24.730  1.00  0.00    -0.278 N 
ATOM     10  C   UNL A   1      33.427  25.971  23.777  1.00  0.00     0.267 C 
ATOM     11  C   UNL A   1      32.291  26.295  25.785  1.00  0.00     0.149 C 
ATOM     12  O   UNL A   1      33.794  26.213  22.634  1.00  0.00    -0.268 OA
ATOM     13  C   UNL A   1      33.284  24.576  24.249  1.00  0.00     0.081 C 
ATOM     14  S   UNL A   1      32.538  24.547  25.782  1.00  0.00    -0.054 SA
ATOM     15  S   UNL A   1      31.278  26.977  26.930  1.00  0.00    -0.052 S 
ATOM     16  C   UNL A   1      33.681  23.551  23.482  1.00  0.00     0.029 C 
BRANCH  16  17
ATOM     17  C   UNL A   1      33.542  22.130  23.798  1.00  0.00    -0.024 A 
ATOM     18  C   UNL A   1      32.427  21.430  23.325  1.00  0.00     0.009 A 
ATOM     19  C   UNL A   1      34.484  21.474  24.603  1.00  0.00     0.009 A 
ATOM     20  C   UNL A   1      32.276  20.073  23.619  1.00  0.00     0.012 A 
ATOM     21  C   UNL A   1      34.339  20.118  24.895  1.00  0.00     0.012 A 
ATOM     22  C   UNL A   1      33.238  19.420  24.394  1.00  0.00     0.014 A 
BRANCH  22  23
ATOM     23  C   UNL A   1      33.102  17.982  24.691  1.00  0.00     0.260 C 
ATOM     24  O   UNL A   1      32.067  17.503  25.136  1.00  0.00    -0.298 OA
ENDBRANCH  22  23
ENDBRANCH  16  17
ENDBRANCH   6   9
ENDBRANCH   3   6
ENDBRANCH   1   2
BRANCH   1  25
ATOM     25  C   UNL A   1      31.334  32.058  26.747  1.00  0.00     0.042 C 
BRANCH  25  26
ATOM     26  C   UNL A   1      32.589  32.727  27.287  1.00  0.00     0.118 C 
BRANCH  26  27
ATOM     27  N   UNL A   1      32.385  34.139  27.594  1.00  0.00    -0.352 N 
ATOM     28  C   UNL A   1      32.967  34.935  28.547  1.00  0.00     0.251 C 
ATOM     29  H   UNL A   1      31.722  34.593  27.025  1.00  0.00     0.163 HD
ATOM     30  O   UNL A   1      32.502  36.049  28.781  1.00  0.00    -0.269 OA
BRANCH  28  31
ATOM     31  C   UNL A   1      34.137  34.452  29.306  1.00  0.00     0.039 A 
ATOM     32  C   UNL A   1      33.935  33.811  30.533  1.00  0.00     0.014 A 
ATOM     33  C   UNL A   1      35.431  34.632  28.815  1.00  0.00     0.014 A 
ATOM     34  C   UNL A   1      35.026  33.280  31.221  1.00  0.00     0.010 A 
ATOM     35  C   UNL A   1      36.502  34.014  29.449  1.00  0.00     0.010 A 
ATOM     36  C   UNL A   1      36.313  33.335  30.660  1.00  0.00    -0.014 A 
BRANCH  36  37
ATOM     37  C   UNL A   1      37.475  32.689  31.318  1.00  0.00     0.031 A 
ATOM     38  C   UNL A   1      38.170  31.532  30.653  1.00  0.00     0.074 A 
ATOM     39  C   UNL A   1      37.853  33.090  32.547  1.00  0.00     0.049 A 
ATOM     40  N   UNL A   1      39.137  30.775  31.106  1.00  0.00    -0.248 NA
ATOM     41  C   UNL A   1      37.693  31.157  29.313  1.00  0.00     0.031 C 
ATOM     42  C   UNL A   1      37.226  34.169  33.314  1.00  0.00     0.029 A 
ATOM     43  N   UNL A   1      38.845  32.629  33.376  1.00  0.00    -0.354 N 
ATOM     44  C   UNL A   1      39.370  29.829  30.117  1.00  0.00     0.074 A 
ATOM     45  C   UNL A   1      38.405  30.067  29.066  1.00  0.00     0.031 C 
ATOM     46  C   UNL A   1      37.864  34.302  34.488  1.00  0.00     0.029 A 
ATOM     47  C   UNL A   1      38.910  33.288  34.579  1.00  0.00     0.049 A 
ATOM     48  H   UNL A   1      39.453  31.894  33.130  1.00  0.00     0.167 HD
ATOM     49  C   UNL A   1      40.320  28.866  30.078  1.00  0.00     0.037 A 
ATOM     50  C   UNL A   1      39.714  33.089  35.640  1.00  0.00     0.037 A 
ATOM     51  C   UNL A   1      41.290  28.647  31.118  1.00  0.00     0.049 A 
ATOM     52  C   UNL A   1      40.748  31.996  35.579  1.00  0.00     0.074 A 
ATOM     53  C   UNL A   1      42.333  27.737  31.149  1.00  0.00     0.029 A 
ATOM     54  N   UNL A   1      41.333  29.345  32.317  1.00  0.00    -0.354 N 
ATOM     55  N   UNL A   1      41.008  31.155  34.608  1.00  0.00    -0.248 NA
ATOM     56  C   UNL A   1      41.603  31.829  36.762  1.00  0.00     0.031 C 
ATOM     57  C   UNL A   1      42.969  27.844  32.389  1.00  0.00     0.029 A 
ATOM     58  C   UNL A   1      42.366  28.864  33.106  1.00  0.00     0.049 A 
ATOM     59  H   UNL A   1      40.720  30.072  32.570  1.00  0.00     0.167 HD
ATOM     60  C   UNL A   1      42.073  30.381  35.048  1.00  0.00     0.074 A 
ATOM     61  C   UNL A   1      42.422  30.864  36.367  1.00  0.00     0.031 C 
ATOM     62  C   UNL A   1      42.706  29.363  34.415  1.00  0.00     0.037 A 
BRANCH  49  63
ATOM     63  C   UNL A   1      40.357  27.972  28.870  1.00  0.00     0.064 A 
ATOM     64  C   UNL A   1      41.099  28.307  27.727  1.00  0.00     0.173 A 
ATOM     65  C   UNL A   1      39.670  26.749  28.869  1.00  0.00     0.173 A 
ATOM     66  F   UNL A   1      41.765  29.470  27.671  1.00  0.00    -0.203 F 
ATOM     67  C   UNL A   1      41.127  27.465  26.618  1.00  0.00     0.198 A 
ATOM     68  C   UNL A   1      39.729  25.894  27.771  1.00  0.00     0.198 A 
ATOM     69  F   UNL A   1      38.950  26.376  29.937  1.00  0.00    -0.203 F 
ATOM     70  F   UNL A   1      41.799  27.833  25.518  1.00  0.00    -0.200 F 
ATOM     71  C   UNL A   1      40.449  26.257  26.643  1.00  0.00     0.200 A 
ATOM     72  F   UNL A   1      39.085  24.719  27.804  1.00  0.00    -0.200 F 
ATOM     73  F   UNL A   1      40.485  25.444  25.579  1.00  0.00    -0.200 F 
ENDBRANCH  49  63
BRANCH  50  74
ATOM     74  C   UNL A   1      39.585  33.951  36.845  1.00  0.00     0.064 A 
ATOM     75  C   UNL A   1      40.252  35.183  36.923  1.00  0.00     0.173 A 
ATOM     76  C   UNL A   1      38.804  33.563  37.942  1.00  0.00     0.173 A 
ATOM     77  F   UNL A   1      41.027  35.590  35.907  1.00  0.00    -0.203 F 
ATOM     78  C   UNL A   1      40.161  35.980  38.062  1.00  0.00     0.198 A 
ATOM     79  C   UNL A   1      38.688  34.376  39.068  1.00  0.00     0.198 A 
ATOM     80  F   UNL A   1      38.139  32.398  37.917  1.00  0.00    -0.203 F 
ATOM     81  F   UNL A   1      40.850  37.127  38.130  1.00  0.00    -0.200 F 
ATOM     82  C   UNL A   1      39.375  35.579  39.132  1.00  0.00     0.200 A 
ATOM     83  F   UNL A   1      37.913  33.994  40.092  1.00  0.00    -0.200 F 
ATOM     84  F   UNL A   1      39.285  36.348  40.225  1.00  0.00    -0.200 F 
ENDBRANCH  50  74
BRANCH  62  85
ATOM     85  C   UNL A   1      43.868  28.725  35.123  1.00  0.00     0.064 A 
ATOM     86  C   UNL A   1      43.703  27.609  35.957  1.00  0.00     0.173 A 
ATOM     87  C   UNL A   1      45.170  29.211  34.926  1.00  0.00     0.173 A 
ATOM     88  F   UNL A   1      42.477  27.115  36.190  1.00  0.00    -0.203 F 
ATOM     89  C   UNL A   1      44.796  27.020  36.586  1.00  0.00     0.198 A 
ATOM     90  C   UNL A   1      46.263  28.598  35.529  1.00  0.00     0.198 A 
ATOM     91  F   UNL A   1      45.383  30.272  34.132  1.00  0.00    -0.203 F 
ATOM     92  F   UNL A   1      44.609  25.986  37.418  1.00  0.00    -0.200 F 
ATOM     93  C   UNL A   1      46.076  27.508  36.365  1.00  0.00     0.200 A 
ATOM     94  F   UNL A   1      47.499  29.061  35.300  1.00  0.00    -0.200 F 
ATOM     95  F   UNL A   1      47.127  26.932  36.964  1.00  0.00    -0.200 F 
ENDBRANCH  62  85
ENDBRANCH  36  37
ENDBRANCH  28  31
ENDBRANCH  26  27
ENDBRANCH  25  26
ENDBRANCH   1  25
TORSDOF 13
ENDMDL
MODEL 2
REMARK VINA RESULT:     -13.0      0.150      2.000
REMARK SMILES CC(C)(C(=O)NCCCNC(=O)c1ccc(-c2c3nc(c(-c4c(F)c(F)c(F)c(F)c4F)c4ccc([nH]4)c(-c4c(F)c(F)c(F)c(F)c4F)c4nc(c(-c5c(F)c(F)c(F)c(F)c5F)c5ccc2[nH]5)C=C4)C=C3)cc1)N1C(=O)/C(=C/c2ccc(C=O)cc2)SC1=S
REMARK SMILES IDX 7 1 6 2 4 3 5 4 2 6 1 7 3 8 76 9 77 10 90 11 78 12 79 13
REMARK SMILES IDX 89 14 91 15 80 16 81 17 82 18 88 19 83 20 87 21 84 22 85 23
REMARK SMILES IDX 86 24 8 25 9 26 10 27 11 28 12 30 13 31 14 32 75 33 15 34
REMARK SMILES IDX 74 35 16 36 17 37 18 38 68 39 19 40 73 41 67 42 69 43 20 44
REMARK SMILES IDX 72 45 66 46 65 47 21 49 53 50 33 51 52 52 34 53 37 54 51 55
REMARK SMILES IDX 70 56 35 57 36 58 50 60 71 61 38 62 22 63 23 64 31 65 24 66
REMARK SMILES IDX 25 67 29 68 32 69 26 70 27 71 30 72 28 73 54 74 55 75 63 76
REMARK SMILES IDX 56 77 57 78 61 79 64 80 58 81 59 82 62 83 60 84 39 85 40 86
REMARK SMILES IDX 48 87 41 88 42 89 46 90 49 91 43 92 44 93 47 94 45 95
REMARK H PARENT 6 5 10 29 69 48 37 59
REMARK Flexibility Score: inf
ROOT
ATOM      1  C   UNL A   1      31.662  30.907  25.911  1.00  0.00     0.117 C 
ENDROOT
BRANCH   1   2
ATOM      2  N   UNL A   1      32.800  30.111  26.336  1.00  0.00    -0.354 N 
ATOM      3  C   UNL A   1      33.500  29.120  25.714  1.00  0.00     0.245 C 
ATOM      4  O   UNL A   1      34.623  28.889  26.180  1.00  0.00    -0.272 OA
ATOM      5  H   UNL A   1      33.127  30.327  27.240  1.00  0.00     0.163 HD
BRANCH   3   6
ATOM      6  C   UNL A   1      32.997  28.412  24.419  1.00  0.00     0.122 C 
ATOM      7  C   UNL A   1      31.624  28.880  23.904  1.00  0.00     0.046 C 
ATOM      8  C   UNL A   1      34.101  28.762  23.381  1.00  0.00     0.046 C 
BRANCH   6   9
ATOM      9  N   UNL A   1      32.908  26.919  24.682  1.00  0.00    -0.278 N 
ATOM     10  C   UNL A   1      33.336  26.021  23.714  1.00  0.00     0.267 C 
ATOM     11  C   UNL A   1      32.186  26.328  25.716  1.00  0.00     0.149 C 
ATOM     12  O   UNL A   1      33.721  26.278  22.581  1.00  0.00    -0.268 OA
ATOM     13  C   UNL A   1      33.155  24.619  24.154  1.00  0.00     0.081 C 
ATOM     14  S   UNL A   1      32.392  24.575  25.678  1.00  0.00    -0.054 SA
ATOM     15  S   UNL A   1      31.176  27.009  26.866  1.00  0.00    -0.052 S 
ATOM     16  C   UNL A   1      33.536  23.603  23.370  1.00  0.00     0.029 C 
BRANCH  16  17
ATOM     17  C   UNL A   1      33.360  22.179  23.653  1.00  0.00    -0.024 A 
ATOM     18  C   UNL A   1      34.243  21.541  24.532  1.00  0.00     0.009 A 
ATOM     19  C   UNL A   1      32.350  21.437  23.025  1.00  0.00     0.009 A 
ATOM     20  C   UNL A   1      34.092  20.183  24.813  1.00  0.00     0.012 A 
ATOM     21  C   UNL A   1      32.192  20.080  23.307  1.00  0.00     0.012 A 
ATOM     22  C   UNL A   1      33.061  19.459  24.207  1.00  0.00     0.014 A 
BRANCH  22  23
ATOM     23  C   UNL A   1      32.876  18.029  24.514  1.00  0.00     0.260 C 
ATOM     24  O   UNL A   1      32.144  17.645  25.418  1.00  0.00    -0.298 OA
ENDBRANCH  22  23
ENDBRANCH  16  17
ENDBRANCH   6   9
ENDBRANCH   3   6
ENDBRANCH   1   2
BRANCH   1  25
ATOM     25  C   UNL A   1      31.391  32.085  26.830  1.00  0.00     0.042 C 
BRANCH  25  26
ATOM     26  C   UNL A   1      32.658  32.791  27.296  1.00  0.00     0.118 C 
BRANCH  26  27
ATOM     27  N   UNL A   1      32.428  34.192  27.630  1.00  0.00    -0.352 N 
ATOM     28  C   UNL A   1      32.993  34.978  28.602  1.00  0.00     0.251 C 
ATOM     29  H   UNL A   1      31.761  34.647  27.067  1.00  0.00     0.163 HD
ATOM     30  O   UNL A   1      32.508  36.079  28.857  1.00  0.00    -0.269 OA
BRANCH  28  31
ATOM     31  C   UNL A   1      34.166  34.498  29.358  1.00  0.00     0.039 A 
ATOM     32  C   UNL A   1      33.974  33.909  30.611  1.00  0.00     0.014 A 
ATOM     33  C   UNL A   1      35.454  34.632  28.836  1.00  0.00     0.014 A 
ATOM     34  C   UNL A   1      35.067  33.381  31.299  1.00  0.00     0.010 A 
ATOM     35  C   UNL A   1      36.524  34.015  29.474  1.00  0.00     0.010 A 
ATOM     36  C   UNL A   1      36.344  33.386  30.713  1.00  0.00    -0.014 A 
BRANCH  36  37
ATOM     37  C   UNL A   1      37.504  32.740  31.374  1.00  0.00     0.031 A 
ATOM     38  C   UNL A   1      38.207  31.590  30.706  1.00  0.00     0.074 A 
ATOM     39  C   UNL A   1      37.874  33.136  32.607  1.00  0.00     0.049 A 
ATOM     40  N   UNL A   1      39.174  30.834  31.160  1.00  0.00    -0.248 NA
ATOM     41  C   UNL A   1      37.739  31.221  29.361  1.00  0.00     0.031 C 
ATOM     42  C   UNL A   1      37.239  34.208  33.377  1.00  0.00     0.029 A 
ATOM     43  N   UNL A   1      38.863  32.673  33.439  1.00  0.00    -0.354 N 
ATOM     44  C   UNL A   1      39.416  29.895  30.167  1.00  0.00     0.074 A 
ATOM     45  C   UNL A   1      38.457  30.136  29.112  1.00  0.00     0.031 C 
ATOM     46  C   UNL A   1      37.869  34.336  34.555  1.00  0.00     0.029 A 
ATOM     47  C   UNL A   1      38.919  33.325  34.646  1.00  0.00     0.049 A 
ATOM     48  H   UNL A   1      39.475  31.942  33.192  1.00  0.00     0.167 HD
ATOM     49  C   UNL A   1      40.370  28.935  30.128  1.00  0.00     0.037 A 
ATOM     50  C   UNL A   1      39.717  33.122  35.711  1.00  0.00     0.037 A 
ATOM     51  C   UNL A   1      41.334  28.713  31.172  1.00  0.00     0.049 A 
ATOM     52  C   UNL A   1      40.755  32.034  35.650  1.00  0.00     0.074 A 
ATOM     53  C   UNL A   1      42.380  27.807  31.203  1.00  0.00     0.029 A 
ATOM     54  N   UNL A   1      41.368  29.404  32.375  1.00  0.00    -0.354 N 
ATOM     55  N   UNL A   1      41.024  31.200  34.675  1.00  0.00    -0.248 NA
ATOM     56  C   UNL A   1      41.605  31.863  36.836  1.00  0.00     0.031 C 
ATOM     57  C   UNL A   1      43.009  27.908  32.447  1.00  0.00     0.029 A 
ATOM     58  C   UNL A   1      42.398  28.922  33.167  1.00  0.00     0.049 A 
ATOM     59  H   UNL A   1      40.752  30.128  32.629  1.00  0.00     0.167 HD
ATOM     60  C   UNL A   1      42.089  30.427  35.116  1.00  0.00     0.074 A 
ATOM     61  C   UNL A   1      42.429  30.903  36.440  1.00  0.00     0.031 C 
ATOM     62  C   UNL A   1      42.729  29.414  34.481  1.00  0.00     0.037 A 
BRANCH  49  63
ATOM     63  C   UNL A   1      40.417  28.049  28.915  1.00  0.00     0.064 A 
ATOM     64  C   UNL A   1      39.705  26.840  28.855  1.00  0.00     0.173 A 
ATOM     65  C   UNL A   1      41.153  28.431  27.783  1.00  0.00     0.173 A 
ATOM     66  F   UNL A   1      38.994  26.423  29.913  1.00  0.00    -0.203 F 
ATOM     67  C   UNL A   1      39.755  26.033  27.721  1.00  0.00     0.198 A 
ATOM     68  C   UNL A   1      41.172  27.638  26.638  1.00  0.00     0.198 A 
ATOM     69  F   UNL A   1      41.847  29.578  27.782  1.00  0.00    -0.203 F 
ATOM     70  F   UNL A   1      39.110  24.858  27.710  1.00  0.00    -0.200 F 
ATOM     71  C   UNL A   1      40.481  26.436  26.612  1.00  0.00     0.200 A 
ATOM     72  F   UNL A   1      41.862  28.037  25.560  1.00  0.00    -0.200 F 
ATOM     73  F   UNL A   1      40.519  25.663  25.517  1.00  0.00    -0.200 F 
ENDBRANCH  49  63
BRANCH  50  74
ATOM     74  C   UNL A   1      39.579  33.978  36.920  1.00  0.00     0.064 A 
ATOM     75  C   UNL A   1      38.794  33.565  38.007  1.00  0.00     0.173 A 
ATOM     76  C   UNL A   1      40.219  35.222  37.014  1.00  0.00     0.173 A 
ATOM     77  F   UNL A   1      38.145  32.392  37.958  1.00  0.00    -0.203 F 
ATOM     78  C   UNL A   1      38.633  34.377  39.128  1.00  0.00     0.198 A 
ATOM     79  C   UNL A   1      40.084  36.017  38.149  1.00  0.00     0.198 A 
ATOM     80  F   UNL A   1      40.988  35.660  36.006  1.00  0.00    -0.203 F 
ATOM     81  F   UNL A   1      37.836  33.981  40.129  1.00  0.00    -0.200 F 
ATOM     82  C   UNL A   1      39.283  35.600  39.201  1.00  0.00     0.200 A 
ATOM     83  F   UNL A   1      40.728  37.190  38.224  1.00  0.00    -0.200 F 
ATOM     84  F   UNL A   1      39.133  36.377  40.282  1.00  0.00    -0.200 F 
ENDBRANCH  50  74
BRANCH  62  85
ATOM     85  C   UNL A   1      43.889  28.777  35.192  1.00  0.00     0.064 A 
ATOM     86  C   UNL A   1      45.192  29.285  35.083  1.00  0.00     0.173 A 
ATOM     87  C   UNL A   1      43.684  27.669  36.029  1.00  0.00     0.173 A 
ATOM     88  F   UNL A   1      45.444  30.333  34.283  1.00  0.00    -0.203 F 
ATOM     89  C   UNL A   1      46.250  28.692  35.767  1.00  0.00     0.198 A 
ATOM     90  C   UNL A   1      44.738  27.101  36.738  1.00  0.00     0.198 A 
ATOM     91  F   UNL A   1      42.455  27.149  36.174  1.00  0.00    -0.203 F 
ATOM     92  F   UNL A   1      47.495  29.163  35.609  1.00  0.00    -0.200 F 
ATOM     93  C   UNL A   1      46.021  27.607  36.601  1.00  0.00     0.200 A 
ATOM     94  F   UNL A   1      44.510  26.065  37.556  1.00  0.00    -0.200 F 
ATOM     95  F   UNL A   1      47.039  27.046  37.267  1.00  0.00    -0.200 F 
ENDBRANCH  62  85
ENDBRANCH  36  37
ENDBRANCH  28  31
ENDBRANCH  26  27
ENDBRANCH  25  26
ENDBRANCH   1  25
TORSDOF 13
ENDMDL
MODEL 3
REMARK VINA RESULT:     -12.9      0.588      7.356
REMARK SMILES CC(C)(C(=O)NCCCNC(=O)c1ccc(-c2c3nc(c(-c4c(F)c(F)c(F)c(F)c4F)c4ccc([nH]4)c(-c4c(F)c(F)c(F)c(F)c4F)c4nc(c(-c5c(F)c(F)c(F)c(F)c5F)c5ccc2[nH]5)C=C4)C=C3)cc1)N1C(=O)/C(=C/c2ccc(C=O)cc2)SC1=S
REMARK SMILES IDX 7 1 6 2 4 3 5 4 2 6 1 7 3 8 76 9 77 10 90 11 78 12 79 13
REMARK SMILES IDX 89 14 91 15 80 16 81 17 82 18 88 19 83 20 87 21 84 22 85 23
REMARK SMILES IDX 86 24 8 25 9 26 10 27 11 28 12 30 13 31 14 32 75 33 15 34
REMARK SMILES IDX 74 35 16 36 17 37 18 38 68 39 19 40 73 41 67 42 69 43 20 44
REMARK SMILES IDX 72 45 66 46 65 47 21 49 53 50 33 51 52 52 34 53 37 54 51 55
REMARK SMILES IDX 70 56 35 57 36 58 50 60 71 61 38 62 22 63 23 64 31 65 24 66
REMARK SMILES IDX 25 67 29 68 32 69 26 70 27 71 30 72 28 73 54 74 55 75 63 76
REMARK SMILES IDX 56 77 57 78 61 79 64 80 58 81 59 82 62 83 60 84 39 85 40 86
REMARK SMILES IDX 48 87 41 88 42 89 46 90 49 91 43 92 44 93 47 94 45 95
REMARK H PARENT 6 5 10 29 69 48 37 59
REMARK Flexibility Score: inf
ROOT
ATOM      1  C   UNL A   1      31.413  30.909  25.945  1.00  0.00     0.117 C 
ENDROOT
BRANCH   1   2
ATOM      2  N   UNL A   1      32.647  30.256  26.349  1.00  0.00    -0.354 N 
ATOM      3  C   UNL A   1      33.446  29.351  25.717  1.00  0.00     0.245 C 
ATOM      4  O   UNL A   1      34.597  29.257  26.158  1.00  0.00    -0.272 OA
ATOM      5  H   UNL A   1      32.965  30.517  27.244  1.00  0.00     0.163 HD
BRANCH   3   6
ATOM      6  C   UNL A   1      33.002  28.578  24.436  1.00  0.00     0.122 C 
ATOM      7  C   UNL A   1      31.621  28.966  23.879  1.00  0.00     0.046 C 
ATOM      8  C   UNL A   1      34.111  28.944  23.409  1.00  0.00     0.046 C 
BRANCH   6   9
ATOM      9  N   UNL A   1      32.975  27.092  24.748  1.00  0.00    -0.278 N 
ATOM     10  C   UNL A   1      33.389  26.178  23.789  1.00  0.00     0.267 C 
ATOM     11  C   UNL A   1      32.319  26.512  25.831  1.00  0.00     0.149 C 
ATOM     12  O   UNL A   1      33.715  26.412  22.633  1.00  0.00    -0.268 OA
ATOM     13  C   UNL A   1      33.275  24.786  24.279  1.00  0.00     0.081 C 
ATOM     14  S   UNL A   1      32.581  24.766  25.837  1.00  0.00    -0.054 SA
ATOM     15  S   UNL A   1      31.338  27.196  27.003  1.00  0.00    -0.052 S 
ATOM     16  C   UNL A   1      33.655  23.758  23.510  1.00  0.00     0.029 C 
BRANCH  16  17
ATOM     17  C   UNL A   1      33.539  22.339  23.844  1.00  0.00    -0.024 A 
ATOM     18  C   UNL A   1      34.557  21.723  24.580  1.00  0.00     0.009 A 
ATOM     19  C   UNL A   1      32.447  21.580  23.400  1.00  0.00     0.009 A 
ATOM     20  C   UNL A   1      34.465  20.369  24.906  1.00  0.00     0.012 A 
ATOM     21  C   UNL A   1      32.349  20.227  23.728  1.00  0.00     0.012 A 
ATOM     22  C   UNL A   1      33.356  19.628  24.487  1.00  0.00     0.014 A 
BRANCH  22  23
ATOM     23  C   UNL A   1      33.235  18.203  24.846  1.00  0.00     0.260 C 
ATOM     24  O   UNL A   1      32.179  17.714  25.228  1.00  0.00    -0.298 OA
ENDBRANCH  22  23
ENDBRANCH  16  17
ENDBRANCH   6   9
ENDBRANCH   3   6
ENDBRANCH   1   2
BRANCH   1  25
ATOM     25  C   UNL A   1      31.277  32.311  26.512  1.00  0.00     0.042 C 
BRANCH  25  26
ATOM     26  C   UNL A   1      32.524  32.792  27.240  1.00  0.00     0.118 C 
BRANCH  26  27
ATOM     27  N   UNL A   1      32.452  34.203  27.605  1.00  0.00    -0.352 N 
ATOM     28  C   UNL A   1      33.115  34.904  28.580  1.00  0.00     0.251 C 
ATOM     29  H   UNL A   1      31.826  34.738  27.065  1.00  0.00     0.163 HD
ATOM     30  O   UNL A   1      32.756  36.044  28.866  1.00  0.00    -0.269 OA
BRANCH  28  31
ATOM     31  C   UNL A   1      34.245  34.287  29.302  1.00  0.00     0.039 A 
ATOM     32  C   UNL A   1      33.983  33.466  30.402  1.00  0.00     0.014 A 
ATOM     33  C   UNL A   1      35.561  34.518  28.898  1.00  0.00     0.014 A 
ATOM     34  C   UNL A   1      35.038  32.814  31.043  1.00  0.00     0.010 A 
ATOM     35  C   UNL A   1      36.597  33.790  29.471  1.00  0.00     0.010 A 
ATOM     36  C   UNL A   1      36.348  32.933  30.551  1.00  0.00    -0.014 A 
BRANCH  36  37
ATOM     37  C   UNL A   1      37.473  32.172  31.147  1.00  0.00     0.031 A 
ATOM     38  C   UNL A   1      37.977  32.522  32.520  1.00  0.00     0.074 A 
ATOM     39  C   UNL A   1      38.091  31.220  30.421  1.00  0.00     0.049 A 
ATOM     40  N   UNL A   1      39.006  32.043  33.172  1.00  0.00    -0.248 NA
ATOM     41  C   UNL A   1      37.246  33.575  33.243  1.00  0.00     0.031 C 
ATOM     42  C   UNL A   1      37.725  30.824  29.059  1.00  0.00     0.029 A 
ATOM     43  N   UNL A   1      39.169  30.424  30.719  1.00  0.00    -0.354 N 
ATOM     44  C   UNL A   1      39.052  32.745  34.370  1.00  0.00     0.074 A 
ATOM     45  C   UNL A   1      37.989  33.723  34.330  1.00  0.00     0.031 C 
ATOM     46  C   UNL A   1      38.546  29.844  28.651  1.00  0.00     0.029 A 
ATOM     47  C   UNL A   1      39.527  29.576  29.699  1.00  0.00     0.049 A 
ATOM     48  H   UNL A   1      39.640  30.457  31.582  1.00  0.00     0.167 HD
ATOM     49  C   UNL A   1      39.892  32.570  35.418  1.00  0.00     0.037 A 
ATOM     50  C   UNL A   1      40.540  28.694  29.614  1.00  0.00     0.037 A 
ATOM     51  C   UNL A   1      40.935  31.581  35.459  1.00  0.00     0.049 A 
ATOM     52  C   UNL A   1      41.472  28.535  30.785  1.00  0.00     0.074 A 
ATOM     53  C   UNL A   1      41.801  31.281  36.497  1.00  0.00     0.029 A 
ATOM     54  N   UNL A   1      41.259  30.730  34.411  1.00  0.00    -0.354 N 
ATOM     55  N   UNL A   1      41.462  29.152  31.941  1.00  0.00    -0.248 NA
ATOM     56  C   UNL A   1      42.554  27.551  30.640  1.00  0.00     0.031 C 
ATOM     57  C   UNL A   1      42.685  30.292  36.056  1.00  0.00     0.029 A 
ATOM     58  C   UNL A   1      42.331  29.928  34.768  1.00  0.00     0.049 A 
ATOM     59  H   UNL A   1      40.797  30.702  33.542  1.00  0.00     0.167 HD
ATOM     60  C   UNL A   1      42.512  28.612  32.671  1.00  0.00     0.074 A 
ATOM     61  C   UNL A   1      43.128  27.606  31.834  1.00  0.00     0.031 C 
ATOM     62  C   UNL A   1      42.928  28.923  33.924  1.00  0.00     0.037 A 
BRANCH  49  63
ATOM     63  C   UNL A   1      39.716  33.470  36.608  1.00  0.00     0.064 A 
ATOM     64  C   UNL A   1      40.399  34.692  36.717  1.00  0.00     0.173 A 
ATOM     65  C   UNL A   1      38.825  33.124  37.636  1.00  0.00     0.173 A 
ATOM     66  F   UNL A   1      41.270  35.065  35.769  1.00  0.00    -0.203 F 
ATOM     67  C   UNL A   1      40.220  35.517  37.824  1.00  0.00     0.198 A 
ATOM     68  C   UNL A   1      38.624  33.969  38.724  1.00  0.00     0.198 A 
ATOM     69  F   UNL A   1      38.142  31.972  37.581  1.00  0.00    -0.203 F 
ATOM     70  F   UNL A   1      40.925  36.652  37.931  1.00  0.00    -0.200 F 
ATOM     71  C   UNL A   1      39.328  35.159  38.823  1.00  0.00     0.200 A 
ATOM     72  F   UNL A   1      37.748  33.629  39.681  1.00  0.00    -0.200 F 
ATOM     73  F   UNL A   1      39.150  35.960  39.883  1.00  0.00    -0.200 F 
ENDBRANCH  49  63
BRANCH  50  74
ATOM     74  C   UNL A   1      40.718  27.881  28.381  1.00  0.00     0.064 A 
ATOM     75  C   UNL A   1      40.119  26.618  28.258  1.00  0.00     0.173 A 
ATOM     76  C   UNL A   1      41.492  28.341  27.306  1.00  0.00     0.173 A 
ATOM     77  F   UNL A   1      39.385  26.125  29.267  1.00  0.00    -0.203 F 
ATOM     78  C   UNL A   1      40.310  25.838  27.120  1.00  0.00     0.198 A 
ATOM     79  C   UNL A   1      41.654  27.574  26.154  1.00  0.00     0.198 A 
ATOM     80  F   UNL A   1      42.080  29.545  27.368  1.00  0.00    -0.203 F 
ATOM     81  F   UNL A   1      39.769  24.615  27.051  1.00  0.00    -0.200 F 
ATOM     82  C   UNL A   1      41.073  26.319  26.066  1.00  0.00     0.200 A 
ATOM     83  F   UNL A   1      42.378  28.050  25.131  1.00  0.00    -0.200 F 
ATOM     84  F   UNL A   1      41.251  25.570  24.969  1.00  0.00    -0.200 F 
ENDBRANCH  50  74
BRANCH  62  85
ATOM     85  C   UNL A   1      44.080  28.139  34.484  1.00  0.00     0.064 A 
ATOM     86  C   UNL A   1      45.405  28.583  34.359  1.00  0.00     0.173 A 
ATOM     87  C   UNL A   1      43.849  26.950  35.194  1.00  0.00     0.173 A 
ATOM     88  F   UNL A   1      45.681  29.704  33.677  1.00  0.00    -0.203 F 
ATOM     89  C   UNL A   1      46.458  27.852  34.904  1.00  0.00     0.198 A 
ATOM     90  C   UNL A   1      44.901  26.241  35.766  1.00  0.00     0.198 A 
ATOM     91  F   UNL A   1      42.600  26.486  35.348  1.00  0.00    -0.203 F 
ATOM     92  F   UNL A   1      47.720  28.268  34.730  1.00  0.00    -0.200 F 
ATOM     93  C   UNL A   1      46.205  26.687  35.614  1.00  0.00     0.200 A 
ATOM     94  F   UNL A   1      44.652  25.126  36.466  1.00  0.00    -0.200 F 
ATOM     95  F   UNL A   1      47.219  25.992  36.147  1.00  0.00    -0.200 F 
ENDBRANCH  62  85
ENDBRANCH  36  37
ENDBRANCH  28  31
ENDBRANCH  26  27
ENDBRANCH  25  26
ENDBRANCH   1  25
TORSDOF 13
ENDMDL
