MODEL 1
REMARK VINA RESULT:     -11.5      0.000      0.000
REMARK SMILES Nc1ccc(SCc2ccc(C(=O)NCCCNC(=O)c3ccc(-c4c5nc(c(-c6c(F)c(F)c(F)c(F)c6F)c6ccc([nH]6)c(-c6c(F)c(F)c(F)c(F)c6F)c6nc(c(-c7c(F)c(F)c(F)c(F)c7F)c7ccc4[nH]7)C=C6)C=C5)cc3)o2)cc1
REMARK SMILES IDX 15 1 14 2 12 3 13 4 11 6 8 7 9 8 84 9 10 10 7 11 6 12 5 13
REMARK SMILES IDX 2 14 3 15 86 16 4 17 85 18 1 19 16 22 17 23 18 24 19 25
REMARK SMILES IDX 20 27 21 28 22 29 83 30 23 31 82 32 24 33 25 34 26 35 76 36
REMARK SMILES IDX 27 37 81 38 75 39 77 40 28 41 80 42 74 43 73 44 29 46 61 47
REMARK SMILES IDX 41 48 60 49 42 50 45 51 59 52 78 53 43 54 44 55 58 57 79 58
REMARK SMILES IDX 46 59 30 60 31 61 39 62 32 63 33 64 37 65 40 66 34 67 35 68
REMARK SMILES IDX 38 69 36 70 62 71 63 72 71 73 64 74 65 75 69 76 72 77 66 78
REMARK SMILES IDX 67 79 70 80 68 81 47 82 48 83 56 84 49 85 50 86 54 87 57 88
REMARK SMILES IDX 51 89 52 90 55 91 53 92
REMARK H PARENT 14 5 1 20 1 21 18 26 77 45 45 56
REMARK Flexibility Score: inf
ROOT
ATOM      1  C   UNL A   1      31.121  31.037  25.439  1.00  0.00     0.118 C 
ENDROOT
BRANCH   1   2
ATOM      2  N   UNL A   1      30.024  31.207  24.511  1.00  0.00    -0.349 N 
ATOM      3  C   UNL A   1      29.545  30.403  23.502  1.00  0.00     0.286 C 
ATOM      4  O   UNL A   1      28.531  30.821  22.938  1.00  0.00    -0.266 OA
ATOM      5  H   UNL A   1      29.531  32.052  24.620  1.00  0.00     0.163 HD
BRANCH   3   6
ATOM      6  C   UNL A   1      30.189  29.149  23.150  1.00  0.00     0.191 A 
ATOM      7  C   UNL A   1      30.400  26.942  23.325  1.00  0.00     0.115 A 
ATOM      8  C   UNL A   1      31.378  27.360  22.450  1.00  0.00     0.047 A 
ATOM      9  O   UNL A   1      29.674  28.018  23.733  1.00  0.00    -0.455 OA
ATOM     10  C   UNL A   1      31.231  28.766  22.322  1.00  0.00     0.056 A 
BRANCH   7  11
ATOM     11  C   UNL A   1      30.055  25.593  23.861  1.00  0.00     0.150 C 
BRANCH  11  12
ATOM     12  S   UNL A   1      31.212  24.881  25.073  1.00  0.00    -0.118 SA
BRANCH  12  13
ATOM     13  C   UNL A   1      31.888  26.291  25.942  1.00  0.00     0.008 A 
ATOM     14  C   UNL A   1      33.186  28.441  27.259  1.00  0.00     0.031 A 
ATOM     15  C   UNL A   1      33.853  27.695  26.290  1.00  0.00     0.026 A 
ATOM     16  C   UNL A   1      31.850  28.142  27.520  1.00  0.00     0.026 A 
ATOM     17  C   UNL A   1      33.217  26.623  25.651  1.00  0.00     0.017 A 
ATOM     18  C   UNL A   1      31.209  27.074  26.878  1.00  0.00     0.017 A 
BRANCH  14  19
ATOM     19  N   UNL A   1      33.793  29.537  27.849  1.00  0.00    -0.399 N 
ATOM     20  H   UNL A   1      34.532  29.408  28.486  1.00  0.00     0.156 HD
ATOM     21  H   UNL A   1      33.486  30.447  27.630  1.00  0.00     0.156 HD
ENDBRANCH  14  19
ENDBRANCH  12  13
ENDBRANCH  11  12
ENDBRANCH   7  11
ENDBRANCH   3   6
ENDBRANCH   1   2
BRANCH   1  22
ATOM     22  C   UNL A   1      31.048  32.039  26.590  1.00  0.00     0.042 C 
BRANCH  22  23
ATOM     23  C   UNL A   1      32.406  32.634  26.964  1.00  0.00     0.118 C 
BRANCH  23  24
ATOM     24  N   UNL A   1      32.296  34.017  27.407  1.00  0.00    -0.352 N 
ATOM     25  C   UNL A   1      32.952  34.691  28.405  1.00  0.00     0.251 C 
ATOM     26  H   UNL A   1      31.642  34.557  26.908  1.00  0.00     0.163 HD
ATOM     27  O   UNL A   1      32.545  35.797  28.752  1.00  0.00    -0.269 OA
BRANCH  25  28
ATOM     28  C   UNL A   1      34.138  34.110  29.074  1.00  0.00     0.039 A 
ATOM     29  C   UNL A   1      33.938  33.197  30.115  1.00  0.00     0.014 A 
ATOM     30  C   UNL A   1      35.435  34.506  28.736  1.00  0.00     0.014 A 
ATOM     31  C   UNL A   1      35.035  32.645  30.781  1.00  0.00     0.010 A 
ATOM     32  C   UNL A   1      36.530  33.907  29.357  1.00  0.00     0.010 A 
ATOM     33  C   UNL A   1      36.342  32.976  30.390  1.00  0.00    -0.014 A 
BRANCH  33  34
ATOM     34  C   UNL A   1      37.520  32.360  31.048  1.00  0.00     0.031 A 
ATOM     35  C   UNL A   1      38.285  31.261  30.365  1.00  0.00     0.074 A 
ATOM     36  C   UNL A   1      37.865  32.748  32.291  1.00  0.00     0.049 A 
ATOM     37  N   UNL A   1      39.295  30.554  30.808  1.00  0.00    -0.248 NA
ATOM     38  C   UNL A   1      37.840  30.890  29.013  1.00  0.00     0.031 C 
ATOM     39  C   UNL A   1      37.178  33.776  33.074  1.00  0.00     0.029 A 
ATOM     40  N   UNL A   1      38.873  32.316  33.116  1.00  0.00    -0.354 N 
ATOM     41  C   UNL A   1      39.591  29.645  29.801  1.00  0.00     0.074 A 
ATOM     42  C   UNL A   1      38.626  29.860  28.742  1.00  0.00     0.031 C 
ATOM     43  C   UNL A   1      37.797  33.911  34.257  1.00  0.00     0.029 A 
ATOM     44  C   UNL A   1      38.900  32.957  34.330  1.00  0.00     0.049 A 
ATOM     45  H   UNL A   1      39.515  31.614  32.862  1.00  0.00     0.167 HD
ATOM     46  C   UNL A   1      40.589  28.730  29.753  1.00  0.00     0.037 A 
ATOM     47  C   UNL A   1      39.719  32.790  35.385  1.00  0.00     0.037 A 
ATOM     48  C   UNL A   1      41.562  28.536  30.796  1.00  0.00     0.049 A 
ATOM     49  C   UNL A   1      40.817  31.767  35.310  1.00  0.00     0.074 A 
ATOM     50  C   UNL A   1      42.647  27.677  30.819  1.00  0.00     0.029 A 
ATOM     51  N   UNL A   1      41.565  29.213  32.007  1.00  0.00    -0.354 N 
ATOM     52  N   UNL A   1      41.126  30.955  34.329  1.00  0.00    -0.248 NA
ATOM     53  C   UNL A   1      41.686  31.641  36.489  1.00  0.00     0.031 C 
ATOM     54  C   UNL A   1      43.284  27.806  32.058  1.00  0.00     0.029 A 
ATOM     55  C   UNL A   1      42.621  28.778  32.792  1.00  0.00     0.049 A 
ATOM     56  H   UNL A   1      40.912  29.902  32.272  1.00  0.00     0.167 HD
ATOM     57  C   UNL A   1      42.235  30.241  34.759  1.00  0.00     0.074 A 
ATOM     58  C   UNL A   1      42.554  30.724  36.086  1.00  0.00     0.031 C 
ATOM     59  C   UNL A   1      42.927  29.271  34.110  1.00  0.00     0.037 A 
BRANCH  46  60
ATOM     60  C   UNL A   1      40.674  27.864  28.529  1.00  0.00     0.064 A 
ATOM     61  C   UNL A   1      41.418  28.253  27.405  1.00  0.00     0.173 A 
ATOM     62  C   UNL A   1      40.018  26.625  28.485  1.00  0.00     0.173 A 
ATOM     63  F   UNL A   1      42.054  29.434  27.391  1.00  0.00    -0.203 F 
ATOM     64  C   UNL A   1      41.473  27.449  26.269  1.00  0.00     0.198 A 
ATOM     65  C   UNL A   1      40.101  25.810  27.358  1.00  0.00     0.198 A 
ATOM     66  F   UNL A   1      39.299  26.202  29.535  1.00  0.00    -0.203 F 
ATOM     67  F   UNL A   1      42.145  27.867  25.186  1.00  0.00    -0.200 F 
ATOM     68  C   UNL A   1      40.819  26.228  26.248  1.00  0.00     0.200 A 
ATOM     69  F   UNL A   1      39.477  24.624  27.345  1.00  0.00    -0.200 F 
ATOM     70  F   UNL A   1      40.874  25.454  25.154  1.00  0.00    -0.200 F 
ENDBRANCH  46  60
BRANCH  47  71
ATOM     71  C   UNL A   1      39.550  33.643  36.589  1.00  0.00     0.064 A 
ATOM     72  C   UNL A   1      40.146  34.911  36.655  1.00  0.00     0.173 A 
ATOM     73  C   UNL A   1      38.781  33.224  37.682  1.00  0.00     0.173 A 
ATOM     74  F   UNL A   1      40.908  35.346  35.641  1.00  0.00    -0.203 F 
ATOM     75  C   UNL A   1      39.987  35.722  37.776  1.00  0.00     0.198 A 
ATOM     76  C   UNL A   1      38.602  34.046  38.793  1.00  0.00     0.198 A 
ATOM     77  F   UNL A   1      38.186  32.022  37.664  1.00  0.00    -0.203 F 
ATOM     78  F   UNL A   1      40.594  36.916  37.828  1.00  0.00    -0.200 F 
ATOM     79  C   UNL A   1      39.209  35.292  38.841  1.00  0.00     0.200 A 
ATOM     80  F   UNL A   1      37.839  33.634  39.814  1.00  0.00    -0.200 F 
ATOM     81  F   UNL A   1      39.048  36.077  39.915  1.00  0.00    -0.200 F 
ENDBRANCH  47  71
BRANCH  59  82
ATOM     82  C   UNL A   1      44.116  28.689  34.818  1.00  0.00     0.064 A 
ATOM     83  C   UNL A   1      45.396  29.242  34.680  1.00  0.00     0.173 A 
ATOM     84  C   UNL A   1      43.963  27.585  35.670  1.00  0.00     0.173 A 
ATOM     85  F   UNL A   1      45.595  30.288  33.863  1.00  0.00    -0.203 F 
ATOM     86  C   UNL A   1      46.486  28.697  35.351  1.00  0.00     0.198 A 
ATOM     87  C   UNL A   1      45.051  27.059  36.360  1.00  0.00     0.198 A 
ATOM     88  F   UNL A   1      42.758  27.022  35.839  1.00  0.00    -0.203 F 
ATOM     89  F   UNL A   1      47.711  29.213  35.169  1.00  0.00    -0.200 F 
ATOM     90  C   UNL A   1      46.312  27.610  36.195  1.00  0.00     0.200 A 
ATOM     91  F   UNL A   1      44.879  26.015  37.184  1.00  0.00    -0.200 F 
ATOM     92  F   UNL A   1      47.363  27.089  36.845  1.00  0.00    -0.200 F 
ENDBRANCH  59  82
ENDBRANCH  33  34
ENDBRANCH  25  28
ENDBRANCH  23  24
ENDBRANCH  22  23
ENDBRANCH   1  22
TORSDOF 14
ENDMDL
MODEL 2
REMARK VINA RESULT:     -11.5      0.281      2.068
REMARK SMILES Nc1ccc(SCc2ccc(C(=O)NCCCNC(=O)c3ccc(-c4c5nc(c(-c6c(F)c(F)c(F)c(F)c6F)c6ccc([nH]6)c(-c6c(F)c(F)c(F)c(F)c6F)c6nc(c(-c7c(F)c(F)c(F)c(F)c7F)c7ccc4[nH]7)C=C6)C=C5)cc3)o2)cc1
REMARK SMILES IDX 15 1 14 2 12 3 13 4 11 6 8 7 9 8 84 9 10 10 7 11 6 12 5 13
REMARK SMILES IDX 2 14 3 15 86 16 4 17 85 18 1 19 16 22 17 23 18 24 19 25
REMARK SMILES IDX 20 27 21 28 22 29 83 30 23 31 82 32 24 33 25 34 26 35 76 36
REMARK SMILES IDX 27 37 81 38 75 39 77 40 28 41 80 42 74 43 73 44 29 46 61 47
REMARK SMILES IDX 41 48 60 49 42 50 45 51 59 52 78 53 43 54 44 55 58 57 79 58
REMARK SMILES IDX 46 59 30 60 31 61 39 62 32 63 33 64 37 65 40 66 34 67 35 68
REMARK SMILES IDX 38 69 36 70 62 71 63 72 71 73 64 74 65 75 69 76 72 77 66 78
REMARK SMILES IDX 67 79 70 80 68 81 47 82 48 83 56 84 49 85 50 86 54 87 57 88
REMARK SMILES IDX 51 89 52 90 55 91 53 92
REMARK H PARENT 14 5 1 20 1 21 18 26 77 45 45 56
REMARK Flexibility Score: inf
ROOT
ATOM      1  C   UNL A   1      31.029  31.162  25.437  1.00  0.00     0.118 C 
ENDROOT
BRANCH   1   2
ATOM      2  N   UNL A   1      29.927  31.432  24.539  1.00  0.00    -0.349 N 
ATOM      3  C   UNL A   1      29.368  30.686  23.526  1.00  0.00     0.286 C 
ATOM      4  O   UNL A   1      28.376  31.188  22.995  1.00  0.00    -0.266 OA
ATOM      5  H   UNL A   1      29.501  32.308  24.676  1.00  0.00     0.163 HD
BRANCH   3   6
ATOM      6  C   UNL A   1      29.909  29.396  23.135  1.00  0.00     0.191 A 
ATOM      7  C   UNL A   1      30.100  27.195  23.394  1.00  0.00     0.115 A 
ATOM      8  C   UNL A   1      30.911  27.536  22.335  1.00  0.00     0.047 A 
ATOM      9  O   UNL A   1      29.484  28.313  23.866  1.00  0.00    -0.455 OA
ATOM     10  C   UNL A   1      30.774  28.936  22.156  1.00  0.00     0.056 A 
BRANCH   7  11
ATOM     11  C   UNL A   1      29.830  25.887  24.060  1.00  0.00     0.150 C 
BRANCH  11  12
ATOM     12  S   UNL A   1      31.214  25.139  24.974  1.00  0.00    -0.118 SA
BRANCH  12  13
ATOM     13  C   UNL A   1      31.938  26.491  25.895  1.00  0.00     0.008 A 
ATOM     14  C   UNL A   1      33.307  28.547  27.289  1.00  0.00     0.031 A 
ATOM     15  C   UNL A   1      33.946  27.820  26.287  1.00  0.00     0.026 A 
ATOM     16  C   UNL A   1      31.964  28.279  27.546  1.00  0.00     0.026 A 
ATOM     17  C   UNL A   1      33.275  26.794  25.610  1.00  0.00     0.017 A 
ATOM     18  C   UNL A   1      31.287  27.257  26.865  1.00  0.00     0.017 A 
BRANCH  14  19
ATOM     19  N   UNL A   1      33.951  29.599  27.918  1.00  0.00    -0.399 N 
ATOM     20  H   UNL A   1      34.228  29.516  28.858  1.00  0.00     0.156 HD
ATOM     21  H   UNL A   1      34.130  30.432  27.425  1.00  0.00     0.156 HD
ENDBRANCH  14  19
ENDBRANCH  12  13
ENDBRANCH  11  12
ENDBRANCH   7  11
ENDBRANCH   3   6
ENDBRANCH   1   2
BRANCH   1  22
ATOM     22  C   UNL A   1      31.039  32.123  26.624  1.00  0.00     0.042 C 
BRANCH  22  23
ATOM     23  C   UNL A   1      32.425  32.691  26.934  1.00  0.00     0.118 C 
BRANCH  23  24
ATOM     24  N   UNL A   1      32.359  34.057  27.434  1.00  0.00    -0.352 N 
ATOM     25  C   UNL A   1      33.030  34.665  28.465  1.00  0.00     0.251 C 
ATOM     26  H   UNL A   1      31.728  34.640  26.955  1.00  0.00     0.163 HD
ATOM     27  O   UNL A   1      32.658  35.768  28.856  1.00  0.00    -0.269 OA
BRANCH  25  28
ATOM     28  C   UNL A   1      34.189  34.015  29.116  1.00  0.00     0.039 A 
ATOM     29  C   UNL A   1      35.475  34.457  28.786  1.00  0.00     0.014 A 
ATOM     30  C   UNL A   1      34.028  32.936  29.989  1.00  0.00     0.014 A 
ATOM     31  C   UNL A   1      36.593  33.853  29.366  1.00  0.00     0.010 A 
ATOM     32  C   UNL A   1      35.140  32.376  30.616  1.00  0.00     0.010 A 
ATOM     33  C   UNL A   1      36.433  32.824  30.307  1.00  0.00    -0.014 A 
BRANCH  33  34
ATOM     34  C   UNL A   1      37.605  32.206  30.975  1.00  0.00     0.031 A 
ATOM     35  C   UNL A   1      38.401  31.137  30.280  1.00  0.00     0.074 A 
ATOM     36  C   UNL A   1      37.917  32.565  32.236  1.00  0.00     0.049 A 
ATOM     37  N   UNL A   1      39.411  30.433  30.726  1.00  0.00    -0.248 NA
ATOM     38  C   UNL A   1      37.992  30.798  28.909  1.00  0.00     0.031 C 
ATOM     39  C   UNL A   1      37.198  33.560  33.031  1.00  0.00     0.029 A 
ATOM     40  N   UNL A   1      38.912  32.124  33.072  1.00  0.00    -0.354 N 
ATOM     41  C   UNL A   1      39.743  29.556  29.701  1.00  0.00     0.074 A 
ATOM     42  C   UNL A   1      38.800  29.786  28.627  1.00  0.00     0.031 C 
ATOM     43  C   UNL A   1      37.788  33.671  34.231  1.00  0.00     0.029 A 
ATOM     44  C   UNL A   1      38.903  32.731  34.303  1.00  0.00     0.049 A 
ATOM     45  H   UNL A   1      39.570  31.438  32.813  1.00  0.00     0.167 HD
ATOM     46  C   UNL A   1      40.755  28.657  29.651  1.00  0.00     0.037 A 
ATOM     47  C   UNL A   1      39.700  32.547  35.371  1.00  0.00     0.037 A 
ATOM     48  C   UNL A   1      41.707  28.447  30.711  1.00  0.00     0.049 A 
ATOM     49  C   UNL A   1      40.815  31.542  35.293  1.00  0.00     0.074 A 
ATOM     50  C   UNL A   1      42.805  27.604  30.734  1.00  0.00     0.029 A 
ATOM     51  N   UNL A   1      41.673  29.091  31.940  1.00  0.00    -0.354 N 
ATOM     52  N   UNL A   1      41.157  30.762  34.297  1.00  0.00    -0.248 NA
ATOM     53  C   UNL A   1      41.658  31.395  36.487  1.00  0.00     0.031 C 
ATOM     54  C   UNL A   1      43.411  27.707  31.991  1.00  0.00     0.029 A 
ATOM     55  C   UNL A   1      42.719  28.649  32.736  1.00  0.00     0.049 A 
ATOM     56  H   UNL A   1      41.005  29.763  32.208  1.00  0.00     0.167 HD
ATOM     57  C   UNL A   1      42.267  30.051  34.733  1.00  0.00     0.074 A 
ATOM     58  C   UNL A   1      42.548  30.502  36.080  1.00  0.00     0.031 C 
ATOM     59  C   UNL A   1      42.987  29.109  34.074  1.00  0.00     0.037 A 
BRANCH  46  60
ATOM     60  C   UNL A   1      40.880  27.826  28.406  1.00  0.00     0.064 A 
ATOM     61  C   UNL A   1      40.240  26.583  28.284  1.00  0.00     0.173 A 
ATOM     62  C   UNL A   1      41.635  28.285  27.316  1.00  0.00     0.173 A 
ATOM     63  F   UNL A   1      39.517  26.093  29.303  1.00  0.00    -0.203 F 
ATOM     64  C   UNL A   1      40.381  25.815  27.132  1.00  0.00     0.198 A 
ATOM     65  C   UNL A   1      41.747  27.527  26.153  1.00  0.00     0.198 A 
ATOM     66  F   UNL A   1      42.261  29.470  27.377  1.00  0.00    -0.203 F 
ATOM     67  F   UNL A   1      39.806  24.606  27.060  1.00  0.00    -0.200 F 
ATOM     68  C   UNL A   1      41.129  26.289  26.066  1.00  0.00     0.200 A 
ATOM     69  F   UNL A   1      42.462  27.993  25.119  1.00  0.00    -0.200 F 
ATOM     70  F   UNL A   1      41.263  25.549  24.956  1.00  0.00    -0.200 F 
ENDBRANCH  46  60
BRANCH  47  71
ATOM     71  C   UNL A   1      39.492  33.363  36.594  1.00  0.00     0.064 A 
ATOM     72  C   UNL A   1      38.681  32.893  37.637  1.00  0.00     0.173 A 
ATOM     73  C   UNL A   1      40.108  34.611  36.756  1.00  0.00     0.173 A 
ATOM     74  F   UNL A   1      38.054  31.713  37.517  1.00  0.00    -0.203 F 
ATOM     75  C   UNL A   1      38.485  33.647  38.791  1.00  0.00     0.198 A 
ATOM     76  C   UNL A   1      39.932  35.354  37.921  1.00  0.00     0.198 A 
ATOM     77  F   UNL A   1      40.898  35.101  35.789  1.00  0.00    -0.203 F 
ATOM     78  F   UNL A   1      37.679  33.190  39.759  1.00  0.00    -0.200 F 
ATOM     79  C   UNL A   1      39.117  34.874  38.936  1.00  0.00     0.200 A 
ATOM     80  F   UNL A   1      40.554  36.532  38.064  1.00  0.00    -0.200 F 
ATOM     81  F   UNL A   1      38.937  35.595  40.051  1.00  0.00    -0.200 F 
ENDBRANCH  47  71
BRANCH  59  82
ATOM     82  C   UNL A   1      44.168  28.525  34.792  1.00  0.00     0.064 A 
ATOM     83  C   UNL A   1      44.060  27.350  35.548  1.00  0.00     0.173 A 
ATOM     84  C   UNL A   1      45.429  29.134  34.696  1.00  0.00     0.173 A 
ATOM     85  F   UNL A   1      42.872  26.741  35.685  1.00  0.00    -0.203 F 
ATOM     86  C   UNL A   1      45.168  26.816  36.200  1.00  0.00     0.198 A 
ATOM     87  C   UNL A   1      46.539  28.582  35.327  1.00  0.00     0.198 A 
ATOM     88  F   UNL A   1      45.584  30.258  33.982  1.00  0.00    -0.203 F 
ATOM     89  F   UNL A   1      45.034  25.716  36.955  1.00  0.00    -0.200 F 
ATOM     90  C   UNL A   1      46.407  27.429  36.085  1.00  0.00     0.200 A 
ATOM     91  F   UNL A   1      47.738  29.169  35.206  1.00  0.00    -0.200 F 
ATOM     92  F   UNL A   1      47.474  26.910  36.710  1.00  0.00    -0.200 F 
ENDBRANCH  59  82
ENDBRANCH  33  34
ENDBRANCH  25  28
ENDBRANCH  23  24
ENDBRANCH  22  23
ENDBRANCH   1  22
TORSDOF 14
ENDMDL
MODEL 3
REMARK VINA RESULT:     -11.4      0.487      7.465
REMARK SMILES Nc1ccc(SCc2ccc(C(=O)NCCCNC(=O)c3ccc(-c4c5nc(c(-c6c(F)c(F)c(F)c(F)c6F)c6ccc([nH]6)c(-c6c(F)c(F)c(F)c(F)c6F)c6nc(c(-c7c(F)c(F)c(F)c(F)c7F)c7ccc4[nH]7)C=C6)C=C5)cc3)o2)cc1
REMARK SMILES IDX 15 1 14 2 12 3 13 4 11 6 8 7 9 8 84 9 10 10 7 11 6 12 5 13
REMARK SMILES IDX 2 14 3 15 86 16 4 17 85 18 1 19 16 22 17 23 18 24 19 25
REMARK SMILES IDX 20 27 21 28 22 29 83 30 23 31 82 32 24 33 25 34 26 35 76 36
REMARK SMILES IDX 27 37 81 38 75 39 77 40 28 41 80 42 74 43 73 44 29 46 61 47
REMARK SMILES IDX 41 48 60 49 42 50 45 51 59 52 78 53 43 54 44 55 58 57 79 58
REMARK SMILES IDX 46 59 30 60 31 61 39 62 32 63 33 64 37 65 40 66 34 67 35 68
REMARK SMILES IDX 38 69 36 70 62 71 63 72 71 73 64 74 65 75 69 76 72 77 66 78
REMARK SMILES IDX 67 79 70 80 68 81 47 82 48 83 56 84 49 85 50 86 54 87 57 88
REMARK SMILES IDX 51 89 52 90 55 91 53 92
REMARK H PARENT 14 5 1 20 1 21 18 26 77 45 45 56
REMARK Flexibility Score: inf
ROOT
ATOM      1  C   UNL A   1      31.053  31.203  25.619  1.00  0.00     0.118 C 
ENDROOT
BRANCH   1   2
ATOM      2  N   UNL A   1      30.010  31.568  24.685  1.00  0.00    -0.349 N 
ATOM      3  C   UNL A   1      29.451  30.889  23.626  1.00  0.00     0.286 C 
ATOM      4  O   UNL A   1      28.515  31.469  23.071  1.00  0.00    -0.266 OA
ATOM      5  H   UNL A   1      29.632  32.464  24.833  1.00  0.00     0.163 HD
BRANCH   3   6
ATOM      6  C   UNL A   1      29.928  29.580  23.216  1.00  0.00     0.191 A 
ATOM      7  C   UNL A   1      30.075  27.378  23.490  1.00  0.00     0.115 A 
ATOM      8  C   UNL A   1      30.822  27.684  22.374  1.00  0.00     0.047 A 
ATOM      9  O   UNL A   1      29.525  28.518  23.988  1.00  0.00    -0.455 OA
ATOM     10  C   UNL A   1      30.711  29.086  22.187  1.00  0.00     0.056 A 
BRANCH   7  11
ATOM     11  C   UNL A   1      29.816  26.085  24.190  1.00  0.00     0.150 C 
BRANCH  11  12
ATOM     12  S   UNL A   1      31.258  25.258  24.930  1.00  0.00    -0.118 SA
BRANCH  12  13
ATOM     13  C   UNL A   1      32.137  26.556  25.792  1.00  0.00     0.008 A 
ATOM     14  C   UNL A   1      33.309  28.691  27.245  1.00  0.00     0.031 A 
ATOM     15  C   UNL A   1      32.033  28.231  27.564  1.00  0.00     0.026 A 
ATOM     16  C   UNL A   1      34.015  28.037  26.237  1.00  0.00     0.026 A 
ATOM     17  C   UNL A   1      31.448  27.188  26.836  1.00  0.00     0.017 A 
ATOM     18  C   UNL A   1      33.434  26.988  25.511  1.00  0.00     0.017 A 
BRANCH  14  19
ATOM     19  N   UNL A   1      33.912  29.683  28.001  1.00  0.00    -0.399 N 
ATOM     20  H   UNL A   1      33.429  30.089  28.756  1.00  0.00     0.156 HD
ATOM     21  H   UNL A   1      34.824  29.982  27.783  1.00  0.00     0.156 HD
ENDBRANCH  14  19
ENDBRANCH  12  13
ENDBRANCH  11  12
ENDBRANCH   7  11
ENDBRANCH   3   6
ENDBRANCH   1   2
BRANCH   1  22
ATOM     22  C   UNL A   1      31.153  32.199  26.772  1.00  0.00     0.042 C 
BRANCH  22  23
ATOM     23  C   UNL A   1      32.539  32.829  26.912  1.00  0.00     0.118 C 
BRANCH  23  24
ATOM     24  N   UNL A   1      32.478  34.175  27.465  1.00  0.00    -0.352 N 
ATOM     25  C   UNL A   1      33.139  34.736  28.527  1.00  0.00     0.251 C 
ATOM     26  H   UNL A   1      31.857  34.782  27.001  1.00  0.00     0.163 HD
ATOM     27  O   UNL A   1      32.771  35.827  28.957  1.00  0.00    -0.269 OA
BRANCH  25  28
ATOM     28  C   UNL A   1      34.285  34.053  29.167  1.00  0.00     0.039 A 
ATOM     29  C   UNL A   1      34.028  32.984  30.034  1.00  0.00     0.014 A 
ATOM     30  C   UNL A   1      35.597  34.494  28.979  1.00  0.00     0.014 A 
ATOM     31  C   UNL A   1      35.085  32.330  30.670  1.00  0.00     0.010 A 
ATOM     32  C   UNL A   1      36.656  33.800  29.563  1.00  0.00     0.010 A 
ATOM     33  C   UNL A   1      36.411  32.716  30.419  1.00  0.00    -0.014 A 
BRANCH  33  34
ATOM     34  C   UNL A   1      37.550  31.998  31.043  1.00  0.00     0.031 A 
ATOM     35  C   UNL A   1      38.009  32.358  32.429  1.00  0.00     0.074 A 
ATOM     36  C   UNL A   1      38.212  31.062  30.337  1.00  0.00     0.049 A 
ATOM     37  N   UNL A   1      39.025  31.894  33.112  1.00  0.00    -0.248 NA
ATOM     38  C   UNL A   1      37.237  33.396  33.129  1.00  0.00     0.031 C 
ATOM     39  C   UNL A   1      37.889  30.652  28.971  1.00  0.00     0.029 A 
ATOM     40  N   UNL A   1      39.301  30.294  30.668  1.00  0.00    -0.354 N 
ATOM     41  C   UNL A   1      39.026  32.596  34.311  1.00  0.00     0.074 A 
ATOM     42  C   UNL A   1      37.937  33.548  34.244  1.00  0.00     0.031 C 
ATOM     43  C   UNL A   1      38.745  29.692  28.587  1.00  0.00     0.029 A 
ATOM     44  C   UNL A   1      39.699  29.445  29.665  1.00  0.00     0.049 A 
ATOM     45  H   UNL A   1      39.753  30.348  31.541  1.00  0.00     0.167 HD
ATOM     46  C   UNL A   1      39.847  32.445  35.379  1.00  0.00     0.037 A 
ATOM     47  C   UNL A   1      40.720  28.570  29.618  1.00  0.00     0.037 A 
ATOM     48  C   UNL A   1      40.913  31.481  35.453  1.00  0.00     0.049 A 
ATOM     49  C   UNL A   1      41.618  28.422  30.814  1.00  0.00     0.074 A 
ATOM     50  C   UNL A   1      41.762  31.209  36.512  1.00  0.00     0.029 A 
ATOM     51  N   UNL A   1      41.278  30.629  34.421  1.00  0.00    -0.354 N 
ATOM     52  N   UNL A   1      41.573  29.048  31.965  1.00  0.00    -0.248 NA
ATOM     53  C   UNL A   1      42.707  27.442  30.706  1.00  0.00     0.031 C 
ATOM     54  C   UNL A   1      42.665  30.220  36.108  1.00  0.00     0.029 A 
ATOM     55  C   UNL A   1      42.352  29.843  34.811  1.00  0.00     0.049 A 
ATOM     56  H   UNL A   1      40.839  30.587  33.540  1.00  0.00     0.167 HD
ATOM     57  C   UNL A   1      42.607  28.523  32.726  1.00  0.00     0.074 A 
ATOM     58  C   UNL A   1      43.256  27.517  31.910  1.00  0.00     0.031 C 
ATOM     59  C   UNL A   1      42.985  28.845  33.988  1.00  0.00     0.037 A 
BRANCH  46  60
ATOM     60  C   UNL A   1      39.622  33.352  36.555  1.00  0.00     0.064 A 
ATOM     61  C   UNL A   1      40.265  34.595  36.658  1.00  0.00     0.173 A 
ATOM     62  C   UNL A   1      38.743  32.982  37.583  1.00  0.00     0.173 A 
ATOM     63  F   UNL A   1      41.126  34.991  35.707  1.00  0.00    -0.203 F 
ATOM     64  C   UNL A   1      40.063  35.417  37.764  1.00  0.00     0.198 A 
ATOM     65  C   UNL A   1      38.520  33.820  38.672  1.00  0.00     0.198 A 
ATOM     66  F   UNL A   1      38.097  31.807  37.531  1.00  0.00    -0.203 F 
ATOM     67  F   UNL A   1      40.731  36.575  37.866  1.00  0.00    -0.200 F 
ATOM     68  C   UNL A   1      39.188  35.032  38.767  1.00  0.00     0.200 A 
ATOM     69  F   UNL A   1      37.664  33.452  39.636  1.00  0.00    -0.200 F 
ATOM     70  F   UNL A   1      38.993  35.825  39.830  1.00  0.00    -0.200 F 
ENDBRANCH  46  60
BRANCH  47  71
ATOM     71  C   UNL A   1      40.921  27.739  28.404  1.00  0.00     0.064 A 
ATOM     72  C   UNL A   1      40.247  26.518  28.256  1.00  0.00     0.173 A 
ATOM     73  C   UNL A   1      41.767  28.150  27.367  1.00  0.00     0.173 A 
ATOM     74  F   UNL A   1      39.442  26.075  29.233  1.00  0.00    -0.203 F 
ATOM     75  C   UNL A   1      40.422  25.735  27.118  1.00  0.00     0.198 A 
ATOM     76  C   UNL A   1      41.923  27.378  26.217  1.00  0.00     0.198 A 
ATOM     77  F   UNL A   1      42.430  29.312  27.460  1.00  0.00    -0.203 F 
ATOM     78  F   UNL A   1      39.791  24.557  27.014  1.00  0.00    -0.200 F 
ATOM     79  C   UNL A   1      41.254  26.169  26.096  1.00  0.00     0.200 A 
ATOM     80  F   UNL A   1      42.717  27.805  25.227  1.00  0.00    -0.200 F 
ATOM     81  F   UNL A   1      41.414  25.420  24.996  1.00  0.00    -0.200 F 
ENDBRANCH  47  71
BRANCH  59  82
ATOM     82  C   UNL A   1      44.136  28.081  34.574  1.00  0.00     0.064 A 
ATOM     83  C   UNL A   1      45.453  28.552  34.483  1.00  0.00     0.173 A 
ATOM     84  C   UNL A   1      43.912  26.879  35.263  1.00  0.00     0.173 A 
ATOM     85  F   UNL A   1      45.719  29.688  33.819  1.00  0.00    -0.203 F 
ATOM     86  C   UNL A   1      46.508  27.836  35.040  1.00  0.00     0.198 A 
ATOM     87  C   UNL A   1      44.966  26.179  35.841  1.00  0.00     0.198 A 
ATOM     88  F   UNL A   1      42.670  26.388  35.380  1.00  0.00    -0.203 F 
ATOM     89  F   UNL A   1      47.766  28.281  34.902  1.00  0.00    -0.200 F 
ATOM     90  C   UNL A   1      46.264  26.654  35.724  1.00  0.00     0.200 A 
ATOM     91  F   UNL A   1      44.728  25.043  36.511  1.00  0.00    -0.200 F 
ATOM     92  F   UNL A   1      47.282  25.968  36.265  1.00  0.00    -0.200 F 
ENDBRANCH  59  82
ENDBRANCH  33  34
ENDBRANCH  25  28
ENDBRANCH  23  24
ENDBRANCH  22  23
ENDBRANCH   1  22
TORSDOF 14
ENDMDL
