MODEL 1
REMARK VINA RESULT:     -11.6      0.000      0.000
REMARK SMILES CCC[C@H](c1ccccc1)[C@@](C)(O)C(=O)NCCCNC(=O)c1ccc(-c2c3nc(c(-c4c(F)c(F)c(F)c(F)c4F)c4ccc([nH]4)c(-c4c(F)c(F)c(F)c(F)c4F)c4nc(c(-c5c(F)c(F)c(F)c(F)c5F)c5ccc2[nH]5)C=C4)C=C3)cc1
REMARK SMILES IDX 17 1 16 2 14 3 15 4 11 6 12 7 4 8 3 9 2 10 1 11 5 12 6 13
REMARK SMILES IDX 10 14 7 15 9 16 8 17 13 18 18 20 19 21 20 22 21 23 22 25
REMARK SMILES IDX 23 26 24 27 85 28 25 29 84 30 26 31 27 32 28 33 78 34 29 35
REMARK SMILES IDX 83 36 77 37 79 38 30 39 82 40 76 41 75 42 31 44 63 45 43 46
REMARK SMILES IDX 62 47 44 48 47 49 61 50 80 51 45 52 46 53 60 55 81 56 48 57
REMARK SMILES IDX 32 58 33 59 41 60 34 61 35 62 39 63 42 64 36 65 37 66 40 67
REMARK SMILES IDX 38 68 64 69 65 70 73 71 66 72 67 73 71 74 74 75 68 76 69 77
REMARK SMILES IDX 72 78 70 79 49 80 50 81 58 82 51 83 52 84 56 85 59 86 53 87
REMARK SMILES IDX 54 88 57 89 55 90
REMARK H PARENT 16 5 13 19 20 24 79 43 47 54
REMARK Flexibility Score: inf
ROOT
ATOM      1  C   UNL A   1      31.481  30.790  26.285  1.00  0.00     0.117 C 
ENDROOT
BRANCH   1   2
ATOM      2  N   UNL A   1      32.825  30.282  26.474  1.00  0.00    -0.354 N 
ATOM      3  C   UNL A   1      33.505  29.307  25.806  1.00  0.00     0.252 C 
ATOM      4  O   UNL A   1      34.527  28.899  26.364  1.00  0.00    -0.272 OA
ATOM      5  H   UNL A   1      33.329  30.712  27.202  1.00  0.00     0.163 HD
BRANCH   3   6
ATOM      6  C   UNL A   1      32.993  28.761  24.438  1.00  0.00     0.147 C 
ATOM      7  C   UNL A   1      34.134  28.727  23.402  1.00  0.00     0.053 C 
BRANCH   6   8
ATOM      8  C   UNL A   1      32.332  27.328  24.586  1.00  0.00     0.060 C 
BRANCH   8   9
ATOM      9  C   UNL A   1      31.393  27.244  25.831  1.00  0.00     0.011 C 
BRANCH   9  10
ATOM     10  C   UNL A   1      30.359  26.111  25.760  1.00  0.00    -0.003 C 
ATOM     11  C   UNL A   1      29.434  26.194  24.558  1.00  0.00     0.004 C 
ENDBRANCH   9  10
ENDBRANCH   8   9
BRANCH   8  12
ATOM     12  C   UNL A   1      33.327  26.167  24.430  1.00  0.00    -0.042 A 
ATOM     13  C   UNL A   1      33.460  25.427  23.246  1.00  0.00     0.004 A 
ATOM     14  C   UNL A   1      34.093  25.756  25.537  1.00  0.00     0.004 A 
ATOM     15  C   UNL A   1      34.288  24.301  23.180  1.00  0.00     0.000 A 
ATOM     16  C   UNL A   1      34.894  24.612  25.484  1.00  0.00     0.000 A 
ATOM     17  C   UNL A   1      34.988  23.882  24.305  1.00  0.00     0.000 A 
ENDBRANCH   8  12
ENDBRANCH   6   8
BRANCH   6  18
ATOM     18  O   UNL A   1      32.006  29.676  23.917  1.00  0.00    -0.380 OA
ATOM     19  H   UNL A   1      31.372  29.188  23.367  1.00  0.00     0.212 HD
ENDBRANCH   6  18
ENDBRANCH   3   6
ENDBRANCH   1   2
BRANCH   1  20
ATOM     20  C   UNL A   1      31.405  32.292  26.508  1.00  0.00     0.042 C 
BRANCH  20  21
ATOM     21  C   UNL A   1      32.573  32.872  27.293  1.00  0.00     0.118 C 
BRANCH  21  22
ATOM     22  N   UNL A   1      32.383  34.271  27.650  1.00  0.00    -0.352 N 
ATOM     23  C   UNL A   1      32.998  35.039  28.605  1.00  0.00     0.251 C 
ATOM     24  H   UNL A   1      31.701  34.743  27.120  1.00  0.00     0.163 HD
ATOM     25  O   UNL A   1      32.560  36.163  28.856  1.00  0.00    -0.269 OA
BRANCH  23  26
ATOM     26  C   UNL A   1      34.159  34.524  29.359  1.00  0.00     0.039 A 
ATOM     27  C   UNL A   1      33.944  33.957  30.619  1.00  0.00     0.014 A 
ATOM     28  C   UNL A   1      35.455  34.601  28.845  1.00  0.00     0.014 A 
ATOM     29  C   UNL A   1      35.014  33.403  31.322  1.00  0.00     0.010 A 
ATOM     30  C   UNL A   1      36.503  33.962  29.500  1.00  0.00     0.010 A 
ATOM     31  C   UNL A   1      36.295  33.359  30.748  1.00  0.00    -0.014 A 
BRANCH  31  32
ATOM     32  C   UNL A   1      37.414  32.666  31.434  1.00  0.00     0.031 A 
ATOM     33  C   UNL A   1      38.104  31.496  30.794  1.00  0.00     0.074 A 
ATOM     34  C   UNL A   1      37.763  33.055  32.676  1.00  0.00     0.049 A 
ATOM     35  N   UNL A   1      39.091  30.767  31.251  1.00  0.00    -0.248 NA
ATOM     36  C   UNL A   1      37.596  31.063  29.484  1.00  0.00     0.031 C 
ATOM     37  C   UNL A   1      37.109  34.118  33.441  1.00  0.00     0.029 A 
ATOM     38  N   UNL A   1      38.746  32.597  33.517  1.00  0.00    -0.354 N 
ATOM     39  C   UNL A   1      39.309  29.783  30.295  1.00  0.00     0.074 A 
ATOM     40  C   UNL A   1      38.314  29.972  29.263  1.00  0.00     0.031 C 
ATOM     41  C   UNL A   1      37.724  34.248  34.627  1.00  0.00     0.029 A 
ATOM     42  C   UNL A   1      38.794  33.260  34.717  1.00  0.00     0.049 A 
ATOM     43  H   UNL A   1      39.358  31.862  33.281  1.00  0.00     0.167 HD
ATOM     44  C   UNL A   1      40.266  28.825  30.270  1.00  0.00     0.037 A 
ATOM     45  C   UNL A   1      39.611  33.093  35.774  1.00  0.00     0.037 A 
ATOM     46  C   UNL A   1      41.270  28.657  31.289  1.00  0.00     0.049 A 
ATOM     47  C   UNL A   1      40.696  32.056  35.705  1.00  0.00     0.074 A 
ATOM     48  C   UNL A   1      42.345  27.787  31.310  1.00  0.00     0.029 A 
ATOM     49  N   UNL A   1      41.313  29.373  32.478  1.00  0.00    -0.354 N 
ATOM     50  N   UNL A   1      40.964  31.202  34.746  1.00  0.00    -0.248 NA
ATOM     51  C   UNL A   1      41.601  31.969  36.858  1.00  0.00     0.031 C 
ATOM     52  C   UNL A   1      43.006  27.935  32.535  1.00  0.00     0.029 A 
ATOM     53  C   UNL A   1      42.377  28.938  33.255  1.00  0.00     0.049 A 
ATOM     54  H   UNL A   1      40.682  30.084  32.732  1.00  0.00     0.167 HD
ATOM     55  C   UNL A   1      42.071  30.483  35.173  1.00  0.00     0.074 A 
ATOM     56  C   UNL A   1      42.443  31.024  36.466  1.00  0.00     0.031 C 
ATOM     57  C   UNL A   1      42.719  29.466  34.553  1.00  0.00     0.037 A 
BRANCH  44  58
ATOM     58  C   UNL A   1      40.266  27.880  29.101  1.00  0.00     0.064 A 
ATOM     59  C   UNL A   1      39.530  26.685  29.115  1.00  0.00     0.173 A 
ATOM     60  C   UNL A   1      41.005  28.177  27.947  1.00  0.00     0.173 A 
ATOM     61  F   UNL A   1      38.812  26.345  30.197  1.00  0.00    -0.203 F 
ATOM     62  C   UNL A   1      39.570  25.803  28.037  1.00  0.00     0.198 A 
ATOM     63  C   UNL A   1      41.016  27.310  26.857  1.00  0.00     0.198 A 
ATOM     64  F   UNL A   1      41.722  29.309  27.875  1.00  0.00    -0.203 F 
ATOM     65  F   UNL A   1      38.912  24.637  28.102  1.00  0.00    -0.200 F 
ATOM     66  C   UNL A   1      40.310  26.118  26.907  1.00  0.00     0.200 A 
ATOM     67  F   UNL A   1      41.721  27.623  25.761  1.00  0.00    -0.200 F 
ATOM     68  F   UNL A   1      40.348  25.269  25.872  1.00  0.00    -0.200 F 
ENDBRANCH  44  58
BRANCH  45  69
ATOM     69  C   UNL A   1      39.443  33.958  36.969  1.00  0.00     0.064 A 
ATOM     70  C   UNL A   1      38.718  33.517  38.084  1.00  0.00     0.173 A 
ATOM     71  C   UNL A   1      40.039  35.226  37.035  1.00  0.00     0.173 A 
ATOM     72  F   UNL A   1      38.117  32.318  38.061  1.00  0.00    -0.203 F 
ATOM     73  C   UNL A   1      38.590  34.315  39.219  1.00  0.00     0.198 A 
ATOM     74  C   UNL A   1      39.931  36.011  38.181  1.00  0.00     0.198 A 
ATOM     75  F   UNL A   1      40.749  35.689  35.997  1.00  0.00    -0.203 F 
ATOM     76  F   UNL A   1      37.868  33.881  40.261  1.00  0.00    -0.200 F 
ATOM     77  C   UNL A   1      39.203  35.557  39.270  1.00  0.00     0.200 A 
ATOM     78  F   UNL A   1      40.541  37.203  38.232  1.00  0.00    -0.200 F 
ATOM     79  F   UNL A   1      39.093  36.317  40.368  1.00  0.00    -0.200 F 
ENDBRANCH  45  69
BRANCH  57  80
ATOM     80  C   UNL A   1      43.896  28.871  35.272  1.00  0.00     0.064 A 
ATOM     81  C   UNL A   1      45.204  29.327  35.042  1.00  0.00     0.173 A 
ATOM     82  C   UNL A   1      43.716  27.843  36.209  1.00  0.00     0.173 A 
ATOM     83  F   UNL A   1      45.431  30.299  34.143  1.00  0.00    -0.203 F 
ATOM     84  C   UNL A   1      46.289  28.752  35.697  1.00  0.00     0.198 A 
ATOM     85  C   UNL A   1      44.801  27.293  36.887  1.00  0.00     0.198 A 
ATOM     86  F   UNL A   1      42.487  27.375  36.472  1.00  0.00    -0.203 F 
ATOM     87  F   UNL A   1      47.533  29.164  35.417  1.00  0.00    -0.200 F 
ATOM     88  C   UNL A   1      46.086  27.740  36.623  1.00  0.00     0.200 A 
ATOM     89  F   UNL A   1      44.602  26.323  37.791  1.00  0.00    -0.200 F 
ATOM     90  F   UNL A   1      47.132  27.186  37.252  1.00  0.00    -0.200 F 
ENDBRANCH  57  80
ENDBRANCH  31  32
ENDBRANCH  23  26
ENDBRANCH  21  22
ENDBRANCH  20  21
ENDBRANCH   1  20
TORSDOF 15
ENDMDL
MODEL 2
REMARK VINA RESULT:     -11.6      2.181      8.192
REMARK SMILES CCC[C@H](c1ccccc1)[C@@](C)(O)C(=O)NCCCNC(=O)c1ccc(-c2c3nc(c(-c4c(F)c(F)c(F)c(F)c4F)c4ccc([nH]4)c(-c4c(F)c(F)c(F)c(F)c4F)c4nc(c(-c5c(F)c(F)c(F)c(F)c5F)c5ccc2[nH]5)C=C4)C=C3)cc1
REMARK SMILES IDX 17 1 16 2 14 3 15 4 11 6 12 7 4 8 3 9 2 10 1 11 5 12 6 13
REMARK SMILES IDX 10 14 7 15 9 16 8 17 13 18 18 20 19 21 20 22 21 23 22 25
REMARK SMILES IDX 23 26 24 27 85 28 25 29 84 30 26 31 27 32 28 33 78 34 29 35
REMARK SMILES IDX 83 36 77 37 79 38 30 39 82 40 76 41 75 42 31 44 63 45 43 46
REMARK SMILES IDX 62 47 44 48 47 49 61 50 80 51 45 52 46 53 60 55 81 56 48 57
REMARK SMILES IDX 32 58 33 59 41 60 34 61 35 62 39 63 42 64 36 65 37 66 40 67
REMARK SMILES IDX 38 68 64 69 65 70 73 71 66 72 67 73 71 74 74 75 68 76 69 77
REMARK SMILES IDX 72 78 70 79 49 80 50 81 58 82 51 83 52 84 56 85 59 86 53 87
REMARK SMILES IDX 54 88 57 89 55 90
REMARK H PARENT 16 5 13 19 20 24 79 43 47 54
REMARK Flexibility Score: inf
ROOT
ATOM      1  C   UNL A   1      31.445  27.460  25.889  1.00  0.00     0.117 C 
ENDROOT
BRANCH   1   2
ATOM      2  N   UNL A   1      31.623  26.248  26.662  1.00  0.00    -0.354 N 
ATOM      3  C   UNL A   1      31.587  24.940  26.278  1.00  0.00     0.252 C 
ATOM      4  O   UNL A   1      31.495  24.122  27.197  1.00  0.00    -0.272 OA
ATOM      5  H   UNL A   1      31.800  26.392  27.620  1.00  0.00     0.163 HD
BRANCH   3   6
ATOM      6  C   UNL A   1      31.650  24.541  24.772  1.00  0.00     0.147 C 
ATOM      7  C   UNL A   1      30.351  24.939  24.046  1.00  0.00     0.053 C 
BRANCH   6   8
ATOM      8  C   UNL A   1      32.909  25.175  24.048  1.00  0.00     0.060 C 
BRANCH   8   9
ATOM      9  C   UNL A   1      32.608  25.529  22.557  1.00  0.00     0.011 C 
BRANCH   9  10
ATOM     10  C   UNL A   1      33.408  26.727  22.024  1.00  0.00    -0.003 C 
ATOM     11  C   UNL A   1      33.713  27.781  23.075  1.00  0.00     0.004 C 
ENDBRANCH   9  10
ENDBRANCH   8   9
BRANCH   8  12
ATOM     12  C   UNL A   1      34.217  24.407  24.293  1.00  0.00    -0.042 A 
ATOM     13  C   UNL A   1      34.959  24.516  25.479  1.00  0.00     0.004 A 
ATOM     14  C   UNL A   1      34.760  23.614  23.265  1.00  0.00     0.004 A 
ATOM     15  C   UNL A   1      36.206  23.898  25.618  1.00  0.00     0.000 A 
ATOM     16  C   UNL A   1      36.021  23.023  23.388  1.00  0.00     0.000 A 
ATOM     17  C   UNL A   1      36.746  23.168  24.566  1.00  0.00     0.000 A 
ENDBRANCH   8  12
ENDBRANCH   6   8
BRANCH   6  18
ATOM     18  O   UNL A   1      31.737  23.103  24.680  1.00  0.00    -0.380 OA
ATOM     19  H   UNL A   1      32.094  22.747  25.509  1.00  0.00     0.212 HD
ENDBRANCH   6  18
ENDBRANCH   3   6
ENDBRANCH   1   2
BRANCH   1  20
ATOM     20  C   UNL A   1      31.768  28.704  26.702  1.00  0.00     0.042 C 
BRANCH  20  21
ATOM     21  C   UNL A   1      32.817  29.611  26.077  1.00  0.00     0.118 C 
BRANCH  21  22
ATOM     22  N   UNL A   1      32.668  31.008  26.461  1.00  0.00    -0.352 N 
ATOM     23  C   UNL A   1      33.410  31.781  27.316  1.00  0.00     0.251 C 
ATOM     24  H   UNL A   1      31.911  31.474  26.038  1.00  0.00     0.163 HD
ATOM     25  O   UNL A   1      33.002  32.901  27.631  1.00  0.00    -0.269 OA
BRANCH  23  26
ATOM     26  C   UNL A   1      34.675  31.278  27.890  1.00  0.00     0.039 A 
ATOM     27  C   UNL A   1      35.751  32.160  28.019  1.00  0.00     0.014 A 
ATOM     28  C   UNL A   1      34.814  29.948  28.292  1.00  0.00     0.014 A 
ATOM     29  C   UNL A   1      36.934  31.727  28.620  1.00  0.00     0.010 A 
ATOM     30  C   UNL A   1      35.955  29.544  28.979  1.00  0.00     0.010 A 
ATOM     31  C   UNL A   1      37.029  30.429  29.147  1.00  0.00    -0.014 A 
BRANCH  31  32
ATOM     32  C   UNL A   1      38.237  29.997  29.894  1.00  0.00     0.031 A 
ATOM     33  C   UNL A   1      38.497  30.489  31.289  1.00  0.00     0.074 A 
ATOM     34  C   UNL A   1      39.140  29.208  29.280  1.00  0.00     0.049 A 
ATOM     35  N   UNL A   1      39.502  30.223  32.085  1.00  0.00    -0.248 NA
ATOM     36  C   UNL A   1      37.519  31.431  31.852  1.00  0.00     0.031 C 
ATOM     37  C   UNL A   1      39.047  28.739  27.896  1.00  0.00     0.029 A 
ATOM     38  N   UNL A   1      40.318  28.670  29.735  1.00  0.00    -0.354 N 
ATOM     39  C   UNL A   1      39.286  30.977  33.231  1.00  0.00     0.074 A 
ATOM     40  C   UNL A   1      38.088  31.754  33.004  1.00  0.00     0.031 C 
ATOM     41  C   UNL A   1      40.108  27.963  27.623  1.00  0.00     0.029 A 
ATOM     42  C   UNL A   1      40.968  27.904  28.800  1.00  0.00     0.049 A 
ATOM     43  H   UNL A   1      40.663  28.820  30.644  1.00  0.00     0.167 HD
ATOM     44  C   UNL A   1      40.009  31.001  34.377  1.00  0.00     0.037 A 
ATOM     45  C   UNL A   1      42.129  27.228  28.881  1.00  0.00     0.037 A 
ATOM     46  C   UNL A   1      41.187  30.205  34.607  1.00  0.00     0.049 A 
ATOM     47  C   UNL A   1      42.889  27.229  30.178  1.00  0.00     0.074 A 
ATOM     48  C   UNL A   1      41.932  30.077  35.766  1.00  0.00     0.029 A 
ATOM     49  N   UNL A   1      41.800  29.409  33.649  1.00  0.00    -0.354 N 
ATOM     50  N   UNL A   1      42.616  27.859  31.295  1.00  0.00    -0.248 NA
ATOM     51  C   UNL A   1      44.109  26.414  30.228  1.00  0.00     0.031 C 
ATOM     52  C   UNL A   1      43.028  29.249  35.494  1.00  0.00     0.029 A 
ATOM     53  C   UNL A   1      42.935  28.814  34.181  1.00  0.00     0.049 A 
ATOM     54  H   UNL A   1      41.477  29.284  32.728  1.00  0.00     0.167 HD
ATOM     55  C   UNL A   1      43.623  27.511  32.184  1.00  0.00     0.074 A 
ATOM     56  C   UNL A   1      44.496  26.590  31.483  1.00  0.00     0.031 C 
ATOM     57  C   UNL A   1      43.810  27.920  33.464  1.00  0.00     0.037 A 
BRANCH  44  58
ATOM     58  C   UNL A   1      39.542  31.924  35.468  1.00  0.00     0.064 A 
ATOM     59  C   UNL A   1      40.016  33.240  35.577  1.00  0.00     0.173 A 
ATOM     60  C   UNL A   1      38.601  31.489  36.413  1.00  0.00     0.173 A 
ATOM     61  F   UNL A   1      40.925  33.707  34.707  1.00  0.00    -0.203 F 
ATOM     62  C   UNL A   1      39.601  34.070  36.616  1.00  0.00     0.198 A 
ATOM     63  C   UNL A   1      38.161  32.332  37.430  1.00  0.00     0.198 A 
ATOM     64  F   UNL A   1      38.107  30.242  36.353  1.00  0.00    -0.203 F 
ATOM     65  F   UNL A   1      40.119  35.301  36.738  1.00  0.00    -0.200 F 
ATOM     66  C   UNL A   1      38.670  33.617  37.539  1.00  0.00     0.200 A 
ATOM     67  F   UNL A   1      37.251  31.897  38.313  1.00  0.00    -0.200 F 
ATOM     68  F   UNL A   1      38.272  34.416  38.538  1.00  0.00    -0.200 F 
ENDBRANCH  44  58
BRANCH  45  69
ATOM     69  C   UNL A   1      42.614  26.469  27.700  1.00  0.00     0.064 A 
ATOM     70  C   UNL A   1      43.542  27.030  26.813  1.00  0.00     0.173 A 
ATOM     71  C   UNL A   1      42.191  25.153  27.461  1.00  0.00     0.173 A 
ATOM     72  F   UNL A   1      43.963  28.290  26.992  1.00  0.00    -0.203 F 
ATOM     73  C   UNL A   1      44.024  26.305  25.725  1.00  0.00     0.198 A 
ATOM     74  C   UNL A   1      42.695  24.421  26.388  1.00  0.00     0.198 A 
ATOM     75  F   UNL A   1      41.311  24.570  28.287  1.00  0.00    -0.203 F 
ATOM     76  F   UNL A   1      44.889  26.875  24.875  1.00  0.00    -0.200 F 
ATOM     77  C   UNL A   1      43.606  24.999  25.518  1.00  0.00     0.200 A 
ATOM     78  F   UNL A   1      42.302  23.154  26.202  1.00  0.00    -0.200 F 
ATOM     79  F   UNL A   1      44.083  24.297  24.480  1.00  0.00    -0.200 F 
ENDBRANCH  45  69
BRANCH  57  80
ATOM     80  C   UNL A   1      45.009  27.374  34.184  1.00  0.00     0.064 A 
ATOM     81  C   UNL A   1      44.948  26.167  34.900  1.00  0.00     0.173 A 
ATOM     82  C   UNL A   1      46.235  28.054  34.150  1.00  0.00     0.173 A 
ATOM     83  F   UNL A   1      43.794  25.486  34.976  1.00  0.00    -0.203 F 
ATOM     84  C   UNL A   1      46.060  25.682  35.583  1.00  0.00     0.198 A 
ATOM     85  C   UNL A   1      47.354  27.549  34.807  1.00  0.00     0.198 A 
ATOM     86  F   UNL A   1      46.351  29.207  33.475  1.00  0.00    -0.203 F 
ATOM     87  F   UNL A   1      45.961  24.560  36.309  1.00  0.00    -0.200 F 
ATOM     88  C   UNL A   1      47.263  26.370  35.532  1.00  0.00     0.200 A 
ATOM     89  F   UNL A   1      48.520  28.208  34.745  1.00  0.00    -0.200 F 
ATOM     90  F   UNL A   1      48.332  25.902  36.190  1.00  0.00    -0.200 F 
ENDBRANCH  57  80
ENDBRANCH  31  32
ENDBRANCH  23  26
ENDBRANCH  21  22
ENDBRANCH  20  21
ENDBRANCH   1  20
TORSDOF 15
ENDMDL
MODEL 3
REMARK VINA RESULT:     -11.5      0.062      1.631
REMARK SMILES CCC[C@H](c1ccccc1)[C@@](C)(O)C(=O)NCCCNC(=O)c1ccc(-c2c3nc(c(-c4c(F)c(F)c(F)c(F)c4F)c4ccc([nH]4)c(-c4c(F)c(F)c(F)c(F)c4F)c4nc(c(-c5c(F)c(F)c(F)c(F)c5F)c5ccc2[nH]5)C=C4)C=C3)cc1
REMARK SMILES IDX 17 1 16 2 14 3 15 4 11 6 12 7 4 8 3 9 2 10 1 11 5 12 6 13
REMARK SMILES IDX 10 14 7 15 9 16 8 17 13 18 18 20 19 21 20 22 21 23 22 25
REMARK SMILES IDX 23 26 24 27 85 28 25 29 84 30 26 31 27 32 28 33 78 34 29 35
REMARK SMILES IDX 83 36 77 37 79 38 30 39 82 40 76 41 75 42 31 44 63 45 43 46
REMARK SMILES IDX 62 47 44 48 47 49 61 50 80 51 45 52 46 53 60 55 81 56 48 57
REMARK SMILES IDX 32 58 33 59 41 60 34 61 35 62 39 63 42 64 36 65 37 66 40 67
REMARK SMILES IDX 38 68 64 69 65 70 73 71 66 72 67 73 71 74 74 75 68 76 69 77
REMARK SMILES IDX 72 78 70 79 49 80 50 81 58 82 51 83 52 84 56 85 59 86 53 87
REMARK SMILES IDX 54 88 57 89 55 90
REMARK H PARENT 16 5 13 19 20 24 79 43 47 54
REMARK Flexibility Score: inf
ROOT
ATOM      1  C   UNL A   1      31.436  30.771  26.295  1.00  0.00     0.117 C 
ENDROOT
BRANCH   1   2
ATOM      2  N   UNL A   1      32.777  30.253  26.474  1.00  0.00    -0.354 N 
ATOM      3  C   UNL A   1      33.449  29.282  25.791  1.00  0.00     0.252 C 
ATOM      4  O   UNL A   1      34.469  28.860  26.340  1.00  0.00    -0.272 OA
ATOM      5  H   UNL A   1      33.285  30.669  27.207  1.00  0.00     0.163 HD
BRANCH   3   6
ATOM      6  C   UNL A   1      32.931  28.759  24.416  1.00  0.00     0.147 C 
ATOM      7  C   UNL A   1      34.063  28.758  23.370  1.00  0.00     0.053 C 
BRANCH   6   8
ATOM      8  C   UNL A   1      32.287  27.316  24.540  1.00  0.00     0.060 C 
BRANCH   8   9
ATOM      9  C   UNL A   1      31.312  27.215  25.757  1.00  0.00     0.011 C 
BRANCH   9  10
ATOM     10  C   UNL A   1      30.291  26.073  25.647  1.00  0.00    -0.003 C 
ATOM     11  C   UNL A   1      29.277  26.258  24.530  1.00  0.00     0.004 C 
ENDBRANCH   9  10
ENDBRANCH   8   9
BRANCH   8  12
ATOM     12  C   UNL A   1      33.303  26.171  24.411  1.00  0.00    -0.042 A 
ATOM     13  C   UNL A   1      33.484  25.437  23.229  1.00  0.00     0.004 A 
ATOM     14  C   UNL A   1      34.038  25.765  25.540  1.00  0.00     0.004 A 
ATOM     15  C   UNL A   1      34.328  24.323  23.185  1.00  0.00     0.000 A 
ATOM     16  C   UNL A   1      34.857  24.632  25.507  1.00  0.00     0.000 A 
ATOM     17  C   UNL A   1      34.999  23.909  24.329  1.00  0.00     0.000 A 
ENDBRANCH   8  12
ENDBRANCH   6   8
BRANCH   6  18
ATOM     18  O   UNL A   1      31.930  29.673  23.922  1.00  0.00    -0.380 OA
ATOM     19  H   UNL A   1      31.296  29.190  23.368  1.00  0.00     0.212 HD
ENDBRANCH   6  18
ENDBRANCH   3   6
ENDBRANCH   1   2
BRANCH   1  20
ATOM     20  C   UNL A   1      31.377  32.276  26.502  1.00  0.00     0.042 C 
BRANCH  20  21
ATOM     21  C   UNL A   1      32.526  32.845  27.321  1.00  0.00     0.118 C 
BRANCH  21  22
ATOM     22  N   UNL A   1      32.343  34.248  27.666  1.00  0.00    -0.352 N 
ATOM     23  C   UNL A   1      32.970  35.023  28.608  1.00  0.00     0.251 C 
ATOM     24  H   UNL A   1      31.658  34.717  27.138  1.00  0.00     0.163 HD
ATOM     25  O   UNL A   1      32.537  36.151  28.852  1.00  0.00    -0.269 OA
BRANCH  23  26
ATOM     26  C   UNL A   1      34.136  34.512  29.357  1.00  0.00     0.039 A 
ATOM     27  C   UNL A   1      33.932  33.965  30.626  1.00  0.00     0.014 A 
ATOM     28  C   UNL A   1      35.427  34.574  28.827  1.00  0.00     0.014 A 
ATOM     29  C   UNL A   1      35.007  33.415  31.326  1.00  0.00     0.010 A 
ATOM     30  C   UNL A   1      36.478  33.938  29.479  1.00  0.00     0.010 A 
ATOM     31  C   UNL A   1      36.280  33.355  30.738  1.00  0.00    -0.014 A 
BRANCH  31  32
ATOM     32  C   UNL A   1      37.403  32.665  31.422  1.00  0.00     0.031 A 
ATOM     33  C   UNL A   1      38.098  31.500  30.778  1.00  0.00     0.074 A 
ATOM     34  C   UNL A   1      37.750  33.052  32.664  1.00  0.00     0.049 A 
ATOM     35  N   UNL A   1      39.090  30.774  31.232  1.00  0.00    -0.248 NA
ATOM     36  C   UNL A   1      37.592  31.069  29.466  1.00  0.00     0.031 C 
ATOM     37  C   UNL A   1      37.091  34.110  33.433  1.00  0.00     0.029 A 
ATOM     38  N   UNL A   1      38.736  32.596  33.504  1.00  0.00    -0.354 N 
ATOM     39  C   UNL A   1      39.312  29.795  30.274  1.00  0.00     0.074 A 
ATOM     40  C   UNL A   1      38.315  29.982  29.242  1.00  0.00     0.031 C 
ATOM     41  C   UNL A   1      37.707  34.238  34.619  1.00  0.00     0.029 A 
ATOM     42  C   UNL A   1      38.782  33.256  34.706  1.00  0.00     0.049 A 
ATOM     43  H   UNL A   1      39.351  31.865  33.265  1.00  0.00     0.167 HD
ATOM     44  C   UNL A   1      40.273  28.841  30.245  1.00  0.00     0.037 A 
ATOM     45  C   UNL A   1      39.599  33.089  35.762  1.00  0.00     0.037 A 
ATOM     46  C   UNL A   1      41.278  28.675  31.264  1.00  0.00     0.049 A 
ATOM     47  C   UNL A   1      40.690  32.058  35.689  1.00  0.00     0.074 A 
ATOM     48  C   UNL A   1      42.358  27.810  31.281  1.00  0.00     0.029 A 
ATOM     49  N   UNL A   1      41.319  29.387  32.455  1.00  0.00    -0.354 N 
ATOM     50  N   UNL A   1      40.961  31.208  34.728  1.00  0.00    -0.248 NA
ATOM     51  C   UNL A   1      41.595  31.972  36.842  1.00  0.00     0.031 C 
ATOM     52  C   UNL A   1      43.018  27.957  32.507  1.00  0.00     0.029 A 
ATOM     53  C   UNL A   1      42.384  28.955  33.230  1.00  0.00     0.049 A 
ATOM     54  H   UNL A   1      40.684  30.095  32.711  1.00  0.00     0.167 HD
ATOM     55  C   UNL A   1      42.072  30.494  35.153  1.00  0.00     0.074 A 
ATOM     56  C   UNL A   1      42.442  31.031  36.447  1.00  0.00     0.031 C 
ATOM     57  C   UNL A   1      42.725  29.481  34.529  1.00  0.00     0.037 A 
BRANCH  44  58
ATOM     58  C   UNL A   1      40.277  27.900  29.073  1.00  0.00     0.064 A 
ATOM     59  C   UNL A   1      40.987  28.183  27.897  1.00  0.00     0.173 A 
ATOM     60  C   UNL A   1      39.567  26.691  29.131  1.00  0.00     0.173 A 
ATOM     61  F   UNL A   1      41.676  29.330  27.783  1.00  0.00    -0.203 F 
ATOM     62  C   UNL A   1      40.949  27.317  26.807  1.00  0.00     0.198 A 
ATOM     63  C   UNL A   1      39.559  25.810  28.052  1.00  0.00     0.198 A 
ATOM     64  F   UNL A   1      38.875  26.363  30.233  1.00  0.00    -0.203 F 
ATOM     65  F   UNL A   1      41.582  27.643  25.671  1.00  0.00    -0.200 F 
ATOM     66  C   UNL A   1      40.239  26.129  26.887  1.00  0.00     0.200 A 
ATOM     67  F   UNL A   1      38.883  24.656  28.137  1.00  0.00    -0.200 F 
ATOM     68  F   UNL A   1      40.203  25.296  25.838  1.00  0.00    -0.200 F 
ENDBRANCH  44  58
BRANCH  45  69
ATOM     69  C   UNL A   1      39.427  33.950  36.960  1.00  0.00     0.064 A 
ATOM     70  C   UNL A   1      38.722  33.494  38.081  1.00  0.00     0.173 A 
ATOM     71  C   UNL A   1      40.001  35.228  37.022  1.00  0.00     0.173 A 
ATOM     72  F   UNL A   1      38.141  32.285  38.062  1.00  0.00    -0.203 F 
ATOM     73  C   UNL A   1      38.590  34.289  39.219  1.00  0.00     0.198 A 
ATOM     74  C   UNL A   1      39.891  36.010  38.170  1.00  0.00     0.198 A 
ATOM     75  F   UNL A   1      40.694  35.705  35.977  1.00  0.00    -0.203 F 
ATOM     76  F   UNL A   1      37.886  33.841  40.267  1.00  0.00    -0.200 F 
ATOM     77  C   UNL A   1      39.181  35.542  39.265  1.00  0.00     0.200 A 
ATOM     78  F   UNL A   1      40.480  37.212  38.217  1.00  0.00    -0.200 F 
ATOM     79  F   UNL A   1      39.068  36.298  40.365  1.00  0.00    -0.200 F 
ENDBRANCH  45  69
BRANCH  57  80
ATOM     80  C   UNL A   1      43.904  28.889  35.246  1.00  0.00     0.064 A 
ATOM     81  C   UNL A   1      43.755  27.829  36.154  1.00  0.00     0.173 A 
ATOM     82  C   UNL A   1      45.199  29.377  35.015  1.00  0.00     0.173 A 
ATOM     83  F   UNL A   1      42.535  27.337  36.422  1.00  0.00    -0.203 F 
ATOM     84  C   UNL A   1      44.852  27.304  36.830  1.00  0.00     0.198 A 
ATOM     85  C   UNL A   1      46.299  28.827  35.669  1.00  0.00     0.198 A 
ATOM     86  F   UNL A   1      45.400  30.383  34.152  1.00  0.00    -0.203 F 
ATOM     87  F   UNL A   1      44.677  26.333  37.737  1.00  0.00    -0.200 F 
ATOM     88  C   UNL A   1      46.124  27.800  36.583  1.00  0.00     0.200 A 
ATOM     89  F   UNL A   1      47.529  29.298  35.419  1.00  0.00    -0.200 F 
ATOM     90  F   UNL A   1      47.180  27.294  37.235  1.00  0.00    -0.200 F 
ENDBRANCH  57  80
ENDBRANCH  31  32
ENDBRANCH  23  26
ENDBRANCH  21  22
ENDBRANCH  20  21
ENDBRANCH   1  20
TORSDOF 15
ENDMDL
