MODEL 1
REMARK VINA RESULT:     -12.5      0.000      0.000
REMARK SMILES CC[C@H]1CCC[C@H](O[C@@H]2CC[C@]([NH2+]C(C)C)(C(=O)NCCCNC(=O)c3ccc(-c4c5nc(c(-c6c(F)c(F)c(F)c(F)c6F)c6ccc([nH]6)c(-c6c(F)c(F)c(F)c(F)c6F)c6nc(c(-c7c(F)c(F)c(F)c(F)c7F)c7ccc4[nH]7)C=C6)C=C5)cc3)C2)C1
REMARK SMILES IDX 20 1 19 2 17 3 18 4 12 6 9 7 10 8 89 9 11 10 8 11 7 12 3 13
REMARK SMILES IDX 4 14 90 15 5 16 6 17 2 18 1 19 13 20 14 23 15 24 16 25 21 26
REMARK SMILES IDX 22 27 23 28 24 29 25 31 26 32 27 33 88 34 28 35 87 36 29 37
REMARK SMILES IDX 30 38 31 39 81 40 32 41 86 42 80 43 82 44 33 45 85 46 79 47
REMARK SMILES IDX 78 48 34 50 66 51 46 52 65 53 47 54 50 55 64 56 83 57 48 58
REMARK SMILES IDX 49 59 63 61 84 62 51 63 35 64 36 65 44 66 37 67 38 68 42 69
REMARK SMILES IDX 45 70 39 71 40 72 43 73 41 74 67 75 68 76 76 77 69 78 70 79
REMARK SMILES IDX 74 80 77 81 71 82 72 83 75 84 73 85 52 86 53 87 61 88 54 89
REMARK SMILES IDX 55 90 59 91 62 92 56 93 57 94 60 95 58 96
REMARK H PARENT 19 5 13 21 13 22 23 30 82 49 50 60
REMARK Flexibility Score: inf
ROOT
ATOM      1  C   UNL A   1      32.151  27.832  22.846  1.00  0.00     0.118 C 
ENDROOT
BRANCH   1   2
ATOM      2  N   UNL A   1      32.518  27.064  21.669  1.00  0.00    -0.351 N 
ATOM      3  C   UNL A   1      32.799  25.755  21.419  1.00  0.00     0.281 C 
ATOM      4  O   UNL A   1      33.017  25.503  20.224  1.00  0.00    -0.268 OA
ATOM      5  H   UNL A   1      32.575  27.622  20.859  1.00  0.00     0.163 HD
BRANCH   3   6
ATOM      6  C   UNL A   1      32.850  24.605  22.486  1.00  0.00     0.178 C 
ATOM      7  C   UNL A   1      32.362  22.294  23.036  1.00  0.00     0.125 C 
ATOM      8  C   UNL A   1      31.156  23.078  23.541  1.00  0.00     0.039 C 
ATOM      9  C   UNL A   1      32.965  23.184  21.957  1.00  0.00     0.111 C 
ATOM     10  C   UNL A   1      31.413  24.532  23.112  1.00  0.00     0.082 C 
BRANCH   7  11
ATOM     11  O   UNL A   1      32.153  20.918  22.758  1.00  0.00    -0.375 OA
BRANCH  11  12
ATOM     12  C   UNL A   1      32.730  19.858  23.522  1.00  0.00     0.118 C 
ATOM     13  C   UNL A   1      32.846  17.250  23.774  1.00  0.00    -0.009 C 
ATOM     14  C   UNL A   1      32.516  17.489  25.257  1.00  0.00     0.004 C 
ATOM     15  C   UNL A   1      32.528  18.468  22.888  1.00  0.00     0.035 C 
ATOM     16  C   UNL A   1      33.048  18.813  25.783  1.00  0.00     0.003 C 
ATOM     17  C   UNL A   1      32.416  19.959  25.010  1.00  0.00     0.032 C 
BRANCH  13  18
ATOM     18  C   UNL A   1      34.281  16.728  23.594  1.00  0.00     0.000 C 
ATOM     19  C   UNL A   1      34.747  15.860  24.759  1.00  0.00     0.004 C 
ENDBRANCH  13  18
ENDBRANCH  11  12
ENDBRANCH   7  11
BRANCH   6  20
ATOM     20  N   UNL A   1      33.795  24.974  23.564  1.00  0.00    -0.332 N 
ATOM     21  H   UNL A   1      34.018  25.961  23.433  1.00  0.00     0.347 HD
ATOM     22  H   UNL A   1      34.550  24.297  23.449  1.00  0.00     0.347 HD
BRANCH  20  23
ATOM     23  C   UNL A   1      33.420  24.811  24.966  1.00  0.00     0.176 C 
ATOM     24  C   UNL A   1      34.313  23.707  25.548  1.00  0.00     0.075 C 
ATOM     25  C   UNL A   1      33.655  26.083  25.794  1.00  0.00     0.075 C 
ENDBRANCH  20  23
ENDBRANCH   6  20
ENDBRANCH   3   6
ENDBRANCH   1   2
BRANCH   1  26
ATOM     26  C   UNL A   1      33.152  28.951  23.171  1.00  0.00     0.042 C 
BRANCH  26  27
ATOM     27  C   UNL A   1      33.597  29.069  24.637  1.00  0.00     0.118 C 
BRANCH  27  28
ATOM     28  N   UNL A   1      32.913  30.128  25.364  1.00  0.00    -0.352 N 
ATOM     29  C   UNL A   1      33.197  30.794  26.532  1.00  0.00     0.251 C 
ATOM     30  H   UNL A   1      32.080  30.427  24.933  1.00  0.00     0.163 HD
ATOM     31  O   UNL A   1      32.354  31.587  26.950  1.00  0.00    -0.269 OA
BRANCH  29  32
ATOM     32  C   UNL A   1      34.444  30.598  27.326  1.00  0.00     0.039 A 
ATOM     33  C   UNL A   1      34.657  29.328  27.884  1.00  0.00     0.014 A 
ATOM     34  C   UNL A   1      35.350  31.617  27.626  1.00  0.00     0.014 A 
ATOM     35  C   UNL A   1      35.776  29.069  28.686  1.00  0.00     0.010 A 
ATOM     36  C   UNL A   1      36.501  31.346  28.389  1.00  0.00     0.010 A 
ATOM     37  C   UNL A   1      36.731  30.068  28.924  1.00  0.00    -0.014 A 
BRANCH  37  38
ATOM     38  C   UNL A   1      37.968  29.757  29.700  1.00  0.00     0.031 A 
ATOM     39  C   UNL A   1      38.204  30.332  31.073  1.00  0.00     0.074 A 
ATOM     40  C   UNL A   1      38.904  28.950  29.161  1.00  0.00     0.049 A 
ATOM     41  N   UNL A   1      39.226  30.161  31.879  1.00  0.00    -0.248 NA
ATOM     42  C   UNL A   1      37.167  31.225  31.607  1.00  0.00     0.031 C 
ATOM     43  C   UNL A   1      38.831  28.349  27.828  1.00  0.00     0.029 A 
ATOM     44  N   UNL A   1      40.101  28.496  29.663  1.00  0.00    -0.354 N 
ATOM     45  C   UNL A   1      38.955  30.921  33.010  1.00  0.00     0.074 A 
ATOM     46  C   UNL A   1      37.692  31.590  32.769  1.00  0.00     0.031 C 
ATOM     47  C   UNL A   1      39.923  27.595  27.624  1.00  0.00     0.029 A 
ATOM     48  C   UNL A   1      40.788  27.678  28.798  1.00  0.00     0.049 A 
ATOM     49  H   UNL A   1      40.435  28.735  30.558  1.00  0.00     0.167 HD
ATOM     50  C   UNL A   1      39.678  31.037  34.152  1.00  0.00     0.037 A 
ATOM     51  C   UNL A   1      41.981  27.065  28.928  1.00  0.00     0.037 A 
ATOM     52  C   UNL A   1      40.929  30.368  34.410  1.00  0.00     0.049 A 
ATOM     53  C   UNL A   1      42.760  27.210  30.206  1.00  0.00     0.074 A 
ATOM     54  C   UNL A   1      41.712  30.408  35.553  1.00  0.00     0.029 A 
ATOM     55  N   UNL A   1      41.582  29.537  33.514  1.00  0.00    -0.354 N 
ATOM     56  N   UNL A   1      42.463  27.892  31.283  1.00  0.00    -0.248 NA
ATOM     57  C   UNL A   1      44.038  26.486  30.288  1.00  0.00     0.031 C 
ATOM     58  C   UNL A   1      42.853  29.628  35.337  1.00  0.00     0.029 A 
ATOM     59  C   UNL A   1      42.762  29.069  34.074  1.00  0.00     0.049 A 
ATOM     60  H   UNL A   1      41.257  29.311  32.612  1.00  0.00     0.167 HD
ATOM     61  C   UNL A   1      43.504  27.667  32.176  1.00  0.00     0.074 A 
ATOM     62  C   UNL A   1      44.427  26.763  31.524  1.00  0.00     0.031 C 
ATOM     63  C   UNL A   1      43.679  28.171  33.421  1.00  0.00     0.037 A 
BRANCH  50  64
ATOM     64  C   UNL A   1      39.129  31.919  35.237  1.00  0.00     0.064 A 
ATOM     65  C   UNL A   1      38.394  31.386  36.306  1.00  0.00     0.173 A 
ATOM     66  C   UNL A   1      39.400  33.296  35.248  1.00  0.00     0.173 A 
ATOM     67  F   UNL A   1      38.103  30.077  36.338  1.00  0.00    -0.203 F 
ATOM     68  C   UNL A   1      37.936  32.202  37.338  1.00  0.00     0.198 A 
ATOM     69  C   UNL A   1      38.962  34.104  36.294  1.00  0.00     0.198 A 
ATOM     70  F   UNL A   1      40.109  33.854  34.255  1.00  0.00    -0.203 F 
ATOM     71  F   UNL A   1      37.209  31.675  38.333  1.00  0.00    -0.200 F 
ATOM     72  C   UNL A   1      38.228  33.557  37.335  1.00  0.00     0.200 A 
ATOM     73  F   UNL A   1      39.257  35.412  36.298  1.00  0.00    -0.200 F 
ATOM     74  F   UNL A   1      37.798  34.338  38.335  1.00  0.00    -0.200 F 
ENDBRANCH  50  64
BRANCH  51  75
ATOM     75  C   UNL A   1      42.515  26.241  27.812  1.00  0.00     0.064 A 
ATOM     76  C   UNL A   1      42.134  24.900  27.658  1.00  0.00     0.173 A 
ATOM     77  C   UNL A   1      43.434  26.769  26.895  1.00  0.00     0.173 A 
ATOM     78  F   UNL A   1      41.276  24.344  28.527  1.00  0.00    -0.203 F 
ATOM     79  C   UNL A   1      42.670  24.113  26.643  1.00  0.00     0.198 A 
ATOM     80  C   UNL A   1      43.948  25.988  25.862  1.00  0.00     0.198 A 
ATOM     81  F   UNL A   1      43.828  28.047  26.999  1.00  0.00    -0.203 F 
ATOM     82  F   UNL A   1      42.329  22.820  26.548  1.00  0.00    -0.200 F 
ATOM     83  C   UNL A   1      43.574  24.659  25.742  1.00  0.00     0.200 A 
ATOM     84  F   UNL A   1      44.811  26.523  24.988  1.00  0.00    -0.200 F 
ATOM     85  F   UNL A   1      44.089  23.900  24.766  1.00  0.00    -0.200 F 
ENDBRANCH  51  75
BRANCH  63  86
ATOM     86  C   UNL A   1      44.909  27.740  34.167  1.00  0.00     0.064 A 
ATOM     87  C   UNL A   1      46.105  28.468  34.091  1.00  0.00     0.173 A 
ATOM     88  C   UNL A   1      44.889  26.591  34.972  1.00  0.00     0.173 A 
ATOM     89  F   UNL A   1      46.180  29.565  33.322  1.00  0.00    -0.203 F 
ATOM     90  C   UNL A   1      47.245  28.045  34.769  1.00  0.00     0.198 A 
ATOM     91  C   UNL A   1      46.024  26.185  35.670  1.00  0.00     0.198 A 
ATOM     92  F   UNL A   1      43.769  25.861  35.082  1.00  0.00    -0.203 F 
ATOM     93  F   UNL A   1      48.392  28.726  34.638  1.00  0.00    -0.200 F 
ATOM     94  C   UNL A   1      47.204  26.907  35.559  1.00  0.00     0.200 A 
ATOM     95  F   UNL A   1      45.980  25.089  36.440  1.00  0.00    -0.200 F 
ATOM     96  F   UNL A   1      48.303  26.498  36.208  1.00  0.00    -0.200 F 
ENDBRANCH  63  86
ENDBRANCH  37  38
ENDBRANCH  29  32
ENDBRANCH  27  28
ENDBRANCH  26  27
ENDBRANCH   1  26
TORSDOF 15
ENDMDL
MODEL 2
REMARK VINA RESULT:     -12.3      1.557      2.910
REMARK SMILES CC[C@H]1CCC[C@H](O[C@@H]2CC[C@]([NH2+]C(C)C)(C(=O)NCCCNC(=O)c3ccc(-c4c5nc(c(-c6c(F)c(F)c(F)c(F)c6F)c6ccc([nH]6)c(-c6c(F)c(F)c(F)c(F)c6F)c6nc(c(-c7c(F)c(F)c(F)c(F)c7F)c7ccc4[nH]7)C=C6)C=C5)cc3)C2)C1
REMARK SMILES IDX 20 1 19 2 17 3 18 4 12 6 9 7 10 8 89 9 11 10 8 11 7 12 3 13
REMARK SMILES IDX 4 14 90 15 5 16 6 17 2 18 1 19 13 20 14 23 15 24 16 25 21 26
REMARK SMILES IDX 22 27 23 28 24 29 25 31 26 32 27 33 88 34 28 35 87 36 29 37
REMARK SMILES IDX 30 38 31 39 81 40 32 41 86 42 80 43 82 44 33 45 85 46 79 47
REMARK SMILES IDX 78 48 34 50 66 51 46 52 65 53 47 54 50 55 64 56 83 57 48 58
REMARK SMILES IDX 49 59 63 61 84 62 51 63 35 64 36 65 44 66 37 67 38 68 42 69
REMARK SMILES IDX 45 70 39 71 40 72 43 73 41 74 67 75 68 76 76 77 69 78 70 79
REMARK SMILES IDX 74 80 77 81 71 82 72 83 75 84 73 85 52 86 53 87 61 88 54 89
REMARK SMILES IDX 55 90 59 91 62 92 56 93 57 94 60 95 58 96
REMARK H PARENT 19 5 13 21 13 22 23 30 82 49 50 60
REMARK Flexibility Score: inf
ROOT
ATOM      1  C   UNL A   1      33.987  28.239  22.726  1.00  0.00     0.118 C 
ENDROOT
BRANCH   1   2
ATOM      2  N   UNL A   1      33.159  27.357  21.922  1.00  0.00    -0.351 N 
ATOM      3  C   UNL A   1      32.261  26.368  22.187  1.00  0.00     0.281 C 
ATOM      4  O   UNL A   1      31.720  25.891  21.178  1.00  0.00    -0.268 OA
ATOM      5  H   UNL A   1      33.274  27.511  20.956  1.00  0.00     0.163 HD
BRANCH   3   6
ATOM      6  C   UNL A   1      31.877  25.831  23.611  1.00  0.00     0.178 C 
ATOM      7  C   UNL A   1      32.467  24.438  25.507  1.00  0.00     0.125 C 
ATOM      8  C   UNL A   1      31.579  23.556  24.637  1.00  0.00     0.039 C 
ATOM      9  C   UNL A   1      33.025  25.478  24.544  1.00  0.00     0.111 C 
ATOM     10  C   UNL A   1      31.278  24.398  23.386  1.00  0.00     0.082 C 
BRANCH   7  11
ATOM     11  O   UNL A   1      33.355  23.771  26.391  1.00  0.00    -0.375 OA
BRANCH  11  12
ATOM     12  C   UNL A   1      34.562  23.134  25.971  1.00  0.00     0.118 C 
ATOM     13  C   UNL A   1      36.934  23.566  24.939  1.00  0.00    -0.009 C 
ATOM     14  C   UNL A   1      36.573  22.466  23.928  1.00  0.00     0.004 C 
ATOM     15  C   UNL A   1      35.704  24.126  25.676  1.00  0.00     0.035 C 
ATOM     16  C   UNL A   1      35.641  21.409  24.500  1.00  0.00     0.003 C 
ATOM     17  C   UNL A   1      34.332  22.058  24.917  1.00  0.00     0.032 C 
BRANCH  13  18
ATOM     18  C   UNL A   1      38.055  23.113  25.889  1.00  0.00     0.000 C 
ATOM     19  C   UNL A   1      38.482  24.204  26.865  1.00  0.00     0.004 C 
ENDBRANCH  13  18
ENDBRANCH  11  12
ENDBRANCH   7  11
BRANCH   6  20
ATOM     20  N   UNL A   1      30.811  26.682  24.187  1.00  0.00    -0.332 N 
ATOM     21  H   UNL A   1      31.275  27.479  24.621  1.00  0.00     0.347 HD
ATOM     22  H   UNL A   1      30.306  26.036  24.796  1.00  0.00     0.347 HD
BRANCH  20  23
ATOM     23  C   UNL A   1      29.754  27.224  23.337  1.00  0.00     0.176 C 
ATOM     24  C   UNL A   1      28.421  26.689  23.875  1.00  0.00     0.075 C 
ATOM     25  C   UNL A   1      29.690  28.757  23.375  1.00  0.00     0.075 C 
ENDBRANCH  20  23
ENDBRANCH   6  20
ENDBRANCH   3   6
ENDBRANCH   1   2
BRANCH   1  26
ATOM     26  C   UNL A   1      33.177  29.297  23.489  1.00  0.00     0.042 C 
BRANCH  26  27
ATOM     27  C   UNL A   1      33.167  29.182  25.021  1.00  0.00     0.118 C 
BRANCH  27  28
ATOM     28  N   UNL A   1      32.782  30.416  25.690  1.00  0.00    -0.352 N 
ATOM     29  C   UNL A   1      33.276  31.077  26.789  1.00  0.00     0.251 C 
ATOM     30  H   UNL A   1      32.015  30.868  25.270  1.00  0.00     0.163 HD
ATOM     31  O   UNL A   1      32.659  32.069  27.177  1.00  0.00    -0.269 OA
BRANCH  29  32
ATOM     32  C   UNL A   1      34.489  30.654  27.545  1.00  0.00     0.039 A 
ATOM     33  C   UNL A   1      35.428  31.649  27.861  1.00  0.00     0.014 A 
ATOM     34  C   UNL A   1      34.791  29.329  27.864  1.00  0.00     0.014 A 
ATOM     35  C   UNL A   1      36.621  31.333  28.524  1.00  0.00     0.010 A 
ATOM     36  C   UNL A   1      35.964  29.016  28.576  1.00  0.00     0.010 A 
ATOM     37  C   UNL A   1      36.891  30.014  28.918  1.00  0.00    -0.014 A 
BRANCH  37  38
ATOM     38  C   UNL A   1      38.119  29.702  29.709  1.00  0.00     0.031 A 
ATOM     39  C   UNL A   1      38.345  30.286  31.080  1.00  0.00     0.074 A 
ATOM     40  C   UNL A   1      39.056  28.885  29.185  1.00  0.00     0.049 A 
ATOM     41  N   UNL A   1      39.357  30.114  31.898  1.00  0.00    -0.248 NA
ATOM     42  C   UNL A   1      37.307  31.188  31.597  1.00  0.00     0.031 C 
ATOM     43  C   UNL A   1      38.992  28.275  27.856  1.00  0.00     0.029 A 
ATOM     44  N   UNL A   1      40.244  28.428  29.703  1.00  0.00    -0.354 N 
ATOM     45  C   UNL A   1      39.079  30.883  33.020  1.00  0.00     0.074 A 
ATOM     46  C   UNL A   1      37.823  31.559  32.762  1.00  0.00     0.031 C 
ATOM     47  C   UNL A   1      40.082  27.514  27.668  1.00  0.00     0.029 A 
ATOM     48  C   UNL A   1      40.936  27.600  28.851  1.00  0.00     0.049 A 
ATOM     49  H   UNL A   1      40.570  28.671  30.600  1.00  0.00     0.167 HD
ATOM     50  C   UNL A   1      39.791  31.004  34.169  1.00  0.00     0.037 A 
ATOM     51  C   UNL A   1      42.123  26.981  28.997  1.00  0.00     0.037 A 
ATOM     52  C   UNL A   1      41.035  30.329  34.444  1.00  0.00     0.049 A 
ATOM     53  C   UNL A   1      42.890  27.130  30.282  1.00  0.00     0.074 A 
ATOM     54  C   UNL A   1      41.806  30.373  35.595  1.00  0.00     0.029 A 
ATOM     55  N   UNL A   1      41.693  29.488  33.561  1.00  0.00    -0.354 N 
ATOM     56  N   UNL A   1      42.586  27.822  31.352  1.00  0.00    -0.248 NA
ATOM     57  C   UNL A   1      44.163  26.399  30.383  1.00  0.00     0.031 C 
ATOM     58  C   UNL A   1      42.945  29.585  35.396  1.00  0.00     0.029 A 
ATOM     59  C   UNL A   1      42.864  29.017  34.136  1.00  0.00     0.049 A 
ATOM     60  H   UNL A   1      41.375  29.258  32.657  1.00  0.00     0.167 HD
ATOM     61  C   UNL A   1      43.616  27.597  32.256  1.00  0.00     0.074 A 
ATOM     62  C   UNL A   1      44.541  26.683  31.620  1.00  0.00     0.031 C 
ATOM     63  C   UNL A   1      43.781  28.109  33.500  1.00  0.00     0.037 A 
BRANCH  50  64
ATOM     64  C   UNL A   1      39.236  31.897  35.242  1.00  0.00     0.064 A 
ATOM     65  C   UNL A   1      38.466  31.379  36.294  1.00  0.00     0.173 A 
ATOM     66  C   UNL A   1      39.535  33.267  35.260  1.00  0.00     0.173 A 
ATOM     67  F   UNL A   1      38.148  30.076  36.319  1.00  0.00    -0.203 F 
ATOM     68  C   UNL A   1      38.002  32.204  37.316  1.00  0.00     0.198 A 
ATOM     69  C   UNL A   1      39.091  34.084  36.297  1.00  0.00     0.198 A 
ATOM     70  F   UNL A   1      40.278  33.811  34.283  1.00  0.00    -0.203 F 
ATOM     71  F   UNL A   1      37.242  31.692  38.294  1.00  0.00    -0.200 F 
ATOM     72  C   UNL A   1      38.322  33.553  37.320  1.00  0.00     0.200 A 
ATOM     73  F   UNL A   1      39.413  35.386  36.308  1.00  0.00    -0.200 F 
ATOM     74  F   UNL A   1      37.886  34.342  38.311  1.00  0.00    -0.200 F 
ENDBRANCH  50  64
BRANCH  51  75
ATOM     75  C   UNL A   1      42.664  26.145  27.893  1.00  0.00     0.064 A 
ATOM     76  C   UNL A   1      43.557  26.678  26.953  1.00  0.00     0.173 A 
ATOM     77  C   UNL A   1      42.278  24.806  27.742  1.00  0.00     0.173 A 
ATOM     78  F   UNL A   1      43.935  27.963  27.043  1.00  0.00    -0.203 F 
ATOM     79  C   UNL A   1      44.026  25.911  25.891  1.00  0.00     0.198 A 
ATOM     80  C   UNL A   1      42.770  24.030  26.695  1.00  0.00     0.198 A 
ATOM     81  F   UNL A   1      41.427  24.249  28.616  1.00  0.00    -0.203 F 
ATOM     82  F   UNL A   1      44.839  26.459  24.977  1.00  0.00    -0.200 F 
ATOM     83  C   UNL A   1      43.635  24.585  25.765  1.00  0.00     0.200 A 
ATOM     84  F   UNL A   1      42.399  22.747  26.584  1.00  0.00    -0.200 F 
ATOM     85  F   UNL A   1      44.087  23.847  24.741  1.00  0.00    -0.200 F 
ENDBRANCH  51  75
BRANCH  63  86
ATOM     86  C   UNL A   1      45.001  27.676  34.261  1.00  0.00     0.064 A 
ATOM     87  C   UNL A   1      45.011  26.499  35.024  1.00  0.00     0.173 A 
ATOM     88  C   UNL A   1      46.176  28.443  34.222  1.00  0.00     0.173 A 
ATOM     89  F   UNL A   1      43.908  25.739  35.106  1.00  0.00    -0.203 F 
ATOM     90  C   UNL A   1      46.141  26.121  35.744  1.00  0.00     0.198 A 
ATOM     91  C   UNL A   1      47.313  28.048  34.923  1.00  0.00     0.198 A 
ATOM     92  F   UNL A   1      46.221  29.575  33.504  1.00  0.00    -0.203 F 
ATOM     93  F   UNL A   1      46.108  25.021  36.510  1.00  0.00    -0.200 F 
ATOM     94  C   UNL A   1      47.291  26.893  35.691  1.00  0.00     0.200 A 
ATOM     95  F   UNL A   1      48.427  28.791  34.864  1.00  0.00    -0.200 F 
ATOM     96  F   UNL A   1      48.377  26.530  36.388  1.00  0.00    -0.200 F 
ENDBRANCH  63  86
ENDBRANCH  37  38
ENDBRANCH  29  32
ENDBRANCH  27  28
ENDBRANCH  26  27
ENDBRANCH   1  26
TORSDOF 15
ENDMDL
MODEL 3
REMARK VINA RESULT:     -12.3      1.565      7.628
REMARK SMILES CC[C@H]1CCC[C@H](O[C@@H]2CC[C@]([NH2+]C(C)C)(C(=O)NCCCNC(=O)c3ccc(-c4c5nc(c(-c6c(F)c(F)c(F)c(F)c6F)c6ccc([nH]6)c(-c6c(F)c(F)c(F)c(F)c6F)c6nc(c(-c7c(F)c(F)c(F)c(F)c7F)c7ccc4[nH]7)C=C6)C=C5)cc3)C2)C1
REMARK SMILES IDX 20 1 19 2 17 3 18 4 12 6 9 7 10 8 89 9 11 10 8 11 7 12 3 13
REMARK SMILES IDX 4 14 90 15 5 16 6 17 2 18 1 19 13 20 14 23 15 24 16 25 21 26
REMARK SMILES IDX 22 27 23 28 24 29 25 31 26 32 27 33 88 34 28 35 87 36 29 37
REMARK SMILES IDX 30 38 31 39 81 40 32 41 86 42 80 43 82 44 33 45 85 46 79 47
REMARK SMILES IDX 78 48 34 50 66 51 46 52 65 53 47 54 50 55 64 56 83 57 48 58
REMARK SMILES IDX 49 59 63 61 84 62 51 63 35 64 36 65 44 66 37 67 38 68 42 69
REMARK SMILES IDX 45 70 39 71 40 72 43 73 41 74 67 75 68 76 76 77 69 78 70 79
REMARK SMILES IDX 74 80 77 81 71 82 72 83 75 84 73 85 52 86 53 87 61 88 54 89
REMARK SMILES IDX 55 90 59 91 62 92 56 93 57 94 60 95 58 96
REMARK H PARENT 19 5 13 21 13 22 23 30 82 49 50 60
REMARK Flexibility Score: inf
ROOT
ATOM      1  C   UNL A   1      34.083  28.065  22.609  1.00  0.00     0.118 C 
ENDROOT
BRANCH   1   2
ATOM      2  N   UNL A   1      33.250  27.159  21.837  1.00  0.00    -0.351 N 
ATOM      3  C   UNL A   1      32.343  26.189  22.139  1.00  0.00     0.281 C 
ATOM      4  O   UNL A   1      31.799  25.677  21.148  1.00  0.00    -0.268 OA
ATOM      5  H   UNL A   1      33.368  27.274  20.866  1.00  0.00     0.163 HD
BRANCH   3   6
ATOM      6  C   UNL A   1      31.950  25.712  23.582  1.00  0.00     0.178 C 
ATOM      7  C   UNL A   1      32.477  24.319  25.496  1.00  0.00     0.125 C 
ATOM      8  C   UNL A   1      31.508  23.487  24.664  1.00  0.00     0.039 C 
ATOM      9  C   UNL A   1      33.088  25.295  24.500  1.00  0.00     0.111 C 
ATOM     10  C   UNL A   1      31.243  24.323  23.401  1.00  0.00     0.082 C 
BRANCH   7  11
ATOM     11  O   UNL A   1      33.331  23.606  26.377  1.00  0.00    -0.375 OA
BRANCH  11  12
ATOM     12  C   UNL A   1      34.573  23.024  25.979  1.00  0.00     0.118 C 
ATOM     13  C   UNL A   1      36.887  23.536  24.857  1.00  0.00    -0.009 C 
ATOM     14  C   UNL A   1      36.587  22.335  23.946  1.00  0.00     0.004 C 
ATOM     15  C   UNL A   1      35.635  24.066  25.578  1.00  0.00     0.035 C 
ATOM     16  C   UNL A   1      35.744  21.265  24.623  1.00  0.00     0.003 C 
ATOM     17  C   UNL A   1      34.400  21.852  25.020  1.00  0.00     0.032 C 
BRANCH  13  18
ATOM     18  C   UNL A   1      38.057  23.240  25.812  1.00  0.00     0.000 C 
ATOM     19  C   UNL A   1      38.302  24.364  26.813  1.00  0.00     0.004 C 
ENDBRANCH  13  18
ENDBRANCH  11  12
ENDBRANCH   7  11
BRANCH   6  20
ATOM     20  N   UNL A   1      30.962  26.651  24.159  1.00  0.00    -0.332 N 
ATOM     21  H   UNL A   1      31.480  27.482  24.444  1.00  0.00     0.347 HD
ATOM     22  H   UNL A   1      30.516  26.094  24.890  1.00  0.00     0.347 HD
BRANCH  20  23
ATOM     23  C   UNL A   1      29.828  27.115  23.364  1.00  0.00     0.176 C 
ATOM     24  C   UNL A   1      28.561  26.522  23.993  1.00  0.00     0.075 C 
ATOM     25  C   UNL A   1      29.682  28.644  23.377  1.00  0.00     0.075 C 
ENDBRANCH  20  23
ENDBRANCH   6  20
ENDBRANCH   3   6
ENDBRANCH   1   2
BRANCH   1  26
ATOM     26  C   UNL A   1      33.274  29.102  23.401  1.00  0.00     0.042 C 
BRANCH  26  27
ATOM     27  C   UNL A   1      33.472  29.110  24.925  1.00  0.00     0.118 C 
BRANCH  27  28
ATOM     28  N   UNL A   1      32.867  30.260  25.579  1.00  0.00    -0.352 N 
ATOM     29  C   UNL A   1      33.219  31.000  26.682  1.00  0.00     0.251 C 
ATOM     30  H   UNL A   1      32.041  30.571  25.144  1.00  0.00     0.163 HD
ATOM     31  O   UNL A   1      32.433  31.871  27.054  1.00  0.00    -0.269 OA
BRANCH  29  32
ATOM     32  C   UNL A   1      34.474  30.796  27.461  1.00  0.00     0.039 A 
ATOM     33  C   UNL A   1      34.613  29.581  28.150  1.00  0.00     0.014 A 
ATOM     34  C   UNL A   1      35.462  31.770  27.624  1.00  0.00     0.014 A 
ATOM     35  C   UNL A   1      35.736  29.326  28.947  1.00  0.00     0.010 A 
ATOM     36  C   UNL A   1      36.615  31.496  28.383  1.00  0.00     0.010 A 
ATOM     37  C   UNL A   1      36.769  30.269  29.049  1.00  0.00    -0.014 A 
BRANCH  37  38
ATOM     38  C   UNL A   1      38.006  29.951  29.823  1.00  0.00     0.031 A 
ATOM     39  C   UNL A   1      39.065  29.030  29.273  1.00  0.00     0.074 A 
ATOM     40  C   UNL A   1      38.180  30.490  31.047  1.00  0.00     0.049 A 
ATOM     41  N   UNL A   1      40.198  28.651  29.818  1.00  0.00    -0.248 NA
ATOM     42  C   UNL A   1      38.817  28.450  27.947  1.00  0.00     0.031 C 
ATOM     43  C   UNL A   1      37.225  31.368  31.723  1.00  0.00     0.029 A 
ATOM     44  N   UNL A   1      39.219  30.378  31.941  1.00  0.00    -0.354 N 
ATOM     45  C   UNL A   1      40.794  27.792  28.904  1.00  0.00     0.074 A 
ATOM     46  C   UNL A   1      39.879  27.670  27.788  1.00  0.00     0.031 C 
ATOM     47  C   UNL A   1      37.726  31.728  32.916  1.00  0.00     0.029 A 
ATOM     48  C   UNL A   1      39.025  31.087  33.103  1.00  0.00     0.049 A 
ATOM     49  H   UNL A   1      40.025  29.841  31.766  1.00  0.00     0.167 HD
ATOM     50  C   UNL A   1      42.001  27.176  28.977  1.00  0.00     0.037 A 
ATOM     51  C   UNL A   1      39.799  31.207  34.199  1.00  0.00     0.037 A 
ATOM     52  C   UNL A   1      42.927  27.298  30.075  1.00  0.00     0.049 A 
ATOM     53  C   UNL A   1      41.134  30.515  34.251  1.00  0.00     0.074 A 
ATOM     54  C   UNL A   1      44.184  26.731  30.214  1.00  0.00     0.029 A 
ATOM     55  N   UNL A   1      42.699  28.038  31.225  1.00  0.00    -0.354 N 
ATOM     56  N   UNL A   1      41.703  29.747  33.355  1.00  0.00    -0.248 NA
ATOM     57  C   UNL A   1      41.939  30.718  35.465  1.00  0.00     0.031 C 
ATOM     58  C   UNL A   1      44.702  27.101  31.460  1.00  0.00     0.029 A 
ATOM     59  C   UNL A   1      43.786  27.932  32.081  1.00  0.00     0.049 A 
ATOM     60  H   UNL A   1      41.886  28.562  31.407  1.00  0.00     0.167 HD
ATOM     61  C   UNL A   1      42.936  29.391  33.888  1.00  0.00     0.074 A 
ATOM     62  C   UNL A   1      43.044  30.048  35.172  1.00  0.00     0.031 C 
ATOM     63  C   UNL A   1      43.888  28.586  33.359  1.00  0.00     0.037 A 
BRANCH  50  64
ATOM     64  C   UNL A   1      42.412  26.311  27.819  1.00  0.00     0.064 A 
ATOM     65  C   UNL A   1      43.287  26.785  26.831  1.00  0.00     0.173 A 
ATOM     66  C   UNL A   1      41.986  24.977  27.734  1.00  0.00     0.173 A 
ATOM     67  F   UNL A   1      43.718  28.055  26.864  1.00  0.00    -0.203 F 
ATOM     68  C   UNL A   1      43.708  25.959  25.791  1.00  0.00     0.198 A 
ATOM     69  C   UNL A   1      42.429  24.147  26.707  1.00  0.00     0.198 A 
ATOM     70  F   UNL A   1      41.158  24.471  28.661  1.00  0.00    -0.203 F 
ATOM     71  F   UNL A   1      44.520  26.444  24.841  1.00  0.00    -0.200 F 
ATOM     72  C   UNL A   1      43.286  24.640  25.735  1.00  0.00     0.200 A 
ATOM     73  F   UNL A   1      42.032  22.867  26.662  1.00  0.00    -0.200 F 
ATOM     74  F   UNL A   1      43.702  23.844  24.741  1.00  0.00    -0.200 F 
ENDBRANCH  50  64
BRANCH  51  75
ATOM     75  C   UNL A   1      39.337  32.032  35.345  1.00  0.00     0.064 A 
ATOM     76  C   UNL A   1      38.547  31.478  36.362  1.00  0.00     0.173 A 
ATOM     77  C   UNL A   1      39.653  33.394  35.433  1.00  0.00     0.173 A 
ATOM     78  F   UNL A   1      38.198  30.184  36.308  1.00  0.00    -0.203 F 
ATOM     79  C   UNL A   1      38.073  32.260  37.411  1.00  0.00     0.198 A 
ATOM     80  C   UNL A   1      39.202  34.171  36.498  1.00  0.00     0.198 A 
ATOM     81  F   UNL A   1      40.408  33.971  34.485  1.00  0.00    -0.203 F 
ATOM     82  F   UNL A   1      37.277  31.718  38.344  1.00  0.00    -0.200 F 
ATOM     83  C   UNL A   1      38.404  33.606  37.481  1.00  0.00     0.200 A 
ATOM     84  F   UNL A   1      39.535  35.467  36.567  1.00  0.00    -0.200 F 
ATOM     85  F   UNL A   1      37.947  34.359  38.491  1.00  0.00    -0.200 F 
ENDBRANCH  51  75
BRANCH  63  86
ATOM     86  C   UNL A   1      45.140  28.386  34.165  1.00  0.00     0.064 A 
ATOM     87  C   UNL A   1      46.246  29.237  34.025  1.00  0.00     0.173 A 
ATOM     88  C   UNL A   1      45.231  27.337  35.092  1.00  0.00     0.173 A 
ATOM     89  F   UNL A   1      46.214  30.245  33.140  1.00  0.00    -0.203 F 
ATOM     90  C   UNL A   1      47.409  29.026  34.761  1.00  0.00     0.198 A 
ATOM     91  C   UNL A   1      46.387  27.145  35.846  1.00  0.00     0.198 A 
ATOM     92  F   UNL A   1      44.200  26.497  35.267  1.00  0.00    -0.203 F 
ATOM     93  F   UNL A   1      48.473  29.819  34.570  1.00  0.00    -0.200 F 
ATOM     94  C   UNL A   1      47.477  27.984  35.672  1.00  0.00     0.200 A 
ATOM     95  F   UNL A   1      46.448  26.142  36.732  1.00  0.00    -0.200 F 
ATOM     96  F   UNL A   1      48.599  27.780  36.377  1.00  0.00    -0.200 F 
ENDBRANCH  63  86
ENDBRANCH  37  38
ENDBRANCH  29  32
ENDBRANCH  27  28
ENDBRANCH  26  27
ENDBRANCH   1  26
TORSDOF 15
ENDMDL
