MODEL 1
REMARK VINA RESULT:     -12.0      0.000      0.000
REMARK SMILES CC(C)C[C@H](CNC(=O)c1ccc(O)cc1O)C(=O)NCCCNC(=O)c1ccc(-c2c3nc(c(-c4c(F)c(F)c(F)c(F)c4F)c4ccc([nH]4)c(-c4c(F)c(F)c(F)c(F)c4F)c4nc(c(-c5c(F)c(F)c(F)c(F)c5F)c5ccc2[nH]5)C=C4)C=C3)cc1
REMARK SMILES IDX 21 1 20 2 18 3 19 4 5 6 4 7 2 8 1 9 3 10 6 11 7 12 8 13 9 15
REMARK SMILES IDX 10 16 11 17 16 18 12 19 15 20 13 21 17 22 14 24 22 26 23 27
REMARK SMILES IDX 24 28 25 29 26 31 27 32 28 33 89 34 29 35 88 36 30 37 31 38
REMARK SMILES IDX 32 39 82 40 33 41 87 42 81 43 83 44 34 45 86 46 80 47 79 48
REMARK SMILES IDX 35 50 67 51 47 52 66 53 48 54 51 55 65 56 84 57 49 58 50 59
REMARK SMILES IDX 64 61 85 62 52 63 36 64 37 65 45 66 38 67 39 68 43 69 46 70
REMARK SMILES IDX 40 71 41 72 44 73 42 74 68 75 69 76 77 77 70 78 71 79 75 80
REMARK SMILES IDX 78 81 72 82 73 83 76 84 74 85 53 86 54 87 62 88 55 89 56 90
REMARK SMILES IDX 60 91 63 92 57 93 58 94 61 95 59 96
REMARK H PARENT 20 5 7 14 17 23 14 25 24 30 83 49 51 60
REMARK Flexibility Score: inf
ROOT
ATOM      1  C   UNL A   1      31.451  30.729  26.491  1.00  0.00     0.117 C 
ENDROOT
BRANCH   1   2
ATOM      2  N   UNL A   1      32.689  30.242  27.064  1.00  0.00    -0.356 N 
ATOM      3  C   UNL A   1      33.441  29.154  26.777  1.00  0.00     0.224 C 
ATOM      4  O   UNL A   1      34.429  28.958  27.491  1.00  0.00    -0.275 OA
ATOM      5  H   UNL A   1      33.047  30.802  27.791  1.00  0.00     0.163 HD
BRANCH   3   6
ATOM      6  C   UNL A   1      33.097  28.165  25.670  1.00  0.00     0.098 C 
BRANCH   6   7
ATOM      7  C   UNL A   1      33.815  26.799  25.652  1.00  0.00     0.018 C 
BRANCH   7   8
ATOM      8  C   UNL A   1      32.971  25.541  25.949  1.00  0.00    -0.017 C 
ATOM      9  C   UNL A   1      31.506  25.841  26.255  1.00  0.00     0.007 C 
ATOM     10  C   UNL A   1      33.078  24.560  24.777  1.00  0.00     0.007 C 
ENDBRANCH   7   8
ENDBRANCH   6   7
BRANCH   6  11
ATOM     11  C   UNL A   1      33.036  28.883  24.302  1.00  0.00     0.129 C 
BRANCH  11  12
ATOM     12  N   UNL A   1      33.052  27.995  23.145  1.00  0.00    -0.351 N 
ATOM     13  C   UNL A   1      32.016  27.346  22.529  1.00  0.00     0.255 C 
ATOM     14  H   UNL A   1      33.939  27.841  22.747  1.00  0.00     0.163 HD
ATOM     15  O   UNL A   1      32.224  26.352  21.841  1.00  0.00    -0.269 OA
BRANCH  13  16
ATOM     16  C   UNL A   1      30.640  27.824  22.712  1.00  0.00     0.081 A 
ATOM     17  C   UNL A   1      29.721  27.034  23.412  1.00  0.00     0.021 A 
ATOM     18  C   UNL A   1      30.266  29.077  22.220  1.00  0.00     0.132 A 
ATOM     19  C   UNL A   1      28.402  27.464  23.548  1.00  0.00     0.047 A 
ATOM     20  C   UNL A   1      28.947  29.499  22.340  1.00  0.00     0.093 A 
ATOM     21  C   UNL A   1      28.024  28.684  22.993  1.00  0.00     0.119 A 
BRANCH  18  22
ATOM     22  O   UNL A   1      31.148  29.926  21.610  1.00  0.00    -0.507 OA
ATOM     23  H   UNL A   1      31.026  30.162  20.711  1.00  0.00     0.293 HD
ENDBRANCH  18  22
BRANCH  21  24
ATOM     24  O   UNL A   1      26.736  29.124  23.079  1.00  0.00    -0.508 OA
ATOM     25  H   UNL A   1      26.486  29.925  22.662  1.00  0.00     0.293 HD
ENDBRANCH  21  24
ENDBRANCH  13  16
ENDBRANCH  11  12
ENDBRANCH   6  11
ENDBRANCH   3   6
ENDBRANCH   1   2
BRANCH   1  26
ATOM     26  C   UNL A   1      31.372  32.244  26.579  1.00  0.00     0.042 C 
BRANCH  26  27
ATOM     27  C   UNL A   1      32.665  32.875  27.057  1.00  0.00     0.118 C 
BRANCH  27  28
ATOM     28  N   UNL A   1      32.454  34.197  27.623  1.00  0.00    -0.352 N 
ATOM     29  C   UNL A   1      33.050  34.793  28.705  1.00  0.00     0.251 C 
ATOM     30  H   UNL A   1      31.782  34.748  27.161  1.00  0.00     0.163 HD
ATOM     31  O   UNL A   1      32.578  35.826  29.167  1.00  0.00    -0.269 OA
BRANCH  29  32
ATOM     32  C   UNL A   1      34.249  34.185  29.318  1.00  0.00     0.039 A 
ATOM     33  C   UNL A   1      34.077  33.248  30.338  1.00  0.00     0.014 A 
ATOM     34  C   UNL A   1      35.534  34.549  28.908  1.00  0.00     0.014 A 
ATOM     35  C   UNL A   1      35.196  32.647  30.914  1.00  0.00     0.010 A 
ATOM     36  C   UNL A   1      36.640  33.868  29.402  1.00  0.00     0.010 A 
ATOM     37  C   UNL A   1      36.484  32.931  30.429  1.00  0.00    -0.014 A 
BRANCH  37  38
ATOM     38  C   UNL A   1      37.675  32.270  31.016  1.00  0.00     0.031 A 
ATOM     39  C   UNL A   1      38.146  32.642  32.395  1.00  0.00     0.074 A 
ATOM     40  C   UNL A   1      38.345  31.358  30.289  1.00  0.00     0.049 A 
ATOM     41  N   UNL A   1      39.146  32.156  33.086  1.00  0.00    -0.248 NA
ATOM     42  C   UNL A   1      37.419  33.725  33.079  1.00  0.00     0.031 C 
ATOM     43  C   UNL A   1      38.027  30.975  28.911  1.00  0.00     0.029 A 
ATOM     44  N   UNL A   1      39.427  30.579  30.608  1.00  0.00    -0.354 N 
ATOM     45  C   UNL A   1      39.172  32.878  34.272  1.00  0.00     0.074 A 
ATOM     46  C   UNL A   1      38.136  33.882  34.182  1.00  0.00     0.031 C 
ATOM     47  C   UNL A   1      38.863  30.001  28.522  1.00  0.00     0.029 A 
ATOM     48  C   UNL A   1      39.793  29.711  29.609  1.00  0.00     0.049 A 
ATOM     49  H   UNL A   1      39.897  30.637  31.472  1.00  0.00     0.167 HD
ATOM     50  C   UNL A   1      39.966  32.697  35.354  1.00  0.00     0.037 A 
ATOM     51  C   UNL A   1      40.760  28.776  29.583  1.00  0.00     0.037 A 
ATOM     52  C   UNL A   1      40.976  31.677  35.447  1.00  0.00     0.049 A 
ATOM     53  C   UNL A   1      41.601  28.570  30.812  1.00  0.00     0.074 A 
ATOM     54  C   UNL A   1      41.799  31.368  36.516  1.00  0.00     0.029 A 
ATOM     55  N   UNL A   1      41.299  30.796  34.425  1.00  0.00    -0.354 N 
ATOM     56  N   UNL A   1      41.563  29.203  31.959  1.00  0.00    -0.248 NA
ATOM     57  C   UNL A   1      42.609  27.503  30.747  1.00  0.00     0.031 C 
ATOM     58  C   UNL A   1      42.649  30.328  36.125  1.00  0.00     0.029 A 
ATOM     59  C   UNL A   1      42.320  29.951  34.833  1.00  0.00     0.049 A 
ATOM     60  H   UNL A   1      40.867  30.773  33.541  1.00  0.00     0.167 HD
ATOM     61  C   UNL A   1      42.519  28.596  32.761  1.00  0.00     0.074 A 
ATOM     62  C   UNL A   1      43.104  27.528  31.975  1.00  0.00     0.031 C 
ATOM     63  C   UNL A   1      42.886  28.896  34.033  1.00  0.00     0.037 A 
BRANCH  50  64
ATOM     64  C   UNL A   1      39.763  33.618  36.525  1.00  0.00     0.064 A 
ATOM     65  C   UNL A   1      40.407  34.863  36.604  1.00  0.00     0.173 A 
ATOM     66  C   UNL A   1      38.895  33.264  37.570  1.00  0.00     0.173 A 
ATOM     67  F   UNL A   1      41.259  35.244  35.639  1.00  0.00    -0.203 F 
ATOM     68  C   UNL A   1      40.215  35.703  37.697  1.00  0.00     0.198 A 
ATOM     69  C   UNL A   1      38.680  34.121  38.646  1.00  0.00     0.198 A 
ATOM     70  F   UNL A   1      38.253  32.087  37.546  1.00  0.00    -0.203 F 
ATOM     71  F   UNL A   1      40.884  36.863  37.775  1.00  0.00    -0.200 F 
ATOM     72  C   UNL A   1      39.347  35.336  38.712  1.00  0.00     0.200 A 
ATOM     73  F   UNL A   1      37.831  33.771  39.621  1.00  0.00    -0.200 F 
ATOM     74  F   UNL A   1      39.157  36.150  39.761  1.00  0.00    -0.200 F 
ENDBRANCH  50  64
BRANCH  51  75
ATOM     75  C   UNL A   1      40.943  27.933  28.374  1.00  0.00     0.064 A 
ATOM     76  C   UNL A   1      40.293  26.695  28.253  1.00  0.00     0.173 A 
ATOM     77  C   UNL A   1      41.767  28.341  27.316  1.00  0.00     0.173 A 
ATOM     78  F   UNL A   1      39.506  26.254  29.246  1.00  0.00    -0.203 F 
ATOM     79  C   UNL A   1      40.481  25.890  27.132  1.00  0.00     0.198 A 
ATOM     80  C   UNL A   1      41.931  27.548  26.182  1.00  0.00     0.198 A 
ATOM     81  F   UNL A   1      42.404  29.521  27.378  1.00  0.00    -0.203 F 
ATOM     82  F   UNL A   1      39.885  24.691  27.066  1.00  0.00    -0.200 F 
ATOM     83  C   UNL A   1      41.294  26.319  26.095  1.00  0.00     0.200 A 
ATOM     84  F   UNL A   1      42.705  27.974  25.175  1.00  0.00    -0.200 F 
ATOM     85  F   UNL A   1      41.472  25.545  25.016  1.00  0.00    -0.200 F 
ENDBRANCH  51  75
BRANCH  63  86
ATOM     86  C   UNL A   1      43.945  28.033  34.654  1.00  0.00     0.064 A 
ATOM     87  C   UNL A   1      45.304  28.376  34.598  1.00  0.00     0.173 A 
ATOM     88  C   UNL A   1      43.593  26.848  35.320  1.00  0.00     0.173 A 
ATOM     89  F   UNL A   1      45.693  29.491  33.961  1.00  0.00    -0.203 F 
ATOM     90  C   UNL A   1      46.275  27.541  35.144  1.00  0.00     0.198 A 
ATOM     91  C   UNL A   1      44.565  26.035  35.896  1.00  0.00     0.198 A 
ATOM     92  F   UNL A   1      42.307  26.479  35.412  1.00  0.00    -0.203 F 
ATOM     93  F   UNL A   1      47.573  27.855  35.017  1.00  0.00    -0.200 F 
ATOM     94  C   UNL A   1      45.906  26.374  35.795  1.00  0.00     0.200 A 
ATOM     95  F   UNL A   1      44.204  24.916  36.538  1.00  0.00    -0.200 F 
ATOM     96  F   UNL A   1      46.842  25.571  36.317  1.00  0.00    -0.200 F 
ENDBRANCH  63  86
ENDBRANCH  37  38
ENDBRANCH  29  32
ENDBRANCH  27  28
ENDBRANCH  26  27
ENDBRANCH   1  26
TORSDOF 17
ENDMDL
MODEL 2
REMARK VINA RESULT:     -11.7      5.982     10.140
REMARK SMILES CC(C)C[C@H](CNC(=O)c1ccc(O)cc1O)C(=O)NCCCNC(=O)c1ccc(-c2c3nc(c(-c4c(F)c(F)c(F)c(F)c4F)c4ccc([nH]4)c(-c4c(F)c(F)c(F)c(F)c4F)c4nc(c(-c5c(F)c(F)c(F)c(F)c5F)c5ccc2[nH]5)C=C4)C=C3)cc1
REMARK SMILES IDX 21 1 20 2 18 3 19 4 5 6 4 7 2 8 1 9 3 10 6 11 7 12 8 13 9 15
REMARK SMILES IDX 10 16 11 17 16 18 12 19 15 20 13 21 17 22 14 24 22 26 23 27
REMARK SMILES IDX 24 28 25 29 26 31 27 32 28 33 89 34 29 35 88 36 30 37 31 38
REMARK SMILES IDX 32 39 82 40 33 41 87 42 81 43 83 44 34 45 86 46 80 47 79 48
REMARK SMILES IDX 35 50 67 51 47 52 66 53 48 54 51 55 65 56 84 57 49 58 50 59
REMARK SMILES IDX 64 61 85 62 52 63 36 64 37 65 45 66 38 67 39 68 43 69 46 70
REMARK SMILES IDX 40 71 41 72 44 73 42 74 68 75 69 76 77 77 70 78 71 79 75 80
REMARK SMILES IDX 78 81 72 82 73 83 76 84 74 85 53 86 54 87 62 88 55 89 56 90
REMARK SMILES IDX 60 91 63 92 57 93 58 94 61 95 59 96
REMARK H PARENT 20 5 7 14 17 23 14 25 24 30 83 49 51 60
REMARK Flexibility Score: inf
ROOT
ATOM      1  C   UNL A   1      37.436  20.528  24.606  1.00  0.00     0.117 C 
ENDROOT
BRANCH   1   2
ATOM      2  N   UNL A   1      37.819  21.759  25.267  1.00  0.00    -0.356 N 
ATOM      3  C   UNL A   1      37.086  22.822  25.674  1.00  0.00     0.224 C 
ATOM      4  O   UNL A   1      37.709  23.772  26.157  1.00  0.00    -0.275 OA
ATOM      5  H   UNL A   1      38.783  21.836  25.453  1.00  0.00     0.163 HD
BRANCH   3   6
ATOM      6  C   UNL A   1      35.573  22.906  25.519  1.00  0.00     0.098 C 
BRANCH   6   7
ATOM      7  C   UNL A   1      34.898  24.290  25.622  1.00  0.00     0.018 C 
BRANCH   7   8
ATOM      8  C   UNL A   1      33.943  24.709  24.482  1.00  0.00    -0.017 C 
ATOM      9  C   UNL A   1      33.902  26.215  24.238  1.00  0.00     0.007 C 
ATOM     10  C   UNL A   1      34.324  23.973  23.194  1.00  0.00     0.007 C 
ENDBRANCH   7   8
ENDBRANCH   6   7
BRANCH   6  11
ATOM     11  C   UNL A   1      34.882  21.786  26.330  1.00  0.00     0.129 C 
BRANCH  11  12
ATOM     12  N   UNL A   1      33.480  22.036  26.644  1.00  0.00    -0.351 N 
ATOM     13  C   UNL A   1      32.354  21.681  25.952  1.00  0.00     0.255 C 
ATOM     14  H   UNL A   1      33.319  22.532  27.479  1.00  0.00     0.163 HD
ATOM     15  O   UNL A   1      31.300  22.286  26.122  1.00  0.00    -0.269 OA
BRANCH  13  16
ATOM     16  C   UNL A   1      32.410  20.585  24.976  1.00  0.00     0.081 A 
ATOM     17  C   UNL A   1      32.270  20.866  23.612  1.00  0.00     0.021 A 
ATOM     18  C   UNL A   1      32.637  19.276  25.410  1.00  0.00     0.132 A 
ATOM     19  C   UNL A   1      32.276  19.823  22.687  1.00  0.00     0.047 A 
ATOM     20  C   UNL A   1      32.627  18.234  24.490  1.00  0.00     0.093 A 
ATOM     21  C   UNL A   1      32.435  18.515  23.139  1.00  0.00     0.119 A 
BRANCH  18  22
ATOM     22  O   UNL A   1      32.871  18.961  26.721  1.00  0.00    -0.507 OA
ATOM     23  H   UNL A   1      32.165  18.965  27.336  1.00  0.00     0.293 HD
ENDBRANCH  18  22
BRANCH  21  24
ATOM     24  O   UNL A   1      32.416  17.466  22.267  1.00  0.00    -0.508 OA
ATOM     25  H   UNL A   1      32.681  16.614  22.554  1.00  0.00     0.293 HD
ENDBRANCH  21  24
ENDBRANCH  13  16
ENDBRANCH  11  12
ENDBRANCH   6  11
ENDBRANCH   3   6
ENDBRANCH   1   2
BRANCH   1  26
ATOM     26  C   UNL A   1      38.387  19.400  24.968  1.00  0.00     0.042 C 
BRANCH  26  27
ATOM     27  C   UNL A   1      39.429  19.812  25.990  1.00  0.00     0.118 C 
BRANCH  27  28
ATOM     28  N   UNL A   1      40.558  18.897  26.020  1.00  0.00    -0.352 N 
ATOM     29  C   UNL A   1      41.902  19.164  26.055  1.00  0.00     0.251 C 
ATOM     30  H   UNL A   1      40.323  17.941  26.016  1.00  0.00     0.163 HD
ATOM     31  O   UNL A   1      42.708  18.264  25.847  1.00  0.00    -0.269 OA
BRANCH  29  32
ATOM     32  C   UNL A   1      42.377  20.537  26.330  1.00  0.00     0.039 A 
ATOM     33  C   UNL A   1      42.760  21.341  25.256  1.00  0.00     0.014 A 
ATOM     34  C   UNL A   1      42.466  21.023  27.637  1.00  0.00     0.014 A 
ATOM     35  C   UNL A   1      43.191  22.645  25.493  1.00  0.00     0.010 A 
ATOM     36  C   UNL A   1      42.785  22.356  27.862  1.00  0.00     0.010 A 
ATOM     37  C   UNL A   1      43.178  23.173  26.796  1.00  0.00    -0.014 A 
BRANCH  37  38
ATOM     38  C   UNL A   1      43.603  24.570  27.050  1.00  0.00     0.031 A 
ATOM     39  C   UNL A   1      42.613  25.583  27.557  1.00  0.00     0.074 A 
ATOM     40  C   UNL A   1      44.875  24.927  26.793  1.00  0.00     0.049 A 
ATOM     41  N   UNL A   1      42.802  26.841  27.865  1.00  0.00    -0.248 NA
ATOM     42  C   UNL A   1      41.219  25.135  27.710  1.00  0.00     0.031 C 
ATOM     43  C   UNL A   1      45.901  24.050  26.226  1.00  0.00     0.029 A 
ATOM     44  N   UNL A   1      45.525  26.119  26.984  1.00  0.00    -0.354 N 
ATOM     45  C   UNL A   1      41.557  27.331  28.234  1.00  0.00     0.074 A 
ATOM     46  C   UNL A   1      40.605  26.259  28.046  1.00  0.00     0.031 C 
ATOM     47  C   UNL A   1      47.063  24.718  26.160  1.00  0.00     0.029 A 
ATOM     48  C   UNL A   1      46.856  26.077  26.652  1.00  0.00     0.049 A 
ATOM     49  H   UNL A   1      45.079  26.928  27.326  1.00  0.00     0.167 HD
ATOM     50  C   UNL A   1      41.240  28.555  28.719  1.00  0.00     0.037 A 
ATOM     51  C   UNL A   1      47.805  27.025  26.752  1.00  0.00     0.037 A 
ATOM     52  C   UNL A   1      42.199  29.608  28.930  1.00  0.00     0.049 A 
ATOM     53  C   UNL A   1      47.436  28.363  27.331  1.00  0.00     0.074 A 
ATOM     54  C   UNL A   1      41.998  30.867  29.469  1.00  0.00     0.029 A 
ATOM     55  N   UNL A   1      43.546  29.519  28.610  1.00  0.00    -0.354 N 
ATOM     56  N   UNL A   1      46.271  28.790  27.754  1.00  0.00    -0.248 NA
ATOM     57  C   UNL A   1      48.520  29.344  27.463  1.00  0.00     0.031 C 
ATOM     58  C   UNL A   1      43.216  31.554  29.434  1.00  0.00     0.029 A 
ATOM     59  C   UNL A   1      44.187  30.707  28.926  1.00  0.00     0.049 A 
ATOM     60  H   UNL A   1      43.983  28.730  28.216  1.00  0.00     0.167 HD
ATOM     61  C   UNL A   1      46.485  30.077  28.227  1.00  0.00     0.074 A 
ATOM     62  C   UNL A   1      47.898  30.350  28.059  1.00  0.00     0.031 C 
ATOM     63  C   UNL A   1      45.595  30.956  28.750  1.00  0.00     0.037 A 
BRANCH  50  64
ATOM     64  C   UNL A   1      39.801  28.814  29.064  1.00  0.00     0.064 A 
ATOM     65  C   UNL A   1      39.300  28.591  30.357  1.00  0.00     0.173 A 
ATOM     66  C   UNL A   1      38.915  29.317  28.099  1.00  0.00     0.173 A 
ATOM     67  F   UNL A   1      40.101  28.097  31.314  1.00  0.00    -0.203 F 
ATOM     68  C   UNL A   1      37.963  28.830  30.661  1.00  0.00     0.198 A 
ATOM     69  C   UNL A   1      37.585  29.586  28.415  1.00  0.00     0.198 A 
ATOM     70  F   UNL A   1      39.338  29.551  26.848  1.00  0.00    -0.203 F 
ATOM     71  F   UNL A   1      37.497  28.556  31.888  1.00  0.00    -0.200 F 
ATOM     72  C   UNL A   1      37.109  29.334  29.694  1.00  0.00     0.200 A 
ATOM     73  F   UNL A   1      36.764  30.085  27.482  1.00  0.00    -0.200 F 
ATOM     74  F   UNL A   1      35.823  29.570  29.990  1.00  0.00    -0.200 F 
ENDBRANCH  50  64
BRANCH  51  75
ATOM     75  C   UNL A   1      49.202  26.722  26.345  1.00  0.00     0.064 A 
ATOM     76  C   UNL A   1      49.626  26.919  25.022  1.00  0.00     0.173 A 
ATOM     77  C   UNL A   1      50.141  26.233  27.263  1.00  0.00     0.173 A 
ATOM     78  F   UNL A   1      48.759  27.371  24.103  1.00  0.00    -0.203 F 
ATOM     79  C   UNL A   1      50.927  26.614  24.630  1.00  0.00     0.198 A 
ATOM     80  C   UNL A   1      51.451  25.956  26.876  1.00  0.00     0.198 A 
ATOM     81  F   UNL A   1      49.789  26.036  28.543  1.00  0.00    -0.203 F 
ATOM     82  F   UNL A   1      51.290  26.767  23.349  1.00  0.00    -0.200 F 
ATOM     83  C   UNL A   1      51.840  26.139  25.558  1.00  0.00     0.200 A 
ATOM     84  F   UNL A   1      52.334  25.513  27.780  1.00  0.00    -0.200 F 
ATOM     85  F   UNL A   1      53.093  25.849  25.180  1.00  0.00    -0.200 F 
ENDBRANCH  51  75
BRANCH  63  86
ATOM     86  C   UNL A   1      46.137  32.280  29.204  1.00  0.00     0.064 A 
ATOM     87  C   UNL A   1      46.188  33.391  28.349  1.00  0.00     0.173 A 
ATOM     88  C   UNL A   1      46.607  32.440  30.518  1.00  0.00     0.173 A 
ATOM     89  F   UNL A   1      45.764  33.285  27.080  1.00  0.00    -0.203 F 
ATOM     90  C   UNL A   1      46.733  34.598  28.776  1.00  0.00     0.198 A 
ATOM     91  C   UNL A   1      47.118  33.659  30.952  1.00  0.00     0.198 A 
ATOM     92  F   UNL A   1      46.570  31.413  31.379  1.00  0.00    -0.203 F 
ATOM     93  F   UNL A   1      46.835  35.624  27.919  1.00  0.00    -0.200 F 
ATOM     94  C   UNL A   1      47.194  34.733  30.077  1.00  0.00     0.200 A 
ATOM     95  F   UNL A   1      47.548  33.793  32.213  1.00  0.00    -0.200 F 
ATOM     96  F   UNL A   1      47.721  35.895  30.486  1.00  0.00    -0.200 F 
ENDBRANCH  63  86
ENDBRANCH  37  38
ENDBRANCH  29  32
ENDBRANCH  27  28
ENDBRANCH  26  27
ENDBRANCH   1  26
TORSDOF 17
ENDMDL
MODEL 3
REMARK VINA RESULT:     -11.7      0.839      2.142
REMARK SMILES CC(C)C[C@H](CNC(=O)c1ccc(O)cc1O)C(=O)NCCCNC(=O)c1ccc(-c2c3nc(c(-c4c(F)c(F)c(F)c(F)c4F)c4ccc([nH]4)c(-c4c(F)c(F)c(F)c(F)c4F)c4nc(c(-c5c(F)c(F)c(F)c(F)c5F)c5ccc2[nH]5)C=C4)C=C3)cc1
REMARK SMILES IDX 21 1 20 2 18 3 19 4 5 6 4 7 2 8 1 9 3 10 6 11 7 12 8 13 9 15
REMARK SMILES IDX 10 16 11 17 16 18 12 19 15 20 13 21 17 22 14 24 22 26 23 27
REMARK SMILES IDX 24 28 25 29 26 31 27 32 28 33 89 34 29 35 88 36 30 37 31 38
REMARK SMILES IDX 32 39 82 40 33 41 87 42 81 43 83 44 34 45 86 46 80 47 79 48
REMARK SMILES IDX 35 50 67 51 47 52 66 53 48 54 51 55 65 56 84 57 49 58 50 59
REMARK SMILES IDX 64 61 85 62 52 63 36 64 37 65 45 66 38 67 39 68 43 69 46 70
REMARK SMILES IDX 40 71 41 72 44 73 42 74 68 75 69 76 77 77 70 78 71 79 75 80
REMARK SMILES IDX 78 81 72 82 73 83 76 84 74 85 53 86 54 87 62 88 55 89 56 90
REMARK SMILES IDX 60 91 63 92 57 93 58 94 61 95 59 96
REMARK H PARENT 20 5 7 14 17 23 14 25 24 30 83 49 51 60
REMARK Flexibility Score: inf
ROOT
ATOM      1  C   UNL A   1      31.824  30.588  26.762  1.00  0.00     0.117 C 
ENDROOT
BRANCH   1   2
ATOM      2  N   UNL A   1      33.229  30.357  27.024  1.00  0.00    -0.356 N 
ATOM      3  C   UNL A   1      34.058  29.358  26.639  1.00  0.00     0.224 C 
ATOM      4  O   UNL A   1      35.212  29.395  27.079  1.00  0.00    -0.275 OA
ATOM      5  H   UNL A   1      33.657  31.048  27.579  1.00  0.00     0.163 HD
BRANCH   3   6
ATOM      6  C   UNL A   1      33.621  28.201  25.751  1.00  0.00     0.098 C 
BRANCH   6   7
ATOM      7  C   UNL A   1      33.984  26.764  26.181  1.00  0.00     0.018 C 
BRANCH   7   8
ATOM      8  C   UNL A   1      33.475  25.601  25.302  1.00  0.00    -0.017 C 
ATOM      9  C   UNL A   1      34.582  24.869  24.549  1.00  0.00     0.007 C 
ATOM     10  C   UNL A   1      32.678  24.615  26.162  1.00  0.00     0.007 C 
ENDBRANCH   7   8
ENDBRANCH   6   7
BRANCH   6  11
ATOM     11  C   UNL A   1      33.901  28.522  24.265  1.00  0.00     0.129 C 
BRANCH  11  12
ATOM     12  N   UNL A   1      32.849  29.279  23.595  1.00  0.00    -0.351 N 
ATOM     13  C   UNL A   1      31.820  28.835  22.809  1.00  0.00     0.255 C 
ATOM     14  H   UNL A   1      32.884  30.254  23.729  1.00  0.00     0.163 HD
ATOM     15  O   UNL A   1      31.270  29.591  22.014  1.00  0.00    -0.269 OA
BRANCH  13  16
ATOM     16  C   UNL A   1      31.384  27.436  22.897  1.00  0.00     0.081 A 
ATOM     17  C   UNL A   1      30.356  27.086  23.782  1.00  0.00     0.021 A 
ATOM     18  C   UNL A   1      31.968  26.470  22.073  1.00  0.00     0.132 A 
ATOM     19  C   UNL A   1      29.971  25.752  23.901  1.00  0.00     0.047 A 
ATOM     20  C   UNL A   1      31.596  25.137  22.204  1.00  0.00     0.093 A 
ATOM     21  C   UNL A   1      30.610  24.788  23.124  1.00  0.00     0.119 A 
BRANCH  18  22
ATOM     22  O   UNL A   1      32.909  26.775  21.128  1.00  0.00    -0.507 OA
ATOM     23  H   UNL A   1      33.491  27.497  21.264  1.00  0.00     0.293 HD
ENDBRANCH  18  22
BRANCH  21  24
ATOM     24  O   UNL A   1      30.282  23.469  23.235  1.00  0.00    -0.508 OA
ATOM     25  H   UNL A   1      29.395  23.220  23.409  1.00  0.00     0.293 HD
ENDBRANCH  21  24
ENDBRANCH  13  16
ENDBRANCH  11  12
ENDBRANCH   6  11
ENDBRANCH   3   6
ENDBRANCH   1   2
BRANCH   1  26
ATOM     26  C   UNL A   1      31.462  32.046  26.995  1.00  0.00     0.042 C 
BRANCH  26  27
ATOM     27  C   UNL A   1      32.659  32.972  26.906  1.00  0.00     0.118 C 
BRANCH  27  28
ATOM     28  N   UNL A   1      32.445  34.215  27.629  1.00  0.00    -0.352 N 
ATOM     29  C   UNL A   1      33.022  34.666  28.788  1.00  0.00     0.251 C 
ATOM     30  H   UNL A   1      31.787  34.826  27.225  1.00  0.00     0.163 HD
ATOM     31  O   UNL A   1      32.548  35.638  29.366  1.00  0.00    -0.269 OA
BRANCH  29  32
ATOM     32  C   UNL A   1      34.203  33.974  29.345  1.00  0.00     0.039 A 
ATOM     33  C   UNL A   1      35.474  34.441  29.005  1.00  0.00     0.014 A 
ATOM     34  C   UNL A   1      34.064  32.861  30.177  1.00  0.00     0.014 A 
ATOM     35  C   UNL A   1      36.601  33.814  29.537  1.00  0.00     0.010 A 
ATOM     36  C   UNL A   1      35.179  32.311  30.795  1.00  0.00     0.010 A 
ATOM     37  C   UNL A   1      36.460  32.763  30.461  1.00  0.00    -0.014 A 
BRANCH  37  38
ATOM     38  C   UNL A   1      37.654  32.116  31.055  1.00  0.00     0.031 A 
ATOM     39  C   UNL A   1      38.104  32.483  32.443  1.00  0.00     0.074 A 
ATOM     40  C   UNL A   1      38.347  31.219  30.328  1.00  0.00     0.049 A 
ATOM     41  N   UNL A   1      39.103  32.006  33.141  1.00  0.00    -0.248 NA
ATOM     42  C   UNL A   1      37.353  33.549  33.127  1.00  0.00     0.031 C 
ATOM     43  C   UNL A   1      38.050  30.844  28.944  1.00  0.00     0.029 A 
ATOM     44  N   UNL A   1      39.436  30.454  30.654  1.00  0.00    -0.354 N 
ATOM     45  C   UNL A   1      39.104  32.719  34.333  1.00  0.00     0.074 A 
ATOM     46  C   UNL A   1      38.055  33.707  34.239  1.00  0.00     0.031 C 
ATOM     47  C   UNL A   1      38.905  29.885  28.556  1.00  0.00     0.029 A 
ATOM     48  C   UNL A   1      39.826  29.601  29.652  1.00  0.00     0.049 A 
ATOM     49  H   UNL A   1      39.896  30.512  31.523  1.00  0.00     0.167 HD
ATOM     50  C   UNL A   1      39.889  32.540  35.423  1.00  0.00     0.037 A 
ATOM     51  C   UNL A   1      40.807  28.681  29.629  1.00  0.00     0.037 A 
ATOM     52  C   UNL A   1      40.913  31.535  35.518  1.00  0.00     0.049 A 
ATOM     53  C   UNL A   1      41.638  28.476  30.866  1.00  0.00     0.074 A 
ATOM     54  C   UNL A   1      41.729  31.229  36.594  1.00  0.00     0.029 A 
ATOM     55  N   UNL A   1      41.261  30.667  34.494  1.00  0.00    -0.354 N 
ATOM     56  N   UNL A   1      41.578  29.099  32.017  1.00  0.00    -0.248 NA
ATOM     57  C   UNL A   1      42.662  27.425  30.804  1.00  0.00     0.031 C 
ATOM     58  C   UNL A   1      42.599  30.206  36.205  1.00  0.00     0.029 A 
ATOM     59  C   UNL A   1      42.290  29.835  34.906  1.00  0.00     0.049 A 
ATOM     60  H   UNL A   1      40.840  30.646  33.604  1.00  0.00     0.167 HD
ATOM     61  C   UNL A   1      42.534  28.500  32.826  1.00  0.00     0.074 A 
ATOM     62  C   UNL A   1      43.143  27.448  32.038  1.00  0.00     0.031 C 
ATOM     63  C   UNL A   1      42.881  28.795  34.103  1.00  0.00     0.037 A 
BRANCH  50  64
ATOM     64  C   UNL A   1      39.659  33.448  36.599  1.00  0.00     0.064 A 
ATOM     65  C   UNL A   1      38.755  33.116  37.620  1.00  0.00     0.173 A 
ATOM     66  C   UNL A   1      40.371  34.651  36.722  1.00  0.00     0.173 A 
ATOM     67  F   UNL A   1      38.037  31.984  37.544  1.00  0.00    -0.203 F 
ATOM     68  C   UNL A   1      38.547  33.968  38.701  1.00  0.00     0.198 A 
ATOM     69  C   UNL A   1      40.185  35.486  37.821  1.00  0.00     0.198 A 
ATOM     70  F   UNL A   1      41.249  35.017  35.777  1.00  0.00    -0.203 F 
ATOM     71  F   UNL A   1      37.637  33.655  39.634  1.00  0.00    -0.200 F 
ATOM     72  C   UNL A   1      39.267  35.147  38.805  1.00  0.00     0.200 A 
ATOM     73  F   UNL A   1      40.891  36.619  37.927  1.00  0.00    -0.200 F 
ATOM     74  F   UNL A   1      39.072  35.964  39.851  1.00  0.00    -0.200 F 
ENDBRANCH  50  64
BRANCH  51  75
ATOM     75  C   UNL A   1      41.018  27.850  28.415  1.00  0.00     0.064 A 
ATOM     76  C   UNL A   1      41.942  28.232  27.432  1.00  0.00     0.173 A 
ATOM     77  C   UNL A   1      40.304  26.661  28.211  1.00  0.00     0.173 A 
ATOM     78  F   UNL A   1      42.638  29.370  27.574  1.00  0.00    -0.203 F 
ATOM     79  C   UNL A   1      42.126  27.470  26.281  1.00  0.00     0.198 A 
ATOM     80  C   UNL A   1      40.510  25.883  27.073  1.00  0.00     0.198 A 
ATOM     81  F   UNL A   1      39.415  26.245  29.126  1.00  0.00    -0.203 F 
ATOM     82  F   UNL A   1      42.980  27.884  25.335  1.00  0.00    -0.200 F 
ATOM     83  C   UNL A   1      41.414  26.293  26.104  1.00  0.00     0.200 A 
ATOM     84  F   UNL A   1      39.833  24.738  26.915  1.00  0.00    -0.200 F 
ATOM     85  F   UNL A   1      41.594  25.558  24.998  1.00  0.00    -0.200 F 
ENDBRANCH  51  75
BRANCH  63  86
ATOM     86  C   UNL A   1      43.946  27.942  34.730  1.00  0.00     0.064 A 
ATOM     87  C   UNL A   1      45.291  28.342  34.759  1.00  0.00     0.173 A 
ATOM     88  C   UNL A   1      43.614  26.710  35.314  1.00  0.00     0.173 A 
ATOM     89  F   UNL A   1      45.661  29.506  34.201  1.00  0.00    -0.203 F 
ATOM     90  C   UNL A   1      46.270  27.519  35.307  1.00  0.00     0.198 A 
ATOM     91  C   UNL A   1      44.592  25.906  35.893  1.00  0.00     0.198 A 
ATOM     92  F   UNL A   1      42.343  26.285  35.324  1.00  0.00    -0.203 F 
ATOM     93  F   UNL A   1      47.557  27.892  35.261  1.00  0.00    -0.200 F 
ATOM     94  C   UNL A   1      45.920  26.304  35.877  1.00  0.00     0.200 A 
ATOM     95  F   UNL A   1      44.250  24.740  36.457  1.00  0.00    -0.200 F 
ATOM     96  F   UNL A   1      46.865  25.512  36.401  1.00  0.00    -0.200 F 
ENDBRANCH  63  86
ENDBRANCH  37  38
ENDBRANCH  29  32
ENDBRANCH  27  28
ENDBRANCH  26  27
ENDBRANCH   1  26
TORSDOF 17
ENDMDL
