MODEL 1
REMARK VINA RESULT:     -12.7      0.000      0.000
REMARK SMILES Nc1nonc1C(=O)N1[C@@H]2CC[C@H]1C[C@H](CC(=O)NCCCNC(=O)c1ccc(-c3c4nc(c(-c5c(F)c(F)c(F)c(F)c5F)c5ccc([nH]5)c(-c5c(F)c(F)c(F)c(F)c5F)c5nc(c(-c6c(F)c(F)c(F)c(F)c6F)c6ccc3[nH]6)C=C5)C=C4)cc1)C2
REMARK SMILES IDX 20 1 19 2 17 3 18 4 16 6 15 7 9 8 10 9 13 10 11 11 89 12
REMARK SMILES IDX 12 13 14 14 7 15 8 16 6 17 2 18 3 19 4 20 5 21 1 22 21 25
REMARK SMILES IDX 22 26 23 27 24 28 25 30 26 31 27 32 88 33 28 34 87 35 29 36
REMARK SMILES IDX 30 37 31 38 81 39 32 40 86 41 80 42 82 43 33 44 85 45 79 46
REMARK SMILES IDX 78 47 34 49 66 50 46 51 65 52 47 53 50 54 64 55 83 56 48 57
REMARK SMILES IDX 49 58 63 60 84 61 51 62 35 63 36 64 44 65 37 66 38 67 42 68
REMARK SMILES IDX 45 69 39 70 40 71 43 72 41 73 67 74 68 75 76 76 69 77 70 78
REMARK SMILES IDX 74 79 77 80 71 81 72 82 75 83 73 84 52 85 53 86 61 87 54 88
REMARK SMILES IDX 55 89 59 90 62 91 56 92 57 93 60 94 58 95
REMARK H PARENT 19 5 1 23 1 24 23 29 82 48 50 59
REMARK Flexibility Score: inf
ROOT
ATOM      1  C   UNL A   1      31.294  28.512  23.651  1.00  0.00     0.117 C 
ENDROOT
BRANCH   1   2
ATOM      2  N   UNL A   1      32.410  28.024  22.851  1.00  0.00    -0.356 N 
ATOM      3  C   UNL A   1      32.669  26.798  22.315  1.00  0.00     0.220 C 
ATOM      4  O   UNL A   1      33.739  26.638  21.725  1.00  0.00    -0.275 OA
ATOM      5  H   UNL A   1      33.098  28.702  22.662  1.00  0.00     0.163 HD
BRANCH   3   6
ATOM      6  C   UNL A   1      31.682  25.657  22.456  1.00  0.00     0.103 C 
BRANCH   6   7
ATOM      7  C   UNL A   1      31.602  25.098  23.889  1.00  0.00     0.002 C 
ATOM      8  N   UNL A   1      32.512  22.656  25.140  1.00  0.00    -0.331 N 
ATOM      9  C   UNL A   1      33.105  23.902  25.609  1.00  0.00     0.086 C 
ATOM     10  C   UNL A   1      31.083  22.904  25.158  1.00  0.00     0.086 C 
ATOM     11  C   UNL A   1      32.191  24.317  26.776  1.00  0.00     0.027 C 
ATOM     12  C   UNL A   1      33.036  24.912  24.452  1.00  0.00     0.029 C 
ATOM     13  C   UNL A   1      30.845  23.644  26.474  1.00  0.00     0.027 C 
ATOM     14  C   UNL A   1      30.785  23.787  23.940  1.00  0.00     0.029 C 
BRANCH   8  15
ATOM     15  C   UNL A   1      33.014  21.458  25.650  1.00  0.00     0.280 C 
ATOM     16  O   UNL A   1      33.677  21.426  26.684  1.00  0.00    -0.267 OA
BRANCH  15  17
ATOM     17  C   UNL A   1      32.668  20.267  24.881  1.00  0.00     0.216 A 
ATOM     18  C   UNL A   1      32.556  18.911  25.289  1.00  0.00     0.201 A 
ATOM     19  N   UNL A   1      32.249  18.156  24.238  1.00  0.00    -0.032 NA
ATOM     20  O   UNL A   1      32.187  19.030  23.164  1.00  0.00    -0.242 OA
ATOM     21  N   UNL A   1      32.457  20.333  23.558  1.00  0.00    -0.042 NA
BRANCH  18  22
ATOM     22  N   UNL A   1      32.765  18.412  26.519  1.00  0.00    -0.379 N 
ATOM     23  H   UNL A   1      33.572  17.878  26.703  1.00  0.00     0.158 HD
ATOM     24  H   UNL A   1      32.112  18.580  27.237  1.00  0.00     0.158 HD
ENDBRANCH  18  22
ENDBRANCH  15  17
ENDBRANCH   8  15
ENDBRANCH   6   7
ENDBRANCH   3   6
ENDBRANCH   1   2
BRANCH   1  25
ATOM     25  C   UNL A   1      31.662  28.654  25.129  1.00  0.00     0.042 C 
BRANCH  25  26
ATOM     26  C   UNL A   1      32.908  29.497  25.388  1.00  0.00     0.118 C 
BRANCH  26  27
ATOM     27  N   UNL A   1      32.572  30.783  25.969  1.00  0.00    -0.352 N 
ATOM     28  C   UNL A   1      33.163  31.477  26.996  1.00  0.00     0.251 C 
ATOM     29  H   UNL A   1      31.797  31.232  25.560  1.00  0.00     0.163 HD
ATOM     30  O   UNL A   1      32.572  32.445  27.468  1.00  0.00    -0.269 OA
BRANCH  28  31
ATOM     31  C   UNL A   1      34.488  31.096  27.554  1.00  0.00     0.039 A 
ATOM     32  C   UNL A   1      34.678  29.765  27.949  1.00  0.00     0.014 A 
ATOM     33  C   UNL A   1      35.498  32.029  27.804  1.00  0.00     0.014 A 
ATOM     34  C   UNL A   1      35.865  29.372  28.576  1.00  0.00     0.010 A 
ATOM     35  C   UNL A   1      36.711  31.626  28.374  1.00  0.00     0.010 A 
ATOM     36  C   UNL A   1      36.893  30.301  28.796  1.00  0.00    -0.014 A 
BRANCH  36  37
ATOM     37  C   UNL A   1      38.119  29.914  29.545  1.00  0.00     0.031 A 
ATOM     38  C   UNL A   1      38.316  30.389  30.960  1.00  0.00     0.074 A 
ATOM     39  C   UNL A   1      39.064  29.154  28.963  1.00  0.00     0.049 A 
ATOM     40  N   UNL A   1      39.330  30.192  31.767  1.00  0.00    -0.248 NA
ATOM     41  C   UNL A   1      37.242  31.211  31.539  1.00  0.00     0.031 C 
ATOM     42  C   UNL A   1      39.024  28.654  27.589  1.00  0.00     0.029 A 
ATOM     43  N   UNL A   1      40.247  28.666  29.461  1.00  0.00    -0.354 N 
ATOM     44  C   UNL A   1      39.035  30.901  32.925  1.00  0.00     0.074 A 
ATOM     45  C   UNL A   1      37.753  31.540  32.716  1.00  0.00     0.031 C 
ATOM     46  C   UNL A   1      40.120  27.910  27.362  1.00  0.00     0.029 A 
ATOM     47  C   UNL A   1      40.944  27.892  28.569  1.00  0.00     0.049 A 
ATOM     48  H   UNL A   1      40.566  28.855  30.374  1.00  0.00     0.167 HD
ATOM     49  C   UNL A   1      39.760  31.003  34.064  1.00  0.00     0.037 A 
ATOM     50  C   UNL A   1      42.108  27.231  28.710  1.00  0.00     0.037 A 
ATOM     51  C   UNL A   1      41.000  30.320  34.312  1.00  0.00     0.049 A 
ATOM     52  C   UNL A   1      42.839  27.271  30.023  1.00  0.00     0.074 A 
ATOM     53  C   UNL A   1      41.782  30.335  35.455  1.00  0.00     0.029 A 
ATOM     54  N   UNL A   1      41.627  29.480  33.408  1.00  0.00    -0.354 N 
ATOM     55  N   UNL A   1      42.537  27.926  31.116  1.00  0.00    -0.248 NA
ATOM     56  C   UNL A   1      44.067  26.467  30.124  1.00  0.00     0.031 C 
ATOM     57  C   UNL A   1      42.887  29.502  35.241  1.00  0.00     0.029 A 
ATOM     58  C   UNL A   1      42.782  28.960  33.971  1.00  0.00     0.049 A 
ATOM     59  H   UNL A   1      41.302  29.281  32.501  1.00  0.00     0.167 HD
ATOM     60  C   UNL A   1      43.522  27.603  32.037  1.00  0.00     0.074 A 
ATOM     61  C   UNL A   1      44.431  26.687  31.381  1.00  0.00     0.031 C 
ATOM     62  C   UNL A   1      43.661  28.032  33.314  1.00  0.00     0.037 A 
BRANCH  49  63
ATOM     63  C   UNL A   1      39.222  31.894  35.138  1.00  0.00     0.064 A 
ATOM     64  C   UNL A   1      38.473  31.382  36.207  1.00  0.00     0.173 A 
ATOM     65  C   UNL A   1      39.481  33.272  35.111  1.00  0.00     0.173 A 
ATOM     66  F   UNL A   1      38.187  30.074  36.263  1.00  0.00    -0.203 F 
ATOM     67  C   UNL A   1      37.987  32.223  37.204  1.00  0.00     0.198 A 
ATOM     68  C   UNL A   1      39.008  34.108  36.118  1.00  0.00     0.198 A 
ATOM     69  F   UNL A   1      40.193  33.806  34.108  1.00  0.00    -0.203 F 
ATOM     70  F   UNL A   1      37.246  31.720  38.200  1.00  0.00    -0.200 F 
ATOM     71  C   UNL A   1      38.259  33.583  37.162  1.00  0.00     0.200 A 
ATOM     72  F   UNL A   1      39.272  35.421  36.079  1.00  0.00    -0.200 F 
ATOM     73  F   UNL A   1      37.791  34.391  38.122  1.00  0.00    -0.200 F 
ENDBRANCH  49  63
BRANCH  50  74
ATOM     74  C   UNL A   1      42.633  26.425  27.585  1.00  0.00     0.064 A 
ATOM     75  C   UNL A   1      43.587  26.960  26.708  1.00  0.00     0.173 A 
ATOM     76  C   UNL A   1      42.199  25.111  27.366  1.00  0.00     0.173 A 
ATOM     77  F   UNL A   1      44.011  28.221  26.872  1.00  0.00    -0.203 F 
ATOM     78  C   UNL A   1      44.081  26.210  25.644  1.00  0.00     0.198 A 
ATOM     79  C   UNL A   1      42.703  24.358  26.309  1.00  0.00     0.198 A 
ATOM     80  F   UNL A   1      41.285  24.562  28.180  1.00  0.00    -0.203 F 
ATOM     81  F   UNL A   1      44.973  26.752  24.803  1.00  0.00    -0.200 F 
ATOM     82  C   UNL A   1      43.642  24.909  25.448  1.00  0.00     0.200 A 
ATOM     83  F   UNL A   1      42.279  23.102  26.121  1.00  0.00    -0.200 F 
ATOM     84  F   UNL A   1      44.117  24.189  24.423  1.00  0.00    -0.200 F 
ENDBRANCH  50  74
BRANCH  62  85
ATOM     85  C   UNL A   1      44.815  27.491  34.098  1.00  0.00     0.064 A 
ATOM     86  C   UNL A   1      46.050  28.153  34.123  1.00  0.00     0.173 A 
ATOM     87  C   UNL A   1      44.670  26.326  34.863  1.00  0.00     0.173 A 
ATOM     88  F   UNL A   1      46.234  29.265  33.395  1.00  0.00    -0.203 F 
ATOM     89  C   UNL A   1      47.107  27.659  34.882  1.00  0.00     0.198 A 
ATOM     90  C   UNL A   1      45.725  25.841  35.631  1.00  0.00     0.198 A 
ATOM     91  F   UNL A   1      43.505  25.662  34.868  1.00  0.00    -0.203 F 
ATOM     92  F   UNL A   1      48.287  28.293  34.877  1.00  0.00    -0.200 F 
ATOM     93  C   UNL A   1      46.943  26.506  35.638  1.00  0.00     0.200 A 
ATOM     94  F   UNL A   1      45.566  24.729  36.360  1.00  0.00    -0.200 F 
ATOM     95  F   UNL A   1      47.961  26.033  36.369  1.00  0.00    -0.200 F 
ENDBRANCH  62  85
ENDBRANCH  36  37
ENDBRANCH  28  31
ENDBRANCH  26  27
ENDBRANCH  25  26
ENDBRANCH   1  25
TORSDOF 14
ENDMDL
MODEL 2
REMARK VINA RESULT:     -12.6      2.466      7.995
REMARK SMILES Nc1nonc1C(=O)N1[C@@H]2CC[C@H]1C[C@H](CC(=O)NCCCNC(=O)c1ccc(-c3c4nc(c(-c5c(F)c(F)c(F)c(F)c5F)c5ccc([nH]5)c(-c5c(F)c(F)c(F)c(F)c5F)c5nc(c(-c6c(F)c(F)c(F)c(F)c6F)c6ccc3[nH]6)C=C5)C=C4)cc1)C2
REMARK SMILES IDX 20 1 19 2 17 3 18 4 16 6 15 7 9 8 10 9 13 10 11 11 89 12
REMARK SMILES IDX 12 13 14 14 7 15 8 16 6 17 2 18 3 19 4 20 5 21 1 22 21 25
REMARK SMILES IDX 22 26 23 27 24 28 25 30 26 31 27 32 88 33 28 34 87 35 29 36
REMARK SMILES IDX 30 37 31 38 81 39 32 40 86 41 80 42 82 43 33 44 85 45 79 46
REMARK SMILES IDX 78 47 34 49 66 50 46 51 65 52 47 53 50 54 64 55 83 56 48 57
REMARK SMILES IDX 49 58 63 60 84 61 51 62 35 63 36 64 44 65 37 66 38 67 42 68
REMARK SMILES IDX 45 69 39 70 40 71 43 72 41 73 67 74 68 75 76 76 69 77 70 78
REMARK SMILES IDX 74 79 77 80 71 81 72 82 75 83 73 84 52 85 53 86 61 87 54 88
REMARK SMILES IDX 55 89 59 90 62 91 56 92 57 93 60 94 58 95
REMARK H PARENT 19 5 1 23 1 24 23 29 82 48 50 59
REMARK Flexibility Score: inf
ROOT
ATOM      1  C   UNL A   1      31.312  30.827  26.476  1.00  0.00     0.117 C 
ENDROOT
BRANCH   1   2
ATOM      2  N   UNL A   1      31.958  30.281  25.290  1.00  0.00    -0.356 N 
ATOM      3  C   UNL A   1      32.959  29.366  25.147  1.00  0.00     0.220 C 
ATOM      4  O   UNL A   1      33.368  29.128  24.009  1.00  0.00    -0.275 OA
ATOM      5  H   UNL A   1      31.609  30.634  24.441  1.00  0.00     0.163 HD
BRANCH   3   6
ATOM      6  C   UNL A   1      33.567  28.676  26.351  1.00  0.00     0.103 C 
BRANCH   6   7
ATOM      7  C   UNL A   1      33.228  27.175  26.424  1.00  0.00     0.002 C 
ATOM      8  N   UNL A   1      32.203  25.258  24.518  1.00  0.00    -0.331 N 
ATOM      9  C   UNL A   1      33.547  25.028  25.032  1.00  0.00     0.086 C 
ATOM     10  C   UNL A   1      31.398  25.496  25.700  1.00  0.00     0.086 C 
ATOM     11  C   UNL A   1      33.312  24.132  26.262  1.00  0.00     0.027 C 
ATOM     12  C   UNL A   1      34.130  26.393  25.432  1.00  0.00     0.029 C 
ATOM     13  C   UNL A   1      31.875  24.443  26.700  1.00  0.00     0.027 C 
ATOM     14  C   UNL A   1      31.726  26.920  26.164  1.00  0.00     0.029 C 
BRANCH   8  15
ATOM     15  C   UNL A   1      31.730  24.409  23.517  1.00  0.00     0.280 C 
ATOM     16  O   UNL A   1      30.854  23.577  23.738  1.00  0.00    -0.267 OA
BRANCH  15  17
ATOM     17  C   UNL A   1      32.334  24.609  22.203  1.00  0.00     0.216 A 
ATOM     18  C   UNL A   1      32.265  25.720  21.321  1.00  0.00     0.201 A 
ATOM     19  N   UNL A   1      32.946  25.448  20.211  1.00  0.00    -0.032 NA
ATOM     20  O   UNL A   1      33.428  24.159  20.384  1.00  0.00    -0.242 OA
ATOM     21  N   UNL A   1      33.041  23.637  21.609  1.00  0.00    -0.042 NA
BRANCH  18  22
ATOM     22  N   UNL A   1      31.591  26.868  21.509  1.00  0.00    -0.379 N 
ATOM     23  H   UNL A   1      31.170  27.054  22.380  1.00  0.00     0.158 HD
ATOM     24  H   UNL A   1      31.518  27.523  20.777  1.00  0.00     0.158 HD
ENDBRANCH  18  22
ENDBRANCH  15  17
ENDBRANCH   8  15
ENDBRANCH   6   7
ENDBRANCH   3   6
ENDBRANCH   1   2
BRANCH   1  25
ATOM     25  C   UNL A   1      31.392  32.354  26.526  1.00  0.00     0.042 C 
BRANCH  25  26
ATOM     26  C   UNL A   1      32.612  32.895  27.265  1.00  0.00     0.118 C 
BRANCH  26  27
ATOM     27  N   UNL A   1      32.454  34.295  27.607  1.00  0.00    -0.352 N 
ATOM     28  C   UNL A   1      33.001  35.029  28.631  1.00  0.00     0.251 C 
ATOM     29  H   UNL A   1      31.860  34.803  27.008  1.00  0.00     0.163 HD
ATOM     30  O   UNL A   1      32.549  36.149  28.859  1.00  0.00    -0.269 OA
BRANCH  28  31
ATOM     31  C   UNL A   1      34.115  34.514  29.471  1.00  0.00     0.039 A 
ATOM     32  C   UNL A   1      35.414  34.571  28.948  1.00  0.00     0.014 A 
ATOM     33  C   UNL A   1      33.904  33.879  30.698  1.00  0.00     0.014 A 
ATOM     34  C   UNL A   1      36.486  34.007  29.647  1.00  0.00     0.010 A 
ATOM     35  C   UNL A   1      34.984  33.369  31.428  1.00  0.00     0.010 A 
ATOM     36  C   UNL A   1      36.281  33.400  30.895  1.00  0.00    -0.014 A 
BRANCH  36  37
ATOM     37  C   UNL A   1      37.397  32.716  31.601  1.00  0.00     0.031 A 
ATOM     38  C   UNL A   1      38.144  31.598  30.922  1.00  0.00     0.074 A 
ATOM     39  C   UNL A   1      37.739  33.078  32.851  1.00  0.00     0.049 A 
ATOM     40  N   UNL A   1      39.119  30.854  31.381  1.00  0.00    -0.248 NA
ATOM     41  C   UNL A   1      37.724  31.257  29.554  1.00  0.00     0.031 C 
ATOM     42  C   UNL A   1      37.081  34.116  33.643  1.00  0.00     0.029 A 
ATOM     43  N   UNL A   1      38.732  32.608  33.675  1.00  0.00    -0.354 N 
ATOM     44  C   UNL A   1      39.397  29.933  30.380  1.00  0.00     0.074 A 
ATOM     45  C   UNL A   1      38.483  30.203  29.290  1.00  0.00     0.031 C 
ATOM     46  C   UNL A   1      37.704  34.222  34.830  1.00  0.00     0.029 A 
ATOM     47  C   UNL A   1      38.795  33.251  34.885  1.00  0.00     0.049 A 
ATOM     48  H   UNL A   1      39.342  31.878  33.421  1.00  0.00     0.167 HD
ATOM     49  C   UNL A   1      40.335  28.956  30.362  1.00  0.00     0.037 A 
ATOM     50  C   UNL A   1      39.643  33.087  35.917  1.00  0.00     0.037 A 
ATOM     51  C   UNL A   1      41.293  28.719  31.405  1.00  0.00     0.049 A 
ATOM     52  C   UNL A   1      40.746  32.069  35.828  1.00  0.00     0.074 A 
ATOM     53  C   UNL A   1      42.306  27.775  31.452  1.00  0.00     0.029 A 
ATOM     54  N   UNL A   1      41.372  29.450  32.579  1.00  0.00    -0.354 N 
ATOM     55  N   UNL A   1      41.010  31.222  34.865  1.00  0.00    -0.248 NA
ATOM     56  C   UNL A   1      41.676  31.996  36.965  1.00  0.00     0.031 C 
ATOM     57  C   UNL A   1      42.999  27.935  32.659  1.00  0.00     0.029 A 
ATOM     58  C   UNL A   1      42.424  28.987  33.353  1.00  0.00     0.049 A 
ATOM     59  H   UNL A   1      40.771  30.188  32.827  1.00  0.00     0.167 HD
ATOM     60  C   UNL A   1      42.142  30.528  35.269  1.00  0.00     0.074 A 
ATOM     61  C   UNL A   1      42.522  31.057  36.562  1.00  0.00     0.031 C 
ATOM     62  C   UNL A   1      42.804  29.539  34.624  1.00  0.00     0.037 A 
BRANCH  49  63
ATOM     63  C   UNL A   1      40.367  28.062  29.162  1.00  0.00     0.064 A 
ATOM     64  C   UNL A   1      39.605  26.887  29.105  1.00  0.00     0.173 A 
ATOM     65  C   UNL A   1      41.150  28.399  28.049  1.00  0.00     0.173 A 
ATOM     66  F   UNL A   1      38.856  26.518  30.154  1.00  0.00    -0.203 F 
ATOM     67  C   UNL A   1      39.639  26.070  27.979  1.00  0.00     0.198 A 
ATOM     68  C   UNL A   1      41.169  27.588  26.917  1.00  0.00     0.198 A 
ATOM     69  F   UNL A   1      41.896  29.513  28.060  1.00  0.00    -0.203 F 
ATOM     70  F   UNL A   1      38.928  24.934  27.955  1.00  0.00    -0.200 F 
ATOM     71  C   UNL A   1      40.416  26.423  26.885  1.00  0.00     0.200 A 
ATOM     72  F   UNL A   1      41.917  27.931  25.860  1.00  0.00    -0.200 F 
ATOM     73  F   UNL A   1      40.447  25.636  25.802  1.00  0.00    -0.200 F 
ENDBRANCH  49  63
BRANCH  50  74
ATOM     74  C   UNL A   1      39.515  33.949  37.114  1.00  0.00     0.064 A 
ATOM     75  C   UNL A   1      38.799  33.510  38.236  1.00  0.00     0.173 A 
ATOM     76  C   UNL A   1      40.104  35.219  37.162  1.00  0.00     0.173 A 
ATOM     77  F   UNL A   1      38.203  32.310  38.220  1.00  0.00    -0.203 F 
ATOM     78  C   UNL A   1      38.670  34.318  39.363  1.00  0.00     0.198 A 
ATOM     79  C   UNL A   1      39.985  36.020  38.294  1.00  0.00     0.198 A 
ATOM     80  F   UNL A   1      40.796  35.678  36.108  1.00  0.00    -0.203 F 
ATOM     81  F   UNL A   1      37.959  33.888  40.414  1.00  0.00    -0.200 F 
ATOM     82  C   UNL A   1      39.265  35.570  39.393  1.00  0.00     0.200 A 
ATOM     83  F   UNL A   1      40.560  37.229  38.321  1.00  0.00    -0.200 F 
ATOM     84  F   UNL A   1      39.139  36.347  40.477  1.00  0.00    -0.200 F 
ENDBRANCH  50  74
BRANCH  62  85
ATOM     85  C   UNL A   1      44.025  28.986  35.287  1.00  0.00     0.064 A 
ATOM     86  C   UNL A   1      45.295  29.524  35.038  1.00  0.00     0.173 A 
ATOM     87  C   UNL A   1      43.919  27.938  36.212  1.00  0.00     0.173 A 
ATOM     88  F   UNL A   1      45.442  30.521  34.151  1.00  0.00    -0.203 F 
ATOM     89  C   UNL A   1      46.421  29.024  35.685  1.00  0.00     0.198 A 
ATOM     90  C   UNL A   1      45.045  27.448  36.867  1.00  0.00     0.198 A 
ATOM     91  F   UNL A   1      42.723  27.393  36.481  1.00  0.00    -0.203 F 
ATOM     92  F   UNL A   1      47.629  29.538  35.418  1.00  0.00    -0.200 F 
ATOM     93  C   UNL A   1      46.295  27.989  36.601  1.00  0.00     0.200 A 
ATOM     94  F   UNL A   1      44.924  26.448  37.751  1.00  0.00    -0.200 F 
ATOM     95  F   UNL A   1      47.379  27.510  37.225  1.00  0.00    -0.200 F 
ENDBRANCH  62  85
ENDBRANCH  36  37
ENDBRANCH  28  31
ENDBRANCH  26  27
ENDBRANCH  25  26
ENDBRANCH   1  25
TORSDOF 14
ENDMDL
MODEL 3
REMARK VINA RESULT:     -12.6      1.069      2.367
REMARK SMILES Nc1nonc1C(=O)N1[C@@H]2CC[C@H]1C[C@H](CC(=O)NCCCNC(=O)c1ccc(-c3c4nc(c(-c5c(F)c(F)c(F)c(F)c5F)c5ccc([nH]5)c(-c5c(F)c(F)c(F)c(F)c5F)c5nc(c(-c6c(F)c(F)c(F)c(F)c6F)c6ccc3[nH]6)C=C5)C=C4)cc1)C2
REMARK SMILES IDX 20 1 19 2 17 3 18 4 16 6 15 7 9 8 10 9 13 10 11 11 89 12
REMARK SMILES IDX 12 13 14 14 7 15 8 16 6 17 2 18 3 19 4 20 5 21 1 22 21 25
REMARK SMILES IDX 22 26 23 27 24 28 25 30 26 31 27 32 88 33 28 34 87 35 29 36
REMARK SMILES IDX 30 37 31 38 81 39 32 40 86 41 80 42 82 43 33 44 85 45 79 46
REMARK SMILES IDX 78 47 34 49 66 50 46 51 65 52 47 53 50 54 64 55 83 56 48 57
REMARK SMILES IDX 49 58 63 60 84 61 51 62 35 63 36 64 44 65 37 66 38 67 42 68
REMARK SMILES IDX 45 69 39 70 40 71 43 72 41 73 67 74 68 75 76 76 69 77 70 78
REMARK SMILES IDX 74 79 77 80 71 81 72 82 75 83 73 84 52 85 53 86 61 87 54 88
REMARK SMILES IDX 55 89 59 90 62 91 56 92 57 93 60 94 58 95
REMARK H PARENT 19 5 1 23 1 24 23 29 82 48 50 59
REMARK Flexibility Score: inf
ROOT
ATOM      1  C   UNL A   1      31.906  28.577  24.798  1.00  0.00     0.117 C 
ENDROOT
BRANCH   1   2
ATOM      2  N   UNL A   1      32.767  28.528  23.624  1.00  0.00    -0.356 N 
ATOM      3  C   UNL A   1      33.193  27.483  22.859  1.00  0.00     0.220 C 
ATOM      4  O   UNL A   1      33.984  27.720  21.945  1.00  0.00    -0.275 OA
ATOM      5  H   UNL A   1      33.099  29.406  23.330  1.00  0.00     0.163 HD
BRANCH   3   6
ATOM      6  C   UNL A   1      32.724  26.069  23.134  1.00  0.00     0.103 C 
BRANCH   6   7
ATOM      7  C   UNL A   1      33.858  25.133  23.593  1.00  0.00     0.002 C 
ATOM      8  N   UNL A   1      33.959  22.786  25.277  1.00  0.00    -0.331 N 
ATOM      9  C   UNL A   1      34.318  22.612  23.876  1.00  0.00     0.086 C 
ATOM     10  C   UNL A   1      34.732  23.933  25.711  1.00  0.00     0.086 C 
ATOM     11  C   UNL A   1      35.841  22.834  23.866  1.00  0.00     0.027 C 
ATOM     12  C   UNL A   1      33.586  23.697  23.071  1.00  0.00     0.029 C 
ATOM     13  C   UNL A   1      36.114  23.711  25.096  1.00  0.00     0.027 C 
ATOM     14  C   UNL A   1      34.035  25.167  25.127  1.00  0.00     0.029 C 
BRANCH   8  15
ATOM     15  C   UNL A   1      33.894  21.649  26.084  1.00  0.00     0.280 C 
ATOM     16  O   UNL A   1      34.164  21.692  27.282  1.00  0.00    -0.267 OA
BRANCH  15  17
ATOM     17  C   UNL A   1      33.459  20.434  25.402  1.00  0.00     0.216 A 
ATOM     18  C   UNL A   1      34.220  19.365  24.857  1.00  0.00     0.201 A 
ATOM     19  N   UNL A   1      33.402  18.479  24.296  1.00  0.00    -0.032 NA
ATOM     20  O   UNL A   1      32.127  18.996  24.470  1.00  0.00    -0.242 OA
ATOM     21  N   UNL A   1      32.163  20.209  25.143  1.00  0.00    -0.042 NA
BRANCH  18  22
ATOM     22  N   UNL A   1      35.559  19.246  24.840  1.00  0.00    -0.379 N 
ATOM     23  H   UNL A   1      36.089  19.747  24.177  1.00  0.00     0.158 HD
ATOM     24  H   UNL A   1      36.010  18.659  25.488  1.00  0.00     0.158 HD
ENDBRANCH  18  22
ENDBRANCH  15  17
ENDBRANCH   8  15
ENDBRANCH   6   7
ENDBRANCH   3   6
ENDBRANCH   1   2
BRANCH   1  25
ATOM     25  C   UNL A   1      31.651  30.010  25.268  1.00  0.00     0.042 C 
BRANCH  25  26
ATOM     26  C   UNL A   1      32.376  30.386  26.557  1.00  0.00     0.118 C 
BRANCH  26  27
ATOM     27  N   UNL A   1      32.406  31.823  26.755  1.00  0.00    -0.352 N 
ATOM     28  C   UNL A   1      33.277  32.604  27.475  1.00  0.00     0.251 C 
ATOM     29  H   UNL A   1      31.688  32.319  26.299  1.00  0.00     0.163 HD
ATOM     30  O   UNL A   1      32.977  33.777  27.685  1.00  0.00    -0.269 OA
BRANCH  28  31
ATOM     31  C   UNL A   1      34.563  32.079  28.006  1.00  0.00     0.039 A 
ATOM     32  C   UNL A   1      34.648  30.710  28.291  1.00  0.00     0.014 A 
ATOM     33  C   UNL A   1      35.638  32.910  28.335  1.00  0.00     0.014 A 
ATOM     34  C   UNL A   1      35.795  30.179  28.890  1.00  0.00     0.010 A 
ATOM     35  C   UNL A   1      36.811  32.371  28.877  1.00  0.00     0.010 A 
ATOM     36  C   UNL A   1      36.888  31.006  29.190  1.00  0.00    -0.014 A 
BRANCH  36  37
ATOM     37  C   UNL A   1      38.072  30.467  29.911  1.00  0.00     0.031 A 
ATOM     38  C   UNL A   1      38.304  30.832  31.353  1.00  0.00     0.074 A 
ATOM     39  C   UNL A   1      38.950  29.666  29.280  1.00  0.00     0.049 A 
ATOM     40  N   UNL A   1      39.294  30.497  32.144  1.00  0.00    -0.248 NA
ATOM     41  C   UNL A   1      37.303  31.705  31.985  1.00  0.00     0.031 C 
ATOM     42  C   UNL A   1      38.872  29.260  27.877  1.00  0.00     0.029 A 
ATOM     43  N   UNL A   1      40.085  29.047  29.744  1.00  0.00    -0.354 N 
ATOM     44  C   UNL A   1      39.057  31.153  33.345  1.00  0.00     0.074 A 
ATOM     45  C   UNL A   1      37.836  31.913  33.180  1.00  0.00     0.031 C 
ATOM     46  C   UNL A   1      39.901  28.440  27.601  1.00  0.00     0.029 A 
ATOM     47  C   UNL A   1      40.716  28.274  28.803  1.00  0.00     0.049 A 
ATOM     48  H   UNL A   1      40.415  29.149  30.666  1.00  0.00     0.167 HD
ATOM     49  C   UNL A   1      39.784  31.119  34.488  1.00  0.00     0.037 A 
ATOM     50  C   UNL A   1      41.818  27.507  28.900  1.00  0.00     0.037 A 
ATOM     51  C   UNL A   1      40.959  30.317  34.690  1.00  0.00     0.049 A 
ATOM     52  C   UNL A   1      42.544  27.400  30.211  1.00  0.00     0.074 A 
ATOM     53  C   UNL A   1      41.735  30.191  35.830  1.00  0.00     0.029 A 
ATOM     54  N   UNL A   1      41.515  29.485  33.733  1.00  0.00    -0.354 N 
ATOM     55  N   UNL A   1      42.296  28.008  31.344  1.00  0.00    -0.248 NA
ATOM     56  C   UNL A   1      43.698  26.488  30.259  1.00  0.00     0.031 C 
ATOM     57  C   UNL A   1      42.765  29.281  35.561  1.00  0.00     0.029 A 
ATOM     58  C   UNL A   1      42.618  28.833  34.259  1.00  0.00     0.049 A 
ATOM     59  H   UNL A   1      41.177  29.374  32.816  1.00  0.00     0.167 HD
ATOM     60  C   UNL A   1      43.246  27.543  32.242  1.00  0.00     0.074 A 
ATOM     61  C   UNL A   1      44.074  26.595  31.526  1.00  0.00     0.031 C 
ATOM     62  C   UNL A   1      43.416  27.876  33.543  1.00  0.00     0.037 A 
BRANCH  49  63
ATOM     63  C   UNL A   1      39.321  31.984  35.617  1.00  0.00     0.064 A 
ATOM     64  C   UNL A   1      39.733  33.318  35.733  1.00  0.00     0.173 A 
ATOM     65  C   UNL A   1      38.436  31.478  36.580  1.00  0.00     0.173 A 
ATOM     66  F   UNL A   1      40.592  33.837  34.844  1.00  0.00    -0.203 F 
ATOM     67  C   UNL A   1      39.287  34.113  36.785  1.00  0.00     0.198 A 
ATOM     68  C   UNL A   1      37.978  32.280  37.621  1.00  0.00     0.198 A 
ATOM     69  F   UNL A   1      38.016  30.206  36.510  1.00  0.00    -0.203 F 
ATOM     70  F   UNL A   1      39.716  35.378  36.897  1.00  0.00    -0.200 F 
ATOM     71  C   UNL A   1      38.406  33.596  37.725  1.00  0.00     0.200 A 
ATOM     72  F   UNL A   1      37.127  31.781  38.528  1.00  0.00    -0.200 F 
ATOM     73  F   UNL A   1      37.978  34.362  38.736  1.00  0.00    -0.200 F 
ENDBRANCH  49  63
BRANCH  50  74
ATOM     74  C   UNL A   1      42.275  26.732  27.725  1.00  0.00     0.064 A 
ATOM     75  C   UNL A   1      41.764  25.452  27.471  1.00  0.00     0.173 A 
ATOM     76  C   UNL A   1      43.224  27.252  26.835  1.00  0.00     0.173 A 
ATOM     77  F   UNL A   1      40.871  24.911  28.312  1.00  0.00    -0.203 F 
ATOM     78  C   UNL A   1      42.194  24.715  26.371  1.00  0.00     0.198 A 
ATOM     79  C   UNL A   1      43.644  26.518  25.728  1.00  0.00     0.198 A 
ATOM     80  F   UNL A   1      43.741  28.472  27.042  1.00  0.00    -0.203 F 
ATOM     81  F   UNL A   1      41.710  23.482  26.163  1.00  0.00    -0.200 F 
ATOM     82  C   UNL A   1      43.130  25.249  25.499  1.00  0.00     0.200 A 
ATOM     83  F   UNL A   1      44.547  27.036  24.887  1.00  0.00    -0.200 F 
ATOM     84  F   UNL A   1      43.544  24.538  24.441  1.00  0.00    -0.200 F 
ENDBRANCH  50  74
BRANCH  62  85
ATOM     85  C   UNL A   1      44.516  27.188  34.288  1.00  0.00     0.064 A 
ATOM     86  C   UNL A   1      44.298  25.970  34.945  1.00  0.00     0.173 A 
ATOM     87  C   UNL A   1      45.808  27.731  34.309  1.00  0.00     0.173 A 
ATOM     88  F   UNL A   1      43.073  25.422  34.960  1.00  0.00    -0.203 F 
ATOM     89  C   UNL A   1      45.336  25.322  35.608  1.00  0.00     0.198 A 
ATOM     90  C   UNL A   1      46.847  27.075  34.962  1.00  0.00     0.198 A 
ATOM     91  F   UNL A   1      46.061  28.896  33.692  1.00  0.00    -0.203 F 
ATOM     92  F   UNL A   1      45.104  24.168  36.249  1.00  0.00    -0.200 F 
ATOM     93  C   UNL A   1      46.610  25.873  35.613  1.00  0.00     0.200 A 
ATOM     94  F   UNL A   1      48.077  27.607  34.967  1.00  0.00    -0.200 F 
ATOM     95  F   UNL A   1      47.609  25.248  36.250  1.00  0.00    -0.200 F 
ENDBRANCH  62  85
ENDBRANCH  36  37
ENDBRANCH  28  31
ENDBRANCH  26  27
ENDBRANCH  25  26
ENDBRANCH   1  25
TORSDOF 14
ENDMDL
