MODEL 1
REMARK VINA RESULT:     -12.5      0.000      0.000
REMARK SMILES CC[C@](C)(C(=O)NCCCNC(=O)c1ccc(-c2c3nc(c(-c4c(F)c(F)c(F)c(F)c4F)c4ccc([nH]4)c(-c4c(F)c(F)c(F)c(F)c4F)c4nc(c(-c5c(F)c(F)c(F)c(F)c5F)c5ccc2[nH]5)C=C4)C=C3)cc1)n1nnnc1Cc1cccc(Cl)c1
REMARK SMILES IDX 8 1 7 2 5 3 6 4 3 6 4 7 2 8 1 9 77 10 78 11 81 12 79 13
REMARK SMILES IDX 80 14 82 15 83 16 84 17 89 18 85 19 87 20 86 21 88 22 9 23
REMARK SMILES IDX 10 24 11 25 12 26 13 28 14 29 15 30 76 31 16 32 75 33 17 34
REMARK SMILES IDX 18 35 19 36 69 37 20 38 74 39 68 40 70 41 21 42 73 43 67 44
REMARK SMILES IDX 66 45 22 47 54 48 34 49 53 50 35 51 38 52 52 53 71 54 36 55
REMARK SMILES IDX 37 56 51 58 72 59 39 60 23 61 24 62 32 63 25 64 26 65 30 66
REMARK SMILES IDX 33 67 27 68 28 69 31 70 29 71 55 72 56 73 64 74 57 75 58 76
REMARK SMILES IDX 62 77 65 78 59 79 60 80 63 81 61 82 40 83 41 84 49 85 42 86
REMARK SMILES IDX 43 87 47 88 50 89 44 90 45 91 48 92 46 93
REMARK H PARENT 7 5 11 27 70 46 38 57
REMARK Flexibility Score: inf
ROOT
ATOM      1  C   UNL A   1      36.771  20.542  24.622  1.00  0.00     0.117 C 
ENDROOT
BRANCH   1   2
ATOM      2  N   UNL A   1      35.772  20.694  25.676  1.00  0.00    -0.354 N 
ATOM      3  C   UNL A   1      35.041  21.782  26.105  1.00  0.00     0.247 C 
ATOM      4  O   UNL A   1      34.447  21.617  27.171  1.00  0.00    -0.272 OA
ATOM      5  H   UNL A   1      35.585  19.865  26.175  1.00  0.00     0.163 HD
BRANCH   3   6
ATOM      6  C   UNL A   1      35.065  23.120  25.298  1.00  0.00     0.142 C 
ATOM      7  C   UNL A   1      34.291  24.108  26.208  1.00  0.00     0.048 C 
BRANCH   6   8
ATOM      8  C   UNL A   1      36.573  23.416  25.006  1.00  0.00     0.037 C 
ATOM      9  C   UNL A   1      37.420  23.911  26.161  1.00  0.00     0.007 C 
ENDBRANCH   6   8
BRANCH   6  10
ATOM     10  N   UNL A   1      34.391  23.015  23.979  1.00  0.00    -0.214 N 
ATOM     11  N   UNL A   1      34.749  23.850  22.979  1.00  0.00    -0.044 NA
ATOM     12  C   UNL A   1      33.240  22.339  23.577  1.00  0.00     0.156 A 
ATOM     13  N   UNL A   1      33.970  23.561  21.955  1.00  0.00    -0.024 NA
ATOM     14  N   UNL A   1      33.042  22.628  22.302  1.00  0.00    -0.113 NA
BRANCH  12  15
ATOM     15  C   UNL A   1      32.361  21.415  24.366  1.00  0.00     0.114 C 
BRANCH  15  16
ATOM     16  C   UNL A   1      32.498  19.945  24.015  1.00  0.00    -0.039 A 
ATOM     17  C   UNL A   1      32.290  19.506  22.695  1.00  0.00     0.004 A 
ATOM     18  C   UNL A   1      32.806  18.990  24.996  1.00  0.00     0.024 A 
ATOM     19  C   UNL A   1      32.452  18.163  22.350  1.00  0.00     0.002 A 
ATOM     20  C   UNL A   1      32.950  17.646  24.649  1.00  0.00     0.041 A 
ATOM     21  C   UNL A   1      32.788  17.232  23.329  1.00  0.00     0.020 A 
ATOM     22  Cl  UNL A   1      33.328  16.487  25.863  1.00  0.00    -0.084 Cl
ENDBRANCH  15  16
ENDBRANCH  12  15
ENDBRANCH   6  10
ENDBRANCH   3   6
ENDBRANCH   1   2
BRANCH   1  23
ATOM     23  C   UNL A   1      37.851  19.528  24.979  1.00  0.00     0.042 C 
BRANCH  23  24
ATOM     24  C   UNL A   1      39.047  20.130  25.696  1.00  0.00     0.118 C 
BRANCH  24  25
ATOM     25  N   UNL A   1      40.121  19.167  25.879  1.00  0.00    -0.352 N 
ATOM     26  C   UNL A   1      41.458  19.369  26.097  1.00  0.00     0.251 C 
ATOM     27  H   UNL A   1      39.844  18.223  25.839  1.00  0.00     0.163 HD
ATOM     28  O   UNL A   1      42.235  18.415  26.008  1.00  0.00    -0.269 OA
BRANCH  26  29
ATOM     29  C   UNL A   1      41.982  20.712  26.421  1.00  0.00     0.039 A 
ATOM     30  C   UNL A   1      42.209  21.617  25.380  1.00  0.00     0.014 A 
ATOM     31  C   UNL A   1      42.285  21.077  27.736  1.00  0.00     0.014 A 
ATOM     32  C   UNL A   1      42.691  22.896  25.663  1.00  0.00     0.010 A 
ATOM     33  C   UNL A   1      42.667  22.382  28.026  1.00  0.00     0.010 A 
ATOM     34  C   UNL A   1      42.895  23.300  26.992  1.00  0.00    -0.014 A 
BRANCH  34  35
ATOM     35  C   UNL A   1      43.383  24.664  27.318  1.00  0.00     0.031 A 
ATOM     36  C   UNL A   1      42.437  25.683  27.896  1.00  0.00     0.074 A 
ATOM     37  C   UNL A   1      44.657  25.002  27.043  1.00  0.00     0.049 A 
ATOM     38  N   UNL A   1      42.655  26.939  28.195  1.00  0.00    -0.248 NA
ATOM     39  C   UNL A   1      41.055  25.242  28.140  1.00  0.00     0.031 C 
ATOM     40  C   UNL A   1      45.654  24.119  26.435  1.00  0.00     0.029 A 
ATOM     41  N   UNL A   1      45.331  26.182  27.233  1.00  0.00    -0.354 N 
ATOM     42  C   UNL A   1      41.436  27.438  28.638  1.00  0.00     0.074 A 
ATOM     43  C   UNL A   1      40.471  26.370  28.515  1.00  0.00     0.031 C 
ATOM     44  C   UNL A   1      46.819  24.778  26.331  1.00  0.00     0.029 A 
ATOM     45  C   UNL A   1      46.643  26.138  26.830  1.00  0.00     0.049 A 
ATOM     46  H   UNL A   1      44.913  26.984  27.623  1.00  0.00     0.167 HD
ATOM     47  C   UNL A   1      41.155  28.668  29.129  1.00  0.00     0.037 A 
ATOM     48  C   UNL A   1      47.594  27.090  26.858  1.00  0.00     0.037 A 
ATOM     49  C   UNL A   1      42.127  29.717  29.285  1.00  0.00     0.049 A 
ATOM     50  C   UNL A   1      47.257  28.446  27.419  1.00  0.00     0.074 A 
ATOM     51  C   UNL A   1      41.961  30.974  29.838  1.00  0.00     0.029 A 
ATOM     52  N   UNL A   1      43.453  29.627  28.886  1.00  0.00    -0.354 N 
ATOM     53  N   UNL A   1      46.121  28.881  27.906  1.00  0.00    -0.248 NA
ATOM     54  C   UNL A   1      48.340  29.438  27.444  1.00  0.00     0.031 C 
ATOM     55  C   UNL A   1      43.174  31.662  29.731  1.00  0.00     0.029 A 
ATOM     56  C   UNL A   1      44.110  30.816  29.160  1.00  0.00     0.049 A 
ATOM     57  H   UNL A   1      43.866  28.836  28.470  1.00  0.00     0.167 HD
ATOM     58  C   UNL A   1      46.360  30.184  28.324  1.00  0.00     0.074 A 
ATOM     59  C   UNL A   1      47.753  30.462  28.046  1.00  0.00     0.031 C 
ATOM     60  C   UNL A   1      45.502  31.071  28.888  1.00  0.00     0.037 A 
BRANCH  47  61
ATOM     61  C   UNL A   1      39.736  28.945  29.538  1.00  0.00     0.064 A 
ATOM     62  C   UNL A   1      38.782  29.417  28.622  1.00  0.00     0.173 A 
ATOM     63  C   UNL A   1      39.315  28.706  30.855  1.00  0.00     0.173 A 
ATOM     64  F   UNL A   1      39.135  29.674  27.353  1.00  0.00    -0.203 F 
ATOM     65  C   UNL A   1      37.471  29.669  29.017  1.00  0.00     0.198 A 
ATOM     66  C   UNL A   1      37.995  28.929  31.238  1.00  0.00     0.198 A 
ATOM     67  F   UNL A   1      40.183  28.251  31.770  1.00  0.00    -0.203 F 
ATOM     68  F   UNL A   1      36.594  30.171  28.136  1.00  0.00    -0.200 F 
ATOM     69  C   UNL A   1      37.077  29.418  30.322  1.00  0.00     0.200 A 
ATOM     70  F   UNL A   1      37.612  28.673  32.497  1.00  0.00    -0.200 F 
ATOM     71  F   UNL A   1      35.813  29.655  30.698  1.00  0.00    -0.200 F 
ENDBRANCH  47  61
BRANCH  48  72
ATOM     72  C   UNL A   1      48.966  26.786  26.374  1.00  0.00     0.064 A 
ATOM     73  C   UNL A   1      49.318  26.996  25.033  1.00  0.00     0.173 A 
ATOM     74  C   UNL A   1      49.949  26.274  27.232  1.00  0.00     0.173 A 
ATOM     75  F   UNL A   1      48.405  27.467  24.169  1.00  0.00    -0.203 F 
ATOM     76  C   UNL A   1      50.592  26.686  24.564  1.00  0.00     0.198 A 
ATOM     77  C   UNL A   1      51.232  25.991  26.770  1.00  0.00     0.198 A 
ATOM     78  F   UNL A   1      49.666  26.062  28.526  1.00  0.00    -0.203 F 
ATOM     79  F   UNL A   1      50.886  26.853  23.269  1.00  0.00    -0.200 F 
ATOM     80  C   UNL A   1      51.551  26.189  25.434  1.00  0.00     0.200 A 
ATOM     81  F   UNL A   1      52.160  25.527  27.618  1.00  0.00    -0.200 F 
ATOM     82  F   UNL A   1      52.778  25.894  24.985  1.00  0.00    -0.200 F 
ENDBRANCH  48  72
BRANCH  60  83
ATOM     83  C   UNL A   1      46.058  32.408  29.280  1.00  0.00     0.064 A 
ATOM     84  C   UNL A   1      46.635  32.628  30.540  1.00  0.00     0.173 A 
ATOM     85  C   UNL A   1      46.041  33.476  28.370  1.00  0.00     0.173 A 
ATOM     86  F   UNL A   1      46.662  31.644  31.451  1.00  0.00    -0.203 F 
ATOM     87  C   UNL A   1      47.145  33.877  30.884  1.00  0.00     0.198 A 
ATOM     88  C   UNL A   1      46.582  34.714  28.706  1.00  0.00     0.198 A 
ATOM     89  F   UNL A   1      45.507  33.316  27.150  1.00  0.00    -0.203 F 
ATOM     90  F   UNL A   1      47.643  34.079  32.112  1.00  0.00    -0.200 F 
ATOM     91  C   UNL A   1      47.125  34.916  29.965  1.00  0.00     0.200 A 
ATOM     92  F   UNL A   1      46.574  35.712  27.812  1.00  0.00    -0.200 F 
ATOM     93  F   UNL A   1      47.622  36.115  30.296  1.00  0.00    -0.200 F 
ENDBRANCH  60  83
ENDBRANCH  34  35
ENDBRANCH  26  29
ENDBRANCH  24  25
ENDBRANCH  23  24
ENDBRANCH   1  23
TORSDOF 14
ENDMDL
MODEL 2
REMARK VINA RESULT:     -12.3      0.635      7.423
REMARK SMILES CC[C@](C)(C(=O)NCCCNC(=O)c1ccc(-c2c3nc(c(-c4c(F)c(F)c(F)c(F)c4F)c4ccc([nH]4)c(-c4c(F)c(F)c(F)c(F)c4F)c4nc(c(-c5c(F)c(F)c(F)c(F)c5F)c5ccc2[nH]5)C=C4)C=C3)cc1)n1nnnc1Cc1cccc(Cl)c1
REMARK SMILES IDX 8 1 7 2 5 3 6 4 3 6 4 7 2 8 1 9 77 10 78 11 81 12 79 13
REMARK SMILES IDX 80 14 82 15 83 16 84 17 89 18 85 19 87 20 86 21 88 22 9 23
REMARK SMILES IDX 10 24 11 25 12 26 13 28 14 29 15 30 76 31 16 32 75 33 17 34
REMARK SMILES IDX 18 35 19 36 69 37 20 38 74 39 68 40 70 41 21 42 73 43 67 44
REMARK SMILES IDX 66 45 22 47 54 48 34 49 53 50 35 51 38 52 52 53 71 54 36 55
REMARK SMILES IDX 37 56 51 58 72 59 39 60 23 61 24 62 32 63 25 64 26 65 30 66
REMARK SMILES IDX 33 67 27 68 28 69 31 70 29 71 55 72 56 73 64 74 57 75 58 76
REMARK SMILES IDX 62 77 65 78 59 79 60 80 63 81 61 82 40 83 41 84 49 85 42 86
REMARK SMILES IDX 43 87 47 88 50 89 44 90 45 91 48 92 46 93
REMARK H PARENT 7 5 11 27 70 46 38 57
REMARK Flexibility Score: inf
ROOT
ATOM      1  C   UNL A   1      36.727  20.504  24.600  1.00  0.00     0.117 C 
ENDROOT
BRANCH   1   2
ATOM      2  N   UNL A   1      35.768  20.665  25.689  1.00  0.00    -0.354 N 
ATOM      3  C   UNL A   1      35.072  21.761  26.152  1.00  0.00     0.247 C 
ATOM      4  O   UNL A   1      34.513  21.597  27.236  1.00  0.00    -0.272 OA
ATOM      5  H   UNL A   1      35.583  19.835  26.186  1.00  0.00     0.163 HD
BRANCH   3   6
ATOM      6  C   UNL A   1      35.094  23.107  25.357  1.00  0.00     0.142 C 
ATOM      7  C   UNL A   1      34.322  24.086  26.276  1.00  0.00     0.048 C 
BRANCH   6   8
ATOM      8  C   UNL A   1      36.601  23.406  25.064  1.00  0.00     0.037 C 
ATOM      9  C   UNL A   1      37.465  23.829  26.235  1.00  0.00     0.007 C 
ENDBRANCH   6   8
BRANCH   6  10
ATOM     10  N   UNL A   1      34.417  23.013  24.038  1.00  0.00    -0.214 N 
ATOM     11  N   UNL A   1      34.770  23.860  23.046  1.00  0.00    -0.044 NA
ATOM     12  C   UNL A   1      33.269  22.336  23.631  1.00  0.00     0.156 A 
ATOM     13  N   UNL A   1      33.989  23.579  22.021  1.00  0.00    -0.024 NA
ATOM     14  N   UNL A   1      33.066  22.637  22.360  1.00  0.00    -0.113 NA
BRANCH  12  15
ATOM     15  C   UNL A   1      32.397  21.399  24.412  1.00  0.00     0.114 C 
BRANCH  15  16
ATOM     16  C   UNL A   1      32.543  19.933  24.048  1.00  0.00    -0.039 A 
ATOM     17  C   UNL A   1      32.241  19.488  22.748  1.00  0.00     0.004 A 
ATOM     18  C   UNL A   1      32.953  18.986  24.998  1.00  0.00     0.024 A 
ATOM     19  C   UNL A   1      32.410  18.151  22.388  1.00  0.00     0.002 A 
ATOM     20  C   UNL A   1      33.103  17.646  24.638  1.00  0.00     0.041 A 
ATOM     21  C   UNL A   1      32.847  17.228  23.335  1.00  0.00     0.020 A 
ATOM     22  Cl  UNL A   1      33.608  16.497  25.816  1.00  0.00    -0.084 Cl
ENDBRANCH  15  16
ENDBRANCH  12  15
ENDBRANCH   6  10
ENDBRANCH   3   6
ENDBRANCH   1   2
BRANCH   1  23
ATOM     23  C   UNL A   1      37.889  19.591  24.971  1.00  0.00     0.042 C 
BRANCH  23  24
ATOM     24  C   UNL A   1      39.020  20.299  25.695  1.00  0.00     0.118 C 
BRANCH  24  25
ATOM     25  N   UNL A   1      40.095  19.389  26.060  1.00  0.00    -0.352 N 
ATOM     26  C   UNL A   1      41.395  19.653  26.403  1.00  0.00     0.251 C 
ATOM     27  H   UNL A   1      39.850  18.436  26.061  1.00  0.00     0.163 HD
ATOM     28  O   UNL A   1      42.203  18.723  26.466  1.00  0.00    -0.269 OA
BRANCH  26  29
ATOM     29  C   UNL A   1      41.844  21.034  26.679  1.00  0.00     0.039 A 
ATOM     30  C   UNL A   1      42.023  21.913  25.608  1.00  0.00     0.014 A 
ATOM     31  C   UNL A   1      42.125  21.460  27.981  1.00  0.00     0.014 A 
ATOM     32  C   UNL A   1      42.433  23.226  25.847  1.00  0.00     0.010 A 
ATOM     33  C   UNL A   1      42.434  22.793  28.226  1.00  0.00     0.010 A 
ATOM     34  C   UNL A   1      42.613  23.686  27.161  1.00  0.00    -0.014 A 
BRANCH  34  35
ATOM     35  C   UNL A   1      43.025  25.085  27.440  1.00  0.00     0.031 A 
ATOM     36  C   UNL A   1      44.429  25.532  27.135  1.00  0.00     0.074 A 
ATOM     37  C   UNL A   1      42.154  25.934  28.019  1.00  0.00     0.049 A 
ATOM     38  N   UNL A   1      44.996  26.691  27.356  1.00  0.00    -0.248 NA
ATOM     39  C   UNL A   1      45.325  24.535  26.530  1.00  0.00     0.031 C 
ATOM     40  C   UNL A   1      40.783  25.604  28.411  1.00  0.00     0.029 A 
ATOM     41  N   UNL A   1      42.296  27.249  28.385  1.00  0.00    -0.354 N 
ATOM     42  C   UNL A   1      46.314  26.552  26.939  1.00  0.00     0.074 A 
ATOM     43  C   UNL A   1      46.480  25.183  26.507  1.00  0.00     0.031 C 
ATOM     44  C   UNL A   1      40.200  26.695  28.932  1.00  0.00     0.029 A 
ATOM     45  C   UNL A   1      41.166  27.790  28.947  1.00  0.00     0.049 A 
ATOM     46  H   UNL A   1      43.130  27.757  28.256  1.00  0.00     0.167 HD
ATOM     47  C   UNL A   1      47.290  27.490  26.896  1.00  0.00     0.037 A 
ATOM     48  C   UNL A   1      40.936  29.028  29.422  1.00  0.00     0.037 A 
ATOM     49  C   UNL A   1      47.110  28.861  27.292  1.00  0.00     0.049 A 
ATOM     50  C   UNL A   1      42.036  30.054  29.351  1.00  0.00     0.074 A 
ATOM     51  C   UNL A   1      48.013  29.907  27.221  1.00  0.00     0.029 A 
ATOM     52  N   UNL A   1      45.942  29.377  27.836  1.00  0.00    -0.354 N 
ATOM     53  N   UNL A   1      43.254  29.932  28.884  1.00  0.00    -0.248 NA
ATOM     54  C   UNL A   1      41.722  31.395  29.864  1.00  0.00     0.031 C 
ATOM     55  C   UNL A   1      47.408  31.045  27.765  1.00  0.00     0.029 A 
ATOM     56  C   UNL A   1      46.111  30.722  28.125  1.00  0.00     0.049 A 
ATOM     57  H   UNL A   1      45.117  28.864  27.993  1.00  0.00     0.167 HD
ATOM     58  C   UNL A   1      43.841  31.184  29.018  1.00  0.00     0.074 A 
ATOM     59  C   UNL A   1      42.838  32.054  29.595  1.00  0.00     0.031 C 
ATOM     60  C   UNL A   1      45.097  31.577  28.690  1.00  0.00     0.037 A 
BRANCH  47  61
ATOM     61  C   UNL A   1      48.642  27.063  26.398  1.00  0.00     0.064 A 
ATOM     62  C   UNL A   1      49.620  26.550  27.264  1.00  0.00     0.173 A 
ATOM     63  C   UNL A   1      48.953  27.138  25.032  1.00  0.00     0.173 A 
ATOM     64  F   UNL A   1      49.379  26.468  28.582  1.00  0.00    -0.203 F 
ATOM     65  C   UNL A   1      50.868  26.160  26.787  1.00  0.00     0.198 A 
ATOM     66  C   UNL A   1      50.191  26.717  24.554  1.00  0.00     0.198 A 
ATOM     67  F   UNL A   1      48.054  27.616  24.158  1.00  0.00    -0.203 F 
ATOM     68  F   UNL A   1      51.804  25.725  27.642  1.00  0.00    -0.200 F 
ATOM     69  C   UNL A   1      51.150  26.236  25.431  1.00  0.00     0.200 A 
ATOM     70  F   UNL A   1      50.457  26.778  23.241  1.00  0.00    -0.200 F 
ATOM     71  F   UNL A   1      52.349  25.853  24.973  1.00  0.00    -0.200 F 
ENDBRANCH  47  61
BRANCH  48  72
ATOM     72  C   UNL A   1      39.601  29.379  29.971  1.00  0.00     0.064 A 
ATOM     73  C   UNL A   1      39.320  29.217  31.336  1.00  0.00     0.173 A 
ATOM     74  C   UNL A   1      38.578  29.875  29.151  1.00  0.00     0.173 A 
ATOM     75  F   UNL A   1      40.262  28.728  32.158  1.00  0.00    -0.203 F 
ATOM     76  C   UNL A   1      38.062  29.515  31.854  1.00  0.00     0.198 A 
ATOM     77  C   UNL A   1      37.329  30.201  29.674  1.00  0.00     0.198 A 
ATOM     78  F   UNL A   1      38.797  30.056  27.840  1.00  0.00    -0.203 F 
ATOM     79  F   UNL A   1      37.808  29.306  33.152  1.00  0.00    -0.200 F 
ATOM     80  C   UNL A   1      37.069  30.012  31.024  1.00  0.00     0.200 A 
ATOM     81  F   UNL A   1      36.377  30.697  28.872  1.00  0.00    -0.200 F 
ATOM     82  F   UNL A   1      35.860  30.304  31.523  1.00  0.00    -0.200 F 
ENDBRANCH  48  72
BRANCH  60  83
ATOM     83  C   UNL A   1      45.443  33.020  28.909  1.00  0.00     0.064 A 
ATOM     84  C   UNL A   1      46.069  33.460  30.084  1.00  0.00     0.173 A 
ATOM     85  C   UNL A   1      45.172  33.972  27.914  1.00  0.00     0.173 A 
ATOM     86  F   UNL A   1      46.335  32.592  31.073  1.00  0.00    -0.203 F 
ATOM     87  C   UNL A   1      46.383  34.805  30.268  1.00  0.00     0.198 A 
ATOM     88  C   UNL A   1      45.517  35.309  28.087  1.00  0.00     0.198 A 
ATOM     89  F   UNL A   1      44.581  33.602  26.767  1.00  0.00    -0.203 F 
ATOM     90  F   UNL A   1      46.932  35.210  31.421  1.00  0.00    -0.200 F 
ATOM     91  C   UNL A   1      46.113  35.726  29.267  1.00  0.00     0.200 A 
ATOM     92  F   UNL A   1      45.269  36.195  27.112  1.00  0.00    -0.200 F 
ATOM     93  F   UNL A   1      46.421  37.018  29.442  1.00  0.00    -0.200 F 
ENDBRANCH  60  83
ENDBRANCH  34  35
ENDBRANCH  26  29
ENDBRANCH  24  25
ENDBRANCH  23  24
ENDBRANCH   1  23
TORSDOF 14
ENDMDL
MODEL 3
REMARK VINA RESULT:     -12.3      0.170      2.022
REMARK SMILES CC[C@](C)(C(=O)NCCCNC(=O)c1ccc(-c2c3nc(c(-c4c(F)c(F)c(F)c(F)c4F)c4ccc([nH]4)c(-c4c(F)c(F)c(F)c(F)c4F)c4nc(c(-c5c(F)c(F)c(F)c(F)c5F)c5ccc2[nH]5)C=C4)C=C3)cc1)n1nnnc1Cc1cccc(Cl)c1
REMARK SMILES IDX 8 1 7 2 5 3 6 4 3 6 4 7 2 8 1 9 77 10 78 11 81 12 79 13
REMARK SMILES IDX 80 14 82 15 83 16 84 17 89 18 85 19 87 20 86 21 88 22 9 23
REMARK SMILES IDX 10 24 11 25 12 26 13 28 14 29 15 30 76 31 16 32 75 33 17 34
REMARK SMILES IDX 18 35 19 36 69 37 20 38 74 39 68 40 70 41 21 42 73 43 67 44
REMARK SMILES IDX 66 45 22 47 54 48 34 49 53 50 35 51 38 52 52 53 71 54 36 55
REMARK SMILES IDX 37 56 51 58 72 59 39 60 23 61 24 62 32 63 25 64 26 65 30 66
REMARK SMILES IDX 33 67 27 68 28 69 31 70 29 71 55 72 56 73 64 74 57 75 58 76
REMARK SMILES IDX 62 77 65 78 59 79 60 80 63 81 61 82 40 83 41 84 49 85 42 86
REMARK SMILES IDX 43 87 47 88 50 89 44 90 45 91 48 92 46 93
REMARK H PARENT 7 5 11 27 70 46 38 57
REMARK Flexibility Score: inf
ROOT
ATOM      1  C   UNL A   1      36.754  20.420  24.613  1.00  0.00     0.117 C 
ENDROOT
BRANCH   1   2
ATOM      2  N   UNL A   1      35.775  20.584  25.683  1.00  0.00    -0.354 N 
ATOM      3  C   UNL A   1      35.078  21.685  26.137  1.00  0.00     0.247 C 
ATOM      4  O   UNL A   1      34.495  21.521  27.209  1.00  0.00    -0.272 OA
ATOM      5  H   UNL A   1      35.574  19.754  26.174  1.00  0.00     0.163 HD
BRANCH   3   6
ATOM      6  C   UNL A   1      35.124  23.033  25.347  1.00  0.00     0.142 C 
ATOM      7  C   UNL A   1      34.391  24.027  26.280  1.00  0.00     0.048 C 
BRANCH   6   8
ATOM      8  C   UNL A   1      36.635  23.293  25.035  1.00  0.00     0.037 C 
ATOM      9  C   UNL A   1      37.467  23.942  26.123  1.00  0.00     0.007 C 
ENDBRANCH   6   8
BRANCH   6  10
ATOM     10  N   UNL A   1      34.428  22.962  24.037  1.00  0.00    -0.214 N 
ATOM     11  N   UNL A   1      34.780  23.813  23.048  1.00  0.00    -0.044 NA
ATOM     12  C   UNL A   1      33.263  22.308  23.640  1.00  0.00     0.156 A 
ATOM     13  N   UNL A   1      33.981  23.555  22.031  1.00  0.00    -0.024 NA
ATOM     14  N   UNL A   1      33.048  22.625  22.375  1.00  0.00    -0.113 NA
BRANCH  12  15
ATOM     15  C   UNL A   1      32.387  21.377  24.424  1.00  0.00     0.114 C 
BRANCH  15  16
ATOM     16  C   UNL A   1      32.513  19.912  24.052  1.00  0.00    -0.039 A 
ATOM     17  C   UNL A   1      32.288  19.490  22.730  1.00  0.00     0.004 A 
ATOM     18  C   UNL A   1      32.828  18.942  25.017  1.00  0.00     0.024 A 
ATOM     19  C   UNL A   1      32.441  18.152  22.365  1.00  0.00     0.002 A 
ATOM     20  C   UNL A   1      32.962  17.603  24.651  1.00  0.00     0.041 A 
ATOM     21  C   UNL A   1      32.784  17.206  23.328  1.00  0.00     0.020 A 
ATOM     22  Cl  UNL A   1      33.350  16.427  25.846  1.00  0.00    -0.084 Cl
ENDBRANCH  15  16
ENDBRANCH  12  15
ENDBRANCH   6  10
ENDBRANCH   3   6
ENDBRANCH   1   2
BRANCH   1  23
ATOM     23  C   UNL A   1      37.870  19.452  24.983  1.00  0.00     0.042 C 
BRANCH  23  24
ATOM     24  C   UNL A   1      39.016  20.095  25.744  1.00  0.00     0.118 C 
BRANCH  24  25
ATOM     25  N   UNL A   1      40.133  19.182  25.933  1.00  0.00    -0.352 N 
ATOM     26  C   UNL A   1      41.461  19.446  26.138  1.00  0.00     0.251 C 
ATOM     27  H   UNL A   1      39.897  18.227  25.910  1.00  0.00     0.163 HD
ATOM     28  O   UNL A   1      42.278  18.524  26.056  1.00  0.00    -0.269 OA
BRANCH  26  29
ATOM     29  C   UNL A   1      41.929  20.816  26.435  1.00  0.00     0.039 A 
ATOM     30  C   UNL A   1      42.140  21.182  27.767  1.00  0.00     0.014 A 
ATOM     31  C   UNL A   1      42.127  21.753  25.417  1.00  0.00     0.014 A 
ATOM     32  C   UNL A   1      42.596  22.467  28.071  1.00  0.00     0.010 A 
ATOM     33  C   UNL A   1      42.677  22.996  25.712  1.00  0.00     0.010 A 
ATOM     34  C   UNL A   1      42.897  23.375  27.043  1.00  0.00    -0.014 A 
BRANCH  34  35
ATOM     35  C   UNL A   1      43.406  24.737  27.342  1.00  0.00     0.031 A 
ATOM     36  C   UNL A   1      42.487  25.773  27.931  1.00  0.00     0.074 A 
ATOM     37  C   UNL A   1      44.677  25.058  27.031  1.00  0.00     0.049 A 
ATOM     38  N   UNL A   1      42.725  27.030  28.210  1.00  0.00    -0.248 NA
ATOM     39  C   UNL A   1      41.106  25.350  28.213  1.00  0.00     0.031 C 
ATOM     40  C   UNL A   1      45.649  24.157  26.409  1.00  0.00     0.029 A 
ATOM     41  N   UNL A   1      45.368  26.232  27.191  1.00  0.00    -0.354 N 
ATOM     42  C   UNL A   1      41.523  27.547  28.677  1.00  0.00     0.074 A 
ATOM     43  C   UNL A   1      40.543  26.488  28.590  1.00  0.00     0.031 C 
ATOM     44  C   UNL A   1      46.819  24.802  26.270  1.00  0.00     0.029 A 
ATOM     45  C   UNL A   1      46.669  26.170  26.756  1.00  0.00     0.049 A 
ATOM     46  H   UNL A   1      44.968  27.044  27.582  1.00  0.00     0.167 HD
ATOM     47  C   UNL A   1      41.267  28.785  29.160  1.00  0.00     0.037 A 
ATOM     48  C   UNL A   1      47.631  27.112  26.750  1.00  0.00     0.037 A 
ATOM     49  C   UNL A   1      42.254  29.825  29.281  1.00  0.00     0.049 A 
ATOM     50  C   UNL A   1      47.322  28.477  27.304  1.00  0.00     0.074 A 
ATOM     51  C   UNL A   1      42.115  31.090  29.823  1.00  0.00     0.029 A 
ATOM     52  N   UNL A   1      43.569  29.716  28.850  1.00  0.00    -0.354 N 
ATOM     53  N   UNL A   1      46.203  28.930  27.814  1.00  0.00    -0.248 NA
ATOM     54  C   UNL A   1      48.416  29.458  27.291  1.00  0.00     0.031 C 
ATOM     55  C   UNL A   1      43.332  31.764  29.678  1.00  0.00     0.029 A 
ATOM     56  C   UNL A   1      44.245  30.901  29.095  1.00  0.00     0.049 A 
ATOM     57  H   UNL A   1      43.963  28.917  28.433  1.00  0.00     0.167 HD
ATOM     58  C   UNL A   1      46.466  30.235  28.210  1.00  0.00     0.074 A 
ATOM     59  C   UNL A   1      47.856  30.494  27.895  1.00  0.00     0.031 C 
ATOM     60  C   UNL A   1      45.633  31.137  28.785  1.00  0.00     0.037 A 
BRANCH  47  61
ATOM     61  C   UNL A   1      39.861  29.083  29.601  1.00  0.00     0.064 A 
ATOM     62  C   UNL A   1      39.476  29.000  30.948  1.00  0.00     0.173 A 
ATOM     63  C   UNL A   1      38.894  29.488  28.668  1.00  0.00     0.173 A 
ATOM     64  F   UNL A   1      40.359  28.606  31.879  1.00  0.00    -0.203 F 
ATOM     65  C   UNL A   1      38.169  29.278  31.339  1.00  0.00     0.198 A 
ATOM     66  C   UNL A   1      37.596  29.797  29.068  1.00  0.00     0.198 A 
ATOM     67  F   UNL A   1      39.209  29.589  27.368  1.00  0.00    -0.203 F 
ATOM     68  F   UNL A   1      37.813  29.138  32.624  1.00  0.00    -0.200 F 
ATOM     69  C   UNL A   1      37.233  29.684  30.400  1.00  0.00     0.200 A 
ATOM     70  F   UNL A   1      36.696  30.202  28.161  1.00  0.00    -0.200 F 
ATOM     71  F   UNL A   1      35.977  29.958  30.780  1.00  0.00    -0.200 F 
ENDBRANCH  47  61
BRANCH  48  72
ATOM     72  C   UNL A   1      48.987  26.787  26.236  1.00  0.00     0.064 A 
ATOM     73  C   UNL A   1      49.959  26.227  27.078  1.00  0.00     0.173 A 
ATOM     74  C   UNL A   1      49.344  27.032  24.903  1.00  0.00     0.173 A 
ATOM     75  F   UNL A   1      49.670  25.990  28.367  1.00  0.00    -0.203 F 
ATOM     76  C   UNL A   1      51.241  25.946  26.612  1.00  0.00     0.198 A 
ATOM     77  C   UNL A   1      50.618  26.725  24.430  1.00  0.00     0.198 A 
ATOM     78  F   UNL A   1      48.449  27.560  24.055  1.00  0.00    -0.203 F 
ATOM     79  F   UNL A   1      52.163  25.455  27.450  1.00  0.00    -0.200 F 
ATOM     80  C   UNL A   1      51.569  26.190  25.287  1.00  0.00     0.200 A 
ATOM     81  F   UNL A   1      50.924  26.947  23.145  1.00  0.00    -0.200 F 
ATOM     82  F   UNL A   1      52.801  25.917  24.838  1.00  0.00    -0.200 F 
ENDBRANCH  48  72
BRANCH  60  83
ATOM     83  C   UNL A   1      46.212  32.473  29.148  1.00  0.00     0.064 A 
ATOM     84  C   UNL A   1      46.221  33.546  28.244  1.00  0.00     0.173 A 
ATOM     85  C   UNL A   1      46.736  32.691  30.432  1.00  0.00     0.173 A 
ATOM     86  F   UNL A   1      45.746  33.383  27.000  1.00  0.00    -0.203 F 
ATOM     87  C   UNL A   1      46.763  34.778  28.602  1.00  0.00     0.198 A 
ATOM     88  C   UNL A   1      47.246  33.934  30.796  1.00  0.00     0.198 A 
ATOM     89  F   UNL A   1      46.744  31.701  31.336  1.00  0.00    -0.203 F 
ATOM     90  F   UNL A   1      46.810  35.771  27.704  1.00  0.00    -0.200 F 
ATOM     91  C   UNL A   1      47.268  34.972  29.879  1.00  0.00     0.200 A 
ATOM     92  F   UNL A   1      47.721  34.124  32.035  1.00  0.00    -0.200 F 
ATOM     93  F   UNL A   1      47.783  36.160  30.223  1.00  0.00    -0.200 F 
ENDBRANCH  60  83
ENDBRANCH  34  35
ENDBRANCH  26  29
ENDBRANCH  24  25
ENDBRANCH  23  24
ENDBRANCH   1  23
TORSDOF 14
ENDMDL
