MODEL 1
REMARK VINA RESULT:     -14.2      0.000      0.000
REMARK SMILES O=C(NCCCNC(=O)[C@@H]1CCCC[C@H]1C(=O)Nc1sc2c(c1C(=O)NC1CCCC1)CCC2)c1ccc(-c2c3nc(c(-c4c(F)c(F)c(F)c(F)c4F)c4ccc([nH]4)c(-c4c(F)c(F)c(F)c(F)c4F)c4nc(c(-c5c(F)c(F)c(F)c(F)c5F)c5ccc2[nH]5)C=C4)C=C3)cc1
REMARK SMILES IDX 6 1 5 2 4 3 3 4 1 5 2 6 35 8 36 9 97 10 37 11 96 12 38 13
REMARK SMILES IDX 39 14 40 15 90 16 41 17 95 18 89 19 91 20 42 21 94 22 88 23
REMARK SMILES IDX 87 24 43 26 75 27 55 28 74 29 56 30 59 31 73 32 92 33 57 34
REMARK SMILES IDX 58 35 72 37 93 38 60 39 44 40 45 41 53 42 46 43 47 44 51 45
REMARK SMILES IDX 54 46 48 47 49 48 52 49 50 50 76 51 77 52 85 53 78 54 79 55
REMARK SMILES IDX 83 56 86 57 80 58 81 59 84 60 82 61 61 62 62 63 70 64 63 65
REMARK SMILES IDX 64 66 68 67 71 68 65 69 66 70 69 71 67 72 7 73 8 74 9 76
REMARK SMILES IDX 10 77 11 78 15 79 12 80 14 81 13 82 16 83 17 84 18 85 19 87
REMARK SMILES IDX 20 88 23 89 21 90 22 91 34 92 32 93 33 94 24 95 25 96 26 97
REMARK SMILES IDX 27 99 28 100 31 101 29 102 30 103
REMARK H PARENT 3 7 91 25 59 36 7 75 18 86 26 98
REMARK Flexibility Score: inf
ROOT
ATOM      1  C   UNL A   1      33.846  27.295  25.924  1.00  0.00     0.117 C 
ENDROOT
BRANCH   1   2
ATOM      2  C   UNL A   1      33.623  28.364  26.996  1.00  0.00     0.042 C 
BRANCH   2   3
ATOM      3  C   UNL A   1      34.484  29.613  26.842  1.00  0.00     0.118 C 
BRANCH   3   4
ATOM      4  N   UNL A   1      34.733  30.340  28.073  1.00  0.00    -0.352 N 
ATOM      5  O   UNL A   1      35.639  31.186  29.908  1.00  0.00    -0.269 OA
ATOM      6  C   UNL A   1      35.799  30.463  28.921  1.00  0.00     0.251 C 
ATOM      7  H   UNL A   1      33.955  30.867  28.365  1.00  0.00     0.163 HD
BRANCH   6   8
ATOM      8  C   UNL A   1      37.108  29.776  28.755  1.00  0.00     0.039 A 
ATOM      9  C   UNL A   1      37.996  29.982  27.698  1.00  0.00     0.014 A 
ATOM     10  C   UNL A   1      37.496  28.917  29.800  1.00  0.00     0.014 A 
ATOM     11  C   UNL A   1      39.228  29.325  27.669  1.00  0.00     0.010 A 
ATOM     12  C   UNL A   1      38.739  28.285  29.794  1.00  0.00     0.010 A 
ATOM     13  C   UNL A   1      39.611  28.490  28.725  1.00  0.00    -0.014 A 
BRANCH  13  14
ATOM     14  C   UNL A   1      41.012  28.052  28.790  1.00  0.00     0.031 A 
ATOM     15  C   UNL A   1      41.313  26.780  28.065  1.00  0.00     0.074 A 
ATOM     16  C   UNL A   1      42.034  28.805  29.247  1.00  0.00     0.049 A 
ATOM     17  N   UNL A   1      41.948  25.736  28.498  1.00  0.00    -0.248 NA
ATOM     18  C   UNL A   1      40.816  26.643  26.685  1.00  0.00     0.031 C 
ATOM     19  C   UNL A   1      41.962  30.200  29.676  1.00  0.00     0.029 A 
ATOM     20  N   UNL A   1      43.378  28.523  29.301  1.00  0.00    -0.354 N 
ATOM     21  C   UNL A   1      42.072  24.880  27.404  1.00  0.00     0.074 A 
ATOM     22  C   UNL A   1      41.271  25.436  26.348  1.00  0.00     0.031 C 
ATOM     23  C   UNL A   1      43.211  30.708  29.739  1.00  0.00     0.029 A 
ATOM     24  C   UNL A   1      44.172  29.649  29.465  1.00  0.00     0.049 A 
ATOM     25  H   UNL A   1      43.742  27.611  29.232  1.00  0.00     0.167 HD
ATOM     26  C   UNL A   1      43.019  23.904  27.373  1.00  0.00     0.037 A 
ATOM     27  C   UNL A   1      45.517  29.744  29.332  1.00  0.00     0.037 A 
ATOM     28  C   UNL A   1      43.524  23.604  28.683  1.00  0.00     0.049 A 
ATOM     29  C   UNL A   1      46.118  28.400  29.482  1.00  0.00     0.074 A 
ATOM     30  C   UNL A   1      43.073  22.974  29.821  1.00  0.00     0.029 A 
ATOM     31  N   UNL A   1      44.675  24.258  29.015  1.00  0.00    -0.354 N 
ATOM     32  N   UNL A   1      46.183  27.743  30.606  1.00  0.00    -0.248 NA
ATOM     33  C   UNL A   1      46.505  27.643  28.296  1.00  0.00     0.031 C 
ATOM     34  C   UNL A   1      43.873  23.470  30.893  1.00  0.00     0.029 A 
ATOM     35  C   UNL A   1      44.778  24.393  30.371  1.00  0.00     0.049 A 
ATOM     36  H   UNL A   1      45.339  24.588  28.368  1.00  0.00     0.167 HD
ATOM     37  C   UNL A   1      46.190  26.418  30.223  1.00  0.00     0.074 A 
ATOM     38  C   UNL A   1      46.601  26.423  28.830  1.00  0.00     0.031 C 
ATOM     39  C   UNL A   1      45.517  25.487  30.957  1.00  0.00     0.037 A 
BRANCH  26  40
ATOM     40  C   UNL A   1      43.842  23.554  26.144  1.00  0.00     0.064 A 
ATOM     41  C   UNL A   1      43.884  22.207  25.719  1.00  0.00     0.173 A 
ATOM     42  C   UNL A   1      44.859  24.384  25.624  1.00  0.00     0.173 A 
ATOM     43  F   UNL A   1      42.974  21.323  26.158  1.00  0.00    -0.203 F 
ATOM     44  C   UNL A   1      44.924  21.713  24.926  1.00  0.00     0.198 A 
ATOM     45  C   UNL A   1      45.864  23.896  24.789  1.00  0.00     0.198 A 
ATOM     46  F   UNL A   1      44.992  25.662  25.994  1.00  0.00    -0.203 F 
ATOM     47  F   UNL A   1      45.000  20.398  24.670  1.00  0.00    -0.200 F 
ATOM     48  C   UNL A   1      45.920  22.555  24.472  1.00  0.00     0.200 A 
ATOM     49  F   UNL A   1      46.834  24.724  24.372  1.00  0.00    -0.200 F 
ATOM     50  F   UNL A   1      46.958  22.071  23.777  1.00  0.00    -0.200 F 
ENDBRANCH  26  40
BRANCH  27  51
ATOM     51  C   UNL A   1      46.340  30.921  28.956  1.00  0.00     0.064 A 
ATOM     52  C   UNL A   1      46.273  31.472  27.665  1.00  0.00     0.173 A 
ATOM     53  C   UNL A   1      47.028  31.681  29.923  1.00  0.00     0.173 A 
ATOM     54  F   UNL A   1      45.597  30.843  26.693  1.00  0.00    -0.203 F 
ATOM     55  C   UNL A   1      46.842  32.714  27.365  1.00  0.00     0.198 A 
ATOM     56  C   UNL A   1      47.613  32.909  29.616  1.00  0.00     0.198 A 
ATOM     57  F   UNL A   1      47.071  31.290  31.204  1.00  0.00    -0.203 F 
ATOM     58  F   UNL A   1      46.697  33.235  26.139  1.00  0.00    -0.200 F 
ATOM     59  C   UNL A   1      47.508  33.432  28.342  1.00  0.00     0.200 A 
ATOM     60  F   UNL A   1      48.229  33.608  30.580  1.00  0.00    -0.200 F 
ATOM     61  F   UNL A   1      48.010  34.644  28.069  1.00  0.00    -0.200 F 
ENDBRANCH  27  51
BRANCH  39  62
ATOM     62  C   UNL A   1      45.351  25.759  32.418  1.00  0.00     0.064 A 
ATOM     63  C   UNL A   1      46.294  25.424  33.401  1.00  0.00     0.173 A 
ATOM     64  C   UNL A   1      44.190  26.432  32.828  1.00  0.00     0.173 A 
ATOM     65  F   UNL A   1      47.468  24.868  33.071  1.00  0.00    -0.203 F 
ATOM     66  C   UNL A   1      46.048  25.688  34.746  1.00  0.00     0.198 A 
ATOM     67  C   UNL A   1      43.969  26.733  34.168  1.00  0.00     0.198 A 
ATOM     68  F   UNL A   1      43.279  26.820  31.923  1.00  0.00    -0.203 F 
ATOM     69  F   UNL A   1      46.941  25.319  35.676  1.00  0.00    -0.200 F 
ATOM     70  C   UNL A   1      44.888  26.344  35.128  1.00  0.00     0.200 A 
ATOM     71  F   UNL A   1      42.867  27.408  34.526  1.00  0.00    -0.200 F 
ATOM     72  F   UNL A   1      44.664  26.617  36.420  1.00  0.00    -0.200 F 
ENDBRANCH  39  62
ENDBRANCH  13  14
ENDBRANCH   6   8
ENDBRANCH   3   4
ENDBRANCH   2   3
ENDBRANCH   1   2
BRANCH   1  73
ATOM     73  N   UNL A   1      34.041  27.866  24.605  1.00  0.00    -0.356 N 
ATOM     74  C   UNL A   1      33.327  27.932  23.464  1.00  0.00     0.223 C 
ATOM     75  H   UNL A   1      34.911  28.318  24.524  1.00  0.00     0.163 HD
ATOM     76  O   UNL A   1      33.850  28.638  22.585  1.00  0.00    -0.275 OA
BRANCH  74  77
ATOM     77  C   UNL A   1      31.984  27.250  23.136  1.00  0.00     0.091 C 
ATOM     78  C   UNL A   1      30.881  27.969  23.945  1.00  0.00     0.014 C 
ATOM     79  C   UNL A   1      31.794  25.733  23.102  1.00  0.00     0.091 C 
ATOM     80  C   UNL A   1      29.483  27.524  23.531  1.00  0.00     0.001 C 
ATOM     81  C   UNL A   1      30.338  25.268  22.896  1.00  0.00     0.014 C 
ATOM     82  C   UNL A   1      29.329  26.029  23.742  1.00  0.00     0.001 C 
BRANCH  79  83
ATOM     83  C   UNL A   1      32.674  24.992  22.091  1.00  0.00     0.228 C 
ATOM     84  O   UNL A   1      33.192  25.643  21.172  1.00  0.00    -0.274 OA
ATOM     85  N   UNL A   1      32.980  23.658  22.135  1.00  0.00    -0.317 N 
ATOM     86  H   UNL A   1      32.980  23.158  21.286  1.00  0.00     0.170 HD
BRANCH  85  87
ATOM     87  C   UNL A   1      33.289  22.970  23.290  1.00  0.00     0.108 A 
ATOM     88  S   UNL A   1      34.504  23.779  24.185  1.00  0.00    -0.122 S 
ATOM     89  C   UNL A   1      32.957  21.699  23.786  1.00  0.00     0.078 A 
ATOM     90  C   UNL A   1      34.347  22.658  25.399  1.00  0.00     0.011 A 
ATOM     91  C   UNL A   1      33.462  21.635  25.141  1.00  0.00    -0.019 A 
ATOM     92  C   UNL A   1      35.052  22.580  26.698  1.00  0.00     0.047 C 
ATOM     93  C   UNL A   1      33.448  20.736  26.340  1.00  0.00     0.038 C 
ATOM     94  C   UNL A   1      34.144  21.587  27.445  1.00  0.00     0.010 C 
BRANCH  89  95
ATOM     95  C   UNL A   1      32.270  20.741  22.883  1.00  0.00     0.254 C 
ATOM     96  O   UNL A   1      31.648  21.143  21.911  1.00  0.00    -0.269 OA
ATOM     97  N   UNL A   1      32.190  19.385  23.127  1.00  0.00    -0.349 N 
ATOM     98  H   UNL A   1      31.440  18.923  22.686  1.00  0.00     0.164 HD
BRANCH  97  99
ATOM     99  C   UNL A   1      33.031  18.552  23.923  1.00  0.00     0.082 C 
ATOM    100  C   UNL A   1      32.371  17.736  25.028  1.00  0.00     0.025 C 
ATOM    101  C   UNL A   1      33.650  17.453  23.067  1.00  0.00     0.025 C 
ATOM    102  C   UNL A   1      33.475  16.731  25.377  1.00  0.00     0.002 C 
ATOM    103  C   UNL A   1      34.244  16.483  24.076  1.00  0.00     0.002 C 
ENDBRANCH  97  99
ENDBRANCH  89  95
ENDBRANCH  85  87
ENDBRANCH  79  83
ENDBRANCH  74  77
ENDBRANCH   1  73
TORSDOF 14
ENDMDL
MODEL 2
REMARK VINA RESULT:     -14.0      3.618      7.875
REMARK SMILES O=C(NCCCNC(=O)[C@@H]1CCCC[C@H]1C(=O)Nc1sc2c(c1C(=O)NC1CCCC1)CCC2)c1ccc(-c2c3nc(c(-c4c(F)c(F)c(F)c(F)c4F)c4ccc([nH]4)c(-c4c(F)c(F)c(F)c(F)c4F)c4nc(c(-c5c(F)c(F)c(F)c(F)c5F)c5ccc2[nH]5)C=C4)C=C3)cc1
REMARK SMILES IDX 6 1 5 2 4 3 3 4 1 5 2 6 35 8 36 9 97 10 37 11 96 12 38 13
REMARK SMILES IDX 39 14 40 15 90 16 41 17 95 18 89 19 91 20 42 21 94 22 88 23
REMARK SMILES IDX 87 24 43 26 75 27 55 28 74 29 56 30 59 31 73 32 92 33 57 34
REMARK SMILES IDX 58 35 72 37 93 38 60 39 44 40 45 41 53 42 46 43 47 44 51 45
REMARK SMILES IDX 54 46 48 47 49 48 52 49 50 50 76 51 77 52 85 53 78 54 79 55
REMARK SMILES IDX 83 56 86 57 80 58 81 59 84 60 82 61 61 62 62 63 70 64 63 65
REMARK SMILES IDX 64 66 68 67 71 68 65 69 66 70 69 71 67 72 7 73 8 74 9 76
REMARK SMILES IDX 10 77 11 78 15 79 12 80 14 81 13 82 16 83 17 84 18 85 19 87
REMARK SMILES IDX 20 88 23 89 21 90 22 91 34 92 32 93 33 94 24 95 25 96 26 97
REMARK SMILES IDX 27 99 28 100 31 101 29 102 30 103
REMARK H PARENT 3 7 91 25 59 36 7 75 18 86 26 98
REMARK Flexibility Score: inf
ROOT
ATOM      1  C   UNL A   1      35.656  23.209  26.272  1.00  0.00     0.117 C 
ENDROOT
BRANCH   1   2
ATOM      2  C   UNL A   1      36.279  21.963  25.640  1.00  0.00     0.042 C 
BRANCH   2   3
ATOM      3  C   UNL A   1      37.721  22.133  25.175  1.00  0.00     0.118 C 
BRANCH   3   4
ATOM      4  N   UNL A   1      38.697  21.351  25.911  1.00  0.00    -0.352 N 
ATOM      5  O   UNL A   1      40.388  20.691  27.178  1.00  0.00    -0.269 OA
ATOM      6  C   UNL A   1      39.760  21.648  26.719  1.00  0.00     0.251 C 
ATOM      7  H   UNL A   1      38.563  20.381  25.805  1.00  0.00     0.163 HD
BRANCH   6   8
ATOM      8  C   UNL A   1      40.222  23.022  27.055  1.00  0.00     0.039 A 
ATOM      9  C   UNL A   1      39.585  24.201  26.666  1.00  0.00     0.014 A 
ATOM     10  C   UNL A   1      41.343  23.111  27.901  1.00  0.00     0.014 A 
ATOM     11  C   UNL A   1      40.073  25.441  27.086  1.00  0.00     0.010 A 
ATOM     12  C   UNL A   1      41.814  24.344  28.351  1.00  0.00     0.010 A 
ATOM     13  C   UNL A   1      41.176  25.515  27.943  1.00  0.00    -0.014 A 
BRANCH  13  14
ATOM     14  C   UNL A   1      41.475  26.806  28.579  1.00  0.00     0.031 A 
ATOM     15  C   UNL A   1      42.683  27.509  28.051  1.00  0.00     0.074 A 
ATOM     16  C   UNL A   1      40.640  27.467  29.409  1.00  0.00     0.049 A 
ATOM     17  N   UNL A   1      43.673  28.019  28.714  1.00  0.00    -0.248 NA
ATOM     18  C   UNL A   1      42.818  27.636  26.590  1.00  0.00     0.031 C 
ATOM     19  C   UNL A   1      39.275  27.079  29.759  1.00  0.00     0.029 A 
ATOM     20  N   UNL A   1      40.788  28.693  30.011  1.00  0.00    -0.354 N 
ATOM     21  C   UNL A   1      44.472  28.668  27.774  1.00  0.00     0.074 A 
ATOM     22  C   UNL A   1      43.962  28.313  26.478  1.00  0.00     0.031 C 
ATOM     23  C   UNL A   1      38.649  28.133  30.325  1.00  0.00     0.029 A 
ATOM     24  C   UNL A   1      39.596  29.228  30.476  1.00  0.00     0.049 A 
ATOM     25  H   UNL A   1      41.657  29.148  30.103  1.00  0.00     0.167 HD
ATOM     26  C   UNL A   1      45.347  29.642  28.140  1.00  0.00     0.037 A 
ATOM     27  C   UNL A   1      39.362  30.492  30.905  1.00  0.00     0.037 A 
ATOM     28  C   UNL A   1      45.643  29.598  29.545  1.00  0.00     0.049 A 
ATOM     29  C   UNL A   1      40.644  31.118  31.298  1.00  0.00     0.074 A 
ATOM     30  C   UNL A   1      46.355  28.791  30.403  1.00  0.00     0.029 A 
ATOM     31  N   UNL A   1      44.890  30.437  30.314  1.00  0.00    -0.354 N 
ATOM     32  N   UNL A   1      41.332  30.788  32.355  1.00  0.00    -0.248 NA
ATOM     33  C   UNL A   1      41.315  32.032  30.380  1.00  0.00     0.031 C 
ATOM     34  C   UNL A   1      45.821  29.028  31.706  1.00  0.00     0.029 A 
ATOM     35  C   UNL A   1      44.795  29.963  31.592  1.00  0.00     0.049 A 
ATOM     36  H   UNL A   1      44.472  31.269  29.993  1.00  0.00     0.167 HD
ATOM     37  C   UNL A   1      42.635  31.090  32.019  1.00  0.00     0.074 A 
ATOM     38  C   UNL A   1      42.538  32.031  30.916  1.00  0.00     0.031 C 
ATOM     39  C   UNL A   1      43.654  30.280  32.421  1.00  0.00     0.037 A 
BRANCH  26  40
ATOM     40  C   UNL A   1      45.569  30.927  27.359  1.00  0.00     0.064 A 
ATOM     41  C   UNL A   1      46.888  31.274  26.988  1.00  0.00     0.173 A 
ATOM     42  C   UNL A   1      44.629  31.979  27.304  1.00  0.00     0.173 A 
ATOM     43  F   UNL A   1      47.868  30.358  27.012  1.00  0.00    -0.203 F 
ATOM     44  C   UNL A   1      47.252  32.591  26.692  1.00  0.00     0.198 A 
ATOM     45  C   UNL A   1      44.988  33.281  26.957  1.00  0.00     0.198 A 
ATOM     46  F   UNL A   1      43.360  31.820  27.698  1.00  0.00    -0.203 F 
ATOM     47  F   UNL A   1      48.541  32.897  26.490  1.00  0.00    -0.200 F 
ATOM     48  C   UNL A   1      46.303  33.596  26.689  1.00  0.00     0.200 A 
ATOM     49  F   UNL A   1      44.058  34.248  26.977  1.00  0.00    -0.200 F 
ATOM     50  F   UNL A   1      46.662  34.871  26.482  1.00  0.00    -0.200 F 
ENDBRANCH  26  40
BRANCH  27  51
ATOM     51  C   UNL A   1      38.096  31.267  30.889  1.00  0.00     0.064 A 
ATOM     52  C   UNL A   1      37.457  31.591  29.680  1.00  0.00     0.173 A 
ATOM     53  C   UNL A   1      37.357  31.499  32.066  1.00  0.00     0.173 A 
ATOM     54  F   UNL A   1      38.065  31.359  28.507  1.00  0.00    -0.203 F 
ATOM     55  C   UNL A   1      36.153  32.096  29.649  1.00  0.00     0.198 A 
ATOM     56  C   UNL A   1      36.065  32.023  32.034  1.00  0.00     0.198 A 
ATOM     57  F   UNL A   1      37.838  31.139  33.264  1.00  0.00    -0.203 F 
ATOM     58  F   UNL A   1      35.556  32.328  28.473  1.00  0.00    -0.200 F 
ATOM     59  C   UNL A   1      35.458  32.308  30.826  1.00  0.00     0.200 A 
ATOM     60  F   UNL A   1      35.392  32.194  33.181  1.00  0.00    -0.200 F 
ATOM     61  F   UNL A   1      34.192  32.745  30.797  1.00  0.00    -0.200 F 
ENDBRANCH  27  51
BRANCH  39  62
ATOM     62  C   UNL A   1      43.452  29.504  33.683  1.00  0.00     0.064 A 
ATOM     63  C   UNL A   1      43.756  29.983  34.967  1.00  0.00     0.173 A 
ATOM     64  C   UNL A   1      42.885  28.226  33.581  1.00  0.00     0.173 A 
ATOM     65  F   UNL A   1      44.210  31.231  35.149  1.00  0.00    -0.203 F 
ATOM     66  C   UNL A   1      43.564  29.184  36.091  1.00  0.00     0.198 A 
ATOM     67  C   UNL A   1      42.653  27.448  34.710  1.00  0.00     0.198 A 
ATOM     68  F   UNL A   1      42.529  27.739  32.381  1.00  0.00    -0.203 F 
ATOM     69  F   UNL A   1      43.902  29.642  37.305  1.00  0.00    -0.200 F 
ATOM     70  C   UNL A   1      43.011  27.919  35.962  1.00  0.00     0.200 A 
ATOM     71  F   UNL A   1      42.076  26.245  34.584  1.00  0.00    -0.200 F 
ATOM     72  F   UNL A   1      42.806  27.161  37.048  1.00  0.00    -0.200 F 
ENDBRANCH  39  62
ENDBRANCH  13  14
ENDBRANCH   6   8
ENDBRANCH   3   4
ENDBRANCH   2   3
ENDBRANCH   1   2
BRANCH   1  73
ATOM     73  N   UNL A   1      34.640  22.884  27.253  1.00  0.00    -0.356 N 
ATOM     74  C   UNL A   1      33.367  22.441  27.219  1.00  0.00     0.223 C 
ATOM     75  H   UNL A   1      34.959  23.020  28.174  1.00  0.00     0.163 HD
ATOM     76  O   UNL A   1      32.894  22.186  28.340  1.00  0.00    -0.275 OA
BRANCH  74  77
ATOM     77  C   UNL A   1      32.463  22.228  25.989  1.00  0.00     0.091 C 
ATOM     78  C   UNL A   1      33.214  21.302  25.007  1.00  0.00     0.014 C 
ATOM     79  C   UNL A   1      31.723  23.363  25.279  1.00  0.00     0.091 C 
ATOM     80  C   UNL A   1      32.325  20.844  23.856  1.00  0.00     0.001 C 
ATOM     81  C   UNL A   1      30.992  22.948  23.986  1.00  0.00     0.014 C 
ATOM     82  C   UNL A   1      31.817  22.046  23.081  1.00  0.00     0.001 C 
BRANCH  79  83
ATOM     83  C   UNL A   1      30.733  24.139  26.153  1.00  0.00     0.228 C 
ATOM     84  O   UNL A   1      30.471  23.696  27.282  1.00  0.00    -0.274 OA
ATOM     85  N   UNL A   1      30.131  25.320  25.812  1.00  0.00    -0.317 N 
ATOM     86  H   UNL A   1      29.179  25.434  26.038  1.00  0.00     0.170 HD
BRANCH  85  87
ATOM     87  C   UNL A   1      30.772  26.361  25.172  1.00  0.00     0.108 A 
ATOM     88  S   UNL A   1      32.188  26.827  26.015  1.00  0.00    -0.122 S 
ATOM     89  C   UNL A   1      30.429  27.210  24.107  1.00  0.00     0.078 A 
ATOM     90  C   UNL A   1      32.549  27.900  24.802  1.00  0.00     0.011 A 
ATOM     91  C   UNL A   1      31.608  27.991  23.801  1.00  0.00    -0.019 A 
ATOM     92  C   UNL A   1      33.716  28.801  24.666  1.00  0.00     0.047 C 
ATOM     93  C   UNL A   1      32.105  28.993  22.803  1.00  0.00     0.038 C 
ATOM     94  C   UNL A   1      33.609  29.165  23.175  1.00  0.00     0.010 C 
BRANCH  89  95
ATOM     95  C   UNL A   1      29.035  27.181  23.596  1.00  0.00     0.254 C 
ATOM     96  O   UNL A   1      28.373  26.156  23.659  1.00  0.00    -0.269 OA
ATOM     97  N   UNL A   1      28.443  28.236  22.934  1.00  0.00    -0.349 N 
ATOM     98  H   UNL A   1      27.691  27.994  22.346  1.00  0.00     0.164 HD
BRANCH  97  99
ATOM     99  C   UNL A   1      28.758  29.628  22.972  1.00  0.00     0.082 C 
ATOM    100  C   UNL A   1      29.007  30.330  21.643  1.00  0.00     0.025 C 
ATOM    101  C   UNL A   1      27.576  30.423  23.515  1.00  0.00     0.025 C 
ATOM    102  C   UNL A   1      28.927  31.807  22.049  1.00  0.00     0.002 C 
ATOM    103  C   UNL A   1      27.925  31.870  23.206  1.00  0.00     0.002 C 
ENDBRANCH  97  99
ENDBRANCH  89  95
ENDBRANCH  85  87
ENDBRANCH  79  83
ENDBRANCH  74  77
ENDBRANCH   1  73
TORSDOF 14
ENDMDL
MODEL 3
REMARK VINA RESULT:     -13.9      1.705      6.554
REMARK SMILES O=C(NCCCNC(=O)[C@@H]1CCCC[C@H]1C(=O)Nc1sc2c(c1C(=O)NC1CCCC1)CCC2)c1ccc(-c2c3nc(c(-c4c(F)c(F)c(F)c(F)c4F)c4ccc([nH]4)c(-c4c(F)c(F)c(F)c(F)c4F)c4nc(c(-c5c(F)c(F)c(F)c(F)c5F)c5ccc2[nH]5)C=C4)C=C3)cc1
REMARK SMILES IDX 6 1 5 2 4 3 3 4 1 5 2 6 35 8 36 9 97 10 37 11 96 12 38 13
REMARK SMILES IDX 39 14 40 15 90 16 41 17 95 18 89 19 91 20 42 21 94 22 88 23
REMARK SMILES IDX 87 24 43 26 75 27 55 28 74 29 56 30 59 31 73 32 92 33 57 34
REMARK SMILES IDX 58 35 72 37 93 38 60 39 44 40 45 41 53 42 46 43 47 44 51 45
REMARK SMILES IDX 54 46 48 47 49 48 52 49 50 50 76 51 77 52 85 53 78 54 79 55
REMARK SMILES IDX 83 56 86 57 80 58 81 59 84 60 82 61 61 62 62 63 70 64 63 65
REMARK SMILES IDX 64 66 68 67 71 68 65 69 66 70 69 71 67 72 7 73 8 74 9 76
REMARK SMILES IDX 10 77 11 78 15 79 12 80 14 81 13 82 16 83 17 84 18 85 19 87
REMARK SMILES IDX 20 88 23 89 21 90 22 91 34 92 32 93 33 94 24 95 25 96 26 97
REMARK SMILES IDX 27 99 28 100 31 101 29 102 30 103
REMARK H PARENT 3 7 91 25 59 36 7 75 18 86 26 98
REMARK Flexibility Score: inf
ROOT
ATOM      1  C   UNL A   1      33.683  28.004  26.251  1.00  0.00     0.117 C 
ENDROOT
BRANCH   1   2
ATOM      2  C   UNL A   1      33.024  29.131  27.049  1.00  0.00     0.042 C 
BRANCH   2   3
ATOM      3  C   UNL A   1      33.667  30.502  26.868  1.00  0.00     0.118 C 
BRANCH   3   4
ATOM      4  N   UNL A   1      33.742  31.305  28.074  1.00  0.00    -0.352 N 
ATOM      5  O   UNL A   1      34.411  32.329  29.921  1.00  0.00    -0.269 OA
ATOM      6  C   UNL A   1      34.723  31.587  28.985  1.00  0.00     0.251 C 
ATOM      7  H   UNL A   1      32.891  31.752  28.286  1.00  0.00     0.163 HD
BRANCH   6   8
ATOM      8  C   UNL A   1      36.110  31.049  28.944  1.00  0.00     0.039 A 
ATOM      9  C   UNL A   1      37.270  31.804  29.122  1.00  0.00     0.014 A 
ATOM     10  C   UNL A   1      36.231  29.655  28.796  1.00  0.00     0.014 A 
ATOM     11  C   UNL A   1      38.523  31.188  29.121  1.00  0.00     0.010 A 
ATOM     12  C   UNL A   1      37.477  29.030  28.828  1.00  0.00     0.010 A 
ATOM     13  C   UNL A   1      38.630  29.798  28.993  1.00  0.00    -0.014 A 
BRANCH  13  14
ATOM     14  C   UNL A   1      39.928  29.172  29.280  1.00  0.00     0.031 A 
ATOM     15  C   UNL A   1      40.276  29.070  30.730  1.00  0.00     0.074 A 
ATOM     16  C   UNL A   1      40.682  28.513  28.375  1.00  0.00     0.049 A 
ATOM     17  N   UNL A   1      41.375  29.422  31.321  1.00  0.00    -0.248 NA
ATOM     18  C   UNL A   1      39.255  28.530  31.644  1.00  0.00     0.031 C 
ATOM     19  C   UNL A   1      40.321  28.227  26.988  1.00  0.00     0.029 A 
ATOM     20  N   UNL A   1      41.871  27.847  28.541  1.00  0.00    -0.354 N 
ATOM     21  C   UNL A   1      41.249  29.004  32.646  1.00  0.00     0.074 A 
ATOM     22  C   UNL A   1      39.892  28.560  32.815  1.00  0.00     0.031 C 
ATOM     23  C   UNL A   1      41.151  27.278  26.504  1.00  0.00     0.029 A 
ATOM     24  C   UNL A   1      42.164  26.972  27.505  1.00  0.00     0.049 A 
ATOM     25  H   UNL A   1      42.460  27.978  29.320  1.00  0.00     0.167 HD
ATOM     26  C   UNL A   1      42.339  28.829  33.440  1.00  0.00     0.037 A 
ATOM     27  C   UNL A   1      43.124  26.016  27.468  1.00  0.00     0.037 A 
ATOM     28  C   UNL A   1      43.494  29.510  32.923  1.00  0.00     0.049 A 
ATOM     29  C   UNL A   1      44.166  26.335  28.469  1.00  0.00     0.074 A 
ATOM     30  C   UNL A   1      43.930  30.809  32.800  1.00  0.00     0.029 A 
ATOM     31  N   UNL A   1      44.324  28.733  32.168  1.00  0.00    -0.354 N 
ATOM     32  N   UNL A   1      45.013  27.320  28.363  1.00  0.00    -0.248 NA
ATOM     33  C   UNL A   1      44.166  25.652  29.759  1.00  0.00     0.031 C 
ATOM     34  C   UNL A   1      44.907  30.803  31.759  1.00  0.00     0.029 A 
ATOM     35  C   UNL A   1      45.023  29.500  31.279  1.00  0.00     0.049 A 
ATOM     36  H   UNL A   1      44.407  27.756  32.251  1.00  0.00     0.167 HD
ATOM     37  C   UNL A   1      45.318  27.647  29.668  1.00  0.00     0.074 A 
ATOM     38  C   UNL A   1      44.954  26.478  30.450  1.00  0.00     0.031 C 
ATOM     39  C   UNL A   1      45.492  28.949  30.028  1.00  0.00     0.037 A 
BRANCH  26  40
ATOM     40  C   UNL A   1      42.512  27.672  34.409  1.00  0.00     0.064 A 
ATOM     41  C   UNL A   1      42.957  26.428  33.906  1.00  0.00     0.173 A 
ATOM     42  C   UNL A   1      41.912  27.628  35.686  1.00  0.00     0.173 A 
ATOM     43  F   UNL A   1      43.534  26.347  32.698  1.00  0.00    -0.203 F 
ATOM     44  C   UNL A   1      42.719  25.228  34.583  1.00  0.00     0.198 A 
ATOM     45  C   UNL A   1      41.725  26.433  36.381  1.00  0.00     0.198 A 
ATOM     46  F   UNL A   1      41.376  28.712  36.258  1.00  0.00    -0.203 F 
ATOM     47  F   UNL A   1      43.028  24.061  33.999  1.00  0.00    -0.200 F 
ATOM     48  C   UNL A   1      42.092  25.230  35.814  1.00  0.00     0.200 A 
ATOM     49  F   UNL A   1      41.097  26.451  37.566  1.00  0.00    -0.200 F 
ATOM     50  F   UNL A   1      41.793  24.078  36.429  1.00  0.00    -0.200 F 
ENDBRANCH  26  40
BRANCH  27  51
ATOM     51  C   UNL A   1      43.153  24.748  26.698  1.00  0.00     0.064 A 
ATOM     52  C   UNL A   1      43.935  24.620  25.536  1.00  0.00     0.173 A 
ATOM     53  C   UNL A   1      42.607  23.557  27.214  1.00  0.00     0.173 A 
ATOM     54  F   UNL A   1      44.535  25.693  25.001  1.00  0.00    -0.203 F 
ATOM     55  C   UNL A   1      44.171  23.377  24.942  1.00  0.00     0.198 A 
ATOM     56  C   UNL A   1      42.826  22.320  26.608  1.00  0.00     0.198 A 
ATOM     57  F   UNL A   1      41.924  23.556  28.368  1.00  0.00    -0.203 F 
ATOM     58  F   UNL A   1      44.977  23.290  23.876  1.00  0.00    -0.200 F 
ATOM     59  C   UNL A   1      43.619  22.228  25.481  1.00  0.00     0.200 A 
ATOM     60  F   UNL A   1      42.310  21.212  27.158  1.00  0.00    -0.200 F 
ATOM     61  F   UNL A   1      43.885  21.031  24.941  1.00  0.00    -0.200 F 
ENDBRANCH  27  51
BRANCH  39  62
ATOM     62  C   UNL A   1      45.980  29.890  28.973  1.00  0.00     0.064 A 
ATOM     63  C   UNL A   1      45.153  30.542  28.046  1.00  0.00     0.173 A 
ATOM     64  C   UNL A   1      47.354  30.168  28.931  1.00  0.00     0.173 A 
ATOM     65  F   UNL A   1      43.821  30.400  28.089  1.00  0.00    -0.203 F 
ATOM     66  C   UNL A   1      45.692  31.382  27.075  1.00  0.00     0.198 A 
ATOM     67  C   UNL A   1      47.883  31.042  27.987  1.00  0.00     0.198 A 
ATOM     68  F   UNL A   1      48.184  29.609  29.826  1.00  0.00    -0.203 F 
ATOM     69  F   UNL A   1      44.891  31.962  26.170  1.00  0.00    -0.200 F 
ATOM     70  C   UNL A   1      47.056  31.632  27.048  1.00  0.00     0.200 A 
ATOM     71  F   UNL A   1      49.196  31.316  27.995  1.00  0.00    -0.200 F 
ATOM     72  F   UNL A   1      47.569  32.459  26.127  1.00  0.00    -0.200 F 
ENDBRANCH  39  62
ENDBRANCH  13  14
ENDBRANCH   6   8
ENDBRANCH   3   4
ENDBRANCH   2   3
ENDBRANCH   1   2
BRANCH   1  73
ATOM     73  N   UNL A   1      34.006  28.401  24.895  1.00  0.00    -0.356 N 
ATOM     74  C   UNL A   1      33.424  28.281  23.685  1.00  0.00     0.223 C 
ATOM     75  H   UNL A   1      34.866  28.878  24.845  1.00  0.00     0.163 HD
ATOM     76  O   UNL A   1      34.020  28.886  22.778  1.00  0.00    -0.275 OA
BRANCH  74  77
ATOM     77  C   UNL A   1      32.149  27.499  23.313  1.00  0.00     0.091 C 
ATOM     78  C   UNL A   1      30.962  28.152  24.056  1.00  0.00     0.014 C 
ATOM     79  C   UNL A   1      32.068  25.972  23.303  1.00  0.00     0.091 C 
ATOM     80  C   UNL A   1      29.619  27.601  23.591  1.00  0.00     0.001 C 
ATOM     81  C   UNL A   1      30.659  25.401  23.042  1.00  0.00     0.014 C 
ATOM     82  C   UNL A   1      29.562  26.103  23.827  1.00  0.00     0.001 C 
BRANCH  79  83
ATOM     83  C   UNL A   1      33.043  25.277  22.348  1.00  0.00     0.228 C 
ATOM     84  O   UNL A   1      33.653  25.971  21.521  1.00  0.00    -0.274 OA
ATOM     85  N   UNL A   1      33.338  23.940  22.351  1.00  0.00    -0.317 N 
ATOM     86  H   UNL A   1      33.422  23.485  21.482  1.00  0.00     0.170 HD
BRANCH  85  87
ATOM     87  C   UNL A   1      33.527  23.190  23.494  1.00  0.00     0.108 A 
ATOM     88  S   UNL A   1      34.818  23.808  24.434  1.00  0.00    -0.122 S 
ATOM     89  C   UNL A   1      33.017  21.963  23.949  1.00  0.00     0.078 A 
ATOM     90  C   UNL A   1      34.485  22.690  25.614  1.00  0.00     0.011 A 
ATOM     91  C   UNL A   1      33.479  21.801  25.311  1.00  0.00    -0.019 A 
ATOM     92  C   UNL A   1      35.144  22.488  26.924  1.00  0.00     0.047 C 
ATOM     93  C   UNL A   1      33.318  20.883  26.486  1.00  0.00     0.038 C 
ATOM     94  C   UNL A   1      34.095  21.608  27.627  1.00  0.00     0.010 C 
BRANCH  89  95
ATOM     95  C   UNL A   1      32.231  21.126  23.008  1.00  0.00     0.254 C 
ATOM     96  O   UNL A   1      31.534  21.647  22.150  1.00  0.00    -0.269 OA
ATOM     97  N   UNL A   1      32.142  19.753  23.099  1.00  0.00    -0.349 N 
ATOM     98  H   UNL A   1      31.345  19.355  22.678  1.00  0.00     0.164 HD
BRANCH  97  99
ATOM     99  C   UNL A   1      33.032  18.821  23.713  1.00  0.00     0.082 C 
ATOM    100  C   UNL A   1      32.520  18.054  24.926  1.00  0.00     0.025 C 
ATOM    101  C   UNL A   1      33.352  17.682  22.751  1.00  0.00     0.025 C 
ATOM    102  C   UNL A   1      33.560  16.934  25.050  1.00  0.00     0.002 C 
ATOM    103  C   UNL A   1      34.028  16.636  23.622  1.00  0.00     0.002 C 
ENDBRANCH  97  99
ENDBRANCH  89  95
ENDBRANCH  85  87
ENDBRANCH  79  83
ENDBRANCH  74  77
ENDBRANCH   1  73
TORSDOF 14
ENDMDL
