MODEL 1
REMARK VINA RESULT:     -13.6      0.000      0.000
REMARK SMILES CCn1c(CC2CC[NH+](Cc3cn[nH]c3C(=O)NCCCNC(=O)c3ccc(-c4c5nc(c(-c6c(F)c(F)c(F)c(F)c6F)c6ccc([nH]6)c(-c6c(F)c(F)c(F)c(F)c6F)c6nc(c(-c7c(F)c(F)c(F)c(F)c7F)c7ccc4[nH]7)C=C6)C=C5)cc3)CC2)nn(C)c1=O
REMARK SMILES IDX 16 1 17 2 18 3 15 5 11 6 12 7 13 8 14 9 10 11 9 12 6 13 7 14
REMARK SMILES IDX 89 15 8 16 88 17 5 19 4 20 3 21 93 22 90 23 91 24 94 25
REMARK SMILES IDX 92 26 2 27 1 28 19 29 20 30 21 31 22 32 23 33 24 35 25 36
REMARK SMILES IDX 26 37 87 38 27 39 86 40 28 41 29 42 30 43 80 44 31 45 85 46
REMARK SMILES IDX 79 47 81 48 32 49 84 50 78 51 77 52 33 54 65 55 45 56 64 57
REMARK SMILES IDX 46 58 49 59 63 60 82 61 47 62 48 63 62 65 83 66 50 67 34 68
REMARK SMILES IDX 35 69 43 70 36 71 37 72 41 73 44 74 38 75 39 76 42 77 40 78
REMARK SMILES IDX 66 79 67 80 75 81 68 82 69 83 73 84 76 85 70 86 71 87 74 88
REMARK SMILES IDX 72 89 51 90 52 91 60 92 53 93 54 94 58 95 61 96 55 97 56 98
REMARK SMILES IDX 59 99 57 100
REMARK H PARENT 18 4 14 10 9 18 22 34 81 53 49 64
REMARK Flexibility Score: inf
ROOT
ATOM      1  C   UNL A   1      34.616  21.458  26.277  1.00  0.00     0.269 C 
ATOM      2  O   UNL A   1      34.101  22.013  27.255  1.00  0.00    -0.268 OA
ATOM      3  N   UNL A   1      35.972  21.606  26.189  1.00  0.00    -0.351 N 
ATOM      4  H   UNL A   1      36.352  22.162  26.906  1.00  0.00     0.163 HD
ENDROOT
BRANCH   1   5
ATOM      5  C   UNL A   1      33.803  20.660  25.388  1.00  0.00     0.131 A 
ATOM      6  C   UNL A   1      33.024  20.787  24.234  1.00  0.00     0.057 A 
ATOM      7  C   UNL A   1      32.614  19.459  23.947  1.00  0.00     0.145 A 
ATOM      8  N   UNL A   1      33.005  18.577  24.857  1.00  0.00    -0.183 NA
ATOM      9  N   UNL A   1      33.625  19.340  25.762  1.00  0.00    -0.272 N 
ATOM     10  H   UNL A   1      33.933  18.988  26.630  1.00  0.00     0.190 HD
BRANCH   6  11
ATOM     11  C   UNL A   1      32.624  21.925  23.357  1.00  0.00     0.303 C 
BRANCH  11  12
ATOM     12  N   UNL A   1      32.273  23.183  24.044  1.00  0.00    -0.331 N 
ATOM     13  C   UNL A   1      31.731  26.073  24.452  1.00  0.00     0.008 C 
ATOM     14  C   UNL A   1      33.103  25.447  24.739  1.00  0.00     0.065 C 
ATOM     15  C   UNL A   1      30.656  24.990  24.520  1.00  0.00     0.065 C 
ATOM     16  C   UNL A   1      33.385  24.137  23.996  1.00  0.00     0.262 C 
ATOM     17  C   UNL A   1      31.001  23.784  23.652  1.00  0.00     0.262 C 
ATOM     18  H   UNL A   1      32.113  22.916  25.015  1.00  0.00     0.348 HD
BRANCH  13  19
ATOM     19  C   UNL A   1      31.656  26.970  23.196  1.00  0.00     0.081 C 
BRANCH  19  20
ATOM     20  C   UNL A   1      30.704  28.144  23.205  1.00  0.00     0.133 A 
ATOM     21  N   UNL A   1      30.833  29.216  24.019  1.00  0.00    -0.279 N 
ATOM     22  C   UNL A   1      29.810  30.072  23.662  1.00  0.00     0.345 A 
ATOM     23  N   UNL A   1      29.691  28.199  22.388  1.00  0.00    -0.155 NA
ATOM     24  N   UNL A   1      29.095  29.395  22.677  1.00  0.00    -0.216 N 
ATOM     25  O   UNL A   1      29.603  31.200  24.081  1.00  0.00    -0.246 OA
ATOM     26  C   UNL A   1      27.939  29.881  21.976  1.00  0.00     0.179 C 
BRANCH  21  27
ATOM     27  C   UNL A   1      31.915  29.576  24.924  1.00  0.00     0.125 C 
ATOM     28  C   UNL A   1      31.698  29.194  26.383  1.00  0.00     0.028 C 
ENDBRANCH  21  27
ENDBRANCH  19  20
ENDBRANCH  13  19
ENDBRANCH  11  12
ENDBRANCH   6  11
ENDBRANCH   1   5
BRANCH   3  29
ATOM     29  C   UNL A   1      36.965  21.113  25.256  1.00  0.00     0.118 C 
BRANCH  29  30
ATOM     30  C   UNL A   1      38.183  22.044  25.215  1.00  0.00     0.042 C 
BRANCH  30  31
ATOM     31  C   UNL A   1      39.108  21.946  26.404  1.00  0.00     0.118 C 
BRANCH  31  32
ATOM     32  N   UNL A   1      40.519  21.913  26.033  1.00  0.00    -0.352 N 
ATOM     33  C   UNL A   1      41.438  22.953  26.119  1.00  0.00     0.251 C 
ATOM     34  H   UNL A   1      40.858  21.058  25.680  1.00  0.00     0.163 HD
ATOM     35  O   UNL A   1      42.462  22.965  25.481  1.00  0.00    -0.269 OA
BRANCH  33  36
ATOM     36  C   UNL A   1      41.083  24.057  27.031  1.00  0.00     0.039 A 
ATOM     37  C   UNL A   1      41.851  24.335  28.161  1.00  0.00     0.014 A 
ATOM     38  C   UNL A   1      40.122  24.942  26.566  1.00  0.00     0.014 A 
ATOM     39  C   UNL A   1      41.728  25.592  28.750  1.00  0.00     0.010 A 
ATOM     40  C   UNL A   1      40.185  26.239  27.003  1.00  0.00     0.010 A 
ATOM     41  C   UNL A   1      40.929  26.569  28.131  1.00  0.00    -0.014 A 
BRANCH  41  42
ATOM     42  C   UNL A   1      40.926  27.958  28.591  1.00  0.00     0.031 A 
ATOM     43  C   UNL A   1      42.019  28.829  28.073  1.00  0.00     0.074 A 
ATOM     44  C   UNL A   1      39.917  28.502  29.309  1.00  0.00     0.049 A 
ATOM     45  N   UNL A   1      43.025  29.298  28.736  1.00  0.00    -0.248 NA
ATOM     46  C   UNL A   1      42.061  29.142  26.637  1.00  0.00     0.031 C 
ATOM     47  C   UNL A   1      38.620  27.919  29.680  1.00  0.00     0.029 A 
ATOM     48  N   UNL A   1      39.818  29.768  29.802  1.00  0.00    -0.354 N 
ATOM     49  C   UNL A   1      43.731  30.118  27.859  1.00  0.00     0.074 A 
ATOM     50  C   UNL A   1      43.188  29.856  26.550  1.00  0.00     0.031 C 
ATOM     51  C   UNL A   1      37.786  28.887  30.114  1.00  0.00     0.029 A 
ATOM     52  C   UNL A   1      38.555  30.102  30.267  1.00  0.00     0.049 A 
ATOM     53  H   UNL A   1      40.579  30.392  29.825  1.00  0.00     0.167 HD
ATOM     54  C   UNL A   1      44.544  31.107  28.328  1.00  0.00     0.037 A 
ATOM     55  C   UNL A   1      38.159  31.288  30.780  1.00  0.00     0.037 A 
ATOM     56  C   UNL A   1      44.831  30.914  29.730  1.00  0.00     0.049 A 
ATOM     57  C   UNL A   1      39.377  31.988  31.247  1.00  0.00     0.074 A 
ATOM     58  C   UNL A   1      45.426  29.915  30.477  1.00  0.00     0.029 A 
ATOM     59  N   UNL A   1      44.146  31.686  30.636  1.00  0.00    -0.354 N 
ATOM     60  N   UNL A   1      40.104  31.585  32.251  1.00  0.00    -0.248 NA
ATOM     61  C   UNL A   1      40.038  32.892  30.319  1.00  0.00     0.031 C 
ATOM     62  C   UNL A   1      44.663  29.852  31.681  1.00  0.00     0.029 A 
ATOM     63  C   UNL A   1      43.696  30.857  31.628  1.00  0.00     0.049 A 
ATOM     64  H   UNL A   1      44.005  32.659  30.581  1.00  0.00     0.167 HD
ATOM     65  C   UNL A   1      41.411  31.818  31.854  1.00  0.00     0.074 A 
ATOM     66  C   UNL A   1      41.303  32.724  30.713  1.00  0.00     0.031 C 
ATOM     67  C   UNL A   1      42.434  31.035  32.308  1.00  0.00     0.037 A 
BRANCH  54  68
ATOM     68  C   UNL A   1      44.776  32.444  27.656  1.00  0.00     0.064 A 
ATOM     69  C   UNL A   1      45.983  32.655  26.953  1.00  0.00     0.173 A 
ATOM     70  C   UNL A   1      44.031  33.610  27.935  1.00  0.00     0.173 A 
ATOM     71  F   UNL A   1      46.777  31.623  26.630  1.00  0.00    -0.203 F 
ATOM     72  C   UNL A   1      46.458  33.937  26.660  1.00  0.00     0.198 A 
ATOM     73  C   UNL A   1      44.483  34.884  27.592  1.00  0.00     0.198 A 
ATOM     74  F   UNL A   1      42.899  33.582  28.644  1.00  0.00    -0.203 F 
ATOM     75  F   UNL A   1      47.676  34.090  26.125  1.00  0.00    -0.200 F 
ATOM     76  C   UNL A   1      45.713  35.052  26.991  1.00  0.00     0.200 A 
ATOM     77  F   UNL A   1      43.750  35.954  27.932  1.00  0.00    -0.200 F 
ATOM     78  F   UNL A   1      46.195  36.283  26.781  1.00  0.00    -0.200 F 
ENDBRANCH  54  68
BRANCH  55  79
ATOM     79  C   UNL A   1      36.840  31.940  30.663  1.00  0.00     0.064 A 
ATOM     80  C   UNL A   1      35.940  31.948  31.738  1.00  0.00     0.173 A 
ATOM     81  C   UNL A   1      36.554  32.812  29.593  1.00  0.00     0.173 A 
ATOM     82  F   UNL A   1      36.160  31.170  32.807  1.00  0.00    -0.203 F 
ATOM     83  C   UNL A   1      34.840  32.810  31.762  1.00  0.00     0.198 A 
ATOM     84  C   UNL A   1      35.453  33.668  29.616  1.00  0.00     0.198 A 
ATOM     85  F   UNL A   1      37.393  32.919  28.551  1.00  0.00    -0.203 F 
ATOM     86  F   UNL A   1      34.041  32.842  32.838  1.00  0.00    -0.200 F 
ATOM     87  C   UNL A   1      34.607  33.680  30.709  1.00  0.00     0.200 A 
ATOM     88  F   UNL A   1      35.259  34.528  28.607  1.00  0.00    -0.200 F 
ATOM     89  F   UNL A   1      33.594  34.556  30.765  1.00  0.00    -0.200 F 
ENDBRANCH  55  79
BRANCH  67  90
ATOM     90  C   UNL A   1      42.153  30.118  33.468  1.00  0.00     0.064 A 
ATOM     91  C   UNL A   1      41.693  28.796  33.339  1.00  0.00     0.173 A 
ATOM     92  C   UNL A   1      42.488  30.558  34.755  1.00  0.00     0.173 A 
ATOM     93  F   UNL A   1      41.443  28.265  32.136  1.00  0.00    -0.203 F 
ATOM     94  C   UNL A   1      41.533  27.972  34.453  1.00  0.00     0.198 A 
ATOM     95  C   UNL A   1      42.364  29.722  35.861  1.00  0.00     0.198 A 
ATOM     96  F   UNL A   1      42.983  31.792  34.934  1.00  0.00    -0.203 F 
ATOM     97  F   UNL A   1      41.078  26.719  34.303  1.00  0.00    -0.200 F 
ATOM     98  C   UNL A   1      41.875  28.434  35.712  1.00  0.00     0.200 A 
ATOM     99  F   UNL A   1      42.741  30.158  37.071  1.00  0.00    -0.200 F 
ATOM    100  F   UNL A   1      41.759  27.631  36.779  1.00  0.00    -0.200 F 
ENDBRANCH  67  90
ENDBRANCH  41  42
ENDBRANCH  33  36
ENDBRANCH  31  32
ENDBRANCH  30  31
ENDBRANCH  29  30
ENDBRANCH   3  29
TORSDOF 15
ENDMDL
MODEL 2
REMARK VINA RESULT:     -13.5      3.058      9.267
REMARK SMILES CCn1c(CC2CC[NH+](Cc3cn[nH]c3C(=O)NCCCNC(=O)c3ccc(-c4c5nc(c(-c6c(F)c(F)c(F)c(F)c6F)c6ccc([nH]6)c(-c6c(F)c(F)c(F)c(F)c6F)c6nc(c(-c7c(F)c(F)c(F)c(F)c7F)c7ccc4[nH]7)C=C6)C=C5)cc3)CC2)nn(C)c1=O
REMARK SMILES IDX 16 1 17 2 18 3 15 5 11 6 12 7 13 8 14 9 10 11 9 12 6 13 7 14
REMARK SMILES IDX 89 15 8 16 88 17 5 19 4 20 3 21 93 22 90 23 91 24 94 25
REMARK SMILES IDX 92 26 2 27 1 28 19 29 20 30 21 31 22 32 23 33 24 35 25 36
REMARK SMILES IDX 26 37 87 38 27 39 86 40 28 41 29 42 30 43 80 44 31 45 85 46
REMARK SMILES IDX 79 47 81 48 32 49 84 50 78 51 77 52 33 54 65 55 45 56 64 57
REMARK SMILES IDX 46 58 49 59 63 60 82 61 47 62 48 63 62 65 83 66 50 67 34 68
REMARK SMILES IDX 35 69 43 70 36 71 37 72 41 73 44 74 38 75 39 76 42 77 40 78
REMARK SMILES IDX 66 79 67 80 75 81 68 82 69 83 73 84 76 85 70 86 71 87 74 88
REMARK SMILES IDX 72 89 51 90 52 91 60 92 53 93 54 94 58 95 61 96 55 97 56 98
REMARK SMILES IDX 59 99 57 100
REMARK H PARENT 18 4 14 10 9 18 22 34 81 53 49 64
REMARK Flexibility Score: inf
ROOT
ATOM      1  C   UNL A   1      32.949  28.941  23.049  1.00  0.00     0.269 C 
ATOM      2  O   UNL A   1      33.796  28.716  22.176  1.00  0.00    -0.268 OA
ATOM      3  N   UNL A   1      33.462  29.379  24.238  1.00  0.00    -0.351 N 
ATOM      4  H   UNL A   1      34.445  29.428  24.245  1.00  0.00     0.163 HD
ENDROOT
BRANCH   1   5
ATOM      5  C   UNL A   1      31.543  28.817  22.741  1.00  0.00     0.131 A 
ATOM      6  C   UNL A   1      30.454  27.977  22.995  1.00  0.00     0.057 A 
ATOM      7  C   UNL A   1      29.362  28.629  22.366  1.00  0.00     0.145 A 
ATOM      8  N   UNL A   1      29.711  29.722  21.701  1.00  0.00    -0.183 NA
ATOM      9  N   UNL A   1      31.038  29.753  21.856  1.00  0.00    -0.272 N 
ATOM     10  H   UNL A   1      31.613  30.393  21.377  1.00  0.00     0.190 HD
BRANCH   6  11
ATOM     11  C   UNL A   1      30.266  26.696  23.736  1.00  0.00     0.303 C 
BRANCH  11  12
ATOM     12  N   UNL A   1      31.397  26.260  24.577  1.00  0.00    -0.331 N 
ATOM     13  C   UNL A   1      33.322  24.451  25.933  1.00  0.00     0.008 C 
ATOM     14  C   UNL A   1      32.058  24.974  26.629  1.00  0.00     0.065 C 
ATOM     15  C   UNL A   1      33.703  25.399  24.797  1.00  0.00     0.065 C 
ATOM     16  C   UNL A   1      30.935  25.417  25.685  1.00  0.00     0.262 C 
ATOM     17  C   UNL A   1      32.529  25.675  23.863  1.00  0.00     0.262 C 
ATOM     18  H   UNL A   1      31.786  27.121  24.961  1.00  0.00     0.348 HD
BRANCH  13  19
ATOM     19  C   UNL A   1      33.297  22.958  25.538  1.00  0.00     0.081 C 
BRANCH  19  20
ATOM     20  C   UNL A   1      34.606  22.202  25.495  1.00  0.00     0.133 A 
ATOM     21  N   UNL A   1      34.720  20.907  25.121  1.00  0.00    -0.279 N 
ATOM     22  C   UNL A   1      36.072  20.633  25.158  1.00  0.00     0.345 A 
ATOM     23  N   UNL A   1      35.731  22.781  25.802  1.00  0.00    -0.155 NA
ATOM     24  N   UNL A   1      36.669  21.802  25.624  1.00  0.00    -0.216 N 
ATOM     25  O   UNL A   1      36.633  19.605  24.812  1.00  0.00    -0.246 OA
ATOM     26  C   UNL A   1      38.075  22.022  25.823  1.00  0.00     0.179 C 
BRANCH  21  27
ATOM     27  C   UNL A   1      33.723  20.007  24.559  1.00  0.00     0.125 C 
ATOM     28  C   UNL A   1      32.925  19.202  25.578  1.00  0.00     0.028 C 
ENDBRANCH  21  27
ENDBRANCH  19  20
ENDBRANCH  13  19
ENDBRANCH  11  12
ENDBRANCH   6  11
ENDBRANCH   1   5
BRANCH   3  29
ATOM     29  C   UNL A   1      32.856  29.785  25.490  1.00  0.00     0.118 C 
BRANCH  29  30
ATOM     30  C   UNL A   1      33.356  28.909  26.646  1.00  0.00     0.042 C 
BRANCH  30  31
ATOM     31  C   UNL A   1      34.574  29.429  27.368  1.00  0.00     0.118 C 
BRANCH  31  32
ATOM     32  N   UNL A   1      34.731  30.877  27.259  1.00  0.00    -0.352 N 
ATOM     33  C   UNL A   1      35.476  31.709  28.088  1.00  0.00     0.251 C 
ATOM     34  H   UNL A   1      34.255  31.313  26.516  1.00  0.00     0.163 HD
ATOM     35  O   UNL A   1      35.281  32.896  28.157  1.00  0.00    -0.269 OA
BRANCH  33  36
ATOM     36  C   UNL A   1      36.521  31.050  28.896  1.00  0.00     0.039 A 
ATOM     37  C   UNL A   1      36.322  29.780  29.436  1.00  0.00     0.014 A 
ATOM     38  C   UNL A   1      37.776  31.640  28.863  1.00  0.00     0.014 A 
ATOM     39  C   UNL A   1      37.441  29.048  29.830  1.00  0.00     0.010 A 
ATOM     40  C   UNL A   1      38.866  30.829  29.029  1.00  0.00     0.010 A 
ATOM     41  C   UNL A   1      38.725  29.556  29.572  1.00  0.00    -0.014 A 
BRANCH  41  42
ATOM     42  C   UNL A   1      39.925  28.745  29.778  1.00  0.00     0.031 A 
ATOM     43  C   UNL A   1      40.390  28.597  31.186  1.00  0.00     0.074 A 
ATOM     44  C   UNL A   1      40.509  28.018  28.799  1.00  0.00     0.049 A 
ATOM     45  N   UNL A   1      41.446  29.119  31.718  1.00  0.00    -0.248 NA
ATOM     46  C   UNL A   1      39.545  27.869  32.144  1.00  0.00     0.031 C 
ATOM     47  C   UNL A   1      40.059  27.784  27.419  1.00  0.00     0.029 A 
ATOM     48  N   UNL A   1      41.630  27.248  28.872  1.00  0.00    -0.354 N 
ATOM     49  C   UNL A   1      41.510  28.642  33.025  1.00  0.00     0.074 A 
ATOM     50  C   UNL A   1      40.238  28.014  33.278  1.00  0.00     0.031 C 
ATOM     51  C   UNL A   1      40.747  26.759  26.876  1.00  0.00     0.029 A 
ATOM     52  C   UNL A   1      41.829  26.422  27.776  1.00  0.00     0.049 A 
ATOM     53  H   UNL A   1      42.246  27.276  29.639  1.00  0.00     0.167 HD
ATOM     54  C   UNL A   1      42.694  28.609  33.701  1.00  0.00     0.037 A 
ATOM     55  C   UNL A   1      42.832  25.536  27.589  1.00  0.00     0.037 A 
ATOM     56  C   UNL A   1      43.680  29.439  33.049  1.00  0.00     0.049 A 
ATOM     57  C   UNL A   1      43.947  25.951  28.471  1.00  0.00     0.074 A 
ATOM     58  C   UNL A   1      43.770  30.780  32.729  1.00  0.00     0.029 A 
ATOM     59  N   UNL A   1      44.633  28.817  32.282  1.00  0.00    -0.354 N 
ATOM     60  N   UNL A   1      44.633  27.047  28.304  1.00  0.00    -0.248 NA
ATOM     61  C   UNL A   1      44.013  25.368  29.801  1.00  0.00     0.031 C 
ATOM     62  C   UNL A   1      44.401  30.811  31.449  1.00  0.00     0.029 A 
ATOM     63  C   UNL A   1      44.719  29.498  31.097  1.00  0.00     0.049 A 
ATOM     64  H   UNL A   1      45.160  28.024  32.537  1.00  0.00     0.167 HD
ATOM     65  C   UNL A   1      44.850  27.524  29.587  1.00  0.00     0.074 A 
ATOM     66  C   UNL A   1      44.548  26.396  30.464  1.00  0.00     0.031 C 
ATOM     67  C   UNL A   1      44.978  28.863  29.826  1.00  0.00     0.037 A 
BRANCH  54  68
ATOM     68  C   UNL A   1      43.097  27.556  34.712  1.00  0.00     0.064 A 
ATOM     69  C   UNL A   1      43.375  27.954  36.039  1.00  0.00     0.173 A 
ATOM     70  C   UNL A   1      43.529  26.256  34.371  1.00  0.00     0.173 A 
ATOM     71  F   UNL A   1      43.012  29.167  36.480  1.00  0.00    -0.203 F 
ATOM     72  C   UNL A   1      44.124  27.159  36.911  1.00  0.00     0.198 A 
ATOM     73  C   UNL A   1      44.231  25.445  35.263  1.00  0.00     0.198 A 
ATOM     74  F   UNL A   1      43.395  25.759  33.138  1.00  0.00    -0.203 F 
ATOM     75  F   UNL A   1      44.486  27.642  38.107  1.00  0.00    -0.200 F 
ATOM     76  C   UNL A   1      44.563  25.910  36.518  1.00  0.00     0.200 A 
ATOM     77  F   UNL A   1      44.657  24.240  34.858  1.00  0.00    -0.200 F 
ATOM     78  F   UNL A   1      45.344  25.176  37.321  1.00  0.00    -0.200 F 
ENDBRANCH  54  68
BRANCH  55  79
ATOM     79  C   UNL A   1      42.786  24.237  26.891  1.00  0.00     0.064 A 
ATOM     80  C   UNL A   1      43.387  24.069  25.635  1.00  0.00     0.173 A 
ATOM     81  C   UNL A   1      42.401  23.062  27.569  1.00  0.00     0.173 A 
ATOM     82  F   UNL A   1      43.811  25.136  24.943  1.00  0.00    -0.203 F 
ATOM     83  C   UNL A   1      43.630  22.798  25.106  1.00  0.00     0.198 A 
ATOM     84  C   UNL A   1      42.638  21.795  27.038  1.00  0.00     0.198 A 
ATOM     85  F   UNL A   1      41.877  23.122  28.803  1.00  0.00    -0.203 F 
ATOM     86  F   UNL A   1      44.271  22.674  23.937  1.00  0.00    -0.200 F 
ATOM     87  C   UNL A   1      43.269  21.663  25.814  1.00  0.00     0.200 A 
ATOM     88  F   UNL A   1      42.316  20.705  27.748  1.00  0.00    -0.200 F 
ATOM     89  F   UNL A   1      43.567  20.445  25.340  1.00  0.00    -0.200 F 
ENDBRANCH  55  79
BRANCH  67  90
ATOM     90  C   UNL A   1      45.180  29.770  28.642  1.00  0.00     0.064 A 
ATOM     91  C   UNL A   1      44.135  30.362  27.912  1.00  0.00     0.173 A 
ATOM     92  C   UNL A   1      46.487  30.156  28.320  1.00  0.00     0.173 A 
ATOM     93  F   UNL A   1      42.854  30.124  28.219  1.00  0.00    -0.203 F 
ATOM     94  C   UNL A   1      44.392  31.261  26.877  1.00  0.00     0.198 A 
ATOM     95  C   UNL A   1      46.741  31.083  27.312  1.00  0.00     0.198 A 
ATOM     96  F   UNL A   1      47.523  29.666  29.018  1.00  0.00    -0.203 F 
ATOM     97  F   UNL A   1      43.377  31.800  26.186  1.00  0.00    -0.200 F 
ATOM     98  C   UNL A   1      45.695  31.626  26.583  1.00  0.00     0.200 A 
ATOM     99  F   UNL A   1      48.000  31.467  27.063  1.00  0.00    -0.200 F 
ATOM    100  F   UNL A   1      45.942  32.519  25.615  1.00  0.00    -0.200 F 
ENDBRANCH  67  90
ENDBRANCH  41  42
ENDBRANCH  33  36
ENDBRANCH  31  32
ENDBRANCH  30  31
ENDBRANCH  29  30
ENDBRANCH   3  29
TORSDOF 15
ENDMDL
MODEL 3
REMARK VINA RESULT:     -13.2      5.300     10.481
REMARK SMILES CCn1c(CC2CC[NH+](Cc3cn[nH]c3C(=O)NCCCNC(=O)c3ccc(-c4c5nc(c(-c6c(F)c(F)c(F)c(F)c6F)c6ccc([nH]6)c(-c6c(F)c(F)c(F)c(F)c6F)c6nc(c(-c7c(F)c(F)c(F)c(F)c7F)c7ccc4[nH]7)C=C6)C=C5)cc3)CC2)nn(C)c1=O
REMARK SMILES IDX 16 1 17 2 18 3 15 5 11 6 12 7 13 8 14 9 10 11 9 12 6 13 7 14
REMARK SMILES IDX 89 15 8 16 88 17 5 19 4 20 3 21 93 22 90 23 91 24 94 25
REMARK SMILES IDX 92 26 2 27 1 28 19 29 20 30 21 31 22 32 23 33 24 35 25 36
REMARK SMILES IDX 26 37 87 38 27 39 86 40 28 41 29 42 30 43 80 44 31 45 85 46
REMARK SMILES IDX 79 47 81 48 32 49 84 50 78 51 77 52 33 54 65 55 45 56 64 57
REMARK SMILES IDX 46 58 49 59 63 60 82 61 47 62 48 63 62 65 83 66 50 67 34 68
REMARK SMILES IDX 35 69 43 70 36 71 37 72 41 73 44 74 38 75 39 76 42 77 40 78
REMARK SMILES IDX 66 79 67 80 75 81 68 82 69 83 73 84 76 85 70 86 71 87 74 88
REMARK SMILES IDX 72 89 51 90 52 91 60 92 53 93 54 94 58 95 61 96 55 97 56 98
REMARK SMILES IDX 59 99 57 100
REMARK H PARENT 18 4 14 10 9 18 22 34 81 53 49 64
REMARK Flexibility Score: inf
ROOT
ATOM      1  C   UNL A   1      46.248  31.080  26.520  1.00  0.00     0.269 C 
ATOM      2  O   UNL A   1      47.434  31.066  26.172  1.00  0.00    -0.268 OA
ATOM      3  N   UNL A   1      45.466  31.970  25.838  1.00  0.00    -0.351 N 
ATOM      4  H   UNL A   1      45.965  32.502  25.177  1.00  0.00     0.163 HD
ENDROOT
BRANCH   1   5
ATOM      5  C   UNL A   1      45.774  30.142  27.512  1.00  0.00     0.131 A 
ATOM      6  C   UNL A   1      45.401  28.800  27.634  1.00  0.00     0.057 A 
ATOM      7  C   UNL A   1      45.127  28.644  29.018  1.00  0.00     0.145 A 
ATOM      8  N   UNL A   1      45.222  29.774  29.706  1.00  0.00    -0.183 NA
ATOM      9  N   UNL A   1      45.509  30.673  28.761  1.00  0.00    -0.272 N 
ATOM     10  H   UNL A   1      45.531  31.642  28.941  1.00  0.00     0.190 HD
BRANCH   6  11
ATOM     11  C   UNL A   1      45.282  27.652  26.689  1.00  0.00     0.303 C 
BRANCH  11  12
ATOM     12  N   UNL A   1      44.730  26.404  27.250  1.00  0.00    -0.331 N 
ATOM     13  C   UNL A   1      43.266  23.825  27.391  1.00  0.00     0.008 C 
ATOM     14  C   UNL A   1      42.626  25.155  27.813  1.00  0.00     0.065 C 
ATOM     15  C   UNL A   1      44.787  23.944  27.478  1.00  0.00     0.065 C 
ATOM     16  C   UNL A   1      43.264  26.405  27.195  1.00  0.00     0.262 C 
ATOM     17  C   UNL A   1      45.310  25.167  26.732  1.00  0.00     0.262 C 
ATOM     18  H   UNL A   1      45.021  26.404  28.227  1.00  0.00     0.348 HD
BRANCH  13  19
ATOM     19  C   UNL A   1      42.747  23.225  26.065  1.00  0.00     0.081 C 
BRANCH  19  20
ATOM     20  C   UNL A   1      42.989  21.758  25.794  1.00  0.00     0.133 A 
ATOM     21  N   UNL A   1      42.209  20.762  26.272  1.00  0.00    -0.279 N 
ATOM     22  C   UNL A   1      42.734  19.600  25.742  1.00  0.00     0.345 A 
ATOM     23  N   UNL A   1      43.978  21.363  25.044  1.00  0.00    -0.155 NA
ATOM     24  N   UNL A   1      43.854  20.002  25.019  1.00  0.00    -0.216 N 
ATOM     25  O   UNL A   1      42.287  18.468  25.842  1.00  0.00    -0.246 OA
ATOM     26  C   UNL A   1      44.735  19.152  24.267  1.00  0.00     0.179 C 
BRANCH  21  27
ATOM     27  C   UNL A   1      40.944  20.829  26.988  1.00  0.00     0.125 C 
ATOM     28  C   UNL A   1      39.739  21.230  26.146  1.00  0.00     0.028 C 
ENDBRANCH  21  27
ENDBRANCH  19  20
ENDBRANCH  13  19
ENDBRANCH  11  12
ENDBRANCH   6  11
ENDBRANCH   1   5
BRANCH   3  29
ATOM     29  C   UNL A   1      44.054  32.293  25.888  1.00  0.00     0.118 C 
BRANCH  29  30
ATOM     30  C   UNL A   1      43.737  33.489  24.981  1.00  0.00     0.042 C 
BRANCH  30  31
ATOM     31  C   UNL A   1      43.486  34.792  25.700  1.00  0.00     0.118 C 
BRANCH  31  32
ATOM     32  N   UNL A   1      44.703  35.566  25.926  1.00  0.00    -0.352 N 
ATOM     33  C   UNL A   1      45.041  36.292  27.063  1.00  0.00     0.251 C 
ATOM     34  H   UNL A   1      45.358  35.576  25.191  1.00  0.00     0.163 HD
ATOM     35  O   UNL A   1      45.867  37.171  27.047  1.00  0.00    -0.269 OA
BRANCH  33  36
ATOM     36  C   UNL A   1      44.319  35.934  28.298  1.00  0.00     0.039 A 
ATOM     37  C   UNL A   1      43.304  36.747  28.802  1.00  0.00     0.014 A 
ATOM     38  C   UNL A   1      44.521  34.644  28.768  1.00  0.00     0.014 A 
ATOM     39  C   UNL A   1      42.400  36.191  29.706  1.00  0.00     0.010 A 
ATOM     40  C   UNL A   1      43.500  34.051  29.462  1.00  0.00     0.010 A 
ATOM     41  C   UNL A   1      42.468  34.817  29.993  1.00  0.00    -0.014 A 
BRANCH  41  42
ATOM     42  C   UNL A   1      41.426  34.146  30.771  1.00  0.00     0.031 A 
ATOM     43  C   UNL A   1      41.755  33.836  32.191  1.00  0.00     0.074 A 
ATOM     44  C   UNL A   1      40.167  33.951  30.316  1.00  0.00     0.049 A 
ATOM     45  N   UNL A   1      41.975  32.670  32.705  1.00  0.00    -0.248 NA
ATOM     46  C   UNL A   1      41.960  34.946  33.133  1.00  0.00     0.031 C 
ATOM     47  C   UNL A   1      39.542  34.427  29.074  1.00  0.00     0.029 A 
ATOM     48  N   UNL A   1      39.131  33.326  30.941  1.00  0.00    -0.354 N 
ATOM     49  C   UNL A   1      42.163  32.868  34.071  1.00  0.00     0.074 A 
ATOM     50  C   UNL A   1      42.304  34.292  34.248  1.00  0.00     0.031 C 
ATOM     51  C   UNL A   1      38.202  34.291  29.149  1.00  0.00     0.029 A 
ATOM     52  C   UNL A   1      37.899  33.515  30.332  1.00  0.00     0.049 A 
ATOM     53  H   UNL A   1      39.246  32.787  31.757  1.00  0.00     0.167 HD
ATOM     54  C   UNL A   1      41.957  31.854  34.960  1.00  0.00     0.037 A 
ATOM     55  C   UNL A   1      36.701  33.044  30.743  1.00  0.00     0.037 A 
ATOM     56  C   UNL A   1      41.913  30.580  34.282  1.00  0.00     0.049 A 
ATOM     57  C   UNL A   1      36.970  31.885  31.624  1.00  0.00     0.074 A 
ATOM     58  C   UNL A   1      42.791  29.862  33.495  1.00  0.00     0.029 A 
ATOM     59  N   UNL A   1      40.681  30.015  34.062  1.00  0.00    -0.354 N 
ATOM     60  N   UNL A   1      37.480  30.760  31.206  1.00  0.00    -0.248 NA
ATOM     61  C   UNL A   1      37.084  32.131  33.053  1.00  0.00     0.031 C 
ATOM     62  C   UNL A   1      41.977  29.262  32.488  1.00  0.00     0.029 A 
ATOM     63  C   UNL A   1      40.648  29.592  32.760  1.00  0.00     0.049 A 
ATOM     64  H   UNL A   1      39.953  29.930  34.720  1.00  0.00     0.167 HD
ATOM     65  C   UNL A   1      38.349  30.373  32.214  1.00  0.00     0.074 A 
ATOM     66  C   UNL A   1      37.978  31.190  33.366  1.00  0.00     0.031 C 
ATOM     67  C   UNL A   1      39.463  29.635  31.935  1.00  0.00     0.037 A 
BRANCH  54  68
ATOM     68  C   UNL A   1      41.415  32.018  36.364  1.00  0.00     0.064 A 
ATOM     69  C   UNL A   1      40.173  32.664  36.547  1.00  0.00     0.173 A 
ATOM     70  C   UNL A   1      42.190  31.864  37.534  1.00  0.00     0.173 A 
ATOM     71  F   UNL A   1      39.348  32.868  35.509  1.00  0.00    -0.203 F 
ATOM     72  C   UNL A   1      39.793  33.213  37.775  1.00  0.00     0.198 A 
ATOM     73  C   UNL A   1      41.784  32.367  38.770  1.00  0.00     0.198 A 
ATOM     74  F   UNL A   1      43.414  31.328  37.515  1.00  0.00    -0.203 F 
ATOM     75  F   UNL A   1      38.675  33.944  37.861  1.00  0.00    -0.200 F 
ATOM     76  C   UNL A   1      40.606  33.075  38.884  1.00  0.00     0.200 A 
ATOM     77  F   UNL A   1      42.592  32.232  39.832  1.00  0.00    -0.200 F 
ATOM     78  F   UNL A   1      40.284  33.662  40.043  1.00  0.00    -0.200 F 
ENDBRANCH  54  68
BRANCH  55  79
ATOM     79  C   UNL A   1      35.375  33.681  30.617  1.00  0.00     0.064 A 
ATOM     80  C   UNL A   1      34.953  34.658  31.529  1.00  0.00     0.173 A 
ATOM     81  C   UNL A   1      34.617  33.548  29.436  1.00  0.00     0.173 A 
ATOM     82  F   UNL A   1      35.642  34.866  32.661  1.00  0.00    -0.203 F 
ATOM     83  C   UNL A   1      33.861  35.486  31.257  1.00  0.00     0.198 A 
ATOM     84  C   UNL A   1      33.524  34.372  29.169  1.00  0.00     0.198 A 
ATOM     85  F   UNL A   1      34.983  32.684  28.477  1.00  0.00    -0.203 F 
ATOM     86  F   UNL A   1      33.529  36.458  32.119  1.00  0.00    -0.200 F 
ATOM     87  C   UNL A   1      33.157  35.353  30.072  1.00  0.00     0.200 A 
ATOM     88  F   UNL A   1      32.873  34.256  28.003  1.00  0.00    -0.200 F 
ATOM     89  F   UNL A   1      32.155  36.194  29.780  1.00  0.00    -0.200 F 
ENDBRANCH  55  79
BRANCH  67  90
ATOM     90  C   UNL A   1      39.562  29.003  30.572  1.00  0.00     0.064 A 
ATOM     91  C   UNL A   1      40.190  29.601  29.466  1.00  0.00     0.173 A 
ATOM     92  C   UNL A   1      39.116  27.684  30.420  1.00  0.00     0.173 A 
ATOM     93  F   UNL A   1      40.732  30.822  29.554  1.00  0.00    -0.203 F 
ATOM     94  C   UNL A   1      40.322  28.925  28.253  1.00  0.00     0.198 A 
ATOM     95  C   UNL A   1      39.282  26.997  29.221  1.00  0.00     0.198 A 
ATOM     96  F   UNL A   1      38.558  27.041  31.457  1.00  0.00    -0.203 F 
ATOM     97  F   UNL A   1      40.911  29.526  27.208  1.00  0.00    -0.200 F 
ATOM     98  C   UNL A   1      39.873  27.621  28.134  1.00  0.00     0.200 A 
ATOM     99  F   UNL A   1      38.888  25.720  29.125  1.00  0.00    -0.200 F 
ATOM    100  F   UNL A   1      40.032  26.957  26.981  1.00  0.00    -0.200 F 
ENDBRANCH  67  90
ENDBRANCH  41  42
ENDBRANCH  33  36
ENDBRANCH  31  32
ENDBRANCH  30  31
ENDBRANCH  29  30
ENDBRANCH   3  29
TORSDOF 15
ENDMDL
