MODEL 1
REMARK VINA RESULT:     -11.4      0.000      0.000
REMARK SMILES O=C(CSc1nnnn1C1CC1)N[C@H](CO)C(=O)NCCCNC(=O)c1ccc(-c2c3nc(c(-c4c(F)c(F)c(F)c(F)c4F)c4ccc([nH]4)c(-c4c(F)c(F)c(F)c(F)c4F)c4nc(c(-c5c(F)c(F)c(F)c(F)c5F)c5ccc2[nH]5)C=C4)C=C3)cc1
REMARK SMILES IDX 17 1 18 2 19 3 14 5 13 6 1 7 2 8 3 10 4 11 5 12 6 13 9 14
REMARK SMILES IDX 7 15 8 16 10 17 11 18 12 19 15 20 16 21 20 23 21 24 22 25
REMARK SMILES IDX 23 26 24 27 25 29 26 30 27 31 88 32 28 33 87 34 29 35 30 36
REMARK SMILES IDX 31 37 81 38 32 39 86 40 80 41 82 42 33 43 85 44 79 45 78 46
REMARK SMILES IDX 34 48 66 49 46 50 65 51 47 52 50 53 64 54 83 55 48 56 49 57
REMARK SMILES IDX 63 59 84 60 51 61 35 62 36 63 44 64 37 65 38 66 42 67 45 68
REMARK SMILES IDX 39 69 40 70 43 71 41 72 67 73 68 74 76 75 69 76 70 77 74 78
REMARK SMILES IDX 77 79 71 80 72 81 75 82 73 83 52 84 53 85 61 86 54 87 55 88
REMARK SMILES IDX 59 89 62 90 56 91 57 92 60 93 58 94
REMARK H PARENT 19 4 13 9 16 22 23 28 82 47 50 58
REMARK Flexibility Score: inf
ROOT
ATOM      1  C   UNL A   1      32.613  29.048  24.066  1.00  0.00     0.244 C 
ATOM      2  O   UNL A   1      33.200  28.962  22.985  1.00  0.00    -0.273 OA
ATOM      3  N   UNL A   1      33.244  29.707  25.088  1.00  0.00    -0.354 N 
ATOM      4  H   UNL A   1      34.226  29.749  25.043  1.00  0.00     0.163 HD
ENDROOT
BRANCH   1   5
ATOM      5  C   UNL A   1      31.213  28.438  24.269  1.00  0.00     0.197 C 
BRANCH   5   6
ATOM      6  N   UNL A   1      31.269  27.005  24.644  1.00  0.00    -0.342 N 
ATOM      7  O   UNL A   1      31.049  27.231  26.910  1.00  0.00    -0.274 OA
ATOM      8  C   UNL A   1      31.260  26.517  25.934  1.00  0.00     0.231 C 
ATOM      9  H   UNL A   1      31.317  26.348  23.912  1.00  0.00     0.164 HD
BRANCH   8  10
ATOM     10  C   UNL A   1      31.624  25.049  26.107  1.00  0.00     0.178 C 
BRANCH  10  11
ATOM     11  S   UNL A   1      33.388  24.695  25.928  1.00  0.00    -0.075 SA
BRANCH  11  12
ATOM     12  C   UNL A   1      33.548  24.480  24.224  1.00  0.00     0.210 A 
ATOM     13  N   UNL A   1      33.782  25.441  23.358  1.00  0.00    -0.102 NA
ATOM     14  N   UNL A   1      33.530  23.280  23.550  1.00  0.00    -0.217 N 
ATOM     15  N   UNL A   1      33.936  24.828  22.140  1.00  0.00    -0.023 NA
ATOM     16  N   UNL A   1      33.820  23.512  22.251  1.00  0.00    -0.044 NA
BRANCH  14  17
ATOM     17  C   UNL A   1      33.418  21.910  24.014  1.00  0.00     0.112 C 
ATOM     18  C   UNL A   1      32.334  21.409  24.958  1.00  0.00     0.029 C 
ATOM     19  C   UNL A   1      32.377  20.917  23.553  1.00  0.00     0.029 C 
ENDBRANCH  14  17
ENDBRANCH  11  12
ENDBRANCH  10  11
ENDBRANCH   8  10
ENDBRANCH   5   6
BRANCH   5  20
ATOM     20  C   UNL A   1      30.329  28.868  23.085  1.00  0.00     0.191 C 
BRANCH  20  21
ATOM     21  O   UNL A   1      30.680  28.169  21.892  1.00  0.00    -0.394 OA
ATOM     22  H   UNL A   1      31.161  28.767  21.298  1.00  0.00     0.210 HD
ENDBRANCH  20  21
ENDBRANCH   5  20
ENDBRANCH   1   5
BRANCH   3  23
ATOM     23  C   UNL A   1      32.623  30.350  26.229  1.00  0.00     0.117 C 
BRANCH  23  24
ATOM     24  C   UNL A   1      33.405  30.297  27.536  1.00  0.00     0.042 C 
BRANCH  24  25
ATOM     25  C   UNL A   1      34.241  31.550  27.754  1.00  0.00     0.118 C 
BRANCH  25  26
ATOM     26  N   UNL A   1      34.271  31.978  29.159  1.00  0.00    -0.352 N 
ATOM     27  C   UNL A   1      35.214  31.696  30.135  1.00  0.00     0.251 C 
ATOM     28  H   UNL A   1      33.517  32.541  29.446  1.00  0.00     0.163 HD
ATOM     29  O   UNL A   1      35.032  31.963  31.302  1.00  0.00    -0.269 OA
BRANCH  27  30
ATOM     30  C   UNL A   1      36.454  31.030  29.703  1.00  0.00     0.039 A 
ATOM     31  C   UNL A   1      37.614  31.776  29.488  1.00  0.00     0.014 A 
ATOM     32  C   UNL A   1      36.471  29.641  29.692  1.00  0.00     0.014 A 
ATOM     33  C   UNL A   1      38.831  31.107  29.394  1.00  0.00     0.010 A 
ATOM     34  C   UNL A   1      37.685  28.999  29.749  1.00  0.00     0.010 A 
ATOM     35  C   UNL A   1      38.871  29.716  29.580  1.00  0.00    -0.014 A 
BRANCH  35  36
ATOM     36  C   UNL A   1      40.156  29.031  29.740  1.00  0.00     0.031 A 
ATOM     37  C   UNL A   1      40.648  28.857  31.144  1.00  0.00     0.074 A 
ATOM     38  C   UNL A   1      40.769  28.364  28.740  1.00  0.00     0.049 A 
ATOM     39  N   UNL A   1      41.763  29.270  31.655  1.00  0.00    -0.248 NA
ATOM     40  C   UNL A   1      39.767  28.183  32.112  1.00  0.00     0.031 C 
ATOM     41  C   UNL A   1      40.296  28.137  27.368  1.00  0.00     0.029 A 
ATOM     42  N   UNL A   1      41.913  27.628  28.788  1.00  0.00    -0.354 N 
ATOM     43  C   UNL A   1      41.802  28.786  32.963  1.00  0.00     0.074 A 
ATOM     44  C   UNL A   1      40.501  28.228  33.227  1.00  0.00     0.031 C 
ATOM     45  C   UNL A   1      41.004  27.135  26.808  1.00  0.00     0.029 A 
ATOM     46  C   UNL A   1      42.095  26.792  27.698  1.00  0.00     0.049 A 
ATOM     47  H   UNL A   1      42.555  27.685  29.532  1.00  0.00     0.167 HD
ATOM     48  C   UNL A   1      42.967  28.713  33.668  1.00  0.00     0.037 A 
ATOM     49  C   UNL A   1      43.066  25.865  27.536  1.00  0.00     0.037 A 
ATOM     50  C   UNL A   1      43.991  29.537  33.081  1.00  0.00     0.049 A 
ATOM     51  C   UNL A   1      44.175  26.220  28.452  1.00  0.00     0.074 A 
ATOM     52  C   UNL A   1      44.116  30.886  32.812  1.00  0.00     0.029 A 
ATOM     53  N   UNL A   1      44.976  28.926  32.345  1.00  0.00    -0.354 N 
ATOM     54  N   UNL A   1      44.921  27.281  28.318  1.00  0.00    -0.248 NA
ATOM     55  C   UNL A   1      44.199  25.602  29.768  1.00  0.00     0.031 C 
ATOM     56  C   UNL A   1      44.800  30.947  31.560  1.00  0.00     0.029 A 
ATOM     57  C   UNL A   1      45.096  29.638  31.179  1.00  0.00     0.049 A 
ATOM     58  H   UNL A   1      45.495  28.132  32.604  1.00  0.00     0.167 HD
ATOM     59  C   UNL A   1      45.154  27.710  29.615  1.00  0.00     0.074 A 
ATOM     60  C   UNL A   1      44.791  26.578  30.461  1.00  0.00     0.031 C 
ATOM     61  C   UNL A   1      45.352  29.033  29.894  1.00  0.00     0.037 A 
BRANCH  48  62
ATOM     62  C   UNL A   1      43.288  27.656  34.698  1.00  0.00     0.064 A 
ATOM     63  C   UNL A   1      43.587  28.039  36.023  1.00  0.00     0.173 A 
ATOM     64  C   UNL A   1      43.607  26.323  34.366  1.00  0.00     0.173 A 
ATOM     65  F   UNL A   1      43.351  29.291  36.442  1.00  0.00    -0.203 F 
ATOM     66  C   UNL A   1      44.219  27.171  36.919  1.00  0.00     0.198 A 
ATOM     67  C   UNL A   1      44.188  25.444  35.279  1.00  0.00     0.198 A 
ATOM     68  F   UNL A   1      43.476  25.854  33.119  1.00  0.00    -0.203 F 
ATOM     69  F   UNL A   1      44.596  27.618  38.125  1.00  0.00    -0.200 F 
ATOM     70  C   UNL A   1      44.524  25.876  36.545  1.00  0.00     0.200 A 
ATOM     71  F   UNL A   1      44.495  24.198  34.890  1.00  0.00    -0.200 F 
ATOM     72  F   UNL A   1      45.184  25.062  37.379  1.00  0.00    -0.200 F 
ENDBRANCH  48  62
BRANCH  49  73
ATOM     73  C   UNL A   1      42.991  24.580  26.813  1.00  0.00     0.064 A 
ATOM     74  C   UNL A   1      43.558  24.430  25.540  1.00  0.00     0.173 A 
ATOM     75  C   UNL A   1      42.589  23.398  27.468  1.00  0.00     0.173 A 
ATOM     76  F   UNL A   1      43.998  25.504  24.868  1.00  0.00    -0.203 F 
ATOM     77  C   UNL A   1      43.743  23.169  24.967  1.00  0.00     0.198 A 
ATOM     78  C   UNL A   1      42.765  22.141  26.891  1.00  0.00     0.198 A 
ATOM     79  F   UNL A   1      42.103  23.437  28.717  1.00  0.00    -0.203 F 
ATOM     80  F   UNL A   1      44.348  23.060  23.776  1.00  0.00    -0.200 F 
ATOM     81  C   UNL A   1      43.357  22.026  25.647  1.00  0.00     0.200 A 
ATOM     82  F   UNL A   1      42.416  21.041  27.574  1.00  0.00    -0.200 F 
ATOM     83  F   UNL A   1      43.592  20.814  25.125  1.00  0.00    -0.200 F 
ENDBRANCH  49  73
BRANCH  61  84
ATOM     84  C   UNL A   1      45.598  29.966  28.741  1.00  0.00     0.064 A 
ATOM     85  C   UNL A   1      44.581  30.624  28.025  1.00  0.00     0.173 A 
ATOM     86  C   UNL A   1      46.921  30.311  28.437  1.00  0.00     0.173 A 
ATOM     87  F   UNL A   1      43.292  30.435  28.324  1.00  0.00    -0.203 F 
ATOM     88  C   UNL A   1      44.880  31.542  27.019  1.00  0.00     0.198 A 
ATOM     89  C   UNL A   1      47.216  31.258  27.457  1.00  0.00     0.198 A 
ATOM     90  F   UNL A   1      47.935  29.763  29.125  1.00  0.00    -0.203 F 
ATOM     91  F   UNL A   1      43.888  32.141  26.341  1.00  0.00    -0.200 F 
ATOM     92  C   UNL A   1      46.197  31.862  26.740  1.00  0.00     0.200 A 
ATOM     93  F   UNL A   1      48.491  31.602  27.226  1.00  0.00    -0.200 F 
ATOM     94  F   UNL A   1      46.483  32.772  25.799  1.00  0.00    -0.200 F 
ENDBRANCH  61  84
ENDBRANCH  35  36
ENDBRANCH  27  30
ENDBRANCH  25  26
ENDBRANCH  24  25
ENDBRANCH  23  24
ENDBRANCH   3  23
TORSDOF 17
ENDMDL
MODEL 2
REMARK VINA RESULT:     -11.2      1.222      1.701
REMARK SMILES O=C(CSc1nnnn1C1CC1)N[C@H](CO)C(=O)NCCCNC(=O)c1ccc(-c2c3nc(c(-c4c(F)c(F)c(F)c(F)c4F)c4ccc([nH]4)c(-c4c(F)c(F)c(F)c(F)c4F)c4nc(c(-c5c(F)c(F)c(F)c(F)c5F)c5ccc2[nH]5)C=C4)C=C3)cc1
REMARK SMILES IDX 17 1 18 2 19 3 14 5 13 6 1 7 2 8 3 10 4 11 5 12 6 13 9 14
REMARK SMILES IDX 7 15 8 16 10 17 11 18 12 19 15 20 16 21 20 23 21 24 22 25
REMARK SMILES IDX 23 26 24 27 25 29 26 30 27 31 88 32 28 33 87 34 29 35 30 36
REMARK SMILES IDX 31 37 81 38 32 39 86 40 80 41 82 42 33 43 85 44 79 45 78 46
REMARK SMILES IDX 34 48 66 49 46 50 65 51 47 52 50 53 64 54 83 55 48 56 49 57
REMARK SMILES IDX 63 59 84 60 51 61 35 62 36 63 44 64 37 65 38 66 42 67 45 68
REMARK SMILES IDX 39 69 40 70 43 71 41 72 67 73 68 74 76 75 69 76 70 77 74 78
REMARK SMILES IDX 77 79 71 80 72 81 75 82 73 83 52 84 53 85 61 86 54 87 55 88
REMARK SMILES IDX 59 89 62 90 56 91 57 92 60 93 58 94
REMARK H PARENT 19 4 13 9 16 22 23 28 82 47 50 58
REMARK Flexibility Score: inf
ROOT
ATOM      1  C   UNL A   1      32.524  28.828  23.580  1.00  0.00     0.244 C 
ATOM      2  O   UNL A   1      33.155  28.959  22.528  1.00  0.00    -0.273 OA
ATOM      3  N   UNL A   1      32.808  29.687  24.610  1.00  0.00    -0.354 N 
ATOM      4  H   UNL A   1      33.703  30.095  24.607  1.00  0.00     0.163 HD
ENDROOT
BRANCH   1   5
ATOM      5  C   UNL A   1      31.447  27.737  23.739  1.00  0.00     0.197 C 
BRANCH   5   6
ATOM      6  N   UNL A   1      31.742  26.811  24.858  1.00  0.00    -0.342 N 
ATOM      7  O   UNL A   1      33.988  26.548  24.508  1.00  0.00    -0.274 OA
ATOM      8  C   UNL A   1      32.967  26.229  25.111  1.00  0.00     0.231 C 
ATOM      9  H   UNL A   1      31.003  26.594  25.471  1.00  0.00     0.164 HD
BRANCH   8  10
ATOM     10  C   UNL A   1      32.982  25.088  26.118  1.00  0.00     0.178 C 
BRANCH  10  11
ATOM     11  S   UNL A   1      32.354  23.520  25.474  1.00  0.00    -0.075 SA
BRANCH  11  12
ATOM     12  C   UNL A   1      33.121  23.423  23.932  1.00  0.00     0.210 A 
ATOM     13  N   UNL A   1      32.528  23.629  22.776  1.00  0.00    -0.102 NA
ATOM     14  N   UNL A   1      34.459  23.196  23.701  1.00  0.00    -0.217 N 
ATOM     15  N   UNL A   1      33.513  23.554  21.824  1.00  0.00    -0.023 NA
ATOM     16  N   UNL A   1      34.695  23.327  22.377  1.00  0.00    -0.044 NA
BRANCH  14  17
ATOM     17  C   UNL A   1      35.580  23.016  24.603  1.00  0.00     0.112 C 
ATOM     18  C   UNL A   1      35.715  21.862  25.587  1.00  0.00     0.029 C 
ATOM     19  C   UNL A   1      36.666  21.977  24.447  1.00  0.00     0.029 C 
ENDBRANCH  14  17
ENDBRANCH  11  12
ENDBRANCH  10  11
ENDBRANCH   8  10
ENDBRANCH   5   6
BRANCH   5  20
ATOM     20  C   UNL A   1      31.146  27.158  22.346  1.00  0.00     0.191 C 
BRANCH  20  21
ATOM     21  O   UNL A   1      32.217  26.339  21.880  1.00  0.00    -0.394 OA
ATOM     22  H   UNL A   1      31.855  25.544  21.458  1.00  0.00     0.210 HD
ENDBRANCH  20  21
ENDBRANCH   5  20
ENDBRANCH   1   5
BRANCH   3  23
ATOM     23  C   UNL A   1      31.934  30.059  25.704  1.00  0.00     0.117 C 
BRANCH  23  24
ATOM     24  C   UNL A   1      32.550  30.019  27.098  1.00  0.00     0.042 C 
BRANCH  24  25
ATOM     25  C   UNL A   1      33.781  30.910  27.204  1.00  0.00     0.118 C 
BRANCH  25  26
ATOM     26  N   UNL A   1      33.815  31.688  28.449  1.00  0.00    -0.352 N 
ATOM     27  C   UNL A   1      34.830  31.785  29.388  1.00  0.00     0.251 C 
ATOM     28  H   UNL A   1      33.004  32.211  28.644  1.00  0.00     0.163 HD
ATOM     29  O   UNL A   1      34.666  32.322  30.461  1.00  0.00    -0.269 OA
BRANCH  27  30
ATOM     30  C   UNL A   1      36.128  31.183  29.042  1.00  0.00     0.039 A 
ATOM     31  C   UNL A   1      37.293  31.952  29.087  1.00  0.00     0.014 A 
ATOM     32  C   UNL A   1      36.172  29.809  28.849  1.00  0.00     0.014 A 
ATOM     33  C   UNL A   1      38.524  31.302  29.070  1.00  0.00     0.010 A 
ATOM     34  C   UNL A   1      37.379  29.165  28.983  1.00  0.00     0.010 A 
ATOM     35  C   UNL A   1      38.565  29.899  29.072  1.00  0.00    -0.014 A 
BRANCH  35  36
ATOM     36  C   UNL A   1      39.829  29.199  29.312  1.00  0.00     0.031 A 
ATOM     37  C   UNL A   1      40.186  28.939  30.742  1.00  0.00     0.074 A 
ATOM     38  C   UNL A   1      40.533  28.589  28.335  1.00  0.00     0.049 A 
ATOM     39  N   UNL A   1      41.247  29.315  31.380  1.00  0.00    -0.248 NA
ATOM     40  C   UNL A   1      39.219  28.213  31.582  1.00  0.00     0.031 C 
ATOM     41  C   UNL A   1      40.192  28.447  26.914  1.00  0.00     0.029 A 
ATOM     42  N   UNL A   1      41.668  27.845  28.446  1.00  0.00    -0.354 N 
ATOM     43  C   UNL A   1      41.164  28.754  32.655  1.00  0.00     0.074 A 
ATOM     44  C   UNL A   1      39.844  28.188  32.761  1.00  0.00     0.031 C 
ATOM     45  C   UNL A   1      40.950  27.476  26.364  1.00  0.00     0.029 A 
ATOM     46  C   UNL A   1      41.953  27.075  27.331  1.00  0.00     0.049 A 
ATOM     47  H   UNL A   1      42.237  27.855  29.250  1.00  0.00     0.167 HD
ATOM     48  C   UNL A   1      42.257  28.633  33.460  1.00  0.00     0.037 A 
ATOM     49  C   UNL A   1      42.935  26.155  27.206  1.00  0.00     0.037 A 
ATOM     50  C   UNL A   1      43.332  29.484  33.023  1.00  0.00     0.049 A 
ATOM     51  C   UNL A   1      43.952  26.448  28.242  1.00  0.00     0.074 A 
ATOM     52  C   UNL A   1      43.481  30.846  32.848  1.00  0.00     0.029 A 
ATOM     53  N   UNL A   1      44.382  28.914  32.347  1.00  0.00    -0.354 N 
ATOM     54  N   UNL A   1      44.707  27.512  28.242  1.00  0.00    -0.248 NA
ATOM     55  C   UNL A   1      43.852  25.753  29.515  1.00  0.00     0.031 C 
ATOM     56  C   UNL A   1      44.280  30.979  31.672  1.00  0.00     0.029 A 
ATOM     57  C   UNL A   1      44.611  29.693  31.243  1.00  0.00     0.049 A 
ATOM     58  H   UNL A   1      44.875  28.103  32.606  1.00  0.00     0.167 HD
ATOM     59  C   UNL A   1      44.817  27.862  29.578  1.00  0.00     0.074 A 
ATOM     60  C   UNL A   1      44.376  26.682  30.317  1.00  0.00     0.031 C 
ATOM     61  C   UNL A   1      44.987  29.164  29.953  1.00  0.00     0.037 A 
BRANCH  48  62
ATOM     62  C   UNL A   1      42.480  27.514  34.451  1.00  0.00     0.064 A 
ATOM     63  C   UNL A   1      43.039  26.294  34.014  1.00  0.00     0.173 A 
ATOM     64  C   UNL A   1      41.894  27.488  35.733  1.00  0.00     0.173 A 
ATOM     65  F   UNL A   1      43.599  26.195  32.799  1.00  0.00    -0.203 F 
ATOM     66  C   UNL A   1      42.951  25.125  34.776  1.00  0.00     0.198 A 
ATOM     67  C   UNL A   1      41.857  26.333  36.514  1.00  0.00     0.198 A 
ATOM     68  F   UNL A   1      41.236  28.541  36.232  1.00  0.00    -0.203 F 
ATOM     69  F   UNL A   1      43.385  23.964  34.267  1.00  0.00    -0.200 F 
ATOM     70  C   UNL A   1      42.357  25.144  36.024  1.00  0.00     0.200 A 
ATOM     71  F   UNL A   1      41.257  26.367  37.713  1.00  0.00    -0.200 F 
ATOM     72  F   UNL A   1      42.217  24.015  36.730  1.00  0.00    -0.200 F 
ENDBRANCH  48  62
BRANCH  49  73
ATOM     73  C   UNL A   1      42.928  24.915  26.403  1.00  0.00     0.064 A 
ATOM     74  C   UNL A   1      43.864  24.709  25.380  1.00  0.00     0.173 A 
ATOM     75  C   UNL A   1      42.169  23.795  26.798  1.00  0.00     0.173 A 
ATOM     76  F   UNL A   1      44.650  25.717  24.973  1.00  0.00    -0.203 F 
ATOM     77  C   UNL A   1      44.053  23.449  24.806  1.00  0.00     0.198 A 
ATOM     78  C   UNL A   1      42.352  22.540  26.219  1.00  0.00     0.198 A 
ATOM     79  F   UNL A   1      41.302  23.879  27.818  1.00  0.00    -0.203 F 
ATOM     80  F   UNL A   1      45.002  23.275  23.875  1.00  0.00    -0.200 F 
ATOM     81  C   UNL A   1      43.305  22.364  25.233  1.00  0.00     0.200 A 
ATOM     82  F   UNL A   1      41.644  21.493  26.664  1.00  0.00    -0.200 F 
ATOM     83  F   UNL A   1      43.531  21.144  24.727  1.00  0.00    -0.200 F 
ENDBRANCH  49  73
BRANCH  61  84
ATOM     84  C   UNL A   1      45.341  30.163  28.886  1.00  0.00     0.064 A 
ATOM     85  C   UNL A   1      44.396  30.860  28.111  1.00  0.00     0.173 A 
ATOM     86  C   UNL A   1      46.685  30.527  28.737  1.00  0.00     0.173 A 
ATOM     87  F   UNL A   1      43.084  30.652  28.269  1.00  0.00    -0.203 F 
ATOM     88  C   UNL A   1      44.786  31.835  27.195  1.00  0.00     0.198 A 
ATOM     89  C   UNL A   1      47.069  31.529  27.848  1.00  0.00     0.198 A 
ATOM     90  F   UNL A   1      47.628  29.941  29.491  1.00  0.00    -0.203 F 
ATOM     91  F   UNL A   1      43.863  32.471  26.457  1.00  0.00    -0.200 F 
ATOM     92  C   UNL A   1      46.122  32.173  27.068  1.00  0.00     0.200 A 
ATOM     93  F   UNL A   1      48.358  31.888  27.766  1.00  0.00    -0.200 F 
ATOM     94  F   UNL A   1      46.495  33.136  26.214  1.00  0.00    -0.200 F 
ENDBRANCH  61  84
ENDBRANCH  35  36
ENDBRANCH  27  30
ENDBRANCH  25  26
ENDBRANCH  24  25
ENDBRANCH  23  24
ENDBRANCH   3  23
TORSDOF 17
ENDMDL
MODEL 3
REMARK VINA RESULT:     -11.1      1.289      1.800
REMARK SMILES O=C(CSc1nnnn1C1CC1)N[C@H](CO)C(=O)NCCCNC(=O)c1ccc(-c2c3nc(c(-c4c(F)c(F)c(F)c(F)c4F)c4ccc([nH]4)c(-c4c(F)c(F)c(F)c(F)c4F)c4nc(c(-c5c(F)c(F)c(F)c(F)c5F)c5ccc2[nH]5)C=C4)C=C3)cc1
REMARK SMILES IDX 17 1 18 2 19 3 14 5 13 6 1 7 2 8 3 10 4 11 5 12 6 13 9 14
REMARK SMILES IDX 7 15 8 16 10 17 11 18 12 19 15 20 16 21 20 23 21 24 22 25
REMARK SMILES IDX 23 26 24 27 25 29 26 30 27 31 88 32 28 33 87 34 29 35 30 36
REMARK SMILES IDX 31 37 81 38 32 39 86 40 80 41 82 42 33 43 85 44 79 45 78 46
REMARK SMILES IDX 34 48 66 49 46 50 65 51 47 52 50 53 64 54 83 55 48 56 49 57
REMARK SMILES IDX 63 59 84 60 51 61 35 62 36 63 44 64 37 65 38 66 42 67 45 68
REMARK SMILES IDX 39 69 40 70 43 71 41 72 67 73 68 74 76 75 69 76 70 77 74 78
REMARK SMILES IDX 77 79 71 80 72 81 75 82 73 83 52 84 53 85 61 86 54 87 55 88
REMARK SMILES IDX 59 89 62 90 56 91 57 92 60 93 58 94
REMARK H PARENT 19 4 13 9 16 22 23 28 82 47 50 58
REMARK Flexibility Score: inf
ROOT
ATOM      1  C   UNL A   1      32.435  28.776  23.604  1.00  0.00     0.244 C 
ATOM      2  O   UNL A   1      33.045  28.855  22.535  1.00  0.00    -0.273 OA
ATOM      3  N   UNL A   1      32.724  29.696  24.578  1.00  0.00    -0.354 N 
ATOM      4  H   UNL A   1      33.613  30.116  24.535  1.00  0.00     0.163 HD
ENDROOT
BRANCH   1   5
ATOM      5  C   UNL A   1      31.378  27.682  23.845  1.00  0.00     0.197 C 
BRANCH   5   6
ATOM      6  N   UNL A   1      31.943  26.316  23.742  1.00  0.00    -0.342 N 
ATOM      7  O   UNL A   1      31.654  25.655  25.913  1.00  0.00    -0.274 OA
ATOM      8  C   UNL A   1      32.108  25.438  24.793  1.00  0.00     0.231 C 
ATOM      9  H   UNL A   1      32.224  26.010  22.849  1.00  0.00     0.164 HD
BRANCH   8  10
ATOM     10  C   UNL A   1      32.974  24.215  24.527  1.00  0.00     0.178 C 
BRANCH  10  11
ATOM     11  S   UNL A   1      33.224  23.154  25.969  1.00  0.00    -0.075 SA
BRANCH  11  12
ATOM     12  C   UNL A   1      34.610  22.233  25.512  1.00  0.00     0.210 A 
ATOM     13  N   UNL A   1      35.844  22.688  25.481  1.00  0.00    -0.102 NA
ATOM     14  N   UNL A   1      34.629  20.894  25.195  1.00  0.00    -0.217 N 
ATOM     15  N   UNL A   1      36.637  21.613  25.167  1.00  0.00    -0.023 NA
ATOM     16  N   UNL A   1      35.914  20.511  25.026  1.00  0.00    -0.044 NA
BRANCH  14  17
ATOM     17  C   UNL A   1      33.585  19.888  25.179  1.00  0.00     0.112 C 
ATOM     18  C   UNL A   1      32.526  19.767  24.091  1.00  0.00     0.029 C 
ATOM     19  C   UNL A   1      33.543  18.691  24.258  1.00  0.00     0.029 C 
ENDBRANCH  14  17
ENDBRANCH  11  12
ENDBRANCH  10  11
ENDBRANCH   8  10
ENDBRANCH   5   6
BRANCH   5  20
ATOM     20  C   UNL A   1      30.125  28.039  23.025  1.00  0.00     0.191 C 
BRANCH  20  21
ATOM     21  O   UNL A   1      30.465  28.380  21.682  1.00  0.00    -0.394 OA
ATOM     22  H   UNL A   1      31.157  29.060  21.687  1.00  0.00     0.210 HD
ENDBRANCH  20  21
ENDBRANCH   5  20
ENDBRANCH   1   5
BRANCH   3  23
ATOM     23  C   UNL A   1      31.864  30.119  25.665  1.00  0.00     0.117 C 
BRANCH  23  24
ATOM     24  C   UNL A   1      32.444  29.988  27.068  1.00  0.00     0.042 C 
BRANCH  24  25
ATOM     25  C   UNL A   1      33.759  30.740  27.216  1.00  0.00     0.118 C 
BRANCH  25  26
ATOM     26  N   UNL A   1      33.798  31.589  28.414  1.00  0.00    -0.352 N 
ATOM     27  C   UNL A   1      34.824  31.754  29.332  1.00  0.00     0.251 C 
ATOM     28  H   UNL A   1      32.983  32.112  28.589  1.00  0.00     0.163 HD
ATOM     29  O   UNL A   1      34.666  32.350  30.374  1.00  0.00    -0.269 OA
BRANCH  27  30
ATOM     30  C   UNL A   1      36.126  31.152  29.003  1.00  0.00     0.039 A 
ATOM     31  C   UNL A   1      37.295  31.912  29.091  1.00  0.00     0.014 A 
ATOM     32  C   UNL A   1      36.166  29.782  28.782  1.00  0.00     0.014 A 
ATOM     33  C   UNL A   1      38.521  31.254  29.088  1.00  0.00     0.010 A 
ATOM     34  C   UNL A   1      37.367  29.127  28.930  1.00  0.00     0.010 A 
ATOM     35  C   UNL A   1      38.554  29.851  29.062  1.00  0.00    -0.014 A 
BRANCH  35  36
ATOM     36  C   UNL A   1      39.808  29.138  29.316  1.00  0.00     0.031 A 
ATOM     37  C   UNL A   1      40.163  28.906  30.751  1.00  0.00     0.074 A 
ATOM     38  C   UNL A   1      40.502  28.497  28.352  1.00  0.00     0.049 A 
ATOM     39  N   UNL A   1      41.231  29.280  31.380  1.00  0.00    -0.248 NA
ATOM     40  C   UNL A   1      39.186  28.213  31.608  1.00  0.00     0.031 C 
ATOM     41  C   UNL A   1      40.157  28.327  26.935  1.00  0.00     0.029 A 
ATOM     42  N   UNL A   1      41.626  27.739  28.479  1.00  0.00    -0.354 N 
ATOM     43  C   UNL A   1      41.141  28.749  32.667  1.00  0.00     0.074 A 
ATOM     44  C   UNL A   1      39.813  28.205  32.787  1.00  0.00     0.031 C 
ATOM     45  C   UNL A   1      40.899  27.334  26.406  1.00  0.00     0.029 A 
ATOM     46  C   UNL A   1      41.897  26.940  27.381  1.00  0.00     0.049 A 
ATOM     47  H   UNL A   1      42.196  27.758  29.282  1.00  0.00     0.167 HD
ATOM     48  C   UNL A   1      42.234  28.630  33.473  1.00  0.00     0.037 A 
ATOM     49  C   UNL A   1      42.866  26.002  27.275  1.00  0.00     0.037 A 
ATOM     50  C   UNL A   1      43.320  29.455  33.016  1.00  0.00     0.049 A 
ATOM     51  C   UNL A   1      43.889  26.304  28.303  1.00  0.00     0.074 A 
ATOM     52  C   UNL A   1      43.489  30.811  32.810  1.00  0.00     0.029 A 
ATOM     53  N   UNL A   1      44.360  28.855  32.352  1.00  0.00    -0.354 N 
ATOM     54  N   UNL A   1      44.659  27.356  28.279  1.00  0.00    -0.248 NA
ATOM     55  C   UNL A   1      43.780  25.640  29.592  1.00  0.00     0.031 C 
ATOM     56  C   UNL A   1      44.288  30.905  31.631  1.00  0.00     0.029 A 
ATOM     57  C   UNL A   1      44.599  29.605  31.230  1.00  0.00     0.049 A 
ATOM     58  H   UNL A   1      44.842  28.042  32.628  1.00  0.00     0.167 HD
ATOM     59  C   UNL A   1      44.776  27.734  29.607  1.00  0.00     0.074 A 
ATOM     60  C   UNL A   1      44.319  26.579  30.372  1.00  0.00     0.031 C 
ATOM     61  C   UNL A   1      44.965  29.042  29.952  1.00  0.00     0.037 A 
BRANCH  48  62
ATOM     62  C   UNL A   1      42.442  27.531  34.488  1.00  0.00     0.064 A 
ATOM     63  C   UNL A   1      43.009  26.303  34.084  1.00  0.00     0.173 A 
ATOM     64  C   UNL A   1      41.834  27.527  35.761  1.00  0.00     0.173 A 
ATOM     65  F   UNL A   1      43.590  26.182  32.881  1.00  0.00    -0.203 F 
ATOM     66  C   UNL A   1      42.910  25.149  34.867  1.00  0.00     0.198 A 
ATOM     67  C   UNL A   1      41.785  26.387  36.563  1.00  0.00     0.198 A 
ATOM     68  F   UNL A   1      41.167  28.589  36.229  1.00  0.00    -0.203 F 
ATOM     69  F   UNL A   1      43.354  23.979  34.387  1.00  0.00    -0.200 F 
ATOM     70  C   UNL A   1      42.295  25.190  36.104  1.00  0.00     0.200 A 
ATOM     71  F   UNL A   1      41.165  26.443  37.750  1.00  0.00    -0.200 F 
ATOM     72  F   UNL A   1      42.145  24.075  36.829  1.00  0.00    -0.200 F 
ENDBRANCH  48  62
BRANCH  49  73
ATOM     73  C   UNL A   1      42.840  24.746  26.501  1.00  0.00     0.064 A 
ATOM     74  C   UNL A   1      43.704  24.545  25.415  1.00  0.00     0.173 A 
ATOM     75  C   UNL A   1      42.148  23.612  26.974  1.00  0.00     0.173 A 
ATOM     76  F   UNL A   1      44.425  25.566  24.931  1.00  0.00    -0.203 F 
ATOM     77  C   UNL A   1      43.890  23.279  24.854  1.00  0.00     0.198 A 
ATOM     78  C   UNL A   1      42.327  22.351  26.408  1.00  0.00     0.198 A 
ATOM     79  F   UNL A   1      41.355  23.693  28.053  1.00  0.00    -0.203 F 
ATOM     80  F   UNL A   1      44.774  23.113  23.860  1.00  0.00    -0.200 F 
ATOM     81  C   UNL A   1      43.211  22.181  25.358  1.00  0.00     0.200 A 
ATOM     82  F   UNL A   1      41.688  21.292  26.925  1.00  0.00    -0.200 F 
ATOM     83  F   UNL A   1      43.437  20.957  24.862  1.00  0.00    -0.200 F 
ENDBRANCH  49  73
BRANCH  61  84
ATOM     84  C   UNL A   1      45.333  30.012  28.863  1.00  0.00     0.064 A 
ATOM     85  C   UNL A   1      44.397  30.695  28.065  1.00  0.00     0.173 A 
ATOM     86  C   UNL A   1      46.680  30.364  28.713  1.00  0.00     0.173 A 
ATOM     87  F   UNL A   1      43.083  30.499  28.219  1.00  0.00    -0.203 F 
ATOM     88  C   UNL A   1      44.799  31.644  27.126  1.00  0.00     0.198 A 
ATOM     89  C   UNL A   1      47.076  31.341  27.801  1.00  0.00     0.198 A 
ATOM     90  F   UNL A   1      47.615  29.791  29.487  1.00  0.00    -0.203 F 
ATOM     91  F   UNL A   1      43.885  32.267  26.367  1.00  0.00    -0.200 F 
ATOM     92  C   UNL A   1      46.138  31.970  27.000  1.00  0.00     0.200 A 
ATOM     93  F   UNL A   1      48.368  31.689  27.719  1.00  0.00    -0.200 F 
ATOM     94  F   UNL A   1      46.522  32.909  26.124  1.00  0.00    -0.200 F 
ENDBRANCH  61  84
ENDBRANCH  35  36
ENDBRANCH  27  30
ENDBRANCH  25  26
ENDBRANCH  24  25
ENDBRANCH  23  24
ENDBRANCH   3  23
TORSDOF 17
ENDMDL
