MODEL 1
REMARK VINA RESULT:     -12.2      0.000      0.000
REMARK SMILES COc1ncccc1NS(=O)(=O)c1ccc(C(=O)NCCCNC(=O)c2ccc(-c3c4nc(c(-c5c(F)c(F)c(F)c(F)c5F)c5ccc([nH]5)c(-c5c(F)c(F)c(F)c(F)c5F)c5nc(c(-c6c(F)c(F)c(F)c(F)c6F)c6ccc3[nH]6)C=C5)C=C4)cc2)cc1
REMARK SMILES IDX 20 1 19 2 17 3 18 4 16 6 13 7 14 8 90 9 15 10 89 11 10 12
REMARK SMILES IDX 11 13 12 14 9 15 8 17 3 18 4 19 5 20 7 21 6 22 2 23 1 24
REMARK SMILES IDX 21 25 22 26 23 27 24 28 25 30 26 31 27 32 88 33 28 34 87 35
REMARK SMILES IDX 29 36 30 37 31 38 81 39 32 40 86 41 80 42 82 43 33 44 85 45
REMARK SMILES IDX 79 46 78 47 34 49 66 50 46 51 65 52 47 53 50 54 64 55 83 56
REMARK SMILES IDX 48 57 49 58 63 60 84 61 51 62 35 63 36 64 44 65 37 66 38 67
REMARK SMILES IDX 42 68 45 69 39 70 40 71 43 72 41 73 67 74 68 75 76 76 69 77
REMARK SMILES IDX 70 78 74 79 77 80 71 81 72 82 75 83 73 84 52 85 53 86 61 87
REMARK SMILES IDX 54 88 55 89 59 90 62 91 56 92 57 93 60 94 58 95
REMARK H PARENT 19 5 9 16 23 29 82 48 50 59
REMARK Flexibility Score: inf
ROOT
ATOM      1  C   UNL A   1      33.483  27.916  22.665  1.00  0.00     0.118 C 
ENDROOT
BRANCH   1   2
ATOM      2  N   UNL A   1      32.127  28.264  22.283  1.00  0.00    -0.352 N 
ATOM      3  C   UNL A   1      30.914  27.676  22.538  1.00  0.00     0.251 C 
ATOM      4  O   UNL A   1      29.914  28.220  22.069  1.00  0.00    -0.269 OA
ATOM      5  H   UNL A   1      32.066  29.078  21.734  1.00  0.00     0.163 HD
BRANCH   3   6
ATOM      6  C   UNL A   1      30.748  26.470  23.399  1.00  0.00     0.039 A 
ATOM      7  C   UNL A   1      30.639  24.358  25.234  1.00  0.00     0.087 A 
ATOM      8  C   UNL A   1      30.258  25.641  25.636  1.00  0.00     0.023 A 
ATOM      9  C   UNL A   1      30.927  24.095  23.897  1.00  0.00     0.023 A 
ATOM     10  C   UNL A   1      30.333  26.695  24.722  1.00  0.00     0.015 A 
ATOM     11  C   UNL A   1      30.968  25.151  22.984  1.00  0.00     0.015 A 
BRANCH   7  12
ATOM     12  S   UNL A   1      30.755  23.045  26.410  1.00  0.00     0.262 S 
ATOM     13  O   UNL A   1      30.697  21.807  25.670  1.00  0.00    -0.201 OA
ATOM     14  O   UNL A   1      29.796  23.314  27.470  1.00  0.00    -0.201 OA
BRANCH  12  15
ATOM     15  N   UNL A   1      32.250  23.093  27.203  1.00  0.00    -0.274 N 
ATOM     16  H   UNL A   1      32.252  23.033  28.185  1.00  0.00     0.180 HD
BRANCH  15  17
ATOM     17  C   UNL A   1      33.515  23.215  26.536  1.00  0.00     0.111 A 
ATOM     18  C   UNL A   1      34.223  22.150  25.966  1.00  0.00     0.238 A 
ATOM     19  N   UNL A   1      35.309  22.283  25.171  1.00  0.00    -0.220 NA
ATOM     20  C   UNL A   1      35.678  23.543  24.862  1.00  0.00     0.115 A 
ATOM     21  C   UNL A   1      33.903  24.497  26.147  1.00  0.00     0.034 A 
ATOM     22  C   UNL A   1      35.003  24.669  25.307  1.00  0.00     0.023 A 
BRANCH  18  23
ATOM     23  O   UNL A   1      33.834  20.866  26.220  1.00  0.00    -0.480 OA
ATOM     24  C   UNL A   1      33.753  20.107  25.025  1.00  0.00     0.280 C 
ENDBRANCH  18  23
ENDBRANCH  15  17
ENDBRANCH  12  15
ENDBRANCH   7  12
ENDBRANCH   3   6
ENDBRANCH   1   2
BRANCH   1  25
ATOM     25  C   UNL A   1      34.068  28.967  23.608  1.00  0.00     0.042 C 
BRANCH  25  26
ATOM     26  C   UNL A   1      33.562  28.842  25.040  1.00  0.00     0.118 C 
BRANCH  26  27
ATOM     27  N   UNL A   1      32.926  30.065  25.501  1.00  0.00    -0.352 N 
ATOM     28  C   UNL A   1      33.201  30.833  26.605  1.00  0.00     0.251 C 
ATOM     29  H   UNL A   1      32.188  30.390  24.939  1.00  0.00     0.163 HD
ATOM     30  O   UNL A   1      32.411  31.709  26.943  1.00  0.00    -0.269 OA
BRANCH  28  31
ATOM     31  C   UNL A   1      34.432  30.610  27.398  1.00  0.00     0.039 A 
ATOM     32  C   UNL A   1      34.641  29.350  27.969  1.00  0.00     0.014 A 
ATOM     33  C   UNL A   1      35.350  31.639  27.630  1.00  0.00     0.014 A 
ATOM     34  C   UNL A   1      35.787  29.110  28.732  1.00  0.00     0.010 A 
ATOM     35  C   UNL A   1      36.526  31.380  28.331  1.00  0.00     0.010 A 
ATOM     36  C   UNL A   1      36.751  30.117  28.900  1.00  0.00    -0.014 A 
BRANCH  36  37
ATOM     37  C   UNL A   1      37.986  29.875  29.687  1.00  0.00     0.031 A 
ATOM     38  C   UNL A   1      39.057  28.965  29.150  1.00  0.00     0.074 A 
ATOM     39  C   UNL A   1      38.118  30.425  30.910  1.00  0.00     0.049 A 
ATOM     40  N   UNL A   1      40.169  28.569  29.717  1.00  0.00    -0.248 NA
ATOM     41  C   UNL A   1      38.835  28.406  27.808  1.00  0.00     0.031 C 
ATOM     42  C   UNL A   1      37.131  31.290  31.556  1.00  0.00     0.029 A 
ATOM     43  N   UNL A   1      39.131  30.327  31.830  1.00  0.00    -0.354 N 
ATOM     44  C   UNL A   1      40.766  27.702  28.811  1.00  0.00     0.074 A 
ATOM     45  C   UNL A   1      39.874  27.593  27.677  1.00  0.00     0.031 C 
ATOM     46  C   UNL A   1      37.594  31.657  32.762  1.00  0.00     0.029 A 
ATOM     47  C   UNL A   1      38.892  31.028  32.987  1.00  0.00     0.049 A 
ATOM     48  H   UNL A   1      39.951  29.805  31.676  1.00  0.00     0.167 HD
ATOM     49  C   UNL A   1      41.960  27.070  28.908  1.00  0.00     0.037 A 
ATOM     50  C   UNL A   1      39.634  31.144  34.104  1.00  0.00     0.037 A 
ATOM     51  C   UNL A   1      42.861  27.205  30.022  1.00  0.00     0.049 A 
ATOM     52  C   UNL A   1      40.961  30.439  34.182  1.00  0.00     0.074 A 
ATOM     53  C   UNL A   1      44.121  26.655  30.187  1.00  0.00     0.029 A 
ATOM     54  N   UNL A   1      42.596  27.946  31.164  1.00  0.00    -0.354 N 
ATOM     55  N   UNL A   1      41.543  29.672  33.293  1.00  0.00    -0.248 NA
ATOM     56  C   UNL A   1      41.737  30.624  35.416  1.00  0.00     0.031 C 
ATOM     57  C   UNL A   1      44.602  27.034  31.445  1.00  0.00     0.029 A 
ATOM     58  C   UNL A   1      43.661  27.855  32.046  1.00  0.00     0.049 A 
ATOM     59  H   UNL A   1      41.771  28.462  31.325  1.00  0.00     0.167 HD
ATOM     60  C   UNL A   1      42.762  29.304  33.847  1.00  0.00     0.074 A 
ATOM     61  C   UNL A   1      42.841  29.943  35.144  1.00  0.00     0.031 C 
ATOM     62  C   UNL A   1      43.727  28.507  33.328  1.00  0.00     0.037 A 
BRANCH  49  63
ATOM     63  C   UNL A   1      42.365  26.174  27.773  1.00  0.00     0.064 A 
ATOM     64  C   UNL A   1      43.233  26.614  26.762  1.00  0.00     0.173 A 
ATOM     65  C   UNL A   1      41.909  24.849  27.714  1.00  0.00     0.173 A 
ATOM     66  F   UNL A   1      43.688  27.877  26.767  1.00  0.00    -0.203 F 
ATOM     67  C   UNL A   1      43.606  25.771  25.720  1.00  0.00     0.198 A 
ATOM     68  C   UNL A   1      42.307  23.999  26.684  1.00  0.00     0.198 A 
ATOM     69  F   UNL A   1      41.082  24.375  28.658  1.00  0.00    -0.203 F 
ATOM     70  F   UNL A   1      44.398  26.230  24.740  1.00  0.00    -0.200 F 
ATOM     71  C   UNL A   1      43.148  24.463  25.685  1.00  0.00     0.200 A 
ATOM     72  F   UNL A   1      41.873  22.731  26.659  1.00  0.00    -0.200 F 
ATOM     73  F   UNL A   1      43.512  23.650  24.684  1.00  0.00    -0.200 F 
ENDBRANCH  49  63
BRANCH  50  74
ATOM     74  C   UNL A   1      39.150  31.983  35.230  1.00  0.00     0.064 A 
ATOM     75  C   UNL A   1      39.420  33.358  35.268  1.00  0.00     0.173 A 
ATOM     76  C   UNL A   1      38.408  31.433  36.286  1.00  0.00     0.173 A 
ATOM     77  F   UNL A   1      40.143  33.924  34.290  1.00  0.00    -0.203 F 
ATOM     78  C   UNL A   1      38.980  34.148  36.326  1.00  0.00     0.198 A 
ATOM     79  C   UNL A   1      37.947  32.230  37.331  1.00  0.00     0.198 A 
ATOM     80  F   UNL A   1      38.120  30.124  36.292  1.00  0.00    -0.203 F 
ATOM     81  F   UNL A   1      39.286  35.453  36.358  1.00  0.00    -0.200 F 
ATOM     82  C   UNL A   1      38.240  33.586  37.355  1.00  0.00     0.200 A 
ATOM     83  F   UNL A   1      37.220  31.684  38.316  1.00  0.00    -0.200 F 
ATOM     84  F   UNL A   1      37.813  34.347  38.371  1.00  0.00    -0.200 F 
ENDBRANCH  50  74
BRANCH  62  85
ATOM     85  C   UNL A   1      44.969  28.310  34.146  1.00  0.00     0.064 A 
ATOM     86  C   UNL A   1      45.089  27.247  35.054  1.00  0.00     0.173 A 
ATOM     87  C   UNL A   1      46.065  29.171  33.991  1.00  0.00     0.173 A 
ATOM     88  F   UNL A   1      44.061  26.406  35.249  1.00  0.00    -0.203 F 
ATOM     89  C   UNL A   1      46.255  27.066  35.793  1.00  0.00     0.198 A 
ATOM     90  C   UNL A   1      47.239  28.972  34.712  1.00  0.00     0.198 A 
ATOM     91  F   UNL A   1      46.001  30.199  33.131  1.00  0.00    -0.203 F 
ATOM     92  F   UNL A   1      46.333  26.071  36.685  1.00  0.00    -0.200 F 
ATOM     93  C   UNL A   1      47.331  27.924  35.616  1.00  0.00     0.200 A 
ATOM     94  F   UNL A   1      48.281  29.794  34.532  1.00  0.00    -0.200 F 
ATOM     95  F   UNL A   1      48.454  27.746  36.324  1.00  0.00    -0.200 F 
ENDBRANCH  62  85
ENDBRANCH  36  37
ENDBRANCH  28  31
ENDBRANCH  26  27
ENDBRANCH  25  26
ENDBRANCH   1  25
TORSDOF 14
ENDMDL
MODEL 2
REMARK VINA RESULT:     -12.2      4.511      9.914
REMARK SMILES COc1ncccc1NS(=O)(=O)c1ccc(C(=O)NCCCNC(=O)c2ccc(-c3c4nc(c(-c5c(F)c(F)c(F)c(F)c5F)c5ccc([nH]5)c(-c5c(F)c(F)c(F)c(F)c5F)c5nc(c(-c6c(F)c(F)c(F)c(F)c6F)c6ccc3[nH]6)C=C5)C=C4)cc2)cc1
REMARK SMILES IDX 20 1 19 2 17 3 18 4 16 6 13 7 14 8 90 9 15 10 89 11 10 12
REMARK SMILES IDX 11 13 12 14 9 15 8 17 3 18 4 19 5 20 7 21 6 22 2 23 1 24
REMARK SMILES IDX 21 25 22 26 23 27 24 28 25 30 26 31 27 32 88 33 28 34 87 35
REMARK SMILES IDX 29 36 30 37 31 38 81 39 32 40 86 41 80 42 82 43 33 44 85 45
REMARK SMILES IDX 79 46 78 47 34 49 66 50 46 51 65 52 47 53 50 54 64 55 83 56
REMARK SMILES IDX 48 57 49 58 63 60 84 61 51 62 35 63 36 64 44 65 37 66 38 67
REMARK SMILES IDX 42 68 45 69 39 70 40 71 43 72 41 73 67 74 68 75 76 76 69 77
REMARK SMILES IDX 70 78 74 79 77 80 71 81 72 82 75 83 73 84 52 85 53 86 61 87
REMARK SMILES IDX 54 88 55 89 59 90 62 91 56 92 57 93 60 94 58 95
REMARK H PARENT 19 5 9 16 23 29 82 48 50 59
REMARK Flexibility Score: inf
ROOT
ATOM      1  C   UNL A   1      37.257  20.704  24.745  1.00  0.00     0.118 C 
ENDROOT
BRANCH   1   2
ATOM      2  N   UNL A   1      37.780  21.966  25.233  1.00  0.00    -0.352 N 
ATOM      3  C   UNL A   1      37.168  23.114  25.668  1.00  0.00     0.251 C 
ATOM      4  O   UNL A   1      37.897  24.039  26.031  1.00  0.00    -0.269 OA
ATOM      5  H   UNL A   1      38.763  22.007  25.257  1.00  0.00     0.163 HD
BRANCH   3   6
ATOM      6  C   UNL A   1      35.690  23.267  25.784  1.00  0.00     0.039 A 
ATOM      7  C   UNL A   1      32.962  23.881  25.938  1.00  0.00     0.087 A 
ATOM      8  C   UNL A   1      33.673  24.185  24.773  1.00  0.00     0.023 A 
ATOM      9  C   UNL A   1      33.561  23.143  26.956  1.00  0.00     0.023 A 
ATOM     10  C   UNL A   1      35.038  23.895  24.710  1.00  0.00     0.015 A 
ATOM     11  C   UNL A   1      34.919  22.830  26.868  1.00  0.00     0.015 A 
BRANCH   7  12
ATOM     12  S   UNL A   1      31.290  24.416  26.136  1.00  0.00     0.262 S 
ATOM     13  O   UNL A   1      30.739  23.680  27.249  1.00  0.00    -0.201 OA
ATOM     14  O   UNL A   1      30.651  24.364  24.831  1.00  0.00    -0.201 OA
BRANCH  12  15
ATOM     15  N   UNL A   1      31.241  26.059  26.540  1.00  0.00    -0.274 N 
ATOM     16  H   UNL A   1      30.661  26.332  27.286  1.00  0.00     0.180 HD
BRANCH  15  17
ATOM     17  C   UNL A   1      31.991  27.080  25.864  1.00  0.00     0.111 A 
ATOM     18  C   UNL A   1      31.492  27.890  24.838  1.00  0.00     0.238 A 
ATOM     19  N   UNL A   1      32.122  28.976  24.336  1.00  0.00    -0.220 NA
ATOM     20  C   UNL A   1      33.282  29.326  24.928  1.00  0.00     0.115 A 
ATOM     21  C   UNL A   1      33.166  27.510  26.479  1.00  0.00     0.034 A 
ATOM     22  C   UNL A   1      33.830  28.642  26.003  1.00  0.00     0.023 A 
BRANCH  18  23
ATOM     23  O   UNL A   1      30.292  27.587  24.260  1.00  0.00    -0.480 OA
ATOM     24  C   UNL A   1      30.350  27.733  22.850  1.00  0.00     0.280 C 
ENDBRANCH  18  23
ENDBRANCH  15  17
ENDBRANCH  12  15
ENDBRANCH   7  12
ENDBRANCH   3   6
ENDBRANCH   1   2
BRANCH   1  25
ATOM     25  C   UNL A   1      38.257  19.573  24.986  1.00  0.00     0.042 C 
BRANCH  25  26
ATOM     26  C   UNL A   1      39.228  19.857  26.126  1.00  0.00     0.118 C 
BRANCH  26  27
ATOM     27  N   UNL A   1      40.387  18.981  26.085  1.00  0.00    -0.352 N 
ATOM     28  C   UNL A   1      41.723  19.294  26.070  1.00  0.00     0.251 C 
ATOM     29  H   UNL A   1      40.182  18.018  26.064  1.00  0.00     0.163 HD
ATOM     30  O   UNL A   1      42.546  18.420  25.814  1.00  0.00    -0.269 OA
BRANCH  28  31
ATOM     31  C   UNL A   1      42.182  20.675  26.348  1.00  0.00     0.039 A 
ATOM     32  C   UNL A   1      42.365  21.063  27.680  1.00  0.00     0.014 A 
ATOM     33  C   UNL A   1      42.380  21.602  25.321  1.00  0.00     0.014 A 
ATOM     34  C   UNL A   1      42.787  22.362  27.977  1.00  0.00     0.010 A 
ATOM     35  C   UNL A   1      42.868  22.874  25.613  1.00  0.00     0.010 A 
ATOM     36  C   UNL A   1      43.065  23.271  26.944  1.00  0.00    -0.014 A 
BRANCH  36  37
ATOM     37  C   UNL A   1      43.536  24.648  27.238  1.00  0.00     0.031 A 
ATOM     38  C   UNL A   1      42.577  25.676  27.774  1.00  0.00     0.074 A 
ATOM     39  C   UNL A   1      44.810  24.990  26.967  1.00  0.00     0.049 A 
ATOM     40  N   UNL A   1      42.777  26.946  28.022  1.00  0.00    -0.248 NA
ATOM     41  C   UNL A   1      41.205  25.220  28.043  1.00  0.00     0.031 C 
ATOM     42  C   UNL A   1      45.824  24.095  26.407  1.00  0.00     0.029 A 
ATOM     43  N   UNL A   1      45.466  26.186  27.116  1.00  0.00    -0.354 N 
ATOM     44  C   UNL A   1      41.554  27.442  28.454  1.00  0.00     0.074 A 
ATOM     45  C   UNL A   1      40.607  26.350  28.393  1.00  0.00     0.031 C 
ATOM     46  C   UNL A   1      46.978  24.769  26.274  1.00  0.00     0.029 A 
ATOM     47  C   UNL A   1      46.777  26.149  26.707  1.00  0.00     0.049 A 
ATOM     48  H   UNL A   1      45.039  26.994  27.481  1.00  0.00     0.167 HD
ATOM     49  C   UNL A   1      41.253  28.691  28.882  1.00  0.00     0.037 A 
ATOM     50  C   UNL A   1      47.709  27.120  26.679  1.00  0.00     0.037 A 
ATOM     51  C   UNL A   1      42.204  29.769  28.974  1.00  0.00     0.049 A 
ATOM     52  C   UNL A   1      47.352  28.496  27.170  1.00  0.00     0.074 A 
ATOM     53  C   UNL A   1      42.012  31.053  29.453  1.00  0.00     0.029 A 
ATOM     54  N   UNL A   1      43.529  29.684  28.576  1.00  0.00    -0.354 N 
ATOM     55  N   UNL A   1      46.208  28.938  27.634  1.00  0.00    -0.248 NA
ATOM     56  C   UNL A   1      48.417  29.508  27.139  1.00  0.00     0.031 C 
ATOM     57  C   UNL A   1      43.213  31.757  29.311  1.00  0.00     0.029 A 
ATOM     58  C   UNL A   1      44.164  30.899  28.783  1.00  0.00     0.049 A 
ATOM     59  H   UNL A   1      43.957  28.879  28.201  1.00  0.00     0.167 HD
ATOM     60  C   UNL A   1      46.422  30.266  27.975  1.00  0.00     0.074 A 
ATOM     61  C   UNL A   1      47.809  30.556  27.676  1.00  0.00     0.031 C 
ATOM     62  C   UNL A   1      45.548  31.165  28.489  1.00  0.00     0.037 A 
BRANCH  49  63
ATOM     63  C   UNL A   1      39.833  28.962  29.291  1.00  0.00     0.064 A 
ATOM     64  C   UNL A   1      38.879  29.423  28.372  1.00  0.00     0.173 A 
ATOM     65  C   UNL A   1      39.413  28.721  30.608  1.00  0.00     0.173 A 
ATOM     66  F   UNL A   1      39.233  29.679  27.103  1.00  0.00    -0.203 F 
ATOM     67  C   UNL A   1      37.565  29.662  28.763  1.00  0.00     0.198 A 
ATOM     68  C   UNL A   1      38.090  28.935  30.988  1.00  0.00     0.198 A 
ATOM     69  F   UNL A   1      40.284  28.273  31.525  1.00  0.00    -0.203 F 
ATOM     70  F   UNL A   1      36.682  30.149  27.878  1.00  0.00    -0.200 F 
ATOM     71  C   UNL A   1      37.170  29.412  30.068  1.00  0.00     0.200 A 
ATOM     72  F   UNL A   1      37.708  28.681  32.247  1.00  0.00    -0.200 F 
ATOM     73  F   UNL A   1      35.903  29.637  30.441  1.00  0.00    -0.200 F 
ENDBRANCH  49  63
BRANCH  50  74
ATOM     74  C   UNL A   1      49.079  26.817  26.192  1.00  0.00     0.064 A 
ATOM     75  C   UNL A   1      50.060  26.331  27.068  1.00  0.00     0.173 A 
ATOM     76  C   UNL A   1      49.435  27.001  24.848  1.00  0.00     0.173 A 
ATOM     77  F   UNL A   1      49.771  26.158  28.366  1.00  0.00    -0.203 F 
ATOM     78  C   UNL A   1      51.350  26.057  26.622  1.00  0.00     0.198 A 
ATOM     79  C   UNL A   1      50.719  26.702  24.398  1.00  0.00     0.198 A 
ATOM     80  F   UNL A   1      48.531  27.459  23.971  1.00  0.00    -0.203 F 
ATOM     81  F   UNL A   1      52.280  25.631  27.488  1.00  0.00    -0.200 F 
ATOM     82  C   UNL A   1      51.678  26.237  25.286  1.00  0.00     0.200 A 
ATOM     83  F   UNL A   1      51.028  26.865  23.104  1.00  0.00    -0.200 F 
ATOM     84  F   UNL A   1      52.918  25.969  24.856  1.00  0.00    -0.200 F 
ENDBRANCH  50  74
BRANCH  62  85
ATOM     85  C   UNL A   1      46.073  32.537  28.794  1.00  0.00     0.064 A 
ATOM     86  C   UNL A   1      46.013  33.573  27.850  1.00  0.00     0.173 A 
ATOM     87  C   UNL A   1      46.606  32.828  30.059  1.00  0.00     0.173 A 
ATOM     88  F   UNL A   1      45.527  33.339  26.621  1.00  0.00    -0.203 F 
ATOM     89  C   UNL A   1      46.487  34.846  28.155  1.00  0.00     0.198 A 
ATOM     90  C   UNL A   1      47.055  34.108  30.368  1.00  0.00     0.198 A 
ATOM     91  F   UNL A   1      46.680  31.872  30.997  1.00  0.00    -0.203 F 
ATOM     92  F   UNL A   1      46.460  35.809  27.224  1.00  0.00    -0.200 F 
ATOM     93  C   UNL A   1      47.001  35.114  29.415  1.00  0.00     0.200 A 
ATOM     94  F   UNL A   1      47.541  34.369  31.590  1.00  0.00    -0.200 F 
ATOM     95  F   UNL A   1      47.452  36.341  29.708  1.00  0.00    -0.200 F 
ENDBRANCH  62  85
ENDBRANCH  36  37
ENDBRANCH  28  31
ENDBRANCH  26  27
ENDBRANCH  25  26
ENDBRANCH   1  25
TORSDOF 14
ENDMDL
MODEL 3
REMARK VINA RESULT:     -12.1      4.521      9.916
REMARK SMILES COc1ncccc1NS(=O)(=O)c1ccc(C(=O)NCCCNC(=O)c2ccc(-c3c4nc(c(-c5c(F)c(F)c(F)c(F)c5F)c5ccc([nH]5)c(-c5c(F)c(F)c(F)c(F)c5F)c5nc(c(-c6c(F)c(F)c(F)c(F)c6F)c6ccc3[nH]6)C=C5)C=C4)cc2)cc1
REMARK SMILES IDX 20 1 19 2 17 3 18 4 16 6 13 7 14 8 90 9 15 10 89 11 10 12
REMARK SMILES IDX 11 13 12 14 9 15 8 17 3 18 4 19 5 20 7 21 6 22 2 23 1 24
REMARK SMILES IDX 21 25 22 26 23 27 24 28 25 30 26 31 27 32 88 33 28 34 87 35
REMARK SMILES IDX 29 36 30 37 31 38 81 39 32 40 86 41 80 42 82 43 33 44 85 45
REMARK SMILES IDX 79 46 78 47 34 49 66 50 46 51 65 52 47 53 50 54 64 55 83 56
REMARK SMILES IDX 48 57 49 58 63 60 84 61 51 62 35 63 36 64 44 65 37 66 38 67
REMARK SMILES IDX 42 68 45 69 39 70 40 71 43 72 41 73 67 74 68 75 76 76 69 77
REMARK SMILES IDX 70 78 74 79 77 80 71 81 72 82 75 83 73 84 52 85 53 86 61 87
REMARK SMILES IDX 54 88 55 89 59 90 62 91 56 92 57 93 60 94 58 95
REMARK H PARENT 19 5 9 16 23 29 82 48 50 59
REMARK Flexibility Score: inf
ROOT
ATOM      1  C   UNL A   1      37.227  20.684  24.790  1.00  0.00     0.118 C 
ENDROOT
BRANCH   1   2
ATOM      2  N   UNL A   1      37.754  21.967  25.216  1.00  0.00    -0.352 N 
ATOM      3  C   UNL A   1      37.147  23.129  25.618  1.00  0.00     0.251 C 
ATOM      4  O   UNL A   1      37.878  24.070  25.928  1.00  0.00    -0.269 OA
ATOM      5  H   UNL A   1      38.737  22.012  25.217  1.00  0.00     0.163 HD
BRANCH   3   6
ATOM      6  C   UNL A   1      35.670  23.281  25.760  1.00  0.00     0.039 A 
ATOM      7  C   UNL A   1      32.942  23.887  25.937  1.00  0.00     0.087 A 
ATOM      8  C   UNL A   1      33.620  24.102  24.733  1.00  0.00     0.023 A 
ATOM      9  C   UNL A   1      33.574  23.237  26.995  1.00  0.00     0.023 A 
ATOM     10  C   UNL A   1      34.985  23.817  24.657  1.00  0.00     0.015 A 
ATOM     11  C   UNL A   1      34.932  22.927  26.896  1.00  0.00     0.015 A 
BRANCH   7  12
ATOM     12  S   UNL A   1      31.271  24.425  26.136  1.00  0.00     0.262 S 
ATOM     13  O   UNL A   1      30.721  23.692  27.251  1.00  0.00    -0.201 OA
ATOM     14  O   UNL A   1      30.630  24.371  24.831  1.00  0.00    -0.201 OA
BRANCH  12  15
ATOM     15  N   UNL A   1      31.225  26.069  26.536  1.00  0.00    -0.274 N 
ATOM     16  H   UNL A   1      30.644  26.345  27.281  1.00  0.00     0.180 HD
BRANCH  15  17
ATOM     17  C   UNL A   1      31.978  27.087  25.860  1.00  0.00     0.111 A 
ATOM     18  C   UNL A   1      31.480  27.900  24.834  1.00  0.00     0.238 A 
ATOM     19  N   UNL A   1      32.114  28.983  24.331  1.00  0.00    -0.220 NA
ATOM     20  C   UNL A   1      33.276  29.328  24.922  1.00  0.00     0.115 A 
ATOM     21  C   UNL A   1      33.156  27.513  26.472  1.00  0.00     0.034 A 
ATOM     22  C   UNL A   1      33.823  28.642  25.995  1.00  0.00     0.023 A 
BRANCH  18  23
ATOM     23  O   UNL A   1      30.278  27.602  24.258  1.00  0.00    -0.480 OA
ATOM     24  C   UNL A   1      30.165  28.188  22.972  1.00  0.00     0.280 C 
ENDBRANCH  18  23
ENDBRANCH  15  17
ENDBRANCH  12  15
ENDBRANCH   7  12
ENDBRANCH   3   6
ENDBRANCH   1   2
BRANCH   1  25
ATOM     25  C   UNL A   1      38.259  19.576  25.000  1.00  0.00     0.042 C 
BRANCH  25  26
ATOM     26  C   UNL A   1      39.242  19.872  26.127  1.00  0.00     0.118 C 
BRANCH  26  27
ATOM     27  N   UNL A   1      40.390  18.982  26.094  1.00  0.00    -0.352 N 
ATOM     28  C   UNL A   1      41.730  19.280  26.104  1.00  0.00     0.251 C 
ATOM     29  H   UNL A   1      40.175  18.023  26.058  1.00  0.00     0.163 HD
ATOM     30  O   UNL A   1      42.547  18.399  25.850  1.00  0.00    -0.269 OA
BRANCH  28  31
ATOM     31  C   UNL A   1      42.201  20.651  26.405  1.00  0.00     0.039 A 
ATOM     32  C   UNL A   1      42.396  21.540  25.342  1.00  0.00     0.014 A 
ATOM     33  C   UNL A   1      42.503  21.052  27.710  1.00  0.00     0.014 A 
ATOM     34  C   UNL A   1      42.851  22.838  25.591  1.00  0.00     0.010 A 
ATOM     35  C   UNL A   1      42.888  22.367  27.965  1.00  0.00     0.010 A 
ATOM     36  C   UNL A   1      43.078  23.269  26.907  1.00  0.00    -0.014 A 
BRANCH  36  37
ATOM     37  C   UNL A   1      43.538  24.651  27.195  1.00  0.00     0.031 A 
ATOM     38  C   UNL A   1      42.574  25.669  27.741  1.00  0.00     0.074 A 
ATOM     39  C   UNL A   1      44.805  25.007  26.909  1.00  0.00     0.049 A 
ATOM     40  N   UNL A   1      42.763  26.942  27.986  1.00  0.00    -0.248 NA
ATOM     41  C   UNL A   1      41.210  25.199  28.027  1.00  0.00     0.031 C 
ATOM     42  C   UNL A   1      45.821  24.123  26.337  1.00  0.00     0.029 A 
ATOM     43  N   UNL A   1      45.450  26.210  27.049  1.00  0.00    -0.354 N 
ATOM     44  C   UNL A   1      41.540  27.425  28.432  1.00  0.00     0.074 A 
ATOM     45  C   UNL A   1      40.605  26.323  28.383  1.00  0.00     0.031 C 
ATOM     46  C   UNL A   1      46.966  24.809  26.190  1.00  0.00     0.029 A 
ATOM     47  C   UNL A   1      46.756  26.186  26.624  1.00  0.00     0.049 A 
ATOM     48  H   UNL A   1      45.018  27.014  27.418  1.00  0.00     0.167 HD
ATOM     49  C   UNL A   1      41.231  28.671  28.863  1.00  0.00     0.037 A 
ATOM     50  C   UNL A   1      47.677  27.168  26.584  1.00  0.00     0.037 A 
ATOM     51  C   UNL A   1      42.171  29.759  28.942  1.00  0.00     0.049 A 
ATOM     52  C   UNL A   1      47.311  28.540  27.079  1.00  0.00     0.074 A 
ATOM     53  C   UNL A   1      41.971  31.041  29.423  1.00  0.00     0.029 A 
ATOM     54  N   UNL A   1      43.493  29.688  28.529  1.00  0.00    -0.354 N 
ATOM     55  N   UNL A   1      46.168  28.970  27.556  1.00  0.00    -0.248 NA
ATOM     56  C   UNL A   1      48.365  29.563  27.034  1.00  0.00     0.031 C 
ATOM     57  C   UNL A   1      43.163  31.758  29.267  1.00  0.00     0.029 A 
ATOM     58  C   UNL A   1      44.117  30.910  28.728  1.00  0.00     0.049 A 
ATOM     59  H   UNL A   1      43.925  28.888  28.149  1.00  0.00     0.167 HD
ATOM     60  C   UNL A   1      46.372  30.300  27.894  1.00  0.00     0.074 A 
ATOM     61  C   UNL A   1      47.752  30.605  27.578  1.00  0.00     0.031 C 
ATOM     62  C   UNL A   1      45.495  31.191  28.417  1.00  0.00     0.037 A 
BRANCH  49  63
ATOM     63  C   UNL A   1      39.813  28.927  29.289  1.00  0.00     0.064 A 
ATOM     64  C   UNL A   1      39.398  28.732  30.614  1.00  0.00     0.173 A 
ATOM     65  C   UNL A   1      38.870  29.407  28.369  1.00  0.00     0.173 A 
ATOM     66  F   UNL A   1      40.259  28.263  31.530  1.00  0.00    -0.203 F 
ATOM     67  C   UNL A   1      38.082  28.979  30.997  1.00  0.00     0.198 A 
ATOM     68  C   UNL A   1      37.561  29.680  28.761  1.00  0.00     0.198 A 
ATOM     69  F   UNL A   1      39.217  29.617  27.090  1.00  0.00    -0.203 F 
ATOM     70  F   UNL A   1      37.696  28.739  32.258  1.00  0.00    -0.200 F 
ATOM     71  C   UNL A   1      37.167  29.459  30.072  1.00  0.00     0.200 A 
ATOM     72  F   UNL A   1      36.681  30.156  27.869  1.00  0.00    -0.200 F 
ATOM     73  F   UNL A   1      35.903  29.703  30.443  1.00  0.00    -0.200 F 
ENDBRANCH  49  63
BRANCH  50  74
ATOM     74  C   UNL A   1      49.045  26.879  26.081  1.00  0.00     0.064 A 
ATOM     75  C   UNL A   1      49.374  27.096  24.736  1.00  0.00     0.173 A 
ATOM     76  C   UNL A   1      50.047  26.385  26.929  1.00  0.00     0.173 A 
ATOM     77  F   UNL A   1      48.442  27.547  23.884  1.00  0.00    -0.203 F 
ATOM     78  C   UNL A   1      50.650  26.815  24.254  1.00  0.00     0.198 A 
ATOM     79  C   UNL A   1      51.330  26.129  26.451  1.00  0.00     0.198 A 
ATOM     80  F   UNL A   1      49.782  26.167  28.225  1.00  0.00    -0.203 F 
ATOM     81  F   UNL A   1      50.927  26.994  22.955  1.00  0.00    -0.200 F 
ATOM     82  C   UNL A   1      51.629  26.337  25.112  1.00  0.00     0.200 A 
ATOM     83  F   UNL A   1      52.277  25.681  27.287  1.00  0.00    -0.200 F 
ATOM     84  F   UNL A   1      52.858  26.072  24.650  1.00  0.00    -0.200 F 
ENDBRANCH  50  74
BRANCH  62  85
ATOM     85  C   UNL A   1      46.009  32.568  28.715  1.00  0.00     0.064 A 
ATOM     86  C   UNL A   1      46.601  32.880  29.947  1.00  0.00     0.173 A 
ATOM     87  C   UNL A   1      45.943  33.576  27.741  1.00  0.00     0.173 A 
ATOM     88  F   UNL A   1      46.673  31.954  30.916  1.00  0.00    -0.203 F 
ATOM     89  C   UNL A   1      47.091  34.158  30.202  1.00  0.00     0.198 A 
ATOM     90  C   UNL A   1      46.457  34.845  27.991  1.00  0.00     0.198 A 
ATOM     91  F   UNL A   1      45.390  33.325  26.545  1.00  0.00    -0.203 F 
ATOM     92  F   UNL A   1      47.614  34.447  31.401  1.00  0.00    -0.200 F 
ATOM     93  C   UNL A   1      47.024  35.137  29.221  1.00  0.00     0.200 A 
ATOM     94  F   UNL A   1      46.402  35.787  27.038  1.00  0.00    -0.200 F 
ATOM     95  F   UNL A   1      47.500  36.365  29.466  1.00  0.00    -0.200 F 
ENDBRANCH  62  85
ENDBRANCH  36  37
ENDBRANCH  28  31
ENDBRANCH  26  27
ENDBRANCH  25  26
ENDBRANCH   1  25
TORSDOF 14
ENDMDL
