MODEL 1
REMARK VINA RESULT:     -14.7      0.000      0.000
REMARK SMILES NS(=O)(=O)c1ccc(-n2nc(C(=O)NCCCNC(=O)c3ccc(-c4c5nc(c(-c6c(F)c(F)c(F)c(F)c6F)c6ccc([nH]6)c(-c6c(F)c(F)c(F)c(F)c6F)c6nc(c(-c7c(F)c(F)c(F)c(F)c7F)c7ccc4[nH]7)C=C6)C=C5)cc3)c(Cl)c2-c2ccc(Cl)cc2)cc1
REMARK SMILES IDX 15 1 14 2 12 3 13 4 11 6 9 7 10 8 86 9 84 10 85 11 8 12 5 13
REMARK SMILES IDX 6 14 95 15 7 16 94 17 2 18 3 19 4 20 1 21 87 24 88 25 93 26
REMARK SMILES IDX 89 27 92 28 90 29 91 30 16 31 17 32 18 33 19 34 20 36 21 37
REMARK SMILES IDX 22 38 83 39 23 40 82 41 24 42 25 43 26 44 76 45 27 46 81 47
REMARK SMILES IDX 75 48 77 49 28 50 80 51 74 52 73 53 29 55 61 56 41 57 60 58
REMARK SMILES IDX 42 59 45 60 59 61 78 62 43 63 44 64 58 66 79 67 46 68 30 69
REMARK SMILES IDX 31 70 39 71 32 72 33 73 37 74 40 75 34 76 35 77 38 78 36 79
REMARK SMILES IDX 62 80 63 81 71 82 64 83 65 84 69 85 72 86 66 87 67 88 70 89
REMARK SMILES IDX 68 90 47 91 48 92 56 93 49 94 50 95 54 96 57 97 51 98 52 99
REMARK SMILES IDX 55 100 53 101
REMARK H PARENT 14 5 1 22 1 23 18 35 77 54 45 65
REMARK Flexibility Score: inf
ROOT
ATOM      1  C   UNL A   1      31.951  28.431  26.180  1.00  0.00     0.118 C 
ENDROOT
BRANCH   1   2
ATOM      2  N   UNL A   1      31.025  28.296  25.058  1.00  0.00    -0.351 N 
ATOM      3  C   UNL A   1      30.851  27.294  24.115  1.00  0.00     0.273 C 
ATOM      4  O   UNL A   1      29.894  27.432  23.350  1.00  0.00    -0.267 OA
ATOM      5  H   UNL A   1      30.410  29.056  24.952  1.00  0.00     0.163 HD
BRANCH   3   6
ATOM      6  C   UNL A   1      31.712  26.097  24.093  1.00  0.00     0.169 A 
ATOM      7  N   UNL A   1      32.250  24.028  24.336  1.00  0.00    -0.231 N 
ATOM      8  N   UNL A   1      31.182  24.857  24.234  1.00  0.00    -0.160 NA
ATOM      9  C   UNL A   1      33.441  24.721  24.345  1.00  0.00     0.094 A 
ATOM     10  C   UNL A   1      33.094  25.960  23.853  1.00  0.00     0.100 A 
ATOM     11  Cl  UNL A   1      34.196  26.987  23.076  1.00  0.00    -0.079 Cl
BRANCH   7  12
ATOM     12  C   UNL A   1      32.129  22.624  24.243  1.00  0.00     0.065 A 
ATOM     13  C   UNL A   1      32.424  19.879  23.975  1.00  0.00     0.082 A 
ATOM     14  C   UNL A   1      32.120  20.651  22.847  1.00  0.00     0.024 A 
ATOM     15  C   UNL A   1      32.531  20.466  25.240  1.00  0.00     0.024 A 
ATOM     16  C   UNL A   1      31.948  22.034  22.983  1.00  0.00     0.030 A 
ATOM     17  C   UNL A   1      32.404  21.845  25.371  1.00  0.00     0.030 A 
BRANCH  13  18
ATOM     18  S   UNL A   1      32.690  18.135  23.847  1.00  0.00     0.238 S 
ATOM     19  O   UNL A   1      31.831  17.463  24.783  1.00  0.00    -0.207 OA
ATOM     20  O   UNL A   1      34.121  17.903  23.789  1.00  0.00    -0.207 OA
BRANCH  18  21
ATOM     21  N   UNL A   1      32.090  17.740  22.332  1.00  0.00    -0.225 NA
ATOM     22  H   UNL A   1      31.863  16.745  22.305  1.00  0.00     0.137 HD
ATOM     23  H   UNL A   1      32.793  17.947  21.623  1.00  0.00     0.137 HD
ENDBRANCH  18  21
ENDBRANCH  13  18
ENDBRANCH   7  12
BRANCH   9  24
ATOM     24  C   UNL A   1      34.796  24.205  24.466  1.00  0.00     0.002 A 
ATOM     25  C   UNL A   1      35.307  23.423  23.420  1.00  0.00     0.012 A 
ATOM     26  C   UNL A   1      35.452  24.238  25.700  1.00  0.00     0.012 A 
ATOM     27  C   UNL A   1      36.435  22.632  23.628  1.00  0.00     0.021 A 
ATOM     28  C   UNL A   1      36.579  23.442  25.907  1.00  0.00     0.021 A 
ATOM     29  C   UNL A   1      37.052  22.628  24.878  1.00  0.00     0.041 A 
ATOM     30  Cl  UNL A   1      38.372  21.565  25.171  1.00  0.00    -0.084 Cl
ENDBRANCH   9  24
ENDBRANCH   3   6
ENDBRANCH   1   2
BRANCH   1  31
ATOM     31  C   UNL A   1      32.869  29.651  26.029  1.00  0.00     0.042 C 
BRANCH  31  32
ATOM     32  C   UNL A   1      33.665  30.000  27.260  1.00  0.00     0.118 C 
BRANCH  32  33
ATOM     33  N   UNL A   1      34.053  31.411  27.343  1.00  0.00    -0.352 N 
ATOM     34  C   UNL A   1      35.147  31.943  28.017  1.00  0.00     0.251 C 
ATOM     35  H   UNL A   1      33.477  32.053  26.868  1.00  0.00     0.163 HD
ATOM     36  O   UNL A   1      35.189  33.123  28.336  1.00  0.00    -0.269 OA
BRANCH  34  37
ATOM     37  C   UNL A   1      36.262  31.034  28.341  1.00  0.00     0.039 A 
ATOM     38  C   UNL A   1      36.421  29.762  27.786  1.00  0.00     0.014 A 
ATOM     39  C   UNL A   1      37.235  31.562  29.172  1.00  0.00     0.014 A 
ATOM     40  C   UNL A   1      37.606  29.077  28.048  1.00  0.00     0.010 A 
ATOM     41  C   UNL A   1      38.496  31.073  29.090  1.00  0.00     0.010 A 
ATOM     42  C   UNL A   1      38.643  29.759  28.700  1.00  0.00    -0.014 A 
BRANCH  42  43
ATOM     43  C   UNL A   1      39.949  29.188  28.972  1.00  0.00     0.031 A 
ATOM     44  C   UNL A   1      40.218  28.971  30.408  1.00  0.00     0.074 A 
ATOM     45  C   UNL A   1      40.710  28.649  27.990  1.00  0.00     0.049 A 
ATOM     46  N   UNL A   1      41.065  29.608  31.142  1.00  0.00    -0.248 NA
ATOM     47  C   UNL A   1      39.334  28.066  31.159  1.00  0.00     0.031 C 
ATOM     48  C   UNL A   1      40.398  28.485  26.561  1.00  0.00     0.029 A 
ATOM     49  N   UNL A   1      41.905  28.013  28.098  1.00  0.00    -0.354 N 
ATOM     50  C   UNL A   1      40.982  29.027  32.400  1.00  0.00     0.074 A 
ATOM     51  C   UNL A   1      39.764  28.262  32.409  1.00  0.00     0.031 C 
ATOM     52  C   UNL A   1      41.255  27.600  26.004  1.00  0.00     0.029 A 
ATOM     53  C   UNL A   1      42.271  27.267  26.981  1.00  0.00     0.049 A 
ATOM     54  H   UNL A   1      42.469  28.077  28.903  1.00  0.00     0.167 HD
ATOM     55  C   UNL A   1      42.069  29.006  33.220  1.00  0.00     0.037 A 
ATOM     56  C   UNL A   1      43.316  26.404  26.909  1.00  0.00     0.037 A 
ATOM     57  C   UNL A   1      43.076  29.936  32.760  1.00  0.00     0.049 A 
ATOM     58  C   UNL A   1      44.246  26.763  28.018  1.00  0.00     0.074 A 
ATOM     59  C   UNL A   1      43.077  31.295  32.497  1.00  0.00     0.029 A 
ATOM     60  N   UNL A   1      44.164  29.432  32.084  1.00  0.00    -0.354 N 
ATOM     61  N   UNL A   1      44.913  27.885  28.060  1.00  0.00    -0.248 NA
ATOM     62  C   UNL A   1      44.026  26.118  29.306  1.00  0.00     0.031 C 
ATOM     63  C   UNL A   1      43.819  31.432  31.285  1.00  0.00     0.029 A 
ATOM     64  C   UNL A   1      44.314  30.174  30.939  1.00  0.00     0.049 A 
ATOM     65  H   UNL A   1      44.729  28.679  32.369  1.00  0.00     0.167 HD
ATOM     66  C   UNL A   1      44.809  28.308  29.377  1.00  0.00     0.074 A 
ATOM     67  C   UNL A   1      44.306  27.147  30.112  1.00  0.00     0.031 C 
ATOM     68  C   UNL A   1      44.834  29.635  29.703  1.00  0.00     0.037 A 
BRANCH  55  69
ATOM     69  C   UNL A   1      42.389  27.890  34.185  1.00  0.00     0.064 A 
ATOM     70  C   UNL A   1      43.012  26.727  33.690  1.00  0.00     0.173 A 
ATOM     71  C   UNL A   1      41.859  27.785  35.490  1.00  0.00     0.173 A 
ATOM     72  F   UNL A   1      43.541  26.707  32.457  1.00  0.00    -0.203 F 
ATOM     73  C   UNL A   1      43.019  25.530  34.410  1.00  0.00     0.198 A 
ATOM     74  C   UNL A   1      41.920  26.603  36.227  1.00  0.00     0.198 A 
ATOM     75  F   UNL A   1      41.162  28.769  36.067  1.00  0.00    -0.203 F 
ATOM     76  F   UNL A   1      43.501  24.417  33.841  1.00  0.00    -0.200 F 
ATOM     77  C   UNL A   1      42.466  25.467  35.674  1.00  0.00     0.200 A 
ATOM     78  F   UNL A   1      41.362  26.561  37.446  1.00  0.00    -0.200 F 
ATOM     79  F   UNL A   1      42.414  24.307  36.340  1.00  0.00    -0.200 F 
ENDBRANCH  55  69
BRANCH  56  80
ATOM     80  C   UNL A   1      43.391  25.113  26.179  1.00  0.00     0.064 A 
ATOM     81  C   UNL A   1      44.423  24.852  25.261  1.00  0.00     0.173 A 
ATOM     82  C   UNL A   1      42.610  24.004  26.563  1.00  0.00     0.173 A 
ATOM     83  F   UNL A   1      45.243  25.839  24.873  1.00  0.00    -0.203 F 
ATOM     84  C   UNL A   1      44.674  23.561  24.781  1.00  0.00     0.198 A 
ATOM     85  C   UNL A   1      42.857  22.717  26.079  1.00  0.00     0.198 A 
ATOM     86  F   UNL A   1      41.649  24.125  27.491  1.00  0.00    -0.203 F 
ATOM     87  F   UNL A   1      45.708  23.342  23.956  1.00  0.00    -0.200 F 
ATOM     88  C   UNL A   1      43.898  22.493  25.199  1.00  0.00     0.200 A 
ATOM     89  F   UNL A   1      42.120  21.688  26.522  1.00  0.00    -0.200 F 
ATOM     90  F   UNL A   1      44.176  21.247  24.789  1.00  0.00    -0.200 F 
ENDBRANCH  56  80
BRANCH  68  91
ATOM     91  C   UNL A   1      45.211  30.630  28.636  1.00  0.00     0.064 A 
ATOM     92  C   UNL A   1      44.308  31.183  27.710  1.00  0.00     0.173 A 
ATOM     93  C   UNL A   1      46.506  31.164  28.658  1.00  0.00     0.173 A 
ATOM     94  F   UNL A   1      43.023  30.812  27.690  1.00  0.00    -0.203 F 
ATOM     95  C   UNL A   1      44.698  32.185  26.821  1.00  0.00     0.198 A 
ATOM     96  C   UNL A   1      46.884  32.191  27.797  1.00  0.00     0.198 A 
ATOM     97  F   UNL A   1      47.399  30.721  29.557  1.00  0.00    -0.203 F 
ATOM     98  F   UNL A   1      43.818  32.685  25.941  1.00  0.00    -0.200 F 
ATOM     99  C   UNL A   1      45.985  32.693  26.871  1.00  0.00     0.200 A 
ATOM    100  F   UNL A   1      48.114  32.715  27.888  1.00  0.00    -0.200 F 
ATOM    101  F   UNL A   1      46.350  33.685  26.047  1.00  0.00    -0.200 F 
ENDBRANCH  68  91
ENDBRANCH  42  43
ENDBRANCH  34  37
ENDBRANCH  32  33
ENDBRANCH  31  32
ENDBRANCH   1  31
TORSDOF 14
ENDMDL
MODEL 2
REMARK VINA RESULT:     -14.1      2.471      6.799
REMARK SMILES NS(=O)(=O)c1ccc(-n2nc(C(=O)NCCCNC(=O)c3ccc(-c4c5nc(c(-c6c(F)c(F)c(F)c(F)c6F)c6ccc([nH]6)c(-c6c(F)c(F)c(F)c(F)c6F)c6nc(c(-c7c(F)c(F)c(F)c(F)c7F)c7ccc4[nH]7)C=C6)C=C5)cc3)c(Cl)c2-c2ccc(Cl)cc2)cc1
REMARK SMILES IDX 15 1 14 2 12 3 13 4 11 6 9 7 10 8 86 9 84 10 85 11 8 12 5 13
REMARK SMILES IDX 6 14 95 15 7 16 94 17 2 18 3 19 4 20 1 21 87 24 88 25 93 26
REMARK SMILES IDX 89 27 92 28 90 29 91 30 16 31 17 32 18 33 19 34 20 36 21 37
REMARK SMILES IDX 22 38 83 39 23 40 82 41 24 42 25 43 26 44 76 45 27 46 81 47
REMARK SMILES IDX 75 48 77 49 28 50 80 51 74 52 73 53 29 55 61 56 41 57 60 58
REMARK SMILES IDX 42 59 45 60 59 61 78 62 43 63 44 64 58 66 79 67 46 68 30 69
REMARK SMILES IDX 31 70 39 71 32 72 33 73 37 74 40 75 34 76 35 77 38 78 36 79
REMARK SMILES IDX 62 80 63 81 71 82 64 83 65 84 69 85 72 86 66 87 67 88 70 89
REMARK SMILES IDX 68 90 47 91 48 92 56 93 49 94 50 95 54 96 57 97 51 98 52 99
REMARK SMILES IDX 55 100 53 101
REMARK H PARENT 14 5 1 22 1 23 18 35 77 54 45 65
REMARK Flexibility Score: inf
ROOT
ATOM      1  C   UNL A   1      31.996  28.699  26.122  1.00  0.00     0.118 C 
ENDROOT
BRANCH   1   2
ATOM      2  N   UNL A   1      31.039  28.523  25.033  1.00  0.00    -0.351 N 
ATOM      3  C   UNL A   1      30.838  27.489  24.131  1.00  0.00     0.273 C 
ATOM      4  O   UNL A   1      29.860  27.599  23.389  1.00  0.00    -0.267 OA
ATOM      5  H   UNL A   1      30.420  29.280  24.917  1.00  0.00     0.163 HD
BRANCH   3   6
ATOM      6  C   UNL A   1      31.699  26.292  24.127  1.00  0.00     0.169 A 
ATOM      7  N   UNL A   1      32.233  24.224  24.386  1.00  0.00    -0.231 N 
ATOM      8  N   UNL A   1      31.168  25.052  24.264  1.00  0.00    -0.160 NA
ATOM      9  C   UNL A   1      33.425  24.917  24.412  1.00  0.00     0.094 A 
ATOM     10  C   UNL A   1      33.086  26.154  23.911  1.00  0.00     0.100 A 
ATOM     11  Cl  UNL A   1      34.200  27.178  23.148  1.00  0.00    -0.079 Cl
BRANCH   7  12
ATOM     12  C   UNL A   1      32.114  22.820  24.296  1.00  0.00     0.065 A 
ATOM     13  C   UNL A   1      32.415  20.072  24.057  1.00  0.00     0.082 A 
ATOM     14  C   UNL A   1      32.167  20.838  22.912  1.00  0.00     0.024 A 
ATOM     15  C   UNL A   1      32.465  20.667  25.322  1.00  0.00     0.024 A 
ATOM     16  C   UNL A   1      31.992  22.222  23.032  1.00  0.00     0.030 A 
ATOM     17  C   UNL A   1      32.334  22.047  25.439  1.00  0.00     0.030 A 
BRANCH  13  18
ATOM     18  S   UNL A   1      32.684  18.327  23.953  1.00  0.00     0.238 S 
ATOM     19  O   UNL A   1      31.883  17.672  24.950  1.00  0.00    -0.207 OA
ATOM     20  O   UNL A   1      34.111  18.100  23.818  1.00  0.00    -0.207 OA
BRANCH  18  21
ATOM     21  N   UNL A   1      32.001  17.896  22.483  1.00  0.00    -0.225 NA
ATOM     22  H   UNL A   1      32.472  18.397  21.729  1.00  0.00     0.137 HD
ATOM     23  H   UNL A   1      31.011  18.137  22.484  1.00  0.00     0.137 HD
ENDBRANCH  18  21
ENDBRANCH  13  18
ENDBRANCH   7  12
BRANCH   9  24
ATOM     24  C   UNL A   1      34.777  24.401  24.557  1.00  0.00     0.002 A 
ATOM     25  C   UNL A   1      35.326  23.665  23.497  1.00  0.00     0.012 A 
ATOM     26  C   UNL A   1      35.392  24.385  25.812  1.00  0.00     0.012 A 
ATOM     27  C   UNL A   1      36.451  22.870  23.710  1.00  0.00     0.021 A 
ATOM     28  C   UNL A   1      36.515  23.585  26.024  1.00  0.00     0.021 A 
ATOM     29  C   UNL A   1      37.026  22.816  24.978  1.00  0.00     0.041 A 
ATOM     30  Cl  UNL A   1      38.342  21.748  25.271  1.00  0.00    -0.084 Cl
ENDBRANCH   9  24
ENDBRANCH   3   6
ENDBRANCH   1   2
BRANCH   1  31
ATOM     31  C   UNL A   1      31.702  29.954  26.954  1.00  0.00     0.042 C 
BRANCH  31  32
ATOM     32  C   UNL A   1      32.852  30.922  27.066  1.00  0.00     0.118 C 
BRANCH  32  33
ATOM     33  N   UNL A   1      32.449  32.331  27.084  1.00  0.00    -0.352 N 
ATOM     34  C   UNL A   1      32.936  33.333  27.915  1.00  0.00     0.251 C 
ATOM     35  H   UNL A   1      31.758  32.598  26.435  1.00  0.00     0.163 HD
ATOM     36  O   UNL A   1      32.305  34.363  28.113  1.00  0.00    -0.269 OA
BRANCH  34  37
ATOM     37  C   UNL A   1      34.244  33.116  28.559  1.00  0.00     0.039 A 
ATOM     38  C   UNL A   1      34.404  32.637  29.861  1.00  0.00     0.014 A 
ATOM     39  C   UNL A   1      35.346  33.320  27.748  1.00  0.00     0.014 A 
ATOM     40  C   UNL A   1      35.693  32.317  30.288  1.00  0.00     0.010 A 
ATOM     41  C   UNL A   1      36.493  32.653  28.027  1.00  0.00     0.010 A 
ATOM     42  C   UNL A   1      36.731  32.324  29.345  1.00  0.00    -0.014 A 
BRANCH  42  43
ATOM     43  C   UNL A   1      38.101  31.947  29.638  1.00  0.00     0.031 A 
ATOM     44  C   UNL A   1      38.426  30.552  29.278  1.00  0.00     0.074 A 
ATOM     45  C   UNL A   1      39.044  32.870  29.940  1.00  0.00     0.049 A 
ATOM     46  N   UNL A   1      38.673  29.581  30.088  1.00  0.00    -0.248 NA
ATOM     47  C   UNL A   1      38.299  30.144  27.870  1.00  0.00     0.031 C 
ATOM     48  C   UNL A   1      38.926  34.336  29.986  1.00  0.00     0.029 A 
ATOM     49  N   UNL A   1      40.372  32.682  30.159  1.00  0.00    -0.354 N 
ATOM     50  C   UNL A   1      38.956  28.485  29.282  1.00  0.00     0.074 A 
ATOM     51  C   UNL A   1      38.492  28.826  27.964  1.00  0.00     0.031 C 
ATOM     52  C   UNL A   1      40.156  34.896  29.979  1.00  0.00     0.029 A 
ATOM     53  C   UNL A   1      41.142  33.841  30.099  1.00  0.00     0.049 A 
ATOM     54  H   UNL A   1      40.759  31.797  30.347  1.00  0.00     0.167 HD
ATOM     55  C   UNL A   1      39.803  27.512  29.720  1.00  0.00     0.037 A 
ATOM     56  C   UNL A   1      42.497  33.895  30.100  1.00  0.00     0.037 A 
ATOM     57  C   UNL A   1      40.006  27.614  31.148  1.00  0.00     0.049 A 
ATOM     58  C   UNL A   1      42.978  32.599  30.657  1.00  0.00     0.074 A 
ATOM     59  C   UNL A   1      39.154  27.615  32.240  1.00  0.00     0.029 A 
ATOM     60  N   UNL A   1      41.177  28.179  31.598  1.00  0.00    -0.354 N 
ATOM     61  N   UNL A   1      42.790  32.236  31.897  1.00  0.00    -0.248 NA
ATOM     62  C   UNL A   1      43.196  31.509  29.714  1.00  0.00     0.031 C 
ATOM     63  C   UNL A   1      39.661  28.637  33.097  1.00  0.00     0.029 A 
ATOM     64  C   UNL A   1      40.843  29.123  32.536  1.00  0.00     0.049 A 
ATOM     65  H   UNL A   1      42.086  27.948  31.301  1.00  0.00     0.167 HD
ATOM     66  C   UNL A   1      42.424  30.899  31.822  1.00  0.00     0.074 A 
ATOM     67  C   UNL A   1      42.754  30.489  30.456  1.00  0.00     0.031 C 
ATOM     68  C   UNL A   1      41.603  30.332  32.756  1.00  0.00     0.037 A 
BRANCH  55  69
ATOM     69  C   UNL A   1      40.740  26.733  28.830  1.00  0.00     0.064 A 
ATOM     70  C   UNL A   1      41.841  27.402  28.258  1.00  0.00     0.173 A 
ATOM     71  C   UNL A   1      40.454  25.462  28.285  1.00  0.00     0.173 A 
ATOM     72  F   UNL A   1      42.198  28.621  28.689  1.00  0.00    -0.203 F 
ATOM     73  C   UNL A   1      42.537  26.878  27.167  1.00  0.00     0.198 A 
ATOM     74  C   UNL A   1      41.188  24.918  27.232  1.00  0.00     0.198 A 
ATOM     75  F   UNL A   1      39.392  24.741  28.657  1.00  0.00    -0.203 F 
ATOM     76  F   UNL A   1      43.486  27.613  26.571  1.00  0.00    -0.200 F 
ATOM     77  C   UNL A   1      42.205  25.641  26.650  1.00  0.00     0.200 A 
ATOM     78  F   UNL A   1      40.838  23.723  26.736  1.00  0.00    -0.200 F 
ATOM     79  F   UNL A   1      42.828  25.165  25.564  1.00  0.00    -0.200 F 
ENDBRANCH  55  69
BRANCH  56  80
ATOM     80  C   UNL A   1      43.379  34.831  29.355  1.00  0.00     0.064 A 
ATOM     81  C   UNL A   1      43.705  34.607  28.006  1.00  0.00     0.173 A 
ATOM     82  C   UNL A   1      43.699  36.105  29.866  1.00  0.00     0.173 A 
ATOM     83  F   UNL A   1      43.397  33.440  27.424  1.00  0.00    -0.203 F 
ATOM     84  C   UNL A   1      44.289  35.604  27.214  1.00  0.00     0.198 A 
ATOM     85  C   UNL A   1      44.288  37.096  29.078  1.00  0.00     0.198 A 
ATOM     86  F   UNL A   1      43.361  36.450  31.118  1.00  0.00    -0.203 F 
ATOM     87  F   UNL A   1      44.528  35.373  25.915  1.00  0.00    -0.200 F 
ATOM     88  C   UNL A   1      44.570  36.851  27.748  1.00  0.00     0.200 A 
ATOM     89  F   UNL A   1      44.519  38.309  29.599  1.00  0.00    -0.200 F 
ATOM     90  F   UNL A   1      45.071  37.825  26.976  1.00  0.00    -0.200 F 
ENDBRANCH  56  80
BRANCH  68  91
ATOM     91  C   UNL A   1      41.284  31.116  34.003  1.00  0.00     0.064 A 
ATOM     92  C   UNL A   1      40.192  31.993  34.134  1.00  0.00     0.173 A 
ATOM     93  C   UNL A   1      42.023  30.842  35.162  1.00  0.00     0.173 A 
ATOM     94  F   UNL A   1      39.367  32.228  33.107  1.00  0.00    -0.203 F 
ATOM     95  C   UNL A   1      39.888  32.600  35.352  1.00  0.00     0.198 A 
ATOM     96  C   UNL A   1      41.694  31.418  36.387  1.00  0.00     0.198 A 
ATOM     97  F   UNL A   1      43.042  29.969  35.118  1.00  0.00    -0.203 F 
ATOM     98  F   UNL A   1      38.847  33.441  35.443  1.00  0.00    -0.200 F 
ATOM     99  C   UNL A   1      40.635  32.306  36.479  1.00  0.00     0.200 A 
ATOM    100  F   UNL A   1      42.388  31.087  37.484  1.00  0.00    -0.200 F 
ATOM    101  F   UNL A   1      40.318  32.855  37.660  1.00  0.00    -0.200 F 
ENDBRANCH  68  91
ENDBRANCH  42  43
ENDBRANCH  34  37
ENDBRANCH  32  33
ENDBRANCH  31  32
ENDBRANCH   1  31
TORSDOF 14
ENDMDL
MODEL 3
REMARK VINA RESULT:     -13.7      1.279      2.036
REMARK SMILES NS(=O)(=O)c1ccc(-n2nc(C(=O)NCCCNC(=O)c3ccc(-c4c5nc(c(-c6c(F)c(F)c(F)c(F)c6F)c6ccc([nH]6)c(-c6c(F)c(F)c(F)c(F)c6F)c6nc(c(-c7c(F)c(F)c(F)c(F)c7F)c7ccc4[nH]7)C=C6)C=C5)cc3)c(Cl)c2-c2ccc(Cl)cc2)cc1
REMARK SMILES IDX 15 1 14 2 12 3 13 4 11 6 9 7 10 8 86 9 84 10 85 11 8 12 5 13
REMARK SMILES IDX 6 14 95 15 7 16 94 17 2 18 3 19 4 20 1 21 87 24 88 25 93 26
REMARK SMILES IDX 89 27 92 28 90 29 91 30 16 31 17 32 18 33 19 34 20 36 21 37
REMARK SMILES IDX 22 38 83 39 23 40 82 41 24 42 25 43 26 44 76 45 27 46 81 47
REMARK SMILES IDX 75 48 77 49 28 50 80 51 74 52 73 53 29 55 61 56 41 57 60 58
REMARK SMILES IDX 42 59 45 60 59 61 78 62 43 63 44 64 58 66 79 67 46 68 30 69
REMARK SMILES IDX 31 70 39 71 32 72 33 73 37 74 40 75 34 76 35 77 38 78 36 79
REMARK SMILES IDX 62 80 63 81 71 82 64 83 65 84 69 85 72 86 66 87 67 88 70 89
REMARK SMILES IDX 68 90 47 91 48 92 56 93 49 94 50 95 54 96 57 97 51 98 52 99
REMARK SMILES IDX 55 100 53 101
REMARK H PARENT 14 5 1 22 1 23 18 35 77 54 45 65
REMARK Flexibility Score: inf
ROOT
ATOM      1  C   UNL A   1      31.858  27.956  26.591  1.00  0.00     0.118 C 
ENDROOT
BRANCH   1   2
ATOM      2  N   UNL A   1      30.975  27.823  25.436  1.00  0.00    -0.351 N 
ATOM      3  C   UNL A   1      30.874  26.851  24.452  1.00  0.00     0.273 C 
ATOM      4  O   UNL A   1      29.937  26.976  23.661  1.00  0.00    -0.267 OA
ATOM      5  H   UNL A   1      30.331  28.560  25.337  1.00  0.00     0.163 HD
BRANCH   3   6
ATOM      6  C   UNL A   1      31.787  25.693  24.415  1.00  0.00     0.169 A 
ATOM      7  N   UNL A   1      32.423  23.652  24.656  1.00  0.00    -0.231 N 
ATOM      8  N   UNL A   1      31.317  24.432  24.577  1.00  0.00    -0.160 NA
ATOM      9  C   UNL A   1      33.583  24.398  24.630  1.00  0.00     0.094 A 
ATOM     10  C   UNL A   1      33.168  25.616  24.141  1.00  0.00     0.100 A 
ATOM     11  Cl  UNL A   1      34.202  26.686  23.329  1.00  0.00    -0.079 Cl
BRANCH   7  12
ATOM     12  C   UNL A   1      32.363  22.244  24.575  1.00  0.00     0.065 A 
ATOM     13  C   UNL A   1      32.779  19.510  24.345  1.00  0.00     0.082 A 
ATOM     14  C   UNL A   1      32.478  20.259  23.200  1.00  0.00     0.024 A 
ATOM     15  C   UNL A   1      32.824  20.114  25.606  1.00  0.00     0.024 A 
ATOM     16  C   UNL A   1      32.245  21.634  23.316  1.00  0.00     0.030 A 
ATOM     17  C   UNL A   1      32.636  21.488  25.719  1.00  0.00     0.030 A 
BRANCH  13  18
ATOM     18  S   UNL A   1      33.121  17.778  24.244  1.00  0.00     0.238 S 
ATOM     19  O   UNL A   1      32.301  17.085  25.199  1.00  0.00    -0.207 OA
ATOM     20  O   UNL A   1      34.560  17.608  24.176  1.00  0.00    -0.207 OA
BRANCH  18  21
ATOM     21  N   UNL A   1      32.526  17.331  22.741  1.00  0.00    -0.225 NA
ATOM     22  H   UNL A   1      31.892  18.053  22.398  1.00  0.00     0.137 HD
ATOM     23  H   UNL A   1      32.023  16.448  22.824  1.00  0.00     0.137 HD
ENDBRANCH  18  21
ENDBRANCH  13  18
ENDBRANCH   7  12
BRANCH   9  24
ATOM     24  C   UNL A   1      34.962  23.943  24.720  1.00  0.00     0.002 A 
ATOM     25  C   UNL A   1      35.472  23.155  23.678  1.00  0.00     0.012 A 
ATOM     26  C   UNL A   1      35.656  24.039  25.930  1.00  0.00     0.012 A 
ATOM     27  C   UNL A   1      36.640  22.419  23.870  1.00  0.00     0.021 A 
ATOM     28  C   UNL A   1      36.822  23.298  26.120  1.00  0.00     0.021 A 
ATOM     29  C   UNL A   1      37.296  22.476  25.098  1.00  0.00     0.041 A 
ATOM     30  Cl  UNL A   1      38.671  21.480  25.375  1.00  0.00    -0.084 Cl
ENDBRANCH   9  24
ENDBRANCH   3   6
ENDBRANCH   1   2
BRANCH   1  31
ATOM     31  C   UNL A   1      32.961  28.997  26.360  1.00  0.00     0.042 C 
BRANCH  31  32
ATOM     32  C   UNL A   1      34.003  29.067  27.447  1.00  0.00     0.118 C 
BRANCH  32  33
ATOM     33  N   UNL A   1      34.203  30.410  28.000  1.00  0.00    -0.352 N 
ATOM     34  C   UNL A   1      35.248  30.837  28.810  1.00  0.00     0.251 C 
ATOM     35  H   UNL A   1      33.522  31.084  27.772  1.00  0.00     0.163 HD
ATOM     36  O   UNL A   1      35.148  31.836  29.510  1.00  0.00    -0.269 OA
BRANCH  34  37
ATOM     37  C   UNL A   1      36.490  30.042  28.806  1.00  0.00     0.039 A 
ATOM     38  C   UNL A   1      37.427  30.063  27.770  1.00  0.00     0.014 A 
ATOM     39  C   UNL A   1      36.742  29.328  29.964  1.00  0.00     0.014 A 
ATOM     40  C   UNL A   1      38.636  29.396  27.968  1.00  0.00     0.010 A 
ATOM     41  C   UNL A   1      38.027  29.038  30.284  1.00  0.00     0.010 A 
ATOM     42  C   UNL A   1      38.922  28.893  29.245  1.00  0.00    -0.014 A 
BRANCH  42  43
ATOM     43  C   UNL A   1      40.167  28.241  29.604  1.00  0.00     0.031 A 
ATOM     44  C   UNL A   1      40.424  28.203  31.057  1.00  0.00     0.074 A 
ATOM     45  C   UNL A   1      40.865  27.499  28.712  1.00  0.00     0.049 A 
ATOM     46  N   UNL A   1      41.334  28.850  31.701  1.00  0.00    -0.248 NA
ATOM     47  C   UNL A   1      39.460  27.502  31.921  1.00  0.00     0.031 C 
ATOM     48  C   UNL A   1      40.530  27.167  27.318  1.00  0.00     0.029 A 
ATOM     49  N   UNL A   1      41.994  26.771  28.916  1.00  0.00    -0.354 N 
ATOM     50  C   UNL A   1      41.202  28.462  33.028  1.00  0.00     0.074 A 
ATOM     51  C   UNL A   1      39.915  27.828  33.134  1.00  0.00     0.031 C 
ATOM     52  C   UNL A   1      41.292  26.134  26.896  1.00  0.00     0.029 A 
ATOM     53  C   UNL A   1      42.277  25.843  27.918  1.00  0.00     0.049 A 
ATOM     54  H   UNL A   1      42.566  26.891  29.708  1.00  0.00     0.167 HD
ATOM     55  C   UNL A   1      42.287  28.449  33.850  1.00  0.00     0.037 A 
ATOM     56  C   UNL A   1      43.233  24.881  27.975  1.00  0.00     0.037 A 
ATOM     57  C   UNL A   1      43.377  29.203  33.272  1.00  0.00     0.049 A 
ATOM     58  C   UNL A   1      44.200  25.299  29.029  1.00  0.00     0.074 A 
ATOM     59  C   UNL A   1      43.510  30.505  32.821  1.00  0.00     0.029 A 
ATOM     60  N   UNL A   1      44.406  28.506  32.681  1.00  0.00    -0.354 N 
ATOM     61  N   UNL A   1      44.975  26.346  28.918  1.00  0.00    -0.248 NA
ATOM     62  C   UNL A   1      43.927  24.866  30.393  1.00  0.00     0.031 C 
ATOM     63  C   UNL A   1      44.253  30.398  31.607  1.00  0.00     0.029 A 
ATOM     64  C   UNL A   1      44.620  29.062  31.445  1.00  0.00     0.049 A 
ATOM     65  H   UNL A   1      44.897  27.749  33.073  1.00  0.00     0.167 HD
ATOM     66  C   UNL A   1      44.921  26.956  30.163  1.00  0.00     0.074 A 
ATOM     67  C   UNL A   1      44.312  25.965  31.049  1.00  0.00     0.031 C 
ATOM     68  C   UNL A   1      45.077  28.307  30.300  1.00  0.00     0.037 A 
BRANCH  55  69
ATOM     69  C   UNL A   1      42.503  27.454  34.964  1.00  0.00     0.064 A 
ATOM     70  C   UNL A   1      42.947  27.925  36.215  1.00  0.00     0.173 A 
ATOM     71  C   UNL A   1      42.576  26.055  34.783  1.00  0.00     0.173 A 
ATOM     72  F   UNL A   1      42.933  29.237  36.494  1.00  0.00    -0.203 F 
ATOM     73  C   UNL A   1      43.506  27.072  37.170  1.00  0.00     0.198 A 
ATOM     74  C   UNL A   1      43.082  25.201  35.761  1.00  0.00     0.198 A 
ATOM     75  F   UNL A   1      42.276  25.461  33.624  1.00  0.00    -0.203 F 
ATOM     76  F   UNL A   1      44.039  27.585  38.286  1.00  0.00    -0.200 F 
ATOM     77  C   UNL A   1      43.580  25.712  36.938  1.00  0.00     0.200 A 
ATOM     78  F   UNL A   1      43.160  23.886  35.509  1.00  0.00    -0.200 F 
ATOM     79  F   UNL A   1      44.173  24.901  37.823  1.00  0.00    -0.200 F 
ENDBRANCH  55  69
BRANCH  56  80
ATOM     80  C   UNL A   1      43.176  23.499  27.433  1.00  0.00     0.064 A 
ATOM     81  C   UNL A   1      42.259  22.557  27.931  1.00  0.00     0.173 A 
ATOM     82  C   UNL A   1      43.829  23.152  26.233  1.00  0.00     0.173 A 
ATOM     83  F   UNL A   1      41.559  22.823  29.043  1.00  0.00    -0.203 F 
ATOM     84  C   UNL A   1      41.994  21.359  27.257  1.00  0.00     0.198 A 
ATOM     85  C   UNL A   1      43.570  21.953  25.565  1.00  0.00     0.198 A 
ATOM     86  F   UNL A   1      44.665  24.010  25.630  1.00  0.00    -0.203 F 
ATOM     87  F   UNL A   1      41.067  20.514  27.731  1.00  0.00    -0.200 F 
ATOM     88  C   UNL A   1      42.641  21.063  26.069  1.00  0.00     0.200 A 
ATOM     89  F   UNL A   1      44.177  21.699  24.397  1.00  0.00    -0.200 F 
ATOM     90  F   UNL A   1      42.343  19.945  25.391  1.00  0.00    -0.200 F 
ENDBRANCH  56  80
BRANCH  68  91
ATOM     91  C   UNL A   1      45.542  29.101  29.107  1.00  0.00     0.064 A 
ATOM     92  C   UNL A   1      44.685  29.759  28.206  1.00  0.00     0.173 A 
ATOM     93  C   UNL A   1      46.917  29.339  28.966  1.00  0.00     0.173 A 
ATOM     94  F   UNL A   1      43.356  29.678  28.331  1.00  0.00    -0.203 F 
ATOM     95  C   UNL A   1      45.184  30.572  27.187  1.00  0.00     0.198 A 
ATOM     96  C   UNL A   1      47.411  30.181  27.973  1.00  0.00     0.198 A 
ATOM     97  F   UNL A   1      47.785  28.788  29.829  1.00  0.00    -0.203 F 
ATOM     98  F   UNL A   1      44.342  31.176  26.336  1.00  0.00    -0.200 F 
ATOM     99  C   UNL A   1      46.546  30.788  27.077  1.00  0.00     0.200 A 
ATOM    100  F   UNL A   1      48.726  30.428  27.907  1.00  0.00    -0.200 F 
ATOM    101  F   UNL A   1      47.024  31.602  26.127  1.00  0.00    -0.200 F 
ENDBRANCH  68  91
ENDBRANCH  42  43
ENDBRANCH  34  37
ENDBRANCH  32  33
ENDBRANCH  31  32
ENDBRANCH   1  31
TORSDOF 14
ENDMDL
