MODEL 1
REMARK VINA RESULT:     -12.3      0.000      0.000
REMARK SMILES C[C@@H](CCC(=O)NCCCNC(=O)c1ccc(-c2c3nc(c(-c4c(F)c(F)c(F)c(F)c4F)c4ccc([nH]4)c(-c4c(F)c(F)c(F)c(F)c4F)c4nc(c(-c5c(F)c(F)c(F)c(F)c5F)c5ccc2[nH]5)C=C4)C=C3)cc1)NC(=O)Nc1ccc(Cl)c(Br)c1
REMARK SMILES IDX 8 1 7 2 5 3 6 4 4 6 3 7 2 8 1 9 77 10 78 11 79 13 80 14
REMARK SMILES IDX 81 16 82 17 88 18 83 19 86 20 84 21 87 22 85 23 9 24 10 25
REMARK SMILES IDX 11 26 12 27 13 29 14 30 15 31 76 32 16 33 75 34 17 35 18 36
REMARK SMILES IDX 19 37 69 38 20 39 74 40 68 41 70 42 21 43 73 44 67 45 66 46
REMARK SMILES IDX 22 48 54 49 34 50 53 51 35 52 38 53 52 54 71 55 36 56 37 57
REMARK SMILES IDX 51 59 72 60 39 61 23 62 24 63 32 64 25 65 26 66 30 67 33 68
REMARK SMILES IDX 27 69 28 70 31 71 29 72 55 73 56 74 64 75 57 76 58 77 62 78
REMARK SMILES IDX 65 79 59 80 60 81 63 82 61 83 40 84 41 85 49 86 42 87 43 88
REMARK SMILES IDX 47 89 50 90 44 91 45 92 48 93 46 94
REMARK H PARENT 7 5 77 12 80 15 11 28 70 47 38 58
REMARK Flexibility Score: inf
ROOT
ATOM      1  C   UNL A   1      31.343  30.833  26.090  1.00  0.00     0.117 C 
ENDROOT
BRANCH   1   2
ATOM      2  N   UNL A   1      32.524  30.150  26.593  1.00  0.00    -0.356 N 
ATOM      3  C   UNL A   1      32.722  28.863  26.977  1.00  0.00     0.220 C 
ATOM      4  O   UNL A   1      33.830  28.558  27.423  1.00  0.00    -0.275 OA
ATOM      5  H   UNL A   1      33.321  30.723  26.669  1.00  0.00     0.163 HD
BRANCH   3   6
ATOM      6  C   UNL A   1      31.610  27.840  26.921  1.00  0.00     0.102 C 
BRANCH   6   7
ATOM      7  C   UNL A   1      32.112  26.478  26.423  1.00  0.00     0.034 C 
BRANCH   7   8
ATOM      8  C   UNL A   1      31.062  25.549  25.775  1.00  0.00     0.081 C 
ATOM      9  C   UNL A   1      30.078  26.338  24.905  1.00  0.00     0.031 C 
BRANCH   8  10
ATOM     10  N   UNL A   1      30.436  24.671  26.774  1.00  0.00    -0.335 N 
ATOM     11  C   UNL A   1      30.280  23.338  26.905  1.00  0.00     0.319 C 
ATOM     12  H   UNL A   1      30.038  25.173  27.521  1.00  0.00     0.165 HD
ATOM     13  O   UNL A   1      29.431  22.938  27.708  1.00  0.00    -0.248 OA
ATOM     14  N   UNL A   1      30.890  22.433  26.114  1.00  0.00    -0.308 N 
ATOM     15  H   UNL A   1      30.390  21.591  26.010  1.00  0.00     0.171 HD
BRANCH  14  16
ATOM     16  C   UNL A   1      32.099  22.463  25.413  1.00  0.00     0.044 A 
ATOM     17  C   UNL A   1      32.052  22.259  24.033  1.00  0.00     0.028 A 
ATOM     18  C   UNL A   1      33.326  22.684  26.034  1.00  0.00     0.043 A 
ATOM     19  C   UNL A   1      33.203  22.437  23.264  1.00  0.00     0.024 A 
ATOM     20  C   UNL A   1      34.480  22.872  25.267  1.00  0.00     0.038 A 
ATOM     21  C   UNL A   1      34.413  22.775  23.874  1.00  0.00     0.055 A 
ATOM     22  Br  UNL A   1      36.080  23.311  26.192  1.00  0.00    -0.049 Br
ATOM     23  Cl  UNL A   1      35.767  23.079  22.848  1.00  0.00    -0.083 Cl
ENDBRANCH  14  16
ENDBRANCH   8  10
ENDBRANCH   7   8
ENDBRANCH   6   7
ENDBRANCH   3   6
ENDBRANCH   1   2
BRANCH   1  24
ATOM     24  C   UNL A   1      31.286  32.305  26.500  1.00  0.00     0.042 C 
BRANCH  24  25
ATOM     25  C   UNL A   1      32.513  32.812  27.253  1.00  0.00     0.118 C 
BRANCH  25  26
ATOM     26  N   UNL A   1      32.378  34.215  27.608  1.00  0.00    -0.352 N 
ATOM     27  C   UNL A   1      32.974  34.913  28.626  1.00  0.00     0.251 C 
ATOM     28  H   UNL A   1      31.773  34.740  27.035  1.00  0.00     0.163 HD
ATOM     29  O   UNL A   1      32.544  36.032  28.921  1.00  0.00    -0.269 OA
BRANCH  27  30
ATOM     30  C   UNL A   1      34.121  34.357  29.387  1.00  0.00     0.039 A 
ATOM     31  C   UNL A   1      35.403  34.474  28.839  1.00  0.00     0.014 A 
ATOM     32  C   UNL A   1      33.941  33.639  30.573  1.00  0.00     0.014 A 
ATOM     33  C   UNL A   1      36.502  33.893  29.482  1.00  0.00     0.010 A 
ATOM     34  C   UNL A   1      35.044  33.092  31.237  1.00  0.00     0.010 A 
ATOM     35  C   UNL A   1      36.332  33.199  30.689  1.00  0.00    -0.014 A 
BRANCH  35  36
ATOM     36  C   UNL A   1      37.487  32.556  31.366  1.00  0.00     0.031 A 
ATOM     37  C   UNL A   1      38.202  31.402  30.718  1.00  0.00     0.074 A 
ATOM     38  C   UNL A   1      37.881  32.989  32.578  1.00  0.00     0.049 A 
ATOM     39  N   UNL A   1      39.206  30.691  31.169  1.00  0.00    -0.248 NA
ATOM     40  C   UNL A   1      37.719  30.987  29.392  1.00  0.00     0.031 C 
ATOM     41  C   UNL A   1      37.268  34.089  33.321  1.00  0.00     0.029 A 
ATOM     42  N   UNL A   1      38.887  32.547  33.403  1.00  0.00    -0.354 N 
ATOM     43  C   UNL A   1      39.470  29.743  30.189  1.00  0.00     0.074 A 
ATOM     44  C   UNL A   1      38.499  29.947  29.134  1.00  0.00     0.031 C 
ATOM     45  C   UNL A   1      37.912  34.239  34.490  1.00  0.00     0.029 A 
ATOM     46  C   UNL A   1      38.964  33.230  34.591  1.00  0.00     0.049 A 
ATOM     47  H   UNL A   1      39.495  31.812  33.164  1.00  0.00     0.167 HD
ATOM     48  C   UNL A   1      40.441  28.800  30.163  1.00  0.00     0.037 A 
ATOM     49  C   UNL A   1      39.782  33.055  35.647  1.00  0.00     0.037 A 
ATOM     50  C   UNL A   1      41.421  28.604  31.200  1.00  0.00     0.049 A 
ATOM     51  C   UNL A   1      40.831  31.977  35.607  1.00  0.00     0.074 A 
ATOM     52  C   UNL A   1      42.483  27.715  31.229  1.00  0.00     0.029 A 
ATOM     53  N   UNL A   1      41.455  29.304  32.396  1.00  0.00    -0.354 N 
ATOM     54  N   UNL A   1      41.107  31.128  34.649  1.00  0.00    -0.248 NA
ATOM     55  C   UNL A   1      41.682  31.838  36.797  1.00  0.00     0.031 C 
ATOM     56  C   UNL A   1      43.134  27.849  32.459  1.00  0.00     0.029 A 
ATOM     57  C   UNL A   1      42.501  28.848  33.182  1.00  0.00     0.049 A 
ATOM     58  H   UNL A   1      40.828  30.019  32.650  1.00  0.00     0.167 HD
ATOM     59  C   UNL A   1      42.173  30.367  35.110  1.00  0.00     0.074 A 
ATOM     60  C   UNL A   1      42.504  30.864  36.429  1.00  0.00     0.031 C 
ATOM     61  C   UNL A   1      42.818  29.346  34.494  1.00  0.00     0.037 A 
BRANCH  48  62
ATOM     62  C   UNL A   1      40.498  27.896  28.967  1.00  0.00     0.064 A 
ATOM     63  C   UNL A   1      39.735  26.720  28.903  1.00  0.00     0.173 A 
ATOM     64  C   UNL A   1      41.280  28.236  27.854  1.00  0.00     0.173 A 
ATOM     65  F   UNL A   1      38.977  26.348  29.945  1.00  0.00    -0.203 F 
ATOM     66  C   UNL A   1      39.773  25.906  27.774  1.00  0.00     0.198 A 
ATOM     67  C   UNL A   1      41.296  27.432  26.718  1.00  0.00     0.198 A 
ATOM     68  F   UNL A   1      42.019  29.356  27.864  1.00  0.00    -0.203 F 
ATOM     69  F   UNL A   1      39.063  24.768  27.746  1.00  0.00    -0.200 F 
ATOM     70  C   UNL A   1      40.547  26.264  26.680  1.00  0.00     0.200 A 
ATOM     71  F   UNL A   1      42.036  27.786  25.658  1.00  0.00    -0.200 F 
ATOM     72  F   UNL A   1      40.575  25.484  25.592  1.00  0.00    -0.200 F 
ENDBRANCH  48  62
BRANCH  49  73
ATOM     73  C   UNL A   1      39.645  33.932  36.836  1.00  0.00     0.064 A 
ATOM     74  C   UNL A   1      38.846  33.551  37.923  1.00  0.00     0.173 A 
ATOM     75  C   UNL A   1      40.307  35.166  36.910  1.00  0.00     0.173 A 
ATOM     76  F   UNL A   1      38.178  32.390  37.887  1.00  0.00    -0.203 F 
ATOM     77  C   UNL A   1      38.706  34.378  39.036  1.00  0.00     0.198 A 
ATOM     78  C   UNL A   1      40.184  35.981  38.033  1.00  0.00     0.198 A 
ATOM     79  F   UNL A   1      41.086  35.572  35.897  1.00  0.00    -0.203 F 
ATOM     80  F   UNL A   1      37.910  34.006  40.048  1.00  0.00    -0.200 F 
ATOM     81  C   UNL A   1      39.379  35.590  39.092  1.00  0.00     0.200 A 
ATOM     82  F   UNL A   1      40.849  37.144  38.090  1.00  0.00    -0.200 F 
ATOM     83  F   UNL A   1      39.249  36.381  40.165  1.00  0.00    -0.200 F 
ENDBRANCH  49  73
BRANCH  61  84
ATOM     84  C   UNL A   1      43.955  28.706  35.234  1.00  0.00     0.064 A 
ATOM     85  C   UNL A   1      43.741  27.647  36.127  1.00  0.00     0.173 A 
ATOM     86  C   UNL A   1      45.275  29.133  35.022  1.00  0.00     0.173 A 
ATOM     87  F   UNL A   1      42.496  27.216  36.376  1.00  0.00    -0.203 F 
ATOM     88  C   UNL A   1      44.807  27.050  36.796  1.00  0.00     0.198 A 
ATOM     89  C   UNL A   1      46.339  28.519  35.674  1.00  0.00     0.198 A 
ATOM     90  F   UNL A   1      45.532  30.140  34.175  1.00  0.00    -0.203 F 
ATOM     91  F   UNL A   1      44.576  26.065  37.676  1.00  0.00    -0.200 F 
ATOM     92  C   UNL A   1      46.104  27.482  36.565  1.00  0.00     0.200 A 
ATOM     93  F   UNL A   1      47.593  28.931  35.444  1.00  0.00    -0.200 F 
ATOM     94  F   UNL A   1      47.129  26.903  37.208  1.00  0.00    -0.200 F 
ENDBRANCH  61  84
ENDBRANCH  35  36
ENDBRANCH  27  30
ENDBRANCH  25  26
ENDBRANCH  24  25
ENDBRANCH   1  24
TORSDOF 14
ENDMDL
MODEL 2
REMARK VINA RESULT:     -12.3      0.217      1.152
REMARK SMILES C[C@@H](CCC(=O)NCCCNC(=O)c1ccc(-c2c3nc(c(-c4c(F)c(F)c(F)c(F)c4F)c4ccc([nH]4)c(-c4c(F)c(F)c(F)c(F)c4F)c4nc(c(-c5c(F)c(F)c(F)c(F)c5F)c5ccc2[nH]5)C=C4)C=C3)cc1)NC(=O)Nc1ccc(Cl)c(Br)c1
REMARK SMILES IDX 8 1 7 2 5 3 6 4 4 6 3 7 2 8 1 9 77 10 78 11 79 13 80 14
REMARK SMILES IDX 81 16 82 17 88 18 83 19 86 20 84 21 87 22 85 23 9 24 10 25
REMARK SMILES IDX 11 26 12 27 13 29 14 30 15 31 76 32 16 33 75 34 17 35 18 36
REMARK SMILES IDX 19 37 69 38 20 39 74 40 68 41 70 42 21 43 73 44 67 45 66 46
REMARK SMILES IDX 22 48 54 49 34 50 53 51 35 52 38 53 52 54 71 55 36 56 37 57
REMARK SMILES IDX 51 59 72 60 39 61 23 62 24 63 32 64 25 65 26 66 30 67 33 68
REMARK SMILES IDX 27 69 28 70 31 71 29 72 55 73 56 74 64 75 57 76 58 77 62 78
REMARK SMILES IDX 65 79 59 80 60 81 63 82 61 83 40 84 41 85 49 86 42 87 43 88
REMARK SMILES IDX 47 89 50 90 44 91 45 92 48 93 46 94
REMARK H PARENT 7 5 77 12 80 15 11 28 70 47 38 58
REMARK Flexibility Score: inf
ROOT
ATOM      1  C   UNL A   1      31.378  30.945  25.924  1.00  0.00     0.117 C 
ENDROOT
BRANCH   1   2
ATOM      2  N   UNL A   1      32.202  30.070  26.743  1.00  0.00    -0.356 N 
ATOM      3  C   UNL A   1      32.303  28.717  26.792  1.00  0.00     0.220 C 
ATOM      4  O   UNL A   1      33.056  28.224  27.634  1.00  0.00    -0.275 OA
ATOM      5  H   UNL A   1      32.790  30.543  27.375  1.00  0.00     0.163 HD
BRANCH   3   6
ATOM      6  C   UNL A   1      31.479  27.829  25.887  1.00  0.00     0.102 C 
BRANCH   6   7
ATOM      7  C   UNL A   1      31.863  26.351  26.035  1.00  0.00     0.034 C 
BRANCH   7   8
ATOM      8  C   UNL A   1      30.837  25.315  25.522  1.00  0.00     0.081 C 
ATOM      9  C   UNL A   1      29.788  25.968  24.616  1.00  0.00     0.031 C 
BRANCH   8  10
ATOM     10  N   UNL A   1      30.289  24.515  26.626  1.00  0.00    -0.335 N 
ATOM     11  C   UNL A   1      30.252  23.200  26.923  1.00  0.00     0.319 C 
ATOM     12  H   UNL A   1      29.844  25.068  27.308  1.00  0.00     0.165 HD
ATOM     13  O   UNL A   1      29.438  22.829  27.774  1.00  0.00    -0.248 OA
ATOM     14  N   UNL A   1      30.943  22.262  26.245  1.00  0.00    -0.308 N 
ATOM     15  H   UNL A   1      30.520  21.373  26.249  1.00  0.00     0.171 HD
BRANCH  14  16
ATOM     16  C   UNL A   1      32.148  22.313  25.537  1.00  0.00     0.044 A 
ATOM     17  C   UNL A   1      32.109  22.021  24.173  1.00  0.00     0.028 A 
ATOM     18  C   UNL A   1      33.362  22.638  26.137  1.00  0.00     0.043 A 
ATOM     19  C   UNL A   1      33.247  22.211  23.388  1.00  0.00     0.024 A 
ATOM     20  C   UNL A   1      34.503  22.838  25.354  1.00  0.00     0.038 A 
ATOM     21  C   UNL A   1      34.439  22.651  23.970  1.00  0.00     0.055 A 
ATOM     22  Br  UNL A   1      36.078  23.419  26.242  1.00  0.00    -0.049 Br
ATOM     23  Cl  UNL A   1      35.773  22.962  22.920  1.00  0.00    -0.083 Cl
ENDBRANCH  14  16
ENDBRANCH   8  10
ENDBRANCH   7   8
ENDBRANCH   6   7
ENDBRANCH   3   6
ENDBRANCH   1   2
BRANCH   1  24
ATOM     24  C   UNL A   1      31.256  32.356  26.497  1.00  0.00     0.042 C 
BRANCH  24  25
ATOM     25  C   UNL A   1      32.479  32.848  27.266  1.00  0.00     0.118 C 
BRANCH  25  26
ATOM     26  N   UNL A   1      32.371  34.260  27.595  1.00  0.00    -0.352 N 
ATOM     27  C   UNL A   1      32.991  34.968  28.592  1.00  0.00     0.251 C 
ATOM     28  H   UNL A   1      31.765  34.783  27.020  1.00  0.00     0.163 HD
ATOM     29  O   UNL A   1      32.581  36.099  28.869  1.00  0.00    -0.269 OA
BRANCH  27  30
ATOM     30  C   UNL A   1      34.139  34.411  29.347  1.00  0.00     0.039 A 
ATOM     31  C   UNL A   1      35.417  34.510  28.787  1.00  0.00     0.014 A 
ATOM     32  C   UNL A   1      33.963  33.706  30.543  1.00  0.00     0.014 A 
ATOM     33  C   UNL A   1      36.517  33.926  29.427  1.00  0.00     0.010 A 
ATOM     34  C   UNL A   1      35.067  33.156  31.203  1.00  0.00     0.010 A 
ATOM     35  C   UNL A   1      36.351  33.246  30.642  1.00  0.00    -0.014 A 
BRANCH  35  36
ATOM     36  C   UNL A   1      37.507  32.600  31.315  1.00  0.00     0.031 A 
ATOM     37  C   UNL A   1      38.229  31.457  30.656  1.00  0.00     0.074 A 
ATOM     38  C   UNL A   1      37.894  33.019  32.535  1.00  0.00     0.049 A 
ATOM     39  N   UNL A   1      39.235  30.745  31.102  1.00  0.00    -0.248 NA
ATOM     40  C   UNL A   1      37.754  31.057  29.323  1.00  0.00     0.031 C 
ATOM     41  C   UNL A   1      37.273  34.107  33.289  1.00  0.00     0.029 A 
ATOM     42  N   UNL A   1      38.898  32.572  33.358  1.00  0.00    -0.354 N 
ATOM     43  C   UNL A   1      39.507  29.811  30.111  1.00  0.00     0.074 A 
ATOM     44  C   UNL A   1      38.540  30.024  29.055  1.00  0.00     0.031 C 
ATOM     45  C   UNL A   1      37.911  34.245  34.463  1.00  0.00     0.029 A 
ATOM     46  C   UNL A   1      38.967  33.239  34.555  1.00  0.00     0.049 A 
ATOM     47  H   UNL A   1      39.511  31.842  33.112  1.00  0.00     0.167 HD
ATOM     48  C   UNL A   1      40.483  28.873  30.077  1.00  0.00     0.037 A 
ATOM     49  C   UNL A   1      39.782  33.055  35.612  1.00  0.00     0.037 A 
ATOM     50  C   UNL A   1      41.459  28.668  31.115  1.00  0.00     0.049 A 
ATOM     51  C   UNL A   1      40.836  31.983  35.563  1.00  0.00     0.074 A 
ATOM     52  C   UNL A   1      42.525  27.784  31.138  1.00  0.00     0.029 A 
ATOM     53  N   UNL A   1      41.485  29.353  32.320  1.00  0.00    -0.354 N 
ATOM     54  N   UNL A   1      41.120  31.147  34.595  1.00  0.00    -0.248 NA
ATOM     55  C   UNL A   1      41.683  31.832  36.755  1.00  0.00     0.031 C 
ATOM     56  C   UNL A   1      43.171  27.906  32.372  1.00  0.00     0.029 A 
ATOM     57  C   UNL A   1      42.531  28.892  33.105  1.00  0.00     0.049 A 
ATOM     58  H   UNL A   1      40.854  30.062  32.581  1.00  0.00     0.167 HD
ATOM     59  C   UNL A   1      42.187  30.385  35.051  1.00  0.00     0.074 A 
ATOM     60  C   UNL A   1      42.511  30.867  36.377  1.00  0.00     0.031 C 
ATOM     61  C   UNL A   1      42.840  29.375  34.425  1.00  0.00     0.037 A 
BRANCH  48  62
ATOM     62  C   UNL A   1      40.548  27.985  28.871  1.00  0.00     0.064 A 
ATOM     63  C   UNL A   1      39.806  26.796  28.796  1.00  0.00     0.173 A 
ATOM     64  C   UNL A   1      41.318  28.351  27.757  1.00  0.00     0.173 A 
ATOM     65  F   UNL A   1      39.061  26.399  29.837  1.00  0.00    -0.203 F 
ATOM     66  C   UNL A   1      39.851  25.996  27.657  1.00  0.00     0.198 A 
ATOM     67  C   UNL A   1      41.342  27.561  26.611  1.00  0.00     0.198 A 
ATOM     68  F   UNL A   1      42.038  29.483  27.776  1.00  0.00    -0.203 F 
ATOM     69  F   UNL A   1      39.162  24.847  27.620  1.00  0.00    -0.200 F 
ATOM     70  C   UNL A   1      40.613  26.381  26.564  1.00  0.00     0.200 A 
ATOM     71  F   UNL A   1      42.069  27.941  25.551  1.00  0.00    -0.200 F 
ATOM     72  F   UNL A   1      40.648  25.615  25.466  1.00  0.00    -0.200 F 
ENDBRANCH  48  62
BRANCH  49  73
ATOM     73  C   UNL A   1      39.636  33.916  36.812  1.00  0.00     0.064 A 
ATOM     74  C   UNL A   1      38.846  33.511  37.896  1.00  0.00     0.173 A 
ATOM     75  C   UNL A   1      40.282  35.158  36.899  1.00  0.00     0.173 A 
ATOM     76  F   UNL A   1      38.193  32.342  37.848  1.00  0.00    -0.203 F 
ATOM     77  C   UNL A   1      38.697  34.324  39.018  1.00  0.00     0.198 A 
ATOM     78  C   UNL A   1      40.151  35.958  38.031  1.00  0.00     0.198 A 
ATOM     79  F   UNL A   1      41.053  35.586  35.888  1.00  0.00    -0.203 F 
ATOM     80  F   UNL A   1      37.908  33.929  40.028  1.00  0.00    -0.200 F 
ATOM     81  C   UNL A   1      39.353  35.544  39.087  1.00  0.00     0.200 A 
ATOM     82  F   UNL A   1      40.800  37.129  38.100  1.00  0.00    -0.200 F 
ATOM     83  F   UNL A   1      39.216  36.321  40.170  1.00  0.00    -0.200 F 
ENDBRANCH  49  73
BRANCH  61  84
ATOM     84  C   UNL A   1      43.977  28.731  35.161  1.00  0.00     0.064 A 
ATOM     85  C   UNL A   1      45.285  29.225  35.058  1.00  0.00     0.173 A 
ATOM     86  C   UNL A   1      43.752  27.633  36.004  1.00  0.00     0.173 A 
ATOM     87  F   UNL A   1      45.553  30.262  34.251  1.00  0.00    -0.203 F 
ATOM     88  C   UNL A   1      46.331  28.630  35.759  1.00  0.00     0.198 A 
ATOM     89  C   UNL A   1      44.795  27.054  36.721  1.00  0.00     0.198 A 
ATOM     90  F   UNL A   1      42.517  27.125  36.138  1.00  0.00    -0.203 F 
ATOM     91  F   UNL A   1      47.581  29.092  35.616  1.00  0.00    -0.200 F 
ATOM     92  C   UNL A   1      46.084  27.550  36.594  1.00  0.00     0.200 A 
ATOM     93  F   UNL A   1      44.554  26.017  37.533  1.00  0.00    -0.200 F 
ATOM     94  F   UNL A   1      47.092  26.980  37.270  1.00  0.00    -0.200 F 
ENDBRANCH  61  84
ENDBRANCH  35  36
ENDBRANCH  27  30
ENDBRANCH  25  26
ENDBRANCH  24  25
ENDBRANCH   1  24
TORSDOF 14
ENDMDL
MODEL 3
REMARK VINA RESULT:     -12.2      5.839     10.845
REMARK SMILES C[C@@H](CCC(=O)NCCCNC(=O)c1ccc(-c2c3nc(c(-c4c(F)c(F)c(F)c(F)c4F)c4ccc([nH]4)c(-c4c(F)c(F)c(F)c(F)c4F)c4nc(c(-c5c(F)c(F)c(F)c(F)c5F)c5ccc2[nH]5)C=C4)C=C3)cc1)NC(=O)Nc1ccc(Cl)c(Br)c1
REMARK SMILES IDX 8 1 7 2 5 3 6 4 4 6 3 7 2 8 1 9 77 10 78 11 79 13 80 14
REMARK SMILES IDX 81 16 82 17 88 18 83 19 86 20 84 21 87 22 85 23 9 24 10 25
REMARK SMILES IDX 11 26 12 27 13 29 14 30 15 31 76 32 16 33 75 34 17 35 18 36
REMARK SMILES IDX 19 37 69 38 20 39 74 40 68 41 70 42 21 43 73 44 67 45 66 46
REMARK SMILES IDX 22 48 54 49 34 50 53 51 35 52 38 53 52 54 71 55 36 56 37 57
REMARK SMILES IDX 51 59 72 60 39 61 23 62 24 63 32 64 25 65 26 66 30 67 33 68
REMARK SMILES IDX 27 69 28 70 31 71 29 72 55 73 56 74 64 75 57 76 58 77 62 78
REMARK SMILES IDX 65 79 59 80 60 81 63 82 61 83 40 84 41 85 49 86 42 87 43 88
REMARK SMILES IDX 47 89 50 90 44 91 45 92 48 93 46 94
REMARK H PARENT 7 5 77 12 80 15 11 28 70 47 38 58
REMARK Flexibility Score: inf
ROOT
ATOM      1  C   UNL A   1      36.814  20.448  24.980  1.00  0.00     0.117 C 
ENDROOT
BRANCH   1   2
ATOM      2  N   UNL A   1      36.972  21.617  24.131  1.00  0.00    -0.356 N 
ATOM      3  C   UNL A   1      36.071  22.522  23.669  1.00  0.00     0.220 C 
ATOM      4  O   UNL A   1      36.475  23.401  22.906  1.00  0.00    -0.275 OA
ATOM      5  H   UNL A   1      37.898  21.781  23.836  1.00  0.00     0.163 HD
BRANCH   3   6
ATOM      6  C   UNL A   1      34.604  22.429  24.024  1.00  0.00     0.102 C 
BRANCH   6   7
ATOM      7  C   UNL A   1      33.875  23.757  23.784  1.00  0.00     0.034 C 
BRANCH   7   8
ATOM      8  C   UNL A   1      32.689  23.726  22.795  1.00  0.00     0.081 C 
ATOM      9  C   UNL A   1      32.088  22.321  22.686  1.00  0.00     0.031 C 
BRANCH   8  10
ATOM     10  N   UNL A   1      33.047  24.345  21.511  1.00  0.00    -0.335 N 
ATOM     11  C   UNL A   1      32.666  25.458  20.851  1.00  0.00     0.319 C 
ATOM     12  H   UNL A   1      33.723  23.827  21.018  1.00  0.00     0.165 HD
ATOM     13  O   UNL A   1      32.931  25.527  19.647  1.00  0.00    -0.248 OA
ATOM     14  N   UNL A   1      31.895  26.420  21.394  1.00  0.00    -0.308 N 
ATOM     15  H   UNL A   1      31.346  26.910  20.738  1.00  0.00     0.171 HD
BRANCH  14  16
ATOM     16  C   UNL A   1      31.724  26.855  22.711  1.00  0.00     0.044 A 
ATOM     17  C   UNL A   1      30.498  26.598  23.324  1.00  0.00     0.028 A 
ATOM     18  C   UNL A   1      32.720  27.526  23.419  1.00  0.00     0.043 A 
ATOM     19  C   UNL A   1      30.329  26.865  24.684  1.00  0.00     0.024 A 
ATOM     20  C   UNL A   1      32.559  27.788  24.783  1.00  0.00     0.038 A 
ATOM     21  C   UNL A   1      31.370  27.431  25.425  1.00  0.00     0.055 A 
ATOM     22  Br  UNL A   1      34.026  28.576  25.697  1.00  0.00    -0.049 Br
ATOM     23  Cl  UNL A   1      31.123  27.637  27.120  1.00  0.00    -0.083 Cl
ENDBRANCH  14  16
ENDBRANCH   8  10
ENDBRANCH   7   8
ENDBRANCH   6   7
ENDBRANCH   3   6
ENDBRANCH   1   2
BRANCH   1  24
ATOM     24  C   UNL A   1      38.057  19.560  25.011  1.00  0.00     0.042 C 
BRANCH  24  25
ATOM     25  C   UNL A   1      39.241  20.135  25.783  1.00  0.00     0.118 C 
BRANCH  25  26
ATOM     26  N   UNL A   1      40.296  19.150  25.954  1.00  0.00    -0.352 N 
ATOM     27  C   UNL A   1      41.640  19.342  26.144  1.00  0.00     0.251 C 
ATOM     28  H   UNL A   1      40.004  18.209  25.930  1.00  0.00     0.163 HD
ATOM     29  O   UNL A   1      42.408  18.384  26.016  1.00  0.00    -0.269 OA
BRANCH  27  30
ATOM     30  C   UNL A   1      42.196  20.672  26.496  1.00  0.00     0.039 A 
ATOM     31  C   UNL A   1      42.191  21.062  27.840  1.00  0.00     0.014 A 
ATOM     32  C   UNL A   1      42.626  21.574  25.517  1.00  0.00     0.014 A 
ATOM     33  C   UNL A   1      42.630  22.339  28.206  1.00  0.00     0.010 A 
ATOM     34  C   UNL A   1      43.101  22.837  25.887  1.00  0.00     0.010 A 
ATOM     35  C   UNL A   1      43.092  23.237  27.233  1.00  0.00    -0.014 A 
BRANCH  35  36
ATOM     36  C   UNL A   1      43.535  24.604  27.608  1.00  0.00     0.031 A 
ATOM     37  C   UNL A   1      42.525  25.663  27.954  1.00  0.00     0.074 A 
ATOM     38  C   UNL A   1      44.847  24.907  27.612  1.00  0.00     0.049 A 
ATOM     39  N   UNL A   1      42.717  26.920  28.272  1.00  0.00    -0.248 NA
ATOM     40  C   UNL A   1      41.111  25.257  27.933  1.00  0.00     0.031 C 
ATOM     41  C   UNL A   1      45.928  23.979  27.285  1.00  0.00     0.029 A 
ATOM     42  N   UNL A   1      45.492  26.087  27.892  1.00  0.00    -0.354 N 
ATOM     43  C   UNL A   1      41.453  27.455  28.481  1.00  0.00     0.074 A 
ATOM     44  C   UNL A   1      40.499  26.397  28.221  1.00  0.00     0.031 C 
ATOM     45  C   UNL A   1      47.103  24.623  27.386  1.00  0.00     0.029 A 
ATOM     46  C   UNL A   1      46.856  26.014  27.758  1.00  0.00     0.049 A 
ATOM     47  H   UNL A   1      45.020  26.907  28.165  1.00  0.00     0.167 HD
ATOM     48  C   UNL A   1      41.118  28.709  28.868  1.00  0.00     0.037 A 
ATOM     49  C   UNL A   1      47.800  26.964  27.907  1.00  0.00     0.037 A 
ATOM     50  C   UNL A   1      42.062  29.760  29.146  1.00  0.00     0.049 A 
ATOM     51  C   UNL A   1      47.399  28.358  28.305  1.00  0.00     0.074 A 
ATOM     52  C   UNL A   1      41.817  31.043  29.607  1.00  0.00     0.029 A 
ATOM     53  N   UNL A   1      43.434  29.652  28.982  1.00  0.00    -0.354 N 
ATOM     54  N   UNL A   1      46.205  28.834  28.558  1.00  0.00    -0.248 NA
ATOM     55  C   UNL A   1      48.480  29.345  28.441  1.00  0.00     0.031 C 
ATOM     56  C   UNL A   1      43.036  31.723  29.683  1.00  0.00     0.029 A 
ATOM     57  C   UNL A   1      44.046  30.853  29.305  1.00  0.00     0.049 A 
ATOM     58  H   UNL A   1      43.905  28.842  28.680  1.00  0.00     0.167 HD
ATOM     59  C   UNL A   1      46.391  30.167  28.899  1.00  0.00     0.074 A 
ATOM     60  C   UNL A   1      47.815  30.422  28.836  1.00  0.00     0.031 C 
ATOM     61  C   UNL A   1      45.462  31.097  29.233  1.00  0.00     0.037 A 
BRANCH  48  62
ATOM     62  C   UNL A   1      39.659  29.022  29.018  1.00  0.00     0.064 A 
ATOM     63  C   UNL A   1      38.883  29.434  27.924  1.00  0.00     0.173 A 
ATOM     64  C   UNL A   1      39.018  28.856  30.255  1.00  0.00     0.173 A 
ATOM     65  F   UNL A   1      39.451  29.614  26.723  1.00  0.00    -0.203 F 
ATOM     66  C   UNL A   1      37.522  29.691  28.070  1.00  0.00     0.198 A 
ATOM     67  C   UNL A   1      37.653  29.091  30.391  1.00  0.00     0.198 A 
ATOM     68  F   UNL A   1      39.715  28.455  31.329  1.00  0.00    -0.203 F 
ATOM     69  F   UNL A   1      36.806  30.117  27.019  1.00  0.00    -0.200 F 
ATOM     70  C   UNL A   1      36.907  29.513  29.300  1.00  0.00     0.200 A 
ATOM     71  F   UNL A   1      37.058  28.908  31.578  1.00  0.00    -0.200 F 
ATOM     72  F   UNL A   1      35.596  29.753  29.436  1.00  0.00    -0.200 F 
ENDBRANCH  48  62
BRANCH  49  73
ATOM     73  C   UNL A   1      49.227  26.623  27.684  1.00  0.00     0.064 A 
ATOM     74  C   UNL A   1      50.077  26.342  28.762  1.00  0.00     0.173 A 
ATOM     75  C   UNL A   1      49.769  26.572  26.391  1.00  0.00     0.173 A 
ATOM     76  F   UNL A   1      49.608  26.400  30.016  1.00  0.00    -0.203 F 
ATOM     77  C   UNL A   1      51.420  26.034  28.556  1.00  0.00     0.198 A 
ATOM     78  C   UNL A   1      51.106  26.242  26.185  1.00  0.00     0.198 A 
ATOM     79  F   UNL A   1      48.993  26.829  25.327  1.00  0.00    -0.203 F 
ATOM     80  F   UNL A   1      52.221  25.802  29.606  1.00  0.00    -0.200 F 
ATOM     81  C   UNL A   1      51.932  25.979  27.268  1.00  0.00     0.200 A 
ATOM     82  F   UNL A   1      51.592  26.174  24.939  1.00  0.00    -0.200 F 
ATOM     83  F   UNL A   1      53.222  25.676  27.070  1.00  0.00    -0.200 F 
ENDBRANCH  49  73
BRANCH  61  84
ATOM     84  C   UNL A   1      45.958  32.472  29.570  1.00  0.00     0.064 A 
ATOM     85  C   UNL A   1      46.058  33.471  28.592  1.00  0.00     0.173 A 
ATOM     86  C   UNL A   1      46.302  32.804  30.889  1.00  0.00     0.173 A 
ATOM     87  F   UNL A   1      45.757  33.197  27.314  1.00  0.00    -0.203 F 
ATOM     88  C   UNL A   1      46.504  34.750  28.919  1.00  0.00     0.198 A 
ATOM     89  C   UNL A   1      46.725  34.089  31.217  1.00  0.00     0.198 A 
ATOM     90  F   UNL A   1      46.219  31.884  31.861  1.00  0.00    -0.203 F 
ATOM     91  F   UNL A   1      46.631  35.678  27.961  1.00  0.00    -0.200 F 
ATOM     92  C   UNL A   1      46.830  35.059  30.231  1.00  0.00     0.200 A 
ATOM     93  F   UNL A   1      47.032  34.389  32.485  1.00  0.00    -0.200 F 
ATOM     94  F   UNL A   1      47.256  36.291  30.544  1.00  0.00    -0.200 F 
ENDBRANCH  61  84
ENDBRANCH  35  36
ENDBRANCH  27  30
ENDBRANCH  25  26
ENDBRANCH  24  25
ENDBRANCH   1  24
TORSDOF 14
ENDMDL
