MODEL 1
REMARK VINA RESULT:     -13.4      0.000      0.000
REMARK SMILES O=C(NCCCNC(=O)c1ccc(-c2c3nc(c(-c4c(F)c(F)c(F)c(F)c4F)c4ccc([nH]4)c(-c4c(F)c(F)c(F)c(F)c4F)c4nc(c(-c5c(F)c(F)c(F)c(F)c5F)c5ccc2[nH]5)C=C4)C=C3)cc1)C1=Cc2c(cc(Cl)c(Cl)c2Cl)O[C@H]1C(F)(F)F
REMARK SMILES IDX 5 1 4 2 3 3 1 4 2 5 73 7 74 8 85 9 75 10 84 11 76 12 82 13
REMARK SMILES IDX 77 14 80 15 83 16 78 17 81 18 79 19 86 20 87 21 88 22 89 23
REMARK SMILES IDX 6 24 7 25 8 26 9 28 10 29 11 30 72 31 12 32 71 33 13 34
REMARK SMILES IDX 14 35 15 36 65 37 16 38 70 39 64 40 66 41 17 42 69 43 63 44
REMARK SMILES IDX 62 45 18 47 50 48 30 49 49 50 31 51 34 52 48 53 67 54 32 55
REMARK SMILES IDX 33 56 47 58 68 59 35 60 19 61 20 62 28 63 21 64 22 65 26 66
REMARK SMILES IDX 29 67 23 68 24 69 27 70 25 71 51 72 52 73 60 74 53 75 54 76
REMARK SMILES IDX 58 77 61 78 55 79 56 80 59 81 57 82 36 83 37 84 45 85 38 86
REMARK SMILES IDX 39 87 43 88 46 89 40 90 41 91 44 92 42 93
REMARK H PARENT 3 6 7 27 66 46 34 57
REMARK Flexibility Score: inf
ROOT
ATOM      1  C   UNL A   1      33.502  29.260  24.140  1.00  0.00     0.042 C 
ENDROOT
BRANCH   1   2
ATOM      2  C   UNL A   1      32.660  28.911  22.918  1.00  0.00     0.118 C 
BRANCH   2   3
ATOM      3  N   UNL A   1      33.217  27.921  21.999  1.00  0.00    -0.352 N 
ATOM      4  O   UNL A   1      33.650  25.819  21.248  1.00  0.00    -0.270 OA
ATOM      5  C   UNL A   1      33.133  26.538  22.077  1.00  0.00     0.251 C 
ATOM      6  H   UNL A   1      33.714  28.279  21.229  1.00  0.00     0.163 HD
BRANCH   5   7
ATOM      7  C   UNL A   1      32.453  25.982  23.280  1.00  0.00     0.067 C 
ATOM      8  C   UNL A   1      33.219  25.573  24.298  1.00  0.00     0.027 C 
ATOM      9  C   UNL A   1      31.052  25.502  23.063  1.00  0.00     0.314 C 
ATOM     10  C   UNL A   1      33.045  24.134  24.589  1.00  0.00     0.037 A 
ATOM     11  O   UNL A   1      30.815  24.159  23.561  1.00  0.00    -0.475 OA
ATOM     12  C   UNL A   1      31.873  23.500  24.140  1.00  0.00     0.131 A 
ATOM     13  C   UNL A   1      34.138  23.328  25.000  1.00  0.00     0.072 A 
ATOM     14  C   UNL A   1      31.778  22.110  24.110  1.00  0.00     0.069 A 
ATOM     15  C   UNL A   1      34.057  21.922  24.923  1.00  0.00     0.079 A 
ATOM     16  Cl  UNL A   1      35.647  24.077  25.458  1.00  0.00    -0.082 Cl
ATOM     17  C   UNL A   1      32.872  21.324  24.471  1.00  0.00     0.064 A 
ATOM     18  Cl  UNL A   1      35.433  20.931  25.307  1.00  0.00    -0.081 Cl
ATOM     19  Cl  UNL A   1      32.713  19.614  24.258  1.00  0.00    -0.083 Cl
BRANCH   9  20
ATOM     20  C   UNL A   1      30.040  26.479  23.692  1.00  0.00     0.429 C 
ATOM     21  F   UNL A   1      30.495  27.045  24.833  1.00  0.00    -0.167 F 
ATOM     22  F   UNL A   1      29.756  27.491  22.837  1.00  0.00    -0.167 F 
ATOM     23  F   UNL A   1      28.871  25.864  23.991  1.00  0.00    -0.167 F 
ENDBRANCH   9  20
ENDBRANCH   5   7
ENDBRANCH   2   3
ENDBRANCH   1   2
BRANCH   1  24
ATOM     24  C   UNL A   1      32.750  29.235  25.464  1.00  0.00     0.118 C 
BRANCH  24  25
ATOM     25  N   UNL A   1      32.464  30.560  26.002  1.00  0.00    -0.352 N 
ATOM     26  C   UNL A   1      33.058  31.364  26.944  1.00  0.00     0.251 C 
ATOM     27  H   UNL A   1      31.664  30.970  25.599  1.00  0.00     0.163 HD
ATOM     28  O   UNL A   1      32.480  32.407  27.250  1.00  0.00    -0.269 OA
BRANCH  26  29
ATOM     29  C   UNL A   1      34.334  31.033  27.631  1.00  0.00     0.039 A 
ATOM     30  C   UNL A   1      35.264  32.063  27.842  1.00  0.00     0.014 A 
ATOM     31  C   UNL A   1      34.685  29.738  28.005  1.00  0.00     0.014 A 
ATOM     32  C   UNL A   1      36.484  31.810  28.485  1.00  0.00     0.010 A 
ATOM     33  C   UNL A   1      35.849  29.503  28.740  1.00  0.00     0.010 A 
ATOM     34  C   UNL A   1      36.768  30.533  28.987  1.00  0.00    -0.014 A 
BRANCH  34  35
ATOM     35  C   UNL A   1      38.009  30.234  29.757  1.00  0.00     0.031 A 
ATOM     36  C   UNL A   1      39.050  29.304  29.186  1.00  0.00     0.074 A 
ATOM     37  C   UNL A   1      38.157  30.704  31.010  1.00  0.00     0.049 A 
ATOM     38  N   UNL A   1      40.086  28.754  29.770  1.00  0.00    -0.248 NA
ATOM     39  C   UNL A   1      38.875  28.901  27.781  1.00  0.00     0.031 C 
ATOM     40  C   UNL A   1      37.207  31.570  31.711  1.00  0.00     0.029 A 
ATOM     41  N   UNL A   1      39.156  30.499  31.932  1.00  0.00    -0.354 N 
ATOM     42  C   UNL A   1      40.644  27.898  28.828  1.00  0.00     0.074 A 
ATOM     43  C   UNL A   1      39.819  27.980  27.642  1.00  0.00     0.031 C 
ATOM     44  C   UNL A   1      37.677  31.839  32.939  1.00  0.00     0.029 A 
ATOM     45  C   UNL A   1      38.937  31.129  33.133  1.00  0.00     0.049 A 
ATOM     46  H   UNL A   1      39.954  29.952  31.748  1.00  0.00     0.167 HD
ATOM     47  C   UNL A   1      41.751  27.124  28.937  1.00  0.00     0.037 A 
ATOM     48  C   UNL A   1      39.662  31.126  34.268  1.00  0.00     0.037 A 
ATOM     49  C   UNL A   1      42.622  27.109  30.082  1.00  0.00     0.049 A 
ATOM     50  C   UNL A   1      40.935  30.329  34.330  1.00  0.00     0.074 A 
ATOM     51  C   UNL A   1      43.815  26.426  30.251  1.00  0.00     0.029 A 
ATOM     52  N   UNL A   1      42.405  27.828  31.246  1.00  0.00    -0.354 N 
ATOM     53  N   UNL A   1      41.465  29.549  33.421  1.00  0.00    -0.248 NA
ATOM     54  C   UNL A   1      41.711  30.417  35.575  1.00  0.00     0.031 C 
ATOM     55  C   UNL A   1      44.311  26.720  31.526  1.00  0.00     0.029 A 
ATOM     56  C   UNL A   1      43.441  27.607  32.138  1.00  0.00     0.049 A 
ATOM     57  H   UNL A   1      41.628  28.410  31.415  1.00  0.00     0.167 HD
ATOM     58  C   UNL A   1      42.645  29.069  33.974  1.00  0.00     0.074 A 
ATOM     59  C   UNL A   1      42.761  29.657  35.292  1.00  0.00     0.031 C 
ATOM     60  C   UNL A   1      43.547  28.212  33.440  1.00  0.00     0.037 A 
BRANCH  47  61
ATOM     61  C   UNL A   1      42.095  26.235  27.777  1.00  0.00     0.064 A 
ATOM     62  C   UNL A   1      43.071  26.592  26.837  1.00  0.00     0.173 A 
ATOM     63  C   UNL A   1      41.465  24.989  27.629  1.00  0.00     0.173 A 
ATOM     64  F   UNL A   1      43.694  27.777  26.928  1.00  0.00    -0.203 F 
ATOM     65  C   UNL A   1      43.384  25.750  25.773  1.00  0.00     0.198 A 
ATOM     66  C   UNL A   1      41.800  24.136  26.579  1.00  0.00     0.198 A 
ATOM     67  F   UNL A   1      40.529  24.595  28.505  1.00  0.00    -0.203 F 
ATOM     68  F   UNL A   1      44.286  26.135  24.859  1.00  0.00    -0.200 F 
ATOM     69  C   UNL A   1      42.753  24.521  25.649  1.00  0.00     0.200 A 
ATOM     70  F   UNL A   1      41.197  22.945  26.467  1.00  0.00    -0.200 F 
ATOM     71  F   UNL A   1      43.059  23.710  24.627  1.00  0.00    -0.200 F 
ENDBRANCH  47  61
BRANCH  48  72
ATOM     72  C   UNL A   1      39.212  31.928  35.433  1.00  0.00     0.064 A 
ATOM     73  C   UNL A   1      39.581  33.274  35.558  1.00  0.00     0.173 A 
ATOM     74  C   UNL A   1      38.408  31.374  36.440  1.00  0.00     0.173 A 
ATOM     75  F   UNL A   1      40.367  33.840  34.630  1.00  0.00    -0.203 F 
ATOM     76  C   UNL A   1      39.176  34.033  36.654  1.00  0.00     0.198 A 
ATOM     77  C   UNL A   1      37.985  32.139  37.523  1.00  0.00     0.198 A 
ATOM     78  F   UNL A   1      38.025  30.091  36.362  1.00  0.00    -0.203 F 
ATOM     79  F   UNL A   1      39.576  35.307  36.767  1.00  0.00    -0.200 F 
ATOM     80  C   UNL A   1      38.374  33.467  37.633  1.00  0.00     0.200 A 
ATOM     81  F   UNL A   1      37.200  31.593  38.463  1.00  0.00    -0.200 F 
ATOM     82  F   UNL A   1      37.982  34.197  38.686  1.00  0.00    -0.200 F 
ENDBRANCH  48  72
BRANCH  60  83
ATOM     83  C   UNL A   1      44.754  27.885  34.265  1.00  0.00     0.064 A 
ATOM     84  C   UNL A   1      44.773  26.778  35.125  1.00  0.00     0.173 A 
ATOM     85  C   UNL A   1      45.914  28.667  34.166  1.00  0.00     0.173 A 
ATOM     86  F   UNL A   1      43.680  26.013  35.263  1.00  0.00    -0.203 F 
ATOM     87  C   UNL A   1      45.908  26.475  35.871  1.00  0.00     0.198 A 
ATOM     88  C   UNL A   1      47.054  28.348  34.898  1.00  0.00     0.198 A 
ATOM     89  F   UNL A   1      45.944  29.733  33.354  1.00  0.00    -0.203 F 
ATOM     90  F   UNL A   1      45.894  25.433  36.715  1.00  0.00    -0.200 F 
ATOM     91  C   UNL A   1      47.049  27.255  35.753  1.00  0.00     0.200 A 
ATOM     92  F   UNL A   1      48.158  29.098  34.777  1.00  0.00    -0.200 F 
ATOM     93  F   UNL A   1      48.142  26.959  36.470  1.00  0.00    -0.200 F 
ENDBRANCH  60  83
ENDBRANCH  34  35
ENDBRANCH  26  29
ENDBRANCH  24  25
ENDBRANCH   1  24
TORSDOF 11
ENDMDL
MODEL 2
REMARK VINA RESULT:     -13.4      0.155      1.137
REMARK SMILES O=C(NCCCNC(=O)c1ccc(-c2c3nc(c(-c4c(F)c(F)c(F)c(F)c4F)c4ccc([nH]4)c(-c4c(F)c(F)c(F)c(F)c4F)c4nc(c(-c5c(F)c(F)c(F)c(F)c5F)c5ccc2[nH]5)C=C4)C=C3)cc1)C1=Cc2c(cc(Cl)c(Cl)c2Cl)O[C@H]1C(F)(F)F
REMARK SMILES IDX 5 1 4 2 3 3 1 4 2 5 73 7 74 8 85 9 75 10 84 11 76 12 82 13
REMARK SMILES IDX 77 14 80 15 83 16 78 17 81 18 79 19 86 20 87 21 88 22 89 23
REMARK SMILES IDX 6 24 7 25 8 26 9 28 10 29 11 30 72 31 12 32 71 33 13 34
REMARK SMILES IDX 14 35 15 36 65 37 16 38 70 39 64 40 66 41 17 42 69 43 63 44
REMARK SMILES IDX 62 45 18 47 50 48 30 49 49 50 31 51 34 52 48 53 67 54 32 55
REMARK SMILES IDX 33 56 47 58 68 59 35 60 19 61 20 62 28 63 21 64 22 65 26 66
REMARK SMILES IDX 29 67 23 68 24 69 27 70 25 71 51 72 52 73 60 74 53 75 54 76
REMARK SMILES IDX 58 77 61 78 55 79 56 80 59 81 57 82 36 83 37 84 45 85 38 86
REMARK SMILES IDX 39 87 43 88 46 89 40 90 41 91 44 92 42 93
REMARK H PARENT 3 6 7 27 66 46 34 57
REMARK Flexibility Score: inf
ROOT
ATOM      1  C   UNL A   1      33.513  29.276  24.133  1.00  0.00     0.042 C 
ENDROOT
BRANCH   1   2
ATOM      2  C   UNL A   1      32.665  28.937  22.913  1.00  0.00     0.118 C 
BRANCH   2   3
ATOM      3  N   UNL A   1      33.215  27.950  21.986  1.00  0.00    -0.352 N 
ATOM      4  O   UNL A   1      33.643  25.851  21.226  1.00  0.00    -0.270 OA
ATOM      5  C   UNL A   1      33.132  26.568  22.061  1.00  0.00     0.251 C 
ATOM      6  H   UNL A   1      33.705  28.311  21.212  1.00  0.00     0.163 HD
BRANCH   5   7
ATOM      7  C   UNL A   1      32.464  26.008  23.268  1.00  0.00     0.067 C 
ATOM      8  C   UNL A   1      33.239  25.599  24.280  1.00  0.00     0.027 C 
ATOM      9  C   UNL A   1      31.062  25.524  23.062  1.00  0.00     0.314 C 
ATOM     10  C   UNL A   1      33.072  24.160  24.570  1.00  0.00     0.037 A 
ATOM     11  O   UNL A   1      30.833  24.179  23.560  1.00  0.00    -0.475 OA
ATOM     12  C   UNL A   1      31.897  23.523  24.129  1.00  0.00     0.131 A 
ATOM     13  C   UNL A   1      34.170  23.357  24.971  1.00  0.00     0.072 A 
ATOM     14  C   UNL A   1      31.806  22.133  24.098  1.00  0.00     0.069 A 
ATOM     15  C   UNL A   1      34.092  21.950  24.893  1.00  0.00     0.079 A 
ATOM     16  Cl  UNL A   1      35.680  24.109  25.418  1.00  0.00    -0.082 Cl
ATOM     17  C   UNL A   1      32.906  21.349  24.449  1.00  0.00     0.064 A 
ATOM     18  Cl  UNL A   1      35.474  20.962  25.265  1.00  0.00    -0.081 Cl
ATOM     19  Cl  UNL A   1      32.750  19.639  24.236  1.00  0.00    -0.083 Cl
BRANCH   9  20
ATOM     20  C   UNL A   1      30.053  26.497  23.701  1.00  0.00     0.429 C 
ATOM     21  F   UNL A   1      30.458  26.961  24.904  1.00  0.00    -0.167 F 
ATOM     22  F   UNL A   1      29.861  27.578  22.906  1.00  0.00    -0.167 F 
ATOM     23  F   UNL A   1      28.844  25.914  23.885  1.00  0.00    -0.167 F 
ENDBRANCH   9  20
ENDBRANCH   5   7
ENDBRANCH   2   3
ENDBRANCH   1   2
BRANCH   1  24
ATOM     24  C   UNL A   1      32.768  29.237  25.461  1.00  0.00     0.118 C 
BRANCH  24  25
ATOM     25  N   UNL A   1      32.458  30.557  25.999  1.00  0.00    -0.352 N 
ATOM     26  C   UNL A   1      33.038  31.372  26.941  1.00  0.00     0.251 C 
ATOM     27  H   UNL A   1      31.650  30.952  25.597  1.00  0.00     0.163 HD
ATOM     28  O   UNL A   1      32.441  32.405  27.246  1.00  0.00    -0.269 OA
BRANCH  26  29
ATOM     29  C   UNL A   1      34.321  31.065  27.626  1.00  0.00     0.039 A 
ATOM     30  C   UNL A   1      35.223  32.117  27.855  1.00  0.00     0.014 A 
ATOM     31  C   UNL A   1      34.705  29.775  27.982  1.00  0.00     0.014 A 
ATOM     32  C   UNL A   1      36.447  31.887  28.497  1.00  0.00     0.010 A 
ATOM     33  C   UNL A   1      35.873  29.560  28.717  1.00  0.00     0.010 A 
ATOM     34  C   UNL A   1      36.764  30.610  28.981  1.00  0.00    -0.014 A 
BRANCH  34  35
ATOM     35  C   UNL A   1      38.011  30.333  29.750  1.00  0.00     0.031 A 
ATOM     36  C   UNL A   1      39.066  29.418  29.180  1.00  0.00     0.074 A 
ATOM     37  C   UNL A   1      38.152  30.807  31.003  1.00  0.00     0.049 A 
ATOM     38  N   UNL A   1      40.111  28.887  29.763  1.00  0.00    -0.248 NA
ATOM     39  C   UNL A   1      38.896  29.010  27.776  1.00  0.00     0.031 C 
ATOM     40  C   UNL A   1      37.189  31.659  31.703  1.00  0.00     0.029 A 
ATOM     41  N   UNL A   1      39.156  30.621  31.923  1.00  0.00    -0.354 N 
ATOM     42  C   UNL A   1      40.682  28.039  28.822  1.00  0.00     0.074 A 
ATOM     43  C   UNL A   1      39.854  28.105  27.638  1.00  0.00     0.031 C 
ATOM     44  C   UNL A   1      37.656  31.937  32.930  1.00  0.00     0.029 A 
ATOM     45  C   UNL A   1      38.928  31.249  33.123  1.00  0.00     0.049 A 
ATOM     46  H   UNL A   1      39.962  30.086  31.740  1.00  0.00     0.167 HD
ATOM     47  C   UNL A   1      41.802  27.283  28.931  1.00  0.00     0.037 A 
ATOM     48  C   UNL A   1      39.654  31.259  34.257  1.00  0.00     0.037 A 
ATOM     49  C   UNL A   1      42.675  27.284  30.075  1.00  0.00     0.049 A 
ATOM     50  C   UNL A   1      40.940  30.484  34.320  1.00  0.00     0.074 A 
ATOM     51  C   UNL A   1      43.878  26.621  30.244  1.00  0.00     0.029 A 
ATOM     52  N   UNL A   1      42.447  28.001  31.239  1.00  0.00    -0.354 N 
ATOM     53  N   UNL A   1      41.482  29.711  33.412  1.00  0.00    -0.248 NA
ATOM     54  C   UNL A   1      41.716  30.586  35.564  1.00  0.00     0.031 C 
ATOM     55  C   UNL A   1      44.371  26.926  31.518  1.00  0.00     0.029 A 
ATOM     56  C   UNL A   1      43.487  27.800  32.130  1.00  0.00     0.049 A 
ATOM     57  H   UNL A   1      41.661  28.571  31.407  1.00  0.00     0.167 HD
ATOM     58  C   UNL A   1      42.670  29.251  33.964  1.00  0.00     0.074 A 
ATOM     59  C   UNL A   1      42.777  29.843  35.281  1.00  0.00     0.031 C 
ATOM     60  C   UNL A   1      43.585  28.408  33.430  1.00  0.00     0.037 A 
BRANCH  47  61
ATOM     61  C   UNL A   1      42.159  26.397  27.773  1.00  0.00     0.064 A 
ATOM     62  C   UNL A   1      43.122  26.773  26.826  1.00  0.00     0.173 A 
ATOM     63  C   UNL A   1      41.556  25.138  27.633  1.00  0.00     0.173 A 
ATOM     64  F   UNL A   1      43.719  27.971  26.909  1.00  0.00    -0.203 F 
ATOM     65  C   UNL A   1      43.447  25.934  25.763  1.00  0.00     0.198 A 
ATOM     66  C   UNL A   1      41.904  24.288  26.584  1.00  0.00     0.198 A 
ATOM     67  F   UNL A   1      40.634  24.726  28.516  1.00  0.00    -0.203 F 
ATOM     68  F   UNL A   1      44.336  26.335  24.843  1.00  0.00    -0.200 F 
ATOM     69  C   UNL A   1      42.843  24.691  25.647  1.00  0.00     0.200 A 
ATOM     70  F   UNL A   1      41.327  23.084  26.479  1.00  0.00    -0.200 F 
ATOM     71  F   UNL A   1      43.161  23.883  24.626  1.00  0.00    -0.200 F 
ENDBRANCH  47  61
BRANCH  48  72
ATOM     72  C   UNL A   1      39.192  32.056  35.422  1.00  0.00     0.064 A 
ATOM     73  C   UNL A   1      39.534  33.410  35.541  1.00  0.00     0.173 A 
ATOM     74  C   UNL A   1      38.404  31.489  36.434  1.00  0.00     0.173 A 
ATOM     75  F   UNL A   1      40.304  33.989  34.607  1.00  0.00    -0.203 F 
ATOM     76  C   UNL A   1      39.118  34.165  36.635  1.00  0.00     0.198 A 
ATOM     77  C   UNL A   1      37.970  32.250  37.516  1.00  0.00     0.198 A 
ATOM     78  F   UNL A   1      38.048  30.198  36.363  1.00  0.00    -0.203 F 
ATOM     79  F   UNL A   1      39.492  35.447  36.743  1.00  0.00    -0.200 F 
ATOM     80  C   UNL A   1      38.332  33.585  37.620  1.00  0.00     0.200 A 
ATOM     81  F   UNL A   1      37.201  31.691  38.461  1.00  0.00    -0.200 F 
ATOM     82  F   UNL A   1      37.930  34.311  38.672  1.00  0.00    -0.200 F 
ENDBRANCH  48  72
BRANCH  60  83
ATOM     83  C   UNL A   1      44.798  28.103  34.255  1.00  0.00     0.064 A 
ATOM     84  C   UNL A   1      45.960  28.882  34.161  1.00  0.00     0.173 A 
ATOM     85  C   UNL A   1      44.783  27.043  35.173  1.00  0.00     0.173 A 
ATOM     86  F   UNL A   1      46.023  29.895  33.285  1.00  0.00    -0.203 F 
ATOM     87  C   UNL A   1      47.072  28.599  34.948  1.00  0.00     0.198 A 
ATOM     88  C   UNL A   1      45.891  26.777  35.973  1.00  0.00     0.198 A 
ATOM     89  F   UNL A   1      43.694  26.272  35.300  1.00  0.00    -0.203 F 
ATOM     90  F   UNL A   1      48.186  29.334  34.818  1.00  0.00    -0.200 F 
ATOM     91  C   UNL A   1      47.035  27.552  35.857  1.00  0.00     0.200 A 
ATOM     92  F   UNL A   1      45.851  25.769  36.856  1.00  0.00    -0.200 F 
ATOM     93  F   UNL A   1      48.107  27.283  36.616  1.00  0.00    -0.200 F 
ENDBRANCH  60  83
ENDBRANCH  34  35
ENDBRANCH  26  29
ENDBRANCH  24  25
ENDBRANCH   1  24
TORSDOF 11
ENDMDL
MODEL 3
REMARK VINA RESULT:     -13.3      0.919      1.630
REMARK SMILES O=C(NCCCNC(=O)c1ccc(-c2c3nc(c(-c4c(F)c(F)c(F)c(F)c4F)c4ccc([nH]4)c(-c4c(F)c(F)c(F)c(F)c4F)c4nc(c(-c5c(F)c(F)c(F)c(F)c5F)c5ccc2[nH]5)C=C4)C=C3)cc1)C1=Cc2c(cc(Cl)c(Cl)c2Cl)O[C@H]1C(F)(F)F
REMARK SMILES IDX 5 1 4 2 3 3 1 4 2 5 73 7 74 8 85 9 75 10 84 11 76 12 82 13
REMARK SMILES IDX 77 14 80 15 83 16 78 17 81 18 79 19 86 20 87 21 88 22 89 23
REMARK SMILES IDX 6 24 7 25 8 26 9 28 10 29 11 30 72 31 12 32 71 33 13 34
REMARK SMILES IDX 14 35 15 36 65 37 16 38 70 39 64 40 66 41 17 42 69 43 63 44
REMARK SMILES IDX 62 45 18 47 50 48 30 49 49 50 31 51 34 52 48 53 67 54 32 55
REMARK SMILES IDX 33 56 47 58 68 59 35 60 19 61 20 62 28 63 21 64 22 65 26 66
REMARK SMILES IDX 29 67 23 68 24 69 27 70 25 71 51 72 52 73 60 74 53 75 54 76
REMARK SMILES IDX 58 77 61 78 55 79 56 80 59 81 57 82 36 83 37 84 45 85 38 86
REMARK SMILES IDX 39 87 43 88 46 89 40 90 41 91 44 92 42 93
REMARK H PARENT 3 6 7 27 66 46 34 57
REMARK Flexibility Score: inf
ROOT
ATOM      1  C   UNL A   1      32.443  29.110  24.887  1.00  0.00     0.042 C 
ENDROOT
BRANCH   1   2
ATOM      2  C   UNL A   1      33.729  28.313  24.707  1.00  0.00     0.118 C 
BRANCH   2   3
ATOM      3  N   UNL A   1      33.830  27.499  23.497  1.00  0.00    -0.352 N 
ATOM      4  O   UNL A   1      33.815  25.560  22.311  1.00  0.00    -0.270 OA
ATOM      5  C   UNL A   1      33.701  26.123  23.380  1.00  0.00     0.251 C 
ATOM      6  H   UNL A   1      34.013  27.987  22.663  1.00  0.00     0.163 HD
BRANCH   5   7
ATOM      7  C   UNL A   1      33.504  25.365  24.646  1.00  0.00     0.067 C 
ATOM      8  C   UNL A   1      34.593  24.942  25.297  1.00  0.00     0.027 C 
ATOM      9  C   UNL A   1      32.151  24.748  24.823  1.00  0.00     0.314 C 
ATOM     10  C   UNL A   1      34.637  23.470  25.424  1.00  0.00     0.037 A 
ATOM     11  O   UNL A   1      32.197  23.341  25.178  1.00  0.00    -0.475 OA
ATOM     12  C   UNL A   1      33.433  22.754  25.289  1.00  0.00     0.131 A 
ATOM     13  C   UNL A   1      35.862  22.759  25.346  1.00  0.00     0.072 A 
ATOM     14  C   UNL A   1      33.441  21.373  25.097  1.00  0.00     0.069 A 
ATOM     15  C   UNL A   1      35.868  21.370  25.104  1.00  0.00     0.079 A 
ATOM     16  Cl  UNL A   1      37.375  23.628  25.398  1.00  0.00    -0.082 Cl
ATOM     17  C   UNL A   1      34.650  20.688  24.975  1.00  0.00     0.064 A 
ATOM     18  Cl  UNL A   1      37.365  20.513  24.884  1.00  0.00    -0.081 Cl
ATOM     19  Cl  UNL A   1      34.560  19.003  24.587  1.00  0.00    -0.083 Cl
BRANCH   9  20
ATOM     20  C   UNL A   1      31.335  25.525  25.874  1.00  0.00     0.429 C 
ATOM     21  F   UNL A   1      30.535  26.468  25.327  1.00  0.00    -0.167 F 
ATOM     22  F   UNL A   1      30.532  24.686  26.572  1.00  0.00    -0.167 F 
ATOM     23  F   UNL A   1      32.136  26.152  26.768  1.00  0.00    -0.167 F 
ENDBRANCH   9  20
ENDBRANCH   5   7
ENDBRANCH   2   3
ENDBRANCH   1   2
BRANCH   1  24
ATOM     24  C   UNL A   1      32.154  29.543  26.319  1.00  0.00     0.118 C 
BRANCH  24  25
ATOM     25  N   UNL A   1      32.134  30.990  26.503  1.00  0.00    -0.352 N 
ATOM     26  C   UNL A   1      32.940  31.886  27.162  1.00  0.00     0.251 C 
ATOM     27  H   UNL A   1      31.371  31.421  26.053  1.00  0.00     0.163 HD
ATOM     28  O   UNL A   1      32.566  33.058  27.214  1.00  0.00    -0.269 OA
BRANCH  26  29
ATOM     29  C   UNL A   1      34.213  31.517  27.836  1.00  0.00     0.039 A 
ATOM     30  C   UNL A   1      35.149  32.532  28.094  1.00  0.00     0.014 A 
ATOM     31  C   UNL A   1      34.554  30.205  28.154  1.00  0.00     0.014 A 
ATOM     32  C   UNL A   1      36.366  32.243  28.727  1.00  0.00     0.010 A 
ATOM     33  C   UNL A   1      35.715  29.931  28.880  1.00  0.00     0.010 A 
ATOM     34  C   UNL A   1      36.640  30.943  29.174  1.00  0.00    -0.014 A 
BRANCH  34  35
ATOM     35  C   UNL A   1      37.877  30.603  29.932  1.00  0.00     0.031 A 
ATOM     36  C   UNL A   1      38.903  29.673  29.333  1.00  0.00     0.074 A 
ATOM     37  C   UNL A   1      38.034  31.034  31.199  1.00  0.00     0.049 A 
ATOM     38  N   UNL A   1      39.931  29.091  29.899  1.00  0.00    -0.248 NA
ATOM     39  C   UNL A   1      38.720  29.314  27.917  1.00  0.00     0.031 C 
ATOM     40  C   UNL A   1      37.099  31.894  31.926  1.00  0.00     0.029 A 
ATOM     41  N   UNL A   1      39.032  30.787  32.112  1.00  0.00    -0.354 N 
ATOM     42  C   UNL A   1      40.474  28.254  28.932  1.00  0.00     0.074 A 
ATOM     43  C   UNL A   1      39.649  28.383  27.750  1.00  0.00     0.031 C 
ATOM     44  C   UNL A   1      37.574  32.119  33.161  1.00  0.00     0.029 A 
ATOM     45  C   UNL A   1      38.824  31.385  33.331  1.00  0.00     0.049 A 
ATOM     46  H   UNL A   1      39.820  30.233  31.911  1.00  0.00     0.167 HD
ATOM     47  C   UNL A   1      41.570  27.461  29.016  1.00  0.00     0.037 A 
ATOM     48  C   UNL A   1      39.550  31.337  34.464  1.00  0.00     0.037 A 
ATOM     49  C   UNL A   1      42.442  27.398  30.158  1.00  0.00     0.049 A 
ATOM     50  C   UNL A   1      40.810  30.520  34.501  1.00  0.00     0.074 A 
ATOM     51  C   UNL A   1      43.624  26.693  30.305  1.00  0.00     0.029 A 
ATOM     52  N   UNL A   1      42.237  28.087  31.343  1.00  0.00    -0.354 N 
ATOM     53  N   UNL A   1      41.328  29.758  33.569  1.00  0.00    -0.248 NA
ATOM     54  C   UNL A   1      41.590  30.559  35.747  1.00  0.00     0.031 C 
ATOM     55  C   UNL A   1      44.126  26.942  31.587  1.00  0.00     0.029 A 
ATOM     56  C   UNL A   1      43.271  27.824  32.226  1.00  0.00     0.049 A 
ATOM     57  H   UNL A   1      41.470  28.675  31.530  1.00  0.00     0.167 HD
ATOM     58  C   UNL A   1      42.501  29.244  34.106  1.00  0.00     0.074 A 
ATOM     59  C   UNL A   1      42.627  29.792  35.440  1.00  0.00     0.031 C 
ATOM     60  C   UNL A   1      43.389  28.389  33.545  1.00  0.00     0.037 A 
BRANCH  47  61
ATOM     61  C   UNL A   1      41.898  26.600  27.830  1.00  0.00     0.064 A 
ATOM     62  C   UNL A   1      42.853  26.987  26.879  1.00  0.00     0.173 A 
ATOM     63  C   UNL A   1      41.276  25.353  27.667  1.00  0.00     0.173 A 
ATOM     64  F   UNL A   1      43.468  28.174  26.985  1.00  0.00    -0.203 F 
ATOM     65  C   UNL A   1      43.152  26.171  25.791  1.00  0.00     0.198 A 
ATOM     66  C   UNL A   1      41.597  24.526  26.592  1.00  0.00     0.198 A 
ATOM     67  F   UNL A   1      40.360  24.931  28.552  1.00  0.00    -0.203 F 
ATOM     68  F   UNL A   1      44.033  26.583  24.869  1.00  0.00    -0.200 F 
ATOM     69  C   UNL A   1      42.529  24.939  25.652  1.00  0.00     0.200 A 
ATOM     70  F   UNL A   1      41.002  23.333  26.464  1.00  0.00    -0.200 F 
ATOM     71  F   UNL A   1      42.821  24.154  24.606  1.00  0.00    -0.200 F 
ENDBRANCH  47  61
BRANCH  48  72
ATOM     72  C   UNL A   1      39.114  32.112  35.653  1.00  0.00     0.064 A 
ATOM     73  C   UNL A   1      39.489  33.453  35.808  1.00  0.00     0.173 A 
ATOM     74  C   UNL A   1      38.318  31.536  36.654  1.00  0.00     0.173 A 
ATOM     75  F   UNL A   1      40.269  34.039  34.887  1.00  0.00    -0.203 F 
ATOM     76  C   UNL A   1      39.098  34.187  36.926  1.00  0.00     0.198 A 
ATOM     77  C   UNL A   1      37.908  32.276  37.760  1.00  0.00     0.198 A 
ATOM     78  F   UNL A   1      37.929  30.257  36.548  1.00  0.00    -0.203 F 
ATOM     79  F   UNL A   1      39.504  35.456  37.067  1.00  0.00    -0.200 F 
ATOM     80  C   UNL A   1      38.303  33.599  37.898  1.00  0.00     0.200 A 
ATOM     81  F   UNL A   1      37.130  31.710  38.693  1.00  0.00    -0.200 F 
ATOM     82  F   UNL A   1      37.924  34.305  38.972  1.00  0.00    -0.200 F 
ENDBRANCH  48  72
BRANCH  60  83
ATOM     83  C   UNL A   1      44.591  28.020  34.358  1.00  0.00     0.064 A 
ATOM     84  C   UNL A   1      45.763  28.790  34.321  1.00  0.00     0.173 A 
ATOM     85  C   UNL A   1      44.557  26.907  35.211  1.00  0.00     0.173 A 
ATOM     86  F   UNL A   1      45.845  29.852  33.507  1.00  0.00    -0.203 F 
ATOM     87  C   UNL A   1      46.866  28.446  35.097  1.00  0.00     0.198 A 
ATOM     88  C   UNL A   1      45.655  26.580  36.002  1.00  0.00     0.198 A 
ATOM     89  F   UNL A   1      43.457  26.144  35.283  1.00  0.00    -0.203 F 
ATOM     90  F   UNL A   1      47.989  29.174  35.019  1.00  0.00    -0.200 F 
ATOM     91  C   UNL A   1      46.809  27.347  35.941  1.00  0.00     0.200 A 
ATOM     92  F   UNL A   1      45.596  25.522  36.822  1.00  0.00    -0.200 F 
ATOM     93  F   UNL A   1      47.872  27.020  36.690  1.00  0.00    -0.200 F 
ENDBRANCH  60  83
ENDBRANCH  34  35
ENDBRANCH  26  29
ENDBRANCH  24  25
ENDBRANCH   1  24
TORSDOF 11
ENDMDL
