MODEL 1
REMARK VINA RESULT:     -11.4      0.000      0.000
REMARK SMILES C[C@H]1CC[C@H](CNC(=O)NCc2ccc(C(=O)NCCCNC(=O)c3ccc(-c4c5nc(c(-c6c(F)c(F)c(F)c(F)c6F)c6ccc([nH]6)c(-c6c(F)c(F)c(F)c(F)c6F)c6nc(c(-c7c(F)c(F)c(F)c(F)c7F)c7ccc4[nH]7)C=C6)C=C5)cc3)o2)CC1
REMARK SMILES IDX 19 1 18 2 16 3 17 4 15 6 12 7 13 8 88 9 14 10 11 11 10 12
REMARK SMILES IDX 7 13 8 14 9 16 6 18 5 19 1 20 2 21 90 22 3 23 89 24 4 25
REMARK SMILES IDX 20 26 21 27 22 28 23 29 24 31 25 32 26 33 87 34 27 35 86 36
REMARK SMILES IDX 28 37 29 38 30 39 80 40 31 41 85 42 79 43 81 44 32 45 84 46
REMARK SMILES IDX 78 47 77 48 33 50 65 51 45 52 64 53 46 54 49 55 63 56 82 57
REMARK SMILES IDX 47 58 48 59 62 61 83 62 50 63 34 64 35 65 43 66 36 67 37 68
REMARK SMILES IDX 41 69 44 70 38 71 39 72 42 73 40 74 66 75 67 76 75 77 68 78
REMARK SMILES IDX 69 79 73 80 76 81 70 82 71 83 74 84 72 85 51 86 52 87 60 88
REMARK SMILES IDX 53 89 54 90 58 91 61 92 55 93 56 94 59 95 57 96
REMARK H PARENT 18 5 7 15 10 17 22 30 81 49 49 60
REMARK Flexibility Score: inf
ROOT
ATOM      1  C   UNL A   1      42.263  20.363  27.707  1.00  0.00     0.118 C 
ENDROOT
BRANCH   1   2
ATOM      2  N   UNL A   1      42.024  19.133  26.977  1.00  0.00    -0.349 N 
ATOM      3  C   UNL A   1      42.787  18.498  26.026  1.00  0.00     0.286 C 
ATOM      4  O   UNL A   1      42.410  17.354  25.717  1.00  0.00    -0.266 OA
ATOM      5  H   UNL A   1      41.179  18.678  27.198  1.00  0.00     0.163 HD
BRANCH   3   6
ATOM      6  C   UNL A   1      43.949  19.128  25.438  1.00  0.00     0.191 A 
ATOM      7  C   UNL A   1      44.983  20.817  24.431  1.00  0.00     0.124 A 
ATOM      8  C   UNL A   1      45.939  19.850  24.648  1.00  0.00     0.048 A 
ATOM      9  O   UNL A   1      43.779  20.381  24.901  1.00  0.00    -0.454 OA
ATOM     10  C   UNL A   1      45.282  18.776  25.302  1.00  0.00     0.056 A 
BRANCH   7  11
ATOM     11  C   UNL A   1      45.040  22.164  23.796  1.00  0.00     0.193 C 
BRANCH  11  12
ATOM     12  N   UNL A   1      43.925  22.985  24.196  1.00  0.00    -0.331 N 
ATOM     13  N   UNL A   1      44.730  24.377  25.922  1.00  0.00    -0.338 N 
ATOM     14  C   UNL A   1      43.801  24.026  25.023  1.00  0.00     0.315 C 
ATOM     15  H   UNL A   1      44.622  25.296  26.259  1.00  0.00     0.165 HD
ATOM     16  O   UNL A   1      42.778  24.710  24.955  1.00  0.00    -0.249 OA
ATOM     17  H   UNL A   1      43.076  22.725  23.771  1.00  0.00     0.165 HD
BRANCH  13  18
ATOM     18  C   UNL A   1      45.865  23.681  26.497  1.00  0.00     0.121 C 
BRANCH  18  19
ATOM     19  C   UNL A   1      45.774  23.622  28.031  1.00  0.00     0.008 C 
ATOM     20  C   UNL A   1      44.547  24.690  32.111  1.00  0.00     0.007 C 
ATOM     21  C   UNL A   1      44.686  24.697  30.591  1.00  0.00    -0.014 C 
ATOM     22  C   UNL A   1      44.175  23.381  29.989  1.00  0.00     0.003 C 
ATOM     23  C   UNL A   1      46.142  24.942  30.180  1.00  0.00     0.003 C 
ATOM     24  C   UNL A   1      44.325  23.367  28.468  1.00  0.00     0.006 C 
ATOM     25  C   UNL A   1      46.310  24.921  28.662  1.00  0.00     0.006 C 
ENDBRANCH  18  19
ENDBRANCH  13  18
ENDBRANCH  11  12
ENDBRANCH   7  11
ENDBRANCH   3   6
ENDBRANCH   1   2
BRANCH   1  26
ATOM     26  C   UNL A   1      41.094  21.339  27.592  1.00  0.00     0.042 C 
BRANCH  26  27
ATOM     27  C   UNL A   1      40.911  21.932  26.194  1.00  0.00     0.118 C 
BRANCH  27  28
ATOM     28  N   UNL A   1      39.509  22.133  25.856  1.00  0.00    -0.352 N 
ATOM     29  C   UNL A   1      38.640  23.143  26.181  1.00  0.00     0.251 C 
ATOM     30  H   UNL A   1      39.117  21.421  25.302  1.00  0.00     0.163 HD
ATOM     31  O   UNL A   1      37.443  22.995  25.942  1.00  0.00    -0.269 OA
BRANCH  29  32
ATOM     32  C   UNL A   1      39.100  24.400  26.817  1.00  0.00     0.039 A 
ATOM     33  C   UNL A   1      39.789  25.328  26.026  1.00  0.00     0.014 A 
ATOM     34  C   UNL A   1      38.946  24.642  28.185  1.00  0.00     0.014 A 
ATOM     35  C   UNL A   1      40.282  26.508  26.591  1.00  0.00     0.010 A 
ATOM     36  C   UNL A   1      39.389  25.846  28.738  1.00  0.00     0.010 A 
ATOM     37  C   UNL A   1      40.067  26.787  27.949  1.00  0.00    -0.014 A 
BRANCH  37  38
ATOM     38  C   UNL A   1      40.551  28.057  28.548  1.00  0.00     0.031 A 
ATOM     39  C   UNL A   1      42.013  28.261  28.835  1.00  0.00     0.074 A 
ATOM     40  C   UNL A   1      39.665  29.019  28.869  1.00  0.00     0.049 A 
ATOM     41  N   UNL A   1      42.614  29.289  29.382  1.00  0.00    -0.248 NA
ATOM     42  C   UNL A   1      42.915  27.155  28.482  1.00  0.00     0.031 C 
ATOM     43  C   UNL A   1      38.217  28.929  28.681  1.00  0.00     0.029 A 
ATOM     44  N   UNL A   1      39.853  30.259  29.427  1.00  0.00    -0.354 N 
ATOM     45  C   UNL A   1      43.959  28.948  29.452  1.00  0.00     0.074 A 
ATOM     46  C   UNL A   1      44.081  27.604  28.928  1.00  0.00     0.031 C 
ATOM     47  C   UNL A   1      37.649  30.074  29.095  1.00  0.00     0.029 A 
ATOM     48  C   UNL A   1      38.689  30.965  29.600  1.00  0.00     0.049 A 
ATOM     49  H   UNL A   1      40.738  30.609  29.679  1.00  0.00     0.167 HD
ATOM     50  C   UNL A   1      44.999  29.693  29.897  1.00  0.00     0.037 A 
ATOM     51  C   UNL A   1      38.482  32.196  30.106  1.00  0.00     0.037 A 
ATOM     52  C   UNL A   1      44.885  31.041  30.393  1.00  0.00     0.049 A 
ATOM     53  C   UNL A   1      39.656  33.012  30.566  1.00  0.00     0.074 A 
ATOM     54  C   UNL A   1      45.889  31.895  30.818  1.00  0.00     0.029 A 
ATOM     55  N   UNL A   1      43.690  31.733  30.527  1.00  0.00    -0.354 N 
ATOM     56  N   UNL A   1      40.928  32.700  30.577  1.00  0.00    -0.248 NA
ATOM     57  C   UNL A   1      39.364  34.360  31.076  1.00  0.00     0.031 C 
ATOM     58  C   UNL A   1      45.299  33.094  31.235  1.00  0.00     0.029 A 
ATOM     59  C   UNL A   1      43.931  32.999  31.037  1.00  0.00     0.049 A 
ATOM     60  H   UNL A   1      42.802  31.377  30.293  1.00  0.00     0.167 HD
ATOM     61  C   UNL A   1      41.590  33.814  31.072  1.00  0.00     0.074 A 
ATOM     62  C   UNL A   1      40.580  34.818  31.337  1.00  0.00     0.031 C 
ATOM     63  C   UNL A   1      42.916  33.988  31.291  1.00  0.00     0.037 A 
BRANCH  50  64
ATOM     64  C   UNL A   1      46.361  29.065  29.865  1.00  0.00     0.064 A 
ATOM     65  C   UNL A   1      46.884  28.391  30.979  1.00  0.00     0.173 A 
ATOM     66  C   UNL A   1      47.140  29.111  28.699  1.00  0.00     0.173 A 
ATOM     67  F   UNL A   1      46.181  28.329  32.120  1.00  0.00    -0.203 F 
ATOM     68  C   UNL A   1      48.148  27.809  30.935  1.00  0.00     0.198 A 
ATOM     69  C   UNL A   1      48.394  28.507  28.651  1.00  0.00     0.198 A 
ATOM     70  F   UNL A   1      46.684  29.739  27.605  1.00  0.00    -0.203 F 
ATOM     71  F   UNL A   1      48.645  27.209  32.025  1.00  0.00    -0.200 F 
ATOM     72  C   UNL A   1      48.900  27.863  29.772  1.00  0.00     0.200 A 
ATOM     73  F   UNL A   1      49.115  28.551  27.523  1.00  0.00    -0.200 F 
ATOM     74  F   UNL A   1      50.116  27.301  29.730  1.00  0.00    -0.200 F 
ENDBRANCH  50  64
BRANCH  51  75
ATOM     75  C   UNL A   1      37.105  32.746  30.163  1.00  0.00     0.064 A 
ATOM     76  C   UNL A   1      36.279  32.497  31.267  1.00  0.00     0.173 A 
ATOM     77  C   UNL A   1      36.591  33.536  29.124  1.00  0.00     0.173 A 
ATOM     78  F   UNL A   1      36.724  31.729  32.274  1.00  0.00    -0.203 F 
ATOM     79  C   UNL A   1      34.984  33.005  31.326  1.00  0.00     0.198 A 
ATOM     80  C   UNL A   1      35.304  34.063  29.195  1.00  0.00     0.198 A 
ATOM     81  F   UNL A   1      37.345  33.806  28.049  1.00  0.00    -0.203 F 
ATOM     82  F   UNL A   1      34.203  32.724  32.377  1.00  0.00    -0.200 F 
ATOM     83  C   UNL A   1      34.499  33.793  30.292  1.00  0.00     0.200 A 
ATOM     84  F   UNL A   1      34.842  34.833  28.200  1.00  0.00    -0.200 F 
ATOM     85  F   UNL A   1      33.255  34.287  30.352  1.00  0.00    -0.200 F 
ENDBRANCH  51  75
BRANCH  63  86
ATOM     86  C   UNL A   1      43.350  35.323  31.818  1.00  0.00     0.064 A 
ATOM     87  C   UNL A   1      43.751  36.357  30.957  1.00  0.00     0.173 A 
ATOM     88  C   UNL A   1      43.348  35.578  33.197  1.00  0.00     0.173 A 
ATOM     89  F   UNL A   1      43.785  36.154  29.631  1.00  0.00    -0.203 F 
ATOM     90  C   UNL A   1      44.160  37.588  31.462  1.00  0.00     0.198 A 
ATOM     91  C   UNL A   1      43.736  36.818  33.696  1.00  0.00     0.198 A 
ATOM     92  F   UNL A   1      42.971  34.624  34.060  1.00  0.00    -0.203 F 
ATOM     93  F   UNL A   1      44.584  38.545  30.624  1.00  0.00    -0.200 F 
ATOM     94  C   UNL A   1      44.148  37.819  32.829  1.00  0.00     0.200 A 
ATOM     95  F   UNL A   1      43.718  37.043  35.017  1.00  0.00    -0.200 F 
ATOM     96  F   UNL A   1      44.545  39.004  33.312  1.00  0.00    -0.200 F 
ENDBRANCH  63  86
ENDBRANCH  37  38
ENDBRANCH  29  32
ENDBRANCH  27  28
ENDBRANCH  26  27
ENDBRANCH   1  26
TORSDOF 14
ENDMDL
MODEL 2
REMARK VINA RESULT:     -11.3      3.875     10.208
REMARK SMILES C[C@H]1CC[C@H](CNC(=O)NCc2ccc(C(=O)NCCCNC(=O)c3ccc(-c4c5nc(c(-c6c(F)c(F)c(F)c(F)c6F)c6ccc([nH]6)c(-c6c(F)c(F)c(F)c(F)c6F)c6nc(c(-c7c(F)c(F)c(F)c(F)c7F)c7ccc4[nH]7)C=C6)C=C5)cc3)o2)CC1
REMARK SMILES IDX 19 1 18 2 16 3 17 4 15 6 12 7 13 8 88 9 14 10 11 11 10 12
REMARK SMILES IDX 7 13 8 14 9 16 6 18 5 19 1 20 2 21 90 22 3 23 89 24 4 25
REMARK SMILES IDX 20 26 21 27 22 28 23 29 24 31 25 32 26 33 87 34 27 35 86 36
REMARK SMILES IDX 28 37 29 38 30 39 80 40 31 41 85 42 79 43 81 44 32 45 84 46
REMARK SMILES IDX 78 47 77 48 33 50 65 51 45 52 64 53 46 54 49 55 63 56 82 57
REMARK SMILES IDX 47 58 48 59 62 61 83 62 50 63 34 64 35 65 43 66 36 67 37 68
REMARK SMILES IDX 41 69 44 70 38 71 39 72 42 73 40 74 66 75 67 76 75 77 68 78
REMARK SMILES IDX 69 79 73 80 76 81 70 82 71 83 74 84 72 85 51 86 52 87 60 88
REMARK SMILES IDX 53 89 54 90 58 91 61 92 55 93 56 94 59 95 57 96
REMARK H PARENT 18 5 7 15 10 17 22 30 81 49 49 60
REMARK Flexibility Score: inf
ROOT
ATOM      1  C   UNL A   1      36.641  20.733  24.625  1.00  0.00     0.118 C 
ENDROOT
BRANCH   1   2
ATOM      2  N   UNL A   1      35.924  20.849  25.881  1.00  0.00    -0.349 N 
ATOM      3  C   UNL A   1      34.937  21.723  26.267  1.00  0.00     0.286 C 
ATOM      4  O   UNL A   1      34.379  21.455  27.344  1.00  0.00    -0.266 OA
ATOM      5  H   UNL A   1      36.187  20.194  26.568  1.00  0.00     0.163 HD
BRANCH   3   6
ATOM      6  C   UNL A   1      34.580  22.871  25.461  1.00  0.00     0.191 A 
ATOM      7  C   UNL A   1      33.261  23.952  24.035  1.00  0.00     0.124 A 
ATOM      8  C   UNL A   1      34.273  24.825  24.369  1.00  0.00     0.048 A 
ATOM      9  O   UNL A   1      33.449  22.768  24.689  1.00  0.00    -0.454 OA
ATOM     10  C   UNL A   1      35.108  24.140  25.288  1.00  0.00     0.056 A 
BRANCH   7  11
ATOM     11  C   UNL A   1      32.086  24.072  23.128  1.00  0.00     0.193 C 
BRANCH  11  12
ATOM     12  N   UNL A   1      32.487  24.409  21.784  1.00  0.00    -0.331 N 
ATOM     13  N   UNL A   1      32.003  26.702  21.518  1.00  0.00    -0.338 N 
ATOM     14  C   UNL A   1      32.572  25.559  21.113  1.00  0.00     0.315 C 
ATOM     15  H   UNL A   1      32.369  27.501  21.075  1.00  0.00     0.165 HD
ATOM     16  O   UNL A   1      33.218  25.578  20.063  1.00  0.00    -0.249 OA
ATOM     17  H   UNL A   1      32.754  23.626  21.250  1.00  0.00     0.165 HD
BRANCH  13  18
ATOM     18  C   UNL A   1      30.957  27.001  22.477  1.00  0.00     0.121 C 
BRANCH  18  19
ATOM     19  C   UNL A   1      31.497  27.800  23.674  1.00  0.00     0.008 C 
ATOM     20  C   UNL A   1      33.873  28.725  27.251  1.00  0.00     0.007 C 
ATOM     21  C   UNL A   1      33.291  27.985  26.049  1.00  0.00    -0.014 C 
ATOM     22  C   UNL A   1      33.605  28.728  24.745  1.00  0.00     0.003 C 
ATOM     23  C   UNL A   1      31.778  27.800  26.207  1.00  0.00     0.003 C 
ATOM     24  C   UNL A   1      33.012  28.008  23.534  1.00  0.00     0.006 C 
ATOM     25  C   UNL A   1      31.168  27.089  25.000  1.00  0.00     0.006 C 
ENDBRANCH  18  19
ENDBRANCH  13  18
ENDBRANCH  11  12
ENDBRANCH   7  11
ENDBRANCH   3   6
ENDBRANCH   1   2
BRANCH   1  26
ATOM     26  C   UNL A   1      37.821  19.768  24.720  1.00  0.00     0.042 C 
BRANCH  26  27
ATOM     27  C   UNL A   1      38.787  20.073  25.866  1.00  0.00     0.118 C 
BRANCH  27  28
ATOM     28  N   UNL A   1      39.954  19.203  25.853  1.00  0.00    -0.352 N 
ATOM     29  C   UNL A   1      41.289  19.485  25.994  1.00  0.00     0.251 C 
ATOM     30  H   UNL A   1      39.751  18.250  25.718  1.00  0.00     0.163 HD
ATOM     31  O   UNL A   1      42.110  18.603  25.751  1.00  0.00    -0.269 OA
BRANCH  29  32
ATOM     32  C   UNL A   1      41.768  20.820  26.422  1.00  0.00     0.039 A 
ATOM     33  C   UNL A   1      41.974  21.796  25.439  1.00  0.00     0.014 A 
ATOM     34  C   UNL A   1      42.100  21.101  27.750  1.00  0.00     0.014 A 
ATOM     35  C   UNL A   1      42.468  23.056  25.789  1.00  0.00     0.010 A 
ATOM     36  C   UNL A   1      42.541  22.378  28.109  1.00  0.00     0.010 A 
ATOM     37  C   UNL A   1      42.736  23.365  27.131  1.00  0.00    -0.014 A 
BRANCH  37  38
ATOM     38  C   UNL A   1      43.222  24.715  27.517  1.00  0.00     0.031 A 
ATOM     39  C   UNL A   1      42.256  25.783  27.945  1.00  0.00     0.074 A 
ATOM     40  C   UNL A   1      44.539  24.991  27.445  1.00  0.00     0.049 A 
ATOM     41  N   UNL A   1      42.494  27.025  28.288  1.00  0.00    -0.248 NA
ATOM     42  C   UNL A   1      40.833  25.415  27.972  1.00  0.00     0.031 C 
ATOM     43  C   UNL A   1      45.574  24.056  27.005  1.00  0.00     0.029 A 
ATOM     44  N   UNL A   1      45.229  26.140  27.737  1.00  0.00    -0.354 N 
ATOM     45  C   UNL A   1      41.253  27.590  28.555  1.00  0.00     0.074 A 
ATOM     46  C   UNL A   1      40.261  26.566  28.297  1.00  0.00     0.031 C 
ATOM     47  C   UNL A   1      46.771  24.661  27.077  1.00  0.00     0.029 A 
ATOM     48  C   UNL A   1      46.584  26.032  27.543  1.00  0.00     0.049 A 
ATOM     49  H   UNL A   1      44.795  26.965  28.055  1.00  0.00     0.167 HD
ATOM     50  C   UNL A   1      40.967  28.840  28.990  1.00  0.00     0.037 A 
ATOM     51  C   UNL A   1      47.565  26.935  27.723  1.00  0.00     0.037 A 
ATOM     52  C   UNL A   1      41.953  29.851  29.273  1.00  0.00     0.049 A 
ATOM     53  C   UNL A   1      47.224  28.307  28.233  1.00  0.00     0.074 A 
ATOM     54  C   UNL A   1      41.762  31.131  29.767  1.00  0.00     0.029 A 
ATOM     55  N   UNL A   1      43.318  29.694  29.090  1.00  0.00    -0.354 N 
ATOM     56  N   UNL A   1      46.053  28.810  28.532  1.00  0.00    -0.248 NA
ATOM     57  C   UNL A   1      48.347  29.233  28.440  1.00  0.00     0.031 C 
ATOM     58  C   UNL A   1      43.011  31.758  29.856  1.00  0.00     0.029 A 
ATOM     59  C   UNL A   1      43.982  30.857  29.451  1.00  0.00     0.049 A 
ATOM     60  H   UNL A   1      43.752  28.877  28.753  1.00  0.00     0.167 HD
ATOM     61  C   UNL A   1      46.295  30.100  28.982  1.00  0.00     0.074 A 
ATOM     62  C   UNL A   1      47.729  30.298  28.931  1.00  0.00     0.031 C 
ATOM     63  C   UNL A   1      45.409  31.037  29.398  1.00  0.00     0.037 A 
BRANCH  50  64
ATOM     64  C   UNL A   1      39.521  29.187  29.190  1.00  0.00     0.064 A 
ATOM     65  C   UNL A   1      38.920  29.122  30.456  1.00  0.00     0.173 A 
ATOM     66  C   UNL A   1      38.735  29.618  28.111  1.00  0.00     0.173 A 
ATOM     67  F   UNL A   1      39.628  28.705  31.518  1.00  0.00    -0.203 F 
ATOM     68  C   UNL A   1      37.579  29.449  30.630  1.00  0.00     0.198 A 
ATOM     69  C   UNL A   1      37.399  29.968  28.293  1.00  0.00     0.198 A 
ATOM     70  F   UNL A   1      39.262  29.703  26.881  1.00  0.00    -0.203 F 
ATOM     71  F   UNL A   1      37.015  29.337  31.840  1.00  0.00    -0.200 F 
ATOM     72  C   UNL A   1      36.821  29.876  29.551  1.00  0.00     0.200 A 
ATOM     73  F   UNL A   1      36.670  30.391  27.251  1.00  0.00    -0.200 F 
ATOM     74  F   UNL A   1      35.529  30.194  29.720  1.00  0.00    -0.200 F 
ENDBRANCH  50  64
BRANCH  51  75
ATOM     75  C   UNL A   1      48.974  26.553  27.456  1.00  0.00     0.064 A 
ATOM     76  C   UNL A   1      49.474  26.528  26.147  1.00  0.00     0.173 A 
ATOM     77  C   UNL A   1      49.849  26.215  28.499  1.00  0.00     0.173 A 
ATOM     78  F   UNL A   1      48.667  26.824  25.118  1.00  0.00    -0.203 F 
ATOM     79  C   UNL A   1      50.794  26.166  25.889  1.00  0.00     0.198 A 
ATOM     80  C   UNL A   1      51.175  25.875  28.241  1.00  0.00     0.198 A 
ATOM     81  F   UNL A   1      49.418  26.230  29.768  1.00  0.00    -0.203 F 
ATOM     82  F   UNL A   1      51.237  26.116  24.625  1.00  0.00    -0.200 F 
ATOM     83  C   UNL A   1      51.645  25.845  26.936  1.00  0.00     0.200 A 
ATOM     84  F   UNL A   1      51.998  25.578  29.255  1.00  0.00    -0.200 F 
ATOM     85  F   UNL A   1      52.916  25.502  26.687  1.00  0.00    -0.200 F 
ENDBRANCH  51  75
BRANCH  63  86
ATOM     86  C   UNL A   1      45.970  32.350  29.854  1.00  0.00     0.064 A 
ATOM     87  C   UNL A   1      46.348  32.563  31.189  1.00  0.00     0.173 A 
ATOM     88  C   UNL A   1      46.148  33.403  28.943  1.00  0.00     0.173 A 
ATOM     89  F   UNL A   1      46.181  31.592  32.100  1.00  0.00    -0.203 F 
ATOM     90  C   UNL A   1      46.860  33.791  31.599  1.00  0.00     0.198 A 
ATOM     91  C   UNL A   1      46.681  34.621  29.354  1.00  0.00     0.198 A 
ATOM     92  F   UNL A   1      45.805  33.247  27.657  1.00  0.00    -0.203 F 
ATOM     93  F   UNL A   1      47.170  33.987  32.889  1.00  0.00    -0.200 F 
ATOM     94  C   UNL A   1      47.029  34.817  30.682  1.00  0.00     0.200 A 
ATOM     95  F   UNL A   1      46.851  35.610  28.465  1.00  0.00    -0.200 F 
ATOM     96  F   UNL A   1      47.519  35.999  31.080  1.00  0.00    -0.200 F 
ENDBRANCH  63  86
ENDBRANCH  37  38
ENDBRANCH  29  32
ENDBRANCH  27  28
ENDBRANCH  26  27
ENDBRANCH   1  26
TORSDOF 14
ENDMDL
MODEL 3
REMARK VINA RESULT:     -11.3      3.876      7.392
REMARK SMILES C[C@H]1CC[C@H](CNC(=O)NCc2ccc(C(=O)NCCCNC(=O)c3ccc(-c4c5nc(c(-c6c(F)c(F)c(F)c(F)c6F)c6ccc([nH]6)c(-c6c(F)c(F)c(F)c(F)c6F)c6nc(c(-c7c(F)c(F)c(F)c(F)c7F)c7ccc4[nH]7)C=C6)C=C5)cc3)o2)CC1
REMARK SMILES IDX 19 1 18 2 16 3 17 4 15 6 12 7 13 8 88 9 14 10 11 11 10 12
REMARK SMILES IDX 7 13 8 14 9 16 6 18 5 19 1 20 2 21 90 22 3 23 89 24 4 25
REMARK SMILES IDX 20 26 21 27 22 28 23 29 24 31 25 32 26 33 87 34 27 35 86 36
REMARK SMILES IDX 28 37 29 38 30 39 80 40 31 41 85 42 79 43 81 44 32 45 84 46
REMARK SMILES IDX 78 47 77 48 33 50 65 51 45 52 64 53 46 54 49 55 63 56 82 57
REMARK SMILES IDX 47 58 48 59 62 61 83 62 50 63 34 64 35 65 43 66 36 67 37 68
REMARK SMILES IDX 41 69 44 70 38 71 39 72 42 73 40 74 66 75 67 76 75 77 68 78
REMARK SMILES IDX 69 79 73 80 76 81 70 82 71 83 74 84 72 85 51 86 52 87 60 88
REMARK SMILES IDX 53 89 54 90 58 91 61 92 55 93 56 94 59 95 57 96
REMARK H PARENT 18 5 7 15 10 17 22 30 81 49 49 60
REMARK Flexibility Score: inf
ROOT
ATOM      1  C   UNL A   1      36.797  19.986  24.824  1.00  0.00     0.118 C 
ENDROOT
BRANCH   1   2
ATOM      2  N   UNL A   1      37.032  21.271  24.192  1.00  0.00    -0.349 N 
ATOM      3  C   UNL A   1      36.468  22.500  24.435  1.00  0.00     0.286 C 
ATOM      4  O   UNL A   1      37.011  23.458  23.858  1.00  0.00    -0.266 OA
ATOM      5  H   UNL A   1      37.704  21.260  23.472  1.00  0.00     0.163 HD
BRANCH   3   6
ATOM      6  C   UNL A   1      35.325  22.654  25.309  1.00  0.00     0.191 A 
ATOM      7  C   UNL A   1      33.176  22.399  25.814  1.00  0.00     0.124 A 
ATOM      8  C   UNL A   1      33.766  22.992  26.908  1.00  0.00     0.048 A 
ATOM      9  O   UNL A   1      34.115  22.199  24.844  1.00  0.00    -0.454 OA
ATOM     10  C   UNL A   1      35.140  23.143  26.592  1.00  0.00     0.056 A 
BRANCH   7  11
ATOM     11  C   UNL A   1      31.774  21.982  25.528  1.00  0.00     0.193 C 
BRANCH  11  12
ATOM     12  N   UNL A   1      30.921  22.172  26.676  1.00  0.00    -0.331 N 
ATOM     13  N   UNL A   1      29.856  24.252  26.355  1.00  0.00    -0.338 N 
ATOM     14  C   UNL A   1      29.998  23.082  26.993  1.00  0.00     0.315 C 
ATOM     15  H   UNL A   1      28.986  24.684  26.519  1.00  0.00     0.165 HD
ATOM     16  O   UNL A   1      29.224  22.834  27.919  1.00  0.00    -0.249 OA
ATOM     17  H   UNL A   1      31.046  21.487  27.372  1.00  0.00     0.165 HD
BRANCH  13  18
ATOM     18  C   UNL A   1      30.721  25.010  25.472  1.00  0.00     0.121 C 
BRANCH  18  19
ATOM     19  C   UNL A   1      31.684  25.913  26.260  1.00  0.00     0.008 C 
ATOM     20  C   UNL A   1      34.096  29.442  27.269  1.00  0.00     0.007 C 
ATOM     21  C   UNL A   1      33.152  28.493  26.534  1.00  0.00    -0.014 C 
ATOM     22  C   UNL A   1      31.921  28.175  27.391  1.00  0.00     0.003 C 
ATOM     23  C   UNL A   1      33.878  27.203  26.141  1.00  0.00     0.003 C 
ATOM     24  C   UNL A   1      30.976  27.210  26.675  1.00  0.00     0.006 C 
ATOM     25  C   UNL A   1      32.944  26.224  25.431  1.00  0.00     0.006 C 
ENDBRANCH  18  19
ENDBRANCH  13  18
ENDBRANCH  11  12
ENDBRANCH   7  11
ENDBRANCH   3   6
ENDBRANCH   1   2
BRANCH   1  26
ATOM     26  C   UNL A   1      38.089  19.198  25.028  1.00  0.00     0.042 C 
BRANCH  26  27
ATOM     27  C   UNL A   1      39.198  19.986  25.728  1.00  0.00     0.118 C 
BRANCH  27  28
ATOM     28  N   UNL A   1      40.354  19.159  26.039  1.00  0.00    -0.352 N 
ATOM     29  C   UNL A   1      41.642  19.498  26.368  1.00  0.00     0.251 C 
ATOM     30  H   UNL A   1      40.184  18.190  26.006  1.00  0.00     0.163 HD
ATOM     31  O   UNL A   1      42.498  18.615  26.398  1.00  0.00    -0.269 OA
BRANCH  29  32
ATOM     32  C   UNL A   1      42.031  20.893  26.682  1.00  0.00     0.039 A 
ATOM     33  C   UNL A   1      42.101  21.813  25.628  1.00  0.00     0.014 A 
ATOM     34  C   UNL A   1      42.411  21.288  27.967  1.00  0.00     0.014 A 
ATOM     35  C   UNL A   1      42.506  23.129  25.868  1.00  0.00     0.010 A 
ATOM     36  C   UNL A   1      42.762  22.618  28.217  1.00  0.00     0.010 A 
ATOM     37  C   UNL A   1      42.821  23.549  27.169  1.00  0.00    -0.014 A 
BRANCH  37  38
ATOM     38  C   UNL A   1      43.213  24.956  27.438  1.00  0.00     0.031 A 
ATOM     39  C   UNL A   1      44.595  25.443  27.106  1.00  0.00     0.074 A 
ATOM     40  C   UNL A   1      42.330  25.790  28.020  1.00  0.00     0.049 A 
ATOM     41  N   UNL A   1      45.124  26.626  27.297  1.00  0.00    -0.248 NA
ATOM     42  C   UNL A   1      45.511  24.467  26.499  1.00  0.00     0.031 C 
ATOM     43  C   UNL A   1      40.973  25.431  28.430  1.00  0.00     0.029 A 
ATOM     44  N   UNL A   1      42.445  27.112  28.371  1.00  0.00    -0.354 N 
ATOM     45  C   UNL A   1      46.436  26.532  26.849  1.00  0.00     0.074 A 
ATOM     46  C   UNL A   1      46.635  25.166  26.413  1.00  0.00     0.031 C 
ATOM     47  C   UNL A   1      40.372  26.511  28.957  1.00  0.00     0.029 A 
ATOM     48  C   UNL A   1      41.310  27.629  28.944  1.00  0.00     0.049 A 
ATOM     49  H   UNL A   1      43.264  27.639  28.226  1.00  0.00     0.167 HD
ATOM     50  C   UNL A   1      47.383  27.499  26.792  1.00  0.00     0.037 A 
ATOM     51  C   UNL A   1      41.053  28.868  29.406  1.00  0.00     0.037 A 
ATOM     52  C   UNL A   1      47.180  28.866  27.200  1.00  0.00     0.049 A 
ATOM     53  C   UNL A   1      42.112  29.929  29.305  1.00  0.00     0.074 A 
ATOM     54  C   UNL A   1      48.064  29.930  27.131  1.00  0.00     0.029 A 
ATOM     55  N   UNL A   1      46.007  29.357  27.751  1.00  0.00    -0.354 N 
ATOM     56  N   UNL A   1      43.329  29.841  28.830  1.00  0.00    -0.248 NA
ATOM     57  C   UNL A   1      41.754  31.268  29.796  1.00  0.00     0.031 C 
ATOM     58  C   UNL A   1      47.435  31.059  27.667  1.00  0.00     0.029 A 
ATOM     59  C   UNL A   1      46.147  30.707  28.036  1.00  0.00     0.049 A 
ATOM     60  H   UNL A   1      45.194  28.827  27.915  1.00  0.00     0.167 HD
ATOM     61  C   UNL A   1      43.876  31.111  28.944  1.00  0.00     0.074 A 
ATOM     62  C   UNL A   1      42.851  31.958  29.520  1.00  0.00     0.031 C 
ATOM     63  C   UNL A   1      45.117  31.537  28.605  1.00  0.00     0.037 A 
BRANCH  50  64
ATOM     64  C   UNL A   1      48.733  27.112  26.264  1.00  0.00     0.064 A 
ATOM     65  C   UNL A   1      49.744  26.637  27.112  1.00  0.00     0.173 A 
ATOM     66  C   UNL A   1      49.009  27.188  24.890  1.00  0.00     0.173 A 
ATOM     67  F   UNL A   1      49.532  26.557  28.434  1.00  0.00    -0.203 F 
ATOM     68  C   UNL A   1      50.991  26.278  26.609  1.00  0.00     0.198 A 
ATOM     69  C   UNL A   1      50.250  26.806  24.386  1.00  0.00     0.198 A 
ATOM     70  F   UNL A   1      48.075  27.631  24.035  1.00  0.00    -0.203 F 
ATOM     71  F   UNL A   1      51.957  25.870  27.443  1.00  0.00    -0.200 F 
ATOM     72  C   UNL A   1      51.242  26.358  25.247  1.00  0.00     0.200 A 
ATOM     73  F   UNL A   1      50.487  26.873  23.069  1.00  0.00    -0.200 F 
ATOM     74  F   UNL A   1      52.443  26.010  24.763  1.00  0.00    -0.200 F 
ENDBRANCH  50  64
BRANCH  51  75
ATOM     75  C   UNL A   1      39.716  29.180  29.969  1.00  0.00     0.064 A 
ATOM     76  C   UNL A   1      38.719  29.755  29.170  1.00  0.00     0.173 A 
ATOM     77  C   UNL A   1      39.405  28.903  31.308  1.00  0.00     0.173 A 
ATOM     78  F   UNL A   1      38.980  30.056  27.889  1.00  0.00    -0.203 F 
ATOM     79  C   UNL A   1      37.463  30.055  29.692  1.00  0.00     0.198 A 
ATOM     80  C   UNL A   1      38.141  29.183  31.823  1.00  0.00     0.198 A 
ATOM     81  F   UNL A   1      40.324  28.348  32.110  1.00  0.00    -0.203 F 
ATOM     82  F   UNL A   1      36.539  30.637  28.916  1.00  0.00    -0.200 F 
ATOM     83  C   UNL A   1      37.174  29.764  31.017  1.00  0.00     0.200 A 
ATOM     84  F   UNL A   1      37.860  28.889  33.099  1.00  0.00    -0.200 F 
ATOM     85  F   UNL A   1      35.963  30.048  31.517  1.00  0.00    -0.200 F 
ENDBRANCH  51  75
BRANCH  63  86
ATOM     86  C   UNL A   1      45.422  32.988  28.824  1.00  0.00     0.064 A 
ATOM     87  C   UNL A   1      46.000  33.444  30.019  1.00  0.00     0.173 A 
ATOM     88  C   UNL A   1      45.151  33.931  27.821  1.00  0.00     0.173 A 
ATOM     89  F   UNL A   1      46.261  32.582  31.013  1.00  0.00    -0.203 F 
ATOM     90  C   UNL A   1      46.269  34.796  30.211  1.00  0.00     0.198 A 
ATOM     91  C   UNL A   1      45.444  35.279  28.010  1.00  0.00     0.198 A 
ATOM     92  F   UNL A   1      44.602  33.544  26.661  1.00  0.00    -0.203 F 
ATOM     93  F   UNL A   1      46.777  35.216  31.379  1.00  0.00    -0.200 F 
ATOM     94  C   UNL A   1      45.995  35.711  29.206  1.00  0.00     0.200 A 
ATOM     95  F   UNL A   1      45.184  36.162  27.035  1.00  0.00    -0.200 F 
ATOM     96  F   UNL A   1      46.253  37.012  29.395  1.00  0.00    -0.200 F 
ENDBRANCH  63  86
ENDBRANCH  37  38
ENDBRANCH  29  32
ENDBRANCH  27  28
ENDBRANCH  26  27
ENDBRANCH   1  26
TORSDOF 14
ENDMDL
