MODEL 1
REMARK VINA RESULT:     -12.3      0.000      0.000
REMARK SMILES O=C(CC1=c2ccccc2=NC1)NCCCNC(=O)c1ccc(-c2c3nc(c(-c4c(F)c(F)c(F)c(F)c4F)c4ccc([nH]4)c(-c4c(F)c(F)c(F)c(F)c4F)c4nc(c(-c5c(F)c(F)c(F)c(F)c5F)c5ccc2[nH]5)C=C4)C=C3)cc1
REMARK SMILES IDX 15 1 14 2 13 3 1 4 2 5 3 7 4 8 5 9 12 10 6 11 10 12 11 13
REMARK SMILES IDX 7 14 9 15 8 16 16 17 17 18 18 19 19 21 20 22 21 23 82 24
REMARK SMILES IDX 22 25 81 26 23 27 24 28 25 29 75 30 26 31 80 32 74 33 76 34
REMARK SMILES IDX 27 35 79 36 73 37 72 38 28 40 60 41 40 42 59 43 41 44 44 45
REMARK SMILES IDX 58 46 77 47 42 48 43 49 57 51 78 52 45 53 29 54 30 55 38 56
REMARK SMILES IDX 31 57 32 58 36 59 39 60 33 61 34 62 37 63 35 64 61 65 62 66
REMARK SMILES IDX 70 67 63 68 64 69 68 70 71 71 65 72 66 73 69 74 67 75 46 76
REMARK SMILES IDX 47 77 55 78 48 79 49 80 53 81 56 82 50 83 51 84 54 85 52 86
REMARK H PARENT 13 6 17 20 76 39 44 50
REMARK Flexibility Score: inf
ROOT
ATOM      1  C   UNL A   1      31.551  31.922  26.718  1.00  0.00     0.042 C 
ENDROOT
BRANCH   1   2
ATOM      2  C   UNL A   1      31.763  30.412  26.758  1.00  0.00     0.117 C 
BRANCH   2   3
ATOM      3  N   UNL A   1      32.770  29.978  25.815  1.00  0.00    -0.356 N 
ATOM      4  O   UNL A   1      31.407  28.737  24.445  1.00  0.00    -0.275 OA
ATOM      5  C   UNL A   1      32.519  29.175  24.722  1.00  0.00     0.224 C 
ATOM      6  H   UNL A   1      33.696  30.276  25.963  1.00  0.00     0.163 HD
BRANCH   5   7
ATOM      7  C   UNL A   1      33.769  28.796  23.923  1.00  0.00     0.133 C 
BRANCH   7   8
ATOM      8  C   UNL A   1      33.694  27.401  23.395  1.00  0.00    -0.030 C 
ATOM      9  C   UNL A   1      33.845  26.256  24.057  1.00  0.00     0.001 A 
ATOM     10  C   UNL A   1      33.467  27.142  21.937  1.00  0.00     0.175 C 
ATOM     11  C   UNL A   1      34.099  25.898  25.417  1.00  0.00     0.010 A 
ATOM     12  C   UNL A   1      33.808  25.252  22.981  1.00  0.00     0.065 A 
ATOM     13  N   UNL A   1      33.583  25.672  21.775  1.00  0.00    -0.280 NA
ATOM     14  C   UNL A   1      34.359  24.613  25.705  1.00  0.00     0.001 A 
ATOM     15  C   UNL A   1      34.078  23.855  23.383  1.00  0.00     0.028 A 
ATOM     16  C   UNL A   1      34.355  23.590  24.672  1.00  0.00     0.002 A 
ENDBRANCH   7   8
ENDBRANCH   5   7
ENDBRANCH   2   3
ENDBRANCH   1   2
BRANCH   1  17
ATOM     17  C   UNL A   1      32.704  32.759  27.272  1.00  0.00     0.118 C 
BRANCH  17  18
ATOM     18  N   UNL A   1      32.340  34.121  27.636  1.00  0.00    -0.352 N 
ATOM     19  C   UNL A   1      32.935  34.973  28.541  1.00  0.00     0.251 C 
ATOM     20  H   UNL A   1      31.555  34.485  27.169  1.00  0.00     0.163 HD
ATOM     21  O   UNL A   1      32.438  36.074  28.764  1.00  0.00    -0.269 OA
BRANCH  19  22
ATOM     22  C   UNL A   1      34.146  34.553  29.282  1.00  0.00     0.039 A 
ATOM     23  C   UNL A   1      35.420  34.723  28.739  1.00  0.00     0.014 A 
ATOM     24  C   UNL A   1      33.999  33.955  30.538  1.00  0.00     0.014 A 
ATOM     25  C   UNL A   1      36.520  34.140  29.363  1.00  0.00     0.010 A 
ATOM     26  C   UNL A   1      35.116  33.435  31.200  1.00  0.00     0.010 A 
ATOM     27  C   UNL A   1      36.379  33.468  30.590  1.00  0.00    -0.014 A 
BRANCH  27  28
ATOM     28  C   UNL A   1      37.556  32.780  31.184  1.00  0.00     0.031 A 
ATOM     29  C   UNL A   1      38.025  33.120  32.575  1.00  0.00     0.074 A 
ATOM     30  C   UNL A   1      38.159  31.787  30.502  1.00  0.00     0.049 A 
ATOM     31  N   UNL A   1      38.983  32.571  33.282  1.00  0.00    -0.248 NA
ATOM     32  C   UNL A   1      37.331  34.218  33.266  1.00  0.00     0.031 C 
ATOM     33  C   UNL A   1      37.799  31.357  29.151  1.00  0.00     0.029 A 
ATOM     34  N   UNL A   1      39.175  30.937  30.862  1.00  0.00    -0.354 N 
ATOM     35  C   UNL A   1      39.012  33.260  34.487  1.00  0.00     0.074 A 
ATOM     36  C   UNL A   1      38.000  34.291  34.408  1.00  0.00     0.031 C 
ATOM     37  C   UNL A   1      38.538  30.288  28.820  1.00  0.00     0.029 A 
ATOM     38  C   UNL A   1      39.458  29.986  29.914  1.00  0.00     0.049 A 
ATOM     39  H   UNL A   1      39.656  31.004  31.720  1.00  0.00     0.167 HD
ATOM     40  C   UNL A   1      39.796  33.042  35.569  1.00  0.00     0.037 A 
ATOM     41  C   UNL A   1      40.355  28.981  29.922  1.00  0.00     0.037 A 
ATOM     42  C   UNL A   1      40.786  32.002  35.665  1.00  0.00     0.049 A 
ATOM     43  C   UNL A   1      41.237  28.784  31.121  1.00  0.00     0.074 A 
ATOM     44  C   UNL A   1      41.608  31.689  36.735  1.00  0.00     0.029 A 
ATOM     45  N   UNL A   1      41.086  31.101  34.654  1.00  0.00    -0.354 N 
ATOM     46  N   UNL A   1      41.241  29.435  32.259  1.00  0.00    -0.248 NA
ATOM     47  C   UNL A   1      42.247  27.720  31.034  1.00  0.00     0.031 C 
ATOM     48  C   UNL A   1      42.431  30.624  36.360  1.00  0.00     0.029 A 
ATOM     49  C   UNL A   1      42.096  30.247  35.069  1.00  0.00     0.049 A 
ATOM     50  H   UNL A   1      40.649  31.074  33.774  1.00  0.00     0.167 HD
ATOM     51  C   UNL A   1      42.244  28.857  33.024  1.00  0.00     0.074 A 
ATOM     52  C   UNL A   1      42.814  27.787  32.231  1.00  0.00     0.031 C 
ATOM     53  C   UNL A   1      42.658  29.190  34.270  1.00  0.00     0.037 A 
BRANCH  40  54
ATOM     54  C   UNL A   1      39.621  33.946  36.754  1.00  0.00     0.064 A 
ATOM     55  C   UNL A   1      38.831  33.569  37.851  1.00  0.00     0.173 A 
ATOM     56  C   UNL A   1      40.308  35.167  36.827  1.00  0.00     0.173 A 
ATOM     57  F   UNL A   1      38.147  32.415  37.825  1.00  0.00    -0.203 F 
ATOM     58  C   UNL A   1      38.727  34.388  38.972  1.00  0.00     0.198 A 
ATOM     59  C   UNL A   1      40.219  35.972  37.960  1.00  0.00     0.198 A 
ATOM     60  F   UNL A   1      41.082  35.568  35.808  1.00  0.00    -0.203 F 
ATOM     61  F   UNL A   1      37.944  34.021  39.997  1.00  0.00    -0.200 F 
ATOM     62  C   UNL A   1      39.426  35.584  39.030  1.00  0.00     0.200 A 
ATOM     63  F   UNL A   1      40.906  37.121  38.019  1.00  0.00    -0.200 F 
ATOM     64  F   UNL A   1      39.336  36.363  40.115  1.00  0.00    -0.200 F 
ENDBRANCH  40  54
BRANCH  41  65
ATOM     65  C   UNL A   1      40.443  28.072  28.751  1.00  0.00     0.064 A 
ATOM     66  C   UNL A   1      39.749  26.856  28.733  1.00  0.00     0.173 A 
ATOM     67  C   UNL A   1      41.199  28.412  27.620  1.00  0.00     0.173 A 
ATOM     68  F   UNL A   1      39.030  26.479  29.802  1.00  0.00    -0.203 F 
ATOM     69  C   UNL A   1      39.807  26.011  27.626  1.00  0.00     0.198 A 
ATOM     70  C   UNL A   1      41.236  27.579  26.504  1.00  0.00     0.198 A 
ATOM     71  F   UNL A   1      41.880  29.567  27.589  1.00  0.00    -0.203 F 
ATOM     72  F   UNL A   1      39.153  24.842  27.643  1.00  0.00    -0.200 F 
ATOM     73  C   UNL A   1      40.543  26.378  26.509  1.00  0.00     0.200 A 
ATOM     74  F   UNL A   1      41.937  27.944  25.421  1.00  0.00    -0.200 F 
ATOM     75  F   UNL A   1      40.586  25.573  25.439  1.00  0.00    -0.200 F 
ENDBRANCH  41  65
BRANCH  53  76
ATOM     76  C   UNL A   1      43.782  28.394  34.862  1.00  0.00     0.064 A 
ATOM     77  C   UNL A   1      45.113  28.820  34.750  1.00  0.00     0.173 A 
ATOM     78  C   UNL A   1      43.522  27.234  35.606  1.00  0.00     0.173 A 
ATOM     79  F   UNL A   1      45.412  29.917  34.037  1.00  0.00    -0.203 F 
ATOM     80  C   UNL A   1      46.145  28.107  35.352  1.00  0.00     0.198 A 
ATOM     81  C   UNL A   1      44.553  26.536  36.227  1.00  0.00     0.198 A 
ATOM     82  F   UNL A   1      42.264  26.790  35.747  1.00  0.00    -0.203 F 
ATOM     83  F   UNL A   1      47.413  28.516  35.208  1.00  0.00    -0.200 F 
ATOM     84  C   UNL A   1      45.864  26.971  36.097  1.00  0.00     0.200 A 
ATOM     85  F   UNL A   1      44.280  25.445  36.955  1.00  0.00    -0.200 F 
ATOM     86  F   UNL A   1      46.858  26.293  36.687  1.00  0.00    -0.200 F 
ENDBRANCH  53  76
ENDBRANCH  27  28
ENDBRANCH  19  22
ENDBRANCH  17  18
ENDBRANCH   1  17
TORSDOF 11
ENDMDL
MODEL 2
REMARK VINA RESULT:     -12.1      0.372      2.065
REMARK SMILES O=C(CC1=c2ccccc2=NC1)NCCCNC(=O)c1ccc(-c2c3nc(c(-c4c(F)c(F)c(F)c(F)c4F)c4ccc([nH]4)c(-c4c(F)c(F)c(F)c(F)c4F)c4nc(c(-c5c(F)c(F)c(F)c(F)c5F)c5ccc2[nH]5)C=C4)C=C3)cc1
REMARK SMILES IDX 15 1 14 2 13 3 1 4 2 5 3 7 4 8 5 9 12 10 6 11 10 12 11 13
REMARK SMILES IDX 7 14 9 15 8 16 16 17 17 18 18 19 19 21 20 22 21 23 82 24
REMARK SMILES IDX 22 25 81 26 23 27 24 28 25 29 75 30 26 31 80 32 74 33 76 34
REMARK SMILES IDX 27 35 79 36 73 37 72 38 28 40 60 41 40 42 59 43 41 44 44 45
REMARK SMILES IDX 58 46 77 47 42 48 43 49 57 51 78 52 45 53 29 54 30 55 38 56
REMARK SMILES IDX 31 57 32 58 36 59 39 60 33 61 34 62 37 63 35 64 61 65 62 66
REMARK SMILES IDX 70 67 63 68 64 69 68 70 71 71 65 72 66 73 69 74 67 75 46 76
REMARK SMILES IDX 47 77 55 78 48 79 49 80 53 81 56 82 50 83 51 84 54 85 52 86
REMARK H PARENT 13 6 17 20 76 39 44 50
REMARK Flexibility Score: inf
ROOT
ATOM      1  C   UNL A   1      31.634  31.740  26.573  1.00  0.00     0.042 C 
ENDROOT
BRANCH   1   2
ATOM      2  C   UNL A   1      31.779  30.223  26.608  1.00  0.00     0.117 C 
BRANCH   2   3
ATOM      3  N   UNL A   1      32.759  29.747  25.656  1.00  0.00    -0.356 N 
ATOM      4  O   UNL A   1      31.309  28.751  24.181  1.00  0.00    -0.275 OA
ATOM      5  C   UNL A   1      32.453  29.049  24.506  1.00  0.00     0.224 C 
ATOM      6  H   UNL A   1      33.707  29.936  25.840  1.00  0.00     0.163 HD
BRANCH   5   7
ATOM      7  C   UNL A   1      33.677  28.593  23.707  1.00  0.00     0.133 C 
BRANCH   7   8
ATOM      8  C   UNL A   1      33.564  27.166  23.278  1.00  0.00    -0.030 C 
ATOM      9  C   UNL A   1      33.726  26.066  24.009  1.00  0.00     0.001 A 
ATOM     10  C   UNL A   1      33.278  26.814  21.850  1.00  0.00     0.175 C 
ATOM     11  C   UNL A   1      34.028  25.797  25.379  1.00  0.00     0.010 A 
ATOM     12  C   UNL A   1      33.635  24.993  23.006  1.00  0.00     0.065 A 
ATOM     13  N   UNL A   1      33.370  25.334  21.783  1.00  0.00    -0.280 NA
ATOM     14  C   UNL A   1      34.283  24.530  25.744  1.00  0.00     0.001 A 
ATOM     15  C   UNL A   1      33.904  23.622  23.491  1.00  0.00     0.028 A 
ATOM     16  C   UNL A   1      34.226  23.441  24.783  1.00  0.00     0.002 A 
ENDBRANCH   7   8
ENDBRANCH   5   7
ENDBRANCH   2   3
ENDBRANCH   1   2
BRANCH   1  17
ATOM     17  C   UNL A   1      32.759  32.522  27.251  1.00  0.00     0.118 C 
BRANCH  17  18
ATOM     18  N   UNL A   1      32.410  33.887  27.617  1.00  0.00    -0.352 N 
ATOM     19  C   UNL A   1      33.011  34.730  28.526  1.00  0.00     0.251 C 
ATOM     20  H   UNL A   1      31.631  34.263  27.146  1.00  0.00     0.163 HD
ATOM     21  O   UNL A   1      32.527  35.836  28.750  1.00  0.00    -0.269 OA
BRANCH  19  22
ATOM     22  C   UNL A   1      34.213  34.294  29.272  1.00  0.00     0.039 A 
ATOM     23  C   UNL A   1      35.496  34.581  28.805  1.00  0.00     0.014 A 
ATOM     24  C   UNL A   1      34.050  33.561  30.452  1.00  0.00     0.014 A 
ATOM     25  C   UNL A   1      36.601  33.988  29.413  1.00  0.00     0.010 A 
ATOM     26  C   UNL A   1      35.167  33.028  31.105  1.00  0.00     0.010 A 
ATOM     27  C   UNL A   1      36.448  33.186  30.557  1.00  0.00    -0.014 A 
BRANCH  27  28
ATOM     28  C   UNL A   1      37.636  32.496  31.127  1.00  0.00     0.031 A 
ATOM     29  C   UNL A   1      38.113  32.812  32.522  1.00  0.00     0.074 A 
ATOM     30  C   UNL A   1      38.243  31.523  30.420  1.00  0.00     0.049 A 
ATOM     31  N   UNL A   1      39.082  32.257  33.209  1.00  0.00    -0.248 NA
ATOM     32  C   UNL A   1      37.415  33.889  33.240  1.00  0.00     0.031 C 
ATOM     33  C   UNL A   1      37.876  31.118  29.064  1.00  0.00     0.029 A 
ATOM     34  N   UNL A   1      39.270  30.676  30.755  1.00  0.00    -0.354 N 
ATOM     35  C   UNL A   1      39.114  32.922  34.428  1.00  0.00     0.074 A 
ATOM     36  C   UNL A   1      38.092  33.945  34.378  1.00  0.00     0.031 C 
ATOM     37  C   UNL A   1      38.622  30.063  28.705  1.00  0.00     0.029 A 
ATOM     38  C   UNL A   1      39.553  29.747  29.785  1.00  0.00     0.049 A 
ATOM     39  H   UNL A   1      39.757  30.729  31.610  1.00  0.00     0.167 HD
ATOM     40  C   UNL A   1      39.909  32.690  35.500  1.00  0.00     0.037 A 
ATOM     41  C   UNL A   1      40.459  28.751  29.765  1.00  0.00     0.037 A 
ATOM     42  C   UNL A   1      40.910  31.656  35.566  1.00  0.00     0.049 A 
ATOM     43  C   UNL A   1      41.353  28.537  30.953  1.00  0.00     0.074 A 
ATOM     44  C   UNL A   1      41.742  31.329  36.623  1.00  0.00     0.029 A 
ATOM     45  N   UNL A   1      41.210  30.779  34.535  1.00  0.00    -0.354 N 
ATOM     46  N   UNL A   1      41.360  29.164  32.104  1.00  0.00    -0.248 NA
ATOM     47  C   UNL A   1      42.372  27.484  30.836  1.00  0.00     0.031 C 
ATOM     48  C   UNL A   1      42.573  30.280  36.219  1.00  0.00     0.029 A 
ATOM     49  C   UNL A   1      42.231  29.927  34.924  1.00  0.00     0.049 A 
ATOM     50  H   UNL A   1      40.765  30.766  33.657  1.00  0.00     0.167 HD
ATOM     51  C   UNL A   1      42.374  28.580  32.849  1.00  0.00     0.074 A 
ATOM     52  C   UNL A   1      42.948  27.532  32.030  1.00  0.00     0.031 C 
ATOM     53  C   UNL A   1      42.796  28.891  34.098  1.00  0.00     0.037 A 
BRANCH  40  54
ATOM     54  C   UNL A   1      39.735  33.567  36.704  1.00  0.00     0.064 A 
ATOM     55  C   UNL A   1      40.378  34.810  36.802  1.00  0.00     0.173 A 
ATOM     56  C   UNL A   1      38.861  33.194  37.736  1.00  0.00     0.173 A 
ATOM     57  F   UNL A   1      41.230  35.207  35.846  1.00  0.00    -0.203 F 
ATOM     58  C   UNL A   1      40.159  35.643  37.897  1.00  0.00     0.198 A 
ATOM     59  C   UNL A   1      38.628  34.040  38.818  1.00  0.00     0.198 A 
ATOM     60  F   UNL A   1      38.218  32.019  37.686  1.00  0.00    -0.203 F 
ATOM     61  F   UNL A   1      40.804  36.816  37.983  1.00  0.00    -0.200 F 
ATOM     62  C   UNL A   1      39.279  35.263  38.898  1.00  0.00     0.200 A 
ATOM     63  F   UNL A   1      37.767  33.676  39.778  1.00  0.00    -0.200 F 
ATOM     64  F   UNL A   1      39.059  36.072  39.943  1.00  0.00    -0.200 F 
ENDBRANCH  40  54
BRANCH  41  65
ATOM     65  C   UNL A   1      40.547  27.867  28.575  1.00  0.00     0.064 A 
ATOM     66  C   UNL A   1      41.335  28.222  27.474  1.00  0.00     0.173 A 
ATOM     67  C   UNL A   1      39.867  26.641  28.527  1.00  0.00     0.173 A 
ATOM     68  F   UNL A   1      41.986  29.395  27.467  1.00  0.00    -0.203 F 
ATOM     69  C   UNL A   1      41.442  27.383  26.366  1.00  0.00     0.198 A 
ATOM     70  C   UNL A   1      39.995  25.792  27.430  1.00  0.00     0.198 A 
ATOM     71  F   UNL A   1      39.101  26.257  29.559  1.00  0.00    -0.203 F 
ATOM     72  F   UNL A   1      42.183  27.757  25.314  1.00  0.00    -0.200 F 
ATOM     73  C   UNL A   1      40.778  26.165  26.349  1.00  0.00     0.200 A 
ATOM     74  F   UNL A   1      39.364  24.609  27.424  1.00  0.00    -0.200 F 
ATOM     75  F   UNL A   1      40.894  25.352  25.290  1.00  0.00    -0.200 F 
ENDBRANCH  41  65
BRANCH  53  76
ATOM     76  C   UNL A   1      43.931  28.094  34.666  1.00  0.00     0.064 A 
ATOM     77  C   UNL A   1      43.706  26.880  35.331  1.00  0.00     0.173 A 
ATOM     78  C   UNL A   1      45.258  28.510  34.485  1.00  0.00     0.173 A 
ATOM     79  F   UNL A   1      42.452  26.448  35.540  1.00  0.00    -0.203 F 
ATOM     80  C   UNL A   1      44.769  26.117  35.805  1.00  0.00     0.198 A 
ATOM     81  C   UNL A   1      46.319  27.733  34.939  1.00  0.00     0.198 A 
ATOM     82  F   UNL A   1      45.525  29.661  33.850  1.00  0.00    -0.203 F 
ATOM     83  F   UNL A   1      44.530  24.974  36.464  1.00  0.00    -0.200 F 
ATOM     84  C   UNL A   1      46.074  26.539  35.601  1.00  0.00     0.200 A 
ATOM     85  F   UNL A   1      47.580  28.135  34.732  1.00  0.00    -0.200 F 
ATOM     86  F   UNL A   1      47.096  25.796  36.046  1.00  0.00    -0.200 F 
ENDBRANCH  53  76
ENDBRANCH  27  28
ENDBRANCH  19  22
ENDBRANCH  17  18
ENDBRANCH   1  17
TORSDOF 11
ENDMDL
MODEL 3
REMARK VINA RESULT:     -12.1      0.429      7.612
REMARK SMILES O=C(CC1=c2ccccc2=NC1)NCCCNC(=O)c1ccc(-c2c3nc(c(-c4c(F)c(F)c(F)c(F)c4F)c4ccc([nH]4)c(-c4c(F)c(F)c(F)c(F)c4F)c4nc(c(-c5c(F)c(F)c(F)c(F)c5F)c5ccc2[nH]5)C=C4)C=C3)cc1
REMARK SMILES IDX 15 1 14 2 13 3 1 4 2 5 3 7 4 8 5 9 12 10 6 11 10 12 11 13
REMARK SMILES IDX 7 14 9 15 8 16 16 17 17 18 18 19 19 21 20 22 21 23 82 24
REMARK SMILES IDX 22 25 81 26 23 27 24 28 25 29 75 30 26 31 80 32 74 33 76 34
REMARK SMILES IDX 27 35 79 36 73 37 72 38 28 40 60 41 40 42 59 43 41 44 44 45
REMARK SMILES IDX 58 46 77 47 42 48 43 49 57 51 78 52 45 53 29 54 30 55 38 56
REMARK SMILES IDX 31 57 32 58 36 59 39 60 33 61 34 62 37 63 35 64 61 65 62 66
REMARK SMILES IDX 70 67 63 68 64 69 68 70 71 71 65 72 66 73 69 74 67 75 46 76
REMARK SMILES IDX 47 77 55 78 48 79 49 80 53 81 56 82 50 83 51 84 54 85 52 86
REMARK H PARENT 13 6 17 20 76 39 44 50
REMARK Flexibility Score: inf
ROOT
ATOM      1  C   UNL A   1      31.626  31.943  26.753  1.00  0.00     0.042 C 
ENDROOT
BRANCH   1   2
ATOM      2  C   UNL A   1      31.795  30.428  26.804  1.00  0.00     0.117 C 
BRANCH   2   3
ATOM      3  N   UNL A   1      32.829  29.965  25.906  1.00  0.00    -0.356 N 
ATOM      4  O   UNL A   1      31.471  28.949  24.358  1.00  0.00    -0.275 OA
ATOM      5  C   UNL A   1      32.593  29.262  24.742  1.00  0.00     0.224 C 
ATOM      6  H   UNL A   1      33.764  30.166  26.139  1.00  0.00     0.163 HD
BRANCH   5   7
ATOM      7  C   UNL A   1      33.863  28.822  24.008  1.00  0.00     0.133 C 
BRANCH   7   8
ATOM      8  C   UNL A   1      33.732  27.445  23.442  1.00  0.00    -0.030 C 
ATOM      9  C   UNL A   1      33.809  26.278  24.077  1.00  0.00     0.001 A 
ATOM     10  C   UNL A   1      33.530  27.235  21.973  1.00  0.00     0.175 C 
ATOM     11  C   UNL A   1      34.010  25.875  25.433  1.00  0.00     0.010 A 
ATOM     12  C   UNL A   1      33.750  25.305  22.975  1.00  0.00     0.065 A 
ATOM     13  N   UNL A   1      33.577  25.765  21.775  1.00  0.00    -0.280 NA
ATOM     14  C   UNL A   1      34.199  24.571  25.694  1.00  0.00     0.001 A 
ATOM     15  C   UNL A   1      33.941  23.886  23.347  1.00  0.00     0.028 A 
ATOM     16  C   UNL A   1      34.170  23.576  24.635  1.00  0.00     0.002 A 
ENDBRANCH   7   8
ENDBRANCH   5   7
ENDBRANCH   2   3
ENDBRANCH   1   2
BRANCH   1  17
ATOM     17  C   UNL A   1      32.796  32.752  27.312  1.00  0.00     0.118 C 
BRANCH  17  18
ATOM     18  N   UNL A   1      32.473  34.133  27.642  1.00  0.00    -0.352 N 
ATOM     19  C   UNL A   1      33.030  34.958  28.594  1.00  0.00     0.251 C 
ATOM     20  H   UNL A   1      31.751  34.534  27.108  1.00  0.00     0.163 HD
ATOM     21  O   UNL A   1      32.573  36.084  28.773  1.00  0.00    -0.269 OA
BRANCH  19  22
ATOM     22  C   UNL A   1      34.149  34.481  29.438  1.00  0.00     0.039 A 
ATOM     23  C   UNL A   1      35.470  34.558  28.997  1.00  0.00     0.014 A 
ATOM     24  C   UNL A   1      33.864  33.922  30.689  1.00  0.00     0.014 A 
ATOM     25  C   UNL A   1      36.478  33.921  29.719  1.00  0.00     0.010 A 
ATOM     26  C   UNL A   1      34.890  33.348  31.449  1.00  0.00     0.010 A 
ATOM     27  C   UNL A   1      36.196  33.289  30.942  1.00  0.00    -0.014 A 
BRANCH  27  28
ATOM     28  C   UNL A   1      37.276  32.542  31.642  1.00  0.00     0.031 A 
ATOM     29  C   UNL A   1      38.025  31.438  30.941  1.00  0.00     0.074 A 
ATOM     30  C   UNL A   1      37.641  32.909  32.885  1.00  0.00     0.049 A 
ATOM     31  N   UNL A   1      39.044  30.731  31.366  1.00  0.00    -0.248 NA
ATOM     32  C   UNL A   1      37.574  31.077  29.587  1.00  0.00     0.031 C 
ATOM     33  C   UNL A   1      37.002  33.964  33.670  1.00  0.00     0.029 A 
ATOM     34  N   UNL A   1      38.658  32.463  33.692  1.00  0.00    -0.354 N 
ATOM     35  C   UNL A   1      39.346  29.842  30.342  1.00  0.00     0.074 A 
ATOM     36  C   UNL A   1      38.384  30.071  29.286  1.00  0.00     0.031 C 
ATOM     37  C   UNL A   1      37.676  34.126  34.818  1.00  0.00     0.029 A 
ATOM     38  C   UNL A   1      38.766  33.155  34.872  1.00  0.00     0.049 A 
ATOM     39  H   UNL A   1      39.254  31.718  33.447  1.00  0.00     0.167 HD
ATOM     40  C   UNL A   1      40.346  28.931  30.279  1.00  0.00     0.037 A 
ATOM     41  C   UNL A   1      39.644  33.026  35.885  1.00  0.00     0.037 A 
ATOM     42  C   UNL A   1      41.322  28.716  31.314  1.00  0.00     0.049 A 
ATOM     43  C   UNL A   1      40.722  31.983  35.805  1.00  0.00     0.074 A 
ATOM     44  C   UNL A   1      42.389  27.833  31.323  1.00  0.00     0.029 A 
ATOM     45  N   UNL A   1      41.355  29.394  32.523  1.00  0.00    -0.354 N 
ATOM     46  N   UNL A   1      41.003  31.161  34.823  1.00  0.00    -0.248 NA
ATOM     47  C   UNL A   1      41.597  31.842  36.977  1.00  0.00     0.031 C 
ATOM     48  C   UNL A   1      43.045  27.949  32.552  1.00  0.00     0.029 A 
ATOM     49  C   UNL A   1      42.411  28.932  33.293  1.00  0.00     0.049 A 
ATOM     50  H   UNL A   1      40.722  30.096  32.794  1.00  0.00     0.167 HD
ATOM     51  C   UNL A   1      42.089  30.413  35.254  1.00  0.00     0.074 A 
ATOM     52  C   UNL A   1      42.431  30.892  36.578  1.00  0.00     0.031 C 
ATOM     53  C   UNL A   1      42.738  29.413  34.611  1.00  0.00     0.037 A 
BRANCH  40  54
ATOM     54  C   UNL A   1      40.447  28.087  29.042  1.00  0.00     0.064 A 
ATOM     55  C   UNL A   1      39.739  26.882  28.920  1.00  0.00     0.173 A 
ATOM     56  C   UNL A   1      41.199  28.523  27.942  1.00  0.00     0.173 A 
ATOM     57  F   UNL A   1      39.012  26.418  29.947  1.00  0.00    -0.203 F 
ATOM     58  C   UNL A   1      39.790  26.139  27.743  1.00  0.00     0.198 A 
ATOM     59  C   UNL A   1      41.231  27.788  26.759  1.00  0.00     0.198 A 
ATOM     60  F   UNL A   1      41.888  29.672  28.007  1.00  0.00    -0.203 F 
ATOM     61  F   UNL A   1      39.127  24.977  27.657  1.00  0.00    -0.200 F 
ATOM     62  C   UNL A   1      40.528  26.596  26.661  1.00  0.00     0.200 A 
ATOM     63  F   UNL A   1      41.934  28.238  25.711  1.00  0.00    -0.200 F 
ATOM     64  F   UNL A   1      40.565  25.887  25.525  1.00  0.00    -0.200 F 
ENDBRANCH  40  54
BRANCH  41  65
ATOM     65  C   UNL A   1      39.544  33.931  37.058  1.00  0.00     0.064 A 
ATOM     66  C   UNL A   1      40.171  35.183  37.054  1.00  0.00     0.173 A 
ATOM     67  C   UNL A   1      38.799  33.575  38.192  1.00  0.00     0.173 A 
ATOM     68  F   UNL A   1      40.912  35.558  36.000  1.00  0.00    -0.203 F 
ATOM     69  C   UNL A   1      40.058  36.048  38.141  1.00  0.00     0.198 A 
ATOM     70  C   UNL A   1      38.665  34.450  39.267  1.00  0.00     0.198 A 
ATOM     71  F   UNL A   1      38.178  32.387  38.242  1.00  0.00    -0.203 F 
ATOM     72  F   UNL A   1      40.688  37.230  38.123  1.00  0.00    -0.200 F 
ATOM     73  C   UNL A   1      39.298  35.684  39.244  1.00  0.00     0.200 A 
ATOM     74  F   UNL A   1      37.918  34.101  40.324  1.00  0.00    -0.200 F 
ATOM     75  F   UNL A   1      39.176  36.521  40.282  1.00  0.00    -0.200 F 
ENDBRANCH  41  65
BRANCH  53  76
ATOM     76  C   UNL A   1      43.887  28.763  35.320  1.00  0.00     0.064 A 
ATOM     77  C   UNL A   1      45.197  29.242  35.174  1.00  0.00     0.173 A 
ATOM     78  C   UNL A   1      43.671  27.696  36.205  1.00  0.00     0.173 A 
ATOM     79  F   UNL A   1      45.455  30.252  34.329  1.00  0.00    -0.203 F 
ATOM     80  C   UNL A   1      46.250  28.670  35.881  1.00  0.00     0.198 A 
ATOM     81  C   UNL A   1      44.723  27.142  36.928  1.00  0.00     0.198 A 
ATOM     82  F   UNL A   1      42.435  27.207  36.383  1.00  0.00    -0.203 F 
ATOM     83  F   UNL A   1      47.499  29.125  35.705  1.00  0.00    -0.200 F 
ATOM     84  C   UNL A   1      46.012  27.627  36.763  1.00  0.00     0.200 A 
ATOM     85  F   UNL A   1      44.489  26.142  37.788  1.00  0.00    -0.200 F 
ATOM     86  F   UNL A   1      47.025  27.086  37.453  1.00  0.00    -0.200 F 
ENDBRANCH  53  76
ENDBRANCH  27  28
ENDBRANCH  19  22
ENDBRANCH  17  18
ENDBRANCH   1  17
TORSDOF 11
ENDMDL
