MODEL 1
REMARK VINA RESULT:     -12.6      0.000      0.000
REMARK SMILES NC(=O)C[C@H](C(=O)NCCCNC(=O)c1ccc(-c2c3nc(c(-c4c(F)c(F)c(F)c(F)c4F)c4ccc([nH]4)c(-c4c(F)c(F)c(F)c(F)c4F)c4nc(c(-c5c(F)c(F)c(F)c(F)c5F)c5ccc2[nH]5)C=C4)C=C3)cc1)N1C(=O)/C(=C/c2ccccc2)SC1=S
REMARK SMILES IDX 10 1 9 2 8 3 6 4 7 5 5 7 4 8 2 9 1 10 3 13 78 14 79 15 90 16
REMARK SMILES IDX 80 17 81 18 89 19 91 20 82 21 83 22 84 23 88 24 85 25 87 26
REMARK SMILES IDX 86 27 11 28 12 29 13 30 14 32 15 33 16 34 77 35 17 36 76 37
REMARK SMILES IDX 18 38 19 39 20 40 70 41 21 42 75 43 69 44 71 45 22 46 74 47
REMARK SMILES IDX 68 48 67 49 23 51 55 52 35 53 54 54 36 55 39 56 53 57 72 58
REMARK SMILES IDX 37 59 38 60 52 62 73 63 40 64 24 65 25 66 33 67 26 68 27 69
REMARK SMILES IDX 31 70 34 71 28 72 29 73 32 74 30 75 56 76 57 77 65 78 58 79
REMARK SMILES IDX 59 80 63 81 66 82 60 83 61 84 64 85 62 86 41 87 42 88 50 89
REMARK SMILES IDX 43 90 44 91 48 92 51 93 45 94 46 95 49 96 47 97
REMARK H PARENT 8 6 1 11 1 12 12 31 71 50 39 61
REMARK Flexibility Score: inf
ROOT
ATOM      1  C   UNL A   1      34.009  28.101  25.829  1.00  0.00     0.042 C 
ENDROOT
BRANCH   1   2
ATOM      2  C   UNL A   1      32.817  27.763  24.947  1.00  0.00     0.117 C 
BRANCH   2   3
ATOM      3  N   UNL A   1      33.171  26.889  23.837  1.00  0.00    -0.354 N 
ATOM      4  C   UNL A   1      33.026  25.550  23.640  1.00  0.00     0.243 C 
ATOM      5  O   UNL A   1      33.442  25.129  22.551  1.00  0.00    -0.273 OA
ATOM      6  H   UNL A   1      33.596  27.356  23.082  1.00  0.00     0.163 HD
BRANCH   4   7
ATOM      7  C   UNL A   1      32.646  24.536  24.754  1.00  0.00     0.190 C 
BRANCH   7   8
ATOM      8  C   UNL A   1      31.103  24.616  24.805  1.00  0.00     0.135 C 
BRANCH   8   9
ATOM      9  C   UNL A   1      30.552  24.593  26.211  1.00  0.00     0.220 C 
ATOM     10  N   UNL A   1      29.306  25.113  26.376  1.00  0.00    -0.370 N 
ATOM     11  H   UNL A   1      28.893  25.126  27.269  1.00  0.00     0.159 HD
ATOM     12  H   UNL A   1      28.818  25.477  25.602  1.00  0.00     0.159 HD
ATOM     13  O   UNL A   1      31.143  24.103  27.166  1.00  0.00    -0.275 OA
ENDBRANCH   8   9
ENDBRANCH   7   8
BRANCH   7  14
ATOM     14  N   UNL A   1      33.256  23.193  24.660  1.00  0.00    -0.280 N 
ATOM     15  C   UNL A   1      32.648  22.255  23.843  1.00  0.00     0.266 C 
ATOM     16  C   UNL A   1      34.562  22.846  24.942  1.00  0.00     0.149 C 
ATOM     17  O   UNL A   1      31.757  22.462  23.031  1.00  0.00    -0.268 OA
ATOM     18  C   UNL A   1      33.213  20.912  24.112  1.00  0.00     0.081 C 
ATOM     19  S   UNL A   1      34.720  21.085  24.901  1.00  0.00    -0.054 SA
ATOM     20  S   UNL A   1      35.894  23.823  25.170  1.00  0.00    -0.052 S 
ATOM     21  C   UNL A   1      32.515  19.804  23.833  1.00  0.00     0.029 C 
BRANCH  21  22
ATOM     22  C   UNL A   1      32.881  18.431  24.188  1.00  0.00    -0.024 A 
ATOM     23  C   UNL A   1      32.526  17.932  25.445  1.00  0.00     0.008 A 
ATOM     24  C   UNL A   1      33.644  17.633  23.323  1.00  0.00     0.008 A 
ATOM     25  C   UNL A   1      32.903  16.641  25.821  1.00  0.00     0.001 A 
ATOM     26  C   UNL A   1      34.019  16.343  23.701  1.00  0.00     0.001 A 
ATOM     27  C   UNL A   1      33.645  15.847  24.949  1.00  0.00     0.000 A 
ENDBRANCH  21  22
ENDBRANCH   7  14
ENDBRANCH   4   7
ENDBRANCH   2   3
ENDBRANCH   1   2
BRANCH   1  28
ATOM     28  C   UNL A   1      33.628  28.398  27.273  1.00  0.00     0.118 C 
BRANCH  28  29
ATOM     29  N   UNL A   1      33.598  29.821  27.575  1.00  0.00    -0.352 N 
ATOM     30  C   UNL A   1      34.548  30.628  28.156  1.00  0.00     0.251 C 
ATOM     31  H   UNL A   1      32.765  30.279  27.322  1.00  0.00     0.163 HD
ATOM     32  O   UNL A   1      34.257  31.776  28.479  1.00  0.00    -0.269 OA
BRANCH  30  33
ATOM     33  C   UNL A   1      35.909  30.115  28.430  1.00  0.00     0.039 A 
ATOM     34  C   UNL A   1      36.885  30.208  27.434  1.00  0.00     0.014 A 
ATOM     35  C   UNL A   1      36.228  29.527  29.654  1.00  0.00     0.014 A 
ATOM     36  C   UNL A   1      38.192  29.786  27.696  1.00  0.00     0.010 A 
ATOM     37  C   UNL A   1      37.551  29.216  29.955  1.00  0.00     0.010 A 
ATOM     38  C   UNL A   1      38.547  29.329  28.976  1.00  0.00    -0.014 A 
BRANCH  38  39
ATOM     39  C   UNL A   1      39.942  28.930  29.308  1.00  0.00     0.031 A 
ATOM     40  C   UNL A   1      40.821  29.863  30.099  1.00  0.00     0.074 A 
ATOM     41  C   UNL A   1      40.443  27.772  28.835  1.00  0.00     0.049 A 
ATOM     42  N   UNL A   1      42.095  29.760  30.386  1.00  0.00    -0.248 NA
ATOM     43  C   UNL A   1      40.193  31.095  30.604  1.00  0.00     0.031 C 
ATOM     44  C   UNL A   1      39.715  26.802  28.017  1.00  0.00     0.029 A 
ATOM     45  N   UNL A   1      41.695  27.221  28.965  1.00  0.00    -0.354 N 
ATOM     46  C   UNL A   1      42.421  30.922  31.075  1.00  0.00     0.074 A 
ATOM     47  C   UNL A   1      41.231  31.742  31.110  1.00  0.00     0.031 C 
ATOM     48  C   UNL A   1      40.519  25.763  27.743  1.00  0.00     0.029 A 
ATOM     49  C   UNL A   1      41.835  26.012  28.326  1.00  0.00     0.049 A 
ATOM     50  H   UNL A   1      42.424  27.649  29.469  1.00  0.00     0.167 HD
ATOM     51  C   UNL A   1      43.597  31.262  31.654  1.00  0.00     0.037 A 
ATOM     52  C   UNL A   1      42.904  25.202  28.215  1.00  0.00     0.037 A 
ATOM     53  C   UNL A   1      44.766  30.424  31.661  1.00  0.00     0.049 A 
ATOM     54  C   UNL A   1      44.200  25.601  28.869  1.00  0.00     0.074 A 
ATOM     55  C   UNL A   1      45.984  30.646  32.279  1.00  0.00     0.029 A 
ATOM     56  N   UNL A   1      44.858  29.195  31.023  1.00  0.00    -0.354 N 
ATOM     57  N   UNL A   1      44.478  26.675  29.568  1.00  0.00    -0.248 NA
ATOM     58  C   UNL A   1      45.331  24.674  28.720  1.00  0.00     0.031 C 
ATOM     59  C   UNL A   1      46.827  29.571  31.980  1.00  0.00     0.029 A 
ATOM     60  C   UNL A   1      46.119  28.658  31.216  1.00  0.00     0.049 A 
ATOM     61  H   UNL A   1      44.134  28.770  30.509  1.00  0.00     0.167 HD
ATOM     62  C   UNL A   1      45.801  26.539  29.965  1.00  0.00     0.074 A 
ATOM     63  C   UNL A   1      46.268  25.274  29.440  1.00  0.00     0.031 C 
ATOM     64  C   UNL A   1      46.562  27.390  30.697  1.00  0.00     0.037 A 
BRANCH  51  65
ATOM     65  C   UNL A   1      43.674  32.596  32.340  1.00  0.00     0.064 A 
ATOM     66  C   UNL A   1      43.395  32.735  33.709  1.00  0.00     0.173 A 
ATOM     67  C   UNL A   1      44.063  33.742  31.631  1.00  0.00     0.173 A 
ATOM     68  F   UNL A   1      43.007  31.674  34.431  1.00  0.00    -0.203 F 
ATOM     69  C   UNL A   1      43.471  33.978  34.333  1.00  0.00     0.198 A 
ATOM     70  C   UNL A   1      44.169  34.977  32.266  1.00  0.00     0.198 A 
ATOM     71  F   UNL A   1      44.347  33.663  30.323  1.00  0.00    -0.203 F 
ATOM     72  F   UNL A   1      43.146  34.095  35.628  1.00  0.00    -0.200 F 
ATOM     73  C   UNL A   1      43.865  35.096  33.614  1.00  0.00     0.200 A 
ATOM     74  F   UNL A   1      44.563  36.054  31.572  1.00  0.00    -0.200 F 
ATOM     75  F   UNL A   1      43.944  36.289  34.218  1.00  0.00    -0.200 F 
ENDBRANCH  51  65
BRANCH  52  76
ATOM     76  C   UNL A   1      42.792  23.917  27.473  1.00  0.00     0.064 A 
ATOM     77  C   UNL A   1      43.105  23.850  26.108  1.00  0.00     0.173 A 
ATOM     78  C   UNL A   1      42.367  22.740  28.104  1.00  0.00     0.173 A 
ATOM     79  F   UNL A   1      43.496  24.954  25.455  1.00  0.00    -0.203 F 
ATOM     80  C   UNL A   1      42.975  22.658  25.398  1.00  0.00     0.198 A 
ATOM     81  C   UNL A   1      42.264  21.543  27.400  1.00  0.00     0.198 A 
ATOM     82  F   UNL A   1      42.060  22.751  29.410  1.00  0.00    -0.203 F 
ATOM     83  F   UNL A   1      43.234  22.633  24.083  1.00  0.00    -0.200 F 
ATOM     84  C   UNL A   1      42.560  21.505  26.045  1.00  0.00     0.200 A 
ATOM     85  F   UNL A   1      41.876  20.427  28.032  1.00  0.00    -0.200 F 
ATOM     86  F   UNL A   1      42.437  20.358  25.362  1.00  0.00    -0.200 F 
ENDBRANCH  52  76
BRANCH  64  87
ATOM     87  C   UNL A   1      47.967  26.965  31.006  1.00  0.00     0.064 A 
ATOM     88  C   UNL A   1      48.257  26.102  32.073  1.00  0.00     0.173 A 
ATOM     89  C   UNL A   1      49.030  27.385  30.192  1.00  0.00     0.173 A 
ATOM     90  F   UNL A   1      47.276  25.686  32.889  1.00  0.00    -0.203 F 
ATOM     91  C   UNL A   1      49.562  25.690  32.324  1.00  0.00     0.198 A 
ATOM     92  C   UNL A   1      50.330  26.947  30.429  1.00  0.00     0.198 A 
ATOM     93  F   UNL A   1      48.805  28.205  29.155  1.00  0.00    -0.203 F 
ATOM     94  F   UNL A   1      49.822  24.898  33.374  1.00  0.00    -0.200 F 
ATOM     95  C   UNL A   1      50.596  26.105  31.498  1.00  0.00     0.200 A 
ATOM     96  F   UNL A   1      51.325  27.339  29.621  1.00  0.00    -0.200 F 
ATOM     97  F   UNL A   1      51.850  25.698  31.736  1.00  0.00    -0.200 F 
ENDBRANCH  64  87
ENDBRANCH  38  39
ENDBRANCH  30  33
ENDBRANCH  28  29
ENDBRANCH   1  28
TORSDOF 14
ENDMDL
MODEL 2
REMARK VINA RESULT:     -12.6      2.800      7.729
REMARK SMILES NC(=O)C[C@H](C(=O)NCCCNC(=O)c1ccc(-c2c3nc(c(-c4c(F)c(F)c(F)c(F)c4F)c4ccc([nH]4)c(-c4c(F)c(F)c(F)c(F)c4F)c4nc(c(-c5c(F)c(F)c(F)c(F)c5F)c5ccc2[nH]5)C=C4)C=C3)cc1)N1C(=O)/C(=C/c2ccccc2)SC1=S
REMARK SMILES IDX 10 1 9 2 8 3 6 4 7 5 5 7 4 8 2 9 1 10 3 13 78 14 79 15 90 16
REMARK SMILES IDX 80 17 81 18 89 19 91 20 82 21 83 22 84 23 88 24 85 25 87 26
REMARK SMILES IDX 86 27 11 28 12 29 13 30 14 32 15 33 16 34 77 35 17 36 76 37
REMARK SMILES IDX 18 38 19 39 20 40 70 41 21 42 75 43 69 44 71 45 22 46 74 47
REMARK SMILES IDX 68 48 67 49 23 51 55 52 35 53 54 54 36 55 39 56 53 57 72 58
REMARK SMILES IDX 37 59 38 60 52 62 73 63 40 64 24 65 25 66 33 67 26 68 27 69
REMARK SMILES IDX 31 70 34 71 28 72 29 73 32 74 30 75 56 76 57 77 65 78 58 79
REMARK SMILES IDX 59 80 63 81 66 82 60 83 61 84 64 85 62 86 41 87 42 88 50 89
REMARK SMILES IDX 43 90 44 91 48 92 51 93 45 94 46 95 49 96 47 97
REMARK H PARENT 8 6 1 11 1 12 12 31 71 50 39 61
REMARK Flexibility Score: inf
ROOT
ATOM      1  C   UNL A   1      32.285  28.007  25.653  1.00  0.00     0.042 C 
ENDROOT
BRANCH   1   2
ATOM      2  C   UNL A   1      31.588  27.488  24.405  1.00  0.00     0.117 C 
BRANCH   2   3
ATOM      3  N   UNL A   1      32.467  26.686  23.564  1.00  0.00    -0.354 N 
ATOM      4  C   UNL A   1      32.810  25.368  23.588  1.00  0.00     0.243 C 
ATOM      5  O   UNL A   1      33.595  25.012  22.699  1.00  0.00    -0.273 OA
ATOM      6  H   UNL A   1      32.896  27.194  22.839  1.00  0.00     0.163 HD
BRANCH   4   7
ATOM      7  C   UNL A   1      32.506  24.404  24.767  1.00  0.00     0.190 C 
BRANCH   7   8
ATOM      8  C   UNL A   1      30.963  24.429  24.867  1.00  0.00     0.135 C 
BRANCH   8   9
ATOM      9  C   UNL A   1      30.459  24.483  26.290  1.00  0.00     0.220 C 
ATOM     10  N   UNL A   1      29.303  25.170  26.491  1.00  0.00    -0.370 N 
ATOM     11  H   UNL A   1      28.924  25.241  27.397  1.00  0.00     0.159 HD
ATOM     12  H   UNL A   1      28.845  25.596  25.731  1.00  0.00     0.159 HD
ATOM     13  O   UNL A   1      31.008  23.918  27.228  1.00  0.00    -0.275 OA
ENDBRANCH   8   9
ENDBRANCH   7   8
BRANCH   7  14
ATOM     14  N   UNL A   1      33.166  23.082  24.725  1.00  0.00    -0.280 N 
ATOM     15  C   UNL A   1      32.651  22.123  23.870  1.00  0.00     0.266 C 
ATOM     16  C   UNL A   1      34.458  22.779  25.105  1.00  0.00     0.149 C 
ATOM     17  O   UNL A   1      31.816  22.298  22.992  1.00  0.00    -0.268 OA
ATOM     18  C   UNL A   1      33.238  20.800  24.186  1.00  0.00     0.081 C 
ATOM     19  S   UNL A   1      34.676  21.025  25.084  1.00  0.00    -0.054 SA
ATOM     20  S   UNL A   1      35.736  23.801  25.427  1.00  0.00    -0.052 S 
ATOM     21  C   UNL A   1      32.601  19.669  23.861  1.00  0.00     0.029 C 
BRANCH  21  22
ATOM     22  C   UNL A   1      32.984  18.309  24.249  1.00  0.00    -0.024 A 
ATOM     23  C   UNL A   1      33.723  17.527  23.357  1.00  0.00     0.008 A 
ATOM     24  C   UNL A   1      32.562  17.751  25.464  1.00  0.00     0.008 A 
ATOM     25  C   UNL A   1      34.062  16.213  23.687  1.00  0.00     0.001 A 
ATOM     26  C   UNL A   1      32.901  16.438  25.792  1.00  0.00     0.001 A 
ATOM     27  C   UNL A   1      33.655  15.671  24.905  1.00  0.00     0.000 A 
ENDBRANCH  21  22
ENDBRANCH   7  14
ENDBRANCH   4   7
ENDBRANCH   2   3
ENDBRANCH   1   2
BRANCH   1  28
ATOM     28  C   UNL A   1      33.240  29.161  25.377  1.00  0.00     0.118 C 
BRANCH  28  29
ATOM     29  N   UNL A   1      32.750  30.437  25.874  1.00  0.00    -0.352 N 
ATOM     30  C   UNL A   1      33.218  31.235  26.892  1.00  0.00     0.251 C 
ATOM     31  H   UNL A   1      31.957  30.785  25.407  1.00  0.00     0.163 HD
ATOM     32  O   UNL A   1      32.553  32.197  27.266  1.00  0.00    -0.269 OA
BRANCH  30  33
ATOM     33  C   UNL A   1      34.498  30.925  27.567  1.00  0.00     0.039 A 
ATOM     34  C   UNL A   1      35.434  31.947  27.751  1.00  0.00     0.014 A 
ATOM     35  C   UNL A   1      34.792  29.634  28.005  1.00  0.00     0.014 A 
ATOM     36  C   UNL A   1      36.622  31.687  28.442  1.00  0.00     0.010 A 
ATOM     37  C   UNL A   1      35.916  29.403  28.791  1.00  0.00     0.010 A 
ATOM     38  C   UNL A   1      36.852  30.423  29.009  1.00  0.00    -0.014 A 
BRANCH  38  39
ATOM     39  C   UNL A   1      38.076  30.129  29.803  1.00  0.00     0.031 A 
ATOM     40  C   UNL A   1      39.125  29.201  29.249  1.00  0.00     0.074 A 
ATOM     41  C   UNL A   1      38.209  30.629  31.047  1.00  0.00     0.049 A 
ATOM     42  N   UNL A   1      40.198  28.721  29.827  1.00  0.00    -0.248 NA
ATOM     43  C   UNL A   1      38.922  28.719  27.873  1.00  0.00     0.031 C 
ATOM     44  C   UNL A   1      37.246  31.500  31.720  1.00  0.00     0.029 A 
ATOM     45  N   UNL A   1      39.208  30.463  31.975  1.00  0.00    -0.354 N 
ATOM     46  C   UNL A   1      40.774  27.863  28.898  1.00  0.00     0.074 A 
ATOM     47  C   UNL A   1      39.904  27.840  27.744  1.00  0.00     0.031 C 
ATOM     48  C   UNL A   1      37.712  31.816  32.939  1.00  0.00     0.029 A 
ATOM     49  C   UNL A   1      38.985  31.134  33.153  1.00  0.00     0.049 A 
ATOM     50  H   UNL A   1      40.010  29.915  31.812  1.00  0.00     0.167 HD
ATOM     51  C   UNL A   1      41.940  27.179  28.985  1.00  0.00     0.037 A 
ATOM     52  C   UNL A   1      39.719  31.186  34.281  1.00  0.00     0.037 A 
ATOM     53  C   UNL A   1      42.830  27.242  30.114  1.00  0.00     0.049 A 
ATOM     54  C   UNL A   1      41.012  30.420  34.352  1.00  0.00     0.074 A 
ATOM     55  C   UNL A   1      44.068  26.643  30.270  1.00  0.00     0.029 A 
ATOM     56  N   UNL A   1      42.579  27.954  31.277  1.00  0.00    -0.354 N 
ATOM     57  N   UNL A   1      41.575  29.660  33.445  1.00  0.00    -0.248 NA
ATOM     58  C   UNL A   1      41.773  30.519  35.606  1.00  0.00     0.031 C 
ATOM     59  C   UNL A   1      44.547  26.959  31.546  1.00  0.00     0.029 A 
ATOM     60  C   UNL A   1      43.629  27.792  32.165  1.00  0.00     0.049 A 
ATOM     61  H   UNL A   1      41.772  28.493  31.447  1.00  0.00     0.167 HD
ATOM     62  C   UNL A   1      42.766  29.216  34.004  1.00  0.00     0.074 A 
ATOM     63  C   UNL A   1      42.851  29.801  35.325  1.00  0.00     0.031 C 
ATOM     64  C   UNL A   1      43.703  28.394  33.471  1.00  0.00     0.037 A 
BRANCH  51  65
ATOM     65  C   UNL A   1      42.328  26.314  27.821  1.00  0.00     0.064 A 
ATOM     66  C   UNL A   1      43.217  26.764  26.834  1.00  0.00     0.173 A 
ATOM     67  C   UNL A   1      41.830  25.006  27.707  1.00  0.00     0.173 A 
ATOM     68  F   UNL A   1      43.713  28.009  26.888  1.00  0.00    -0.203 F 
ATOM     69  C   UNL A   1      43.569  25.950  25.759  1.00  0.00     0.198 A 
ATOM     70  C   UNL A   1      42.208  24.185  26.649  1.00  0.00     0.198 A 
ATOM     71  F   UNL A   1      40.981  24.524  28.627  1.00  0.00    -0.203 F 
ATOM     72  F   UNL A   1      44.377  26.423  24.800  1.00  0.00    -0.200 F 
ATOM     73  C   UNL A   1      43.070  24.659  25.671  1.00  0.00     0.200 A 
ATOM     74  F   UNL A   1      41.737  22.933  26.573  1.00  0.00    -0.200 F 
ATOM     75  F   UNL A   1      43.414  23.876  24.640  1.00  0.00    -0.200 F 
ENDBRANCH  51  65
BRANCH  52  76
ATOM     76  C   UNL A   1      39.262  32.013  35.430  1.00  0.00     0.064 A 
ATOM     77  C   UNL A   1      38.462  31.457  36.438  1.00  0.00     0.173 A 
ATOM     78  C   UNL A   1      39.604  33.368  35.541  1.00  0.00     0.173 A 
ATOM     79  F   UNL A   1      38.090  30.171  36.365  1.00  0.00    -0.203 F 
ATOM     80  C   UNL A   1      38.004  32.231  37.503  1.00  0.00     0.198 A 
ATOM     81  C   UNL A   1      39.169  34.134  36.620  1.00  0.00     0.198 A 
ATOM     82  F   UNL A   1      40.371  33.946  34.605  1.00  0.00    -0.203 F 
ATOM     83  F   UNL A   1      37.201  31.686  38.428  1.00  0.00    -0.200 F 
ATOM     84  C   UNL A   1      38.362  33.566  37.596  1.00  0.00     0.200 A 
ATOM     85  F   UNL A   1      39.529  35.421  36.715  1.00  0.00    -0.200 F 
ATOM     86  F   UNL A   1      37.923  34.310  38.622  1.00  0.00    -0.200 F 
ENDBRANCH  52  76
BRANCH  64  87
ATOM     87  C   UNL A   1      44.920  28.107  34.300  1.00  0.00     0.064 A 
ATOM     88  C   UNL A   1      46.047  28.942  34.264  1.00  0.00     0.173 A 
ATOM     89  C   UNL A   1      44.938  27.015  35.180  1.00  0.00     0.173 A 
ATOM     90  F   UNL A   1      46.083  29.991  33.428  1.00  0.00    -0.203 F 
ATOM     91  C   UNL A   1      47.154  28.681  35.066  1.00  0.00     0.198 A 
ATOM     92  C   UNL A   1      46.036  26.775  36.001  1.00  0.00     0.198 A 
ATOM     93  F   UNL A   1      43.883  26.191  35.256  1.00  0.00    -0.203 F 
ATOM     94  F   UNL A   1      48.237  29.468  34.986  1.00  0.00    -0.200 F 
ATOM     95  C   UNL A   1      47.145  27.604  35.939  1.00  0.00     0.200 A 
ATOM     96  F   UNL A   1      46.019  25.741  36.854  1.00  0.00    -0.200 F 
ATOM     97  F   UNL A   1      48.208  27.362  36.718  1.00  0.00    -0.200 F 
ENDBRANCH  64  87
ENDBRANCH  38  39
ENDBRANCH  30  33
ENDBRANCH  28  29
ENDBRANCH   1  28
TORSDOF 14
ENDMDL
MODEL 3
REMARK VINA RESULT:     -12.6      2.790      7.590
REMARK SMILES NC(=O)C[C@H](C(=O)NCCCNC(=O)c1ccc(-c2c3nc(c(-c4c(F)c(F)c(F)c(F)c4F)c4ccc([nH]4)c(-c4c(F)c(F)c(F)c(F)c4F)c4nc(c(-c5c(F)c(F)c(F)c(F)c5F)c5ccc2[nH]5)C=C4)C=C3)cc1)N1C(=O)/C(=C/c2ccccc2)SC1=S
REMARK SMILES IDX 10 1 9 2 8 3 6 4 7 5 5 7 4 8 2 9 1 10 3 13 78 14 79 15 90 16
REMARK SMILES IDX 80 17 81 18 89 19 91 20 82 21 83 22 84 23 88 24 85 25 87 26
REMARK SMILES IDX 86 27 11 28 12 29 13 30 14 32 15 33 16 34 77 35 17 36 76 37
REMARK SMILES IDX 18 38 19 39 20 40 70 41 21 42 75 43 69 44 71 45 22 46 74 47
REMARK SMILES IDX 68 48 67 49 23 51 55 52 35 53 54 54 36 55 39 56 53 57 72 58
REMARK SMILES IDX 37 59 38 60 52 62 73 63 40 64 24 65 25 66 33 67 26 68 27 69
REMARK SMILES IDX 31 70 34 71 28 72 29 73 32 74 30 75 56 76 57 77 65 78 58 79
REMARK SMILES IDX 59 80 63 81 66 82 60 83 61 84 64 85 62 86 41 87 42 88 50 89
REMARK SMILES IDX 43 90 44 91 48 92 51 93 45 94 46 95 49 96 47 97
REMARK H PARENT 8 6 1 11 1 12 12 31 71 50 39 61
REMARK Flexibility Score: inf
ROOT
ATOM      1  C   UNL A   1      32.588  28.016  25.419  1.00  0.00     0.042 C 
ENDROOT
BRANCH   1   2
ATOM      2  C   UNL A   1      31.806  27.502  24.220  1.00  0.00     0.117 C 
BRANCH   2   3
ATOM      3  N   UNL A   1      32.604  26.643  23.356  1.00  0.00    -0.354 N 
ATOM      4  C   UNL A   1      32.902  25.316  23.402  1.00  0.00     0.243 C 
ATOM      5  O   UNL A   1      33.619  24.904  22.480  1.00  0.00    -0.273 OA
ATOM      6  H   UNL A   1      33.005  27.113  22.590  1.00  0.00     0.163 HD
BRANCH   4   7
ATOM      7  C   UNL A   1      32.637  24.399  24.628  1.00  0.00     0.190 C 
BRANCH   7   8
ATOM      8  C   UNL A   1      31.101  24.459  24.799  1.00  0.00     0.135 C 
BRANCH   8   9
ATOM      9  C   UNL A   1      30.665  24.521  26.244  1.00  0.00     0.220 C 
ATOM     10  N   UNL A   1      29.470  25.122  26.484  1.00  0.00    -0.370 N 
ATOM     11  H   UNL A   1      29.131  25.193  27.406  1.00  0.00     0.159 HD
ATOM     12  H   UNL A   1      28.942  25.486  25.737  1.00  0.00     0.159 HD
ATOM     13  O   UNL A   1      31.303  24.031  27.169  1.00  0.00    -0.275 OA
ENDBRANCH   8   9
ENDBRANCH   7   8
BRANCH   7  14
ATOM     14  N   UNL A   1      33.269  23.063  24.602  1.00  0.00    -0.280 N 
ATOM     15  C   UNL A   1      32.706  22.091  23.794  1.00  0.00     0.266 C 
ATOM     16  C   UNL A   1      34.568  22.746  24.945  1.00  0.00     0.149 C 
ATOM     17  O   UNL A   1      31.843  22.257  22.942  1.00  0.00    -0.268 OA
ATOM     18  C   UNL A   1      33.278  20.766  24.130  1.00  0.00     0.081 C 
ATOM     19  S   UNL A   1      34.751  20.987  24.968  1.00  0.00    -0.054 SA
ATOM     20  S   UNL A   1      35.876  23.750  25.190  1.00  0.00    -0.052 S 
ATOM     21  C   UNL A   1      32.607  19.639  23.861  1.00  0.00     0.029 C 
BRANCH  21  22
ATOM     22  C   UNL A   1      32.979  18.284  24.275  1.00  0.00    -0.024 A 
ATOM     23  C   UNL A   1      33.751  17.494  23.419  1.00  0.00     0.008 A 
ATOM     24  C   UNL A   1      32.513  17.737  25.479  1.00  0.00     0.008 A 
ATOM     25  C   UNL A   1      34.079  16.184  23.774  1.00  0.00     0.001 A 
ATOM     26  C   UNL A   1      32.841  16.427  25.833  1.00  0.00     0.001 A 
ATOM     27  C   UNL A   1      33.628  15.653  24.981  1.00  0.00     0.000 A 
ENDBRANCH  21  22
ENDBRANCH   7  14
ENDBRANCH   4   7
ENDBRANCH   2   3
ENDBRANCH   1   2
BRANCH   1  28
ATOM     28  C   UNL A   1      33.356  29.300  25.134  1.00  0.00     0.118 C 
BRANCH  28  29
ATOM     29  N   UNL A   1      32.758  30.472  25.754  1.00  0.00    -0.352 N 
ATOM     30  C   UNL A   1      33.140  31.183  26.868  1.00  0.00     0.251 C 
ATOM     31  H   UNL A   1      31.950  30.810  25.305  1.00  0.00     0.163 HD
ATOM     32  O   UNL A   1      32.394  32.043  27.327  1.00  0.00    -0.269 OA
BRANCH  30  33
ATOM     33  C   UNL A   1      34.425  30.895  27.544  1.00  0.00     0.039 A 
ATOM     34  C   UNL A   1      35.332  31.938  27.751  1.00  0.00     0.014 A 
ATOM     35  C   UNL A   1      34.752  29.604  27.958  1.00  0.00     0.014 A 
ATOM     36  C   UNL A   1      36.524  31.698  28.442  1.00  0.00     0.010 A 
ATOM     37  C   UNL A   1      35.879  29.389  28.745  1.00  0.00     0.010 A 
ATOM     38  C   UNL A   1      36.787  30.430  28.986  1.00  0.00    -0.014 A 
BRANCH  38  39
ATOM     39  C   UNL A   1      38.015  30.155  29.780  1.00  0.00     0.031 A 
ATOM     40  C   UNL A   1      39.076  29.240  29.227  1.00  0.00     0.074 A 
ATOM     41  C   UNL A   1      38.142  30.659  31.023  1.00  0.00     0.049 A 
ATOM     42  N   UNL A   1      40.155  28.775  29.806  1.00  0.00    -0.248 NA
ATOM     43  C   UNL A   1      38.879  28.752  27.852  1.00  0.00     0.031 C 
ATOM     44  C   UNL A   1      37.167  31.518  31.695  1.00  0.00     0.029 A 
ATOM     45  N   UNL A   1      39.144  30.508  31.951  1.00  0.00    -0.354 N 
ATOM     46  C   UNL A   1      40.743  27.923  28.878  1.00  0.00     0.074 A 
ATOM     47  C   UNL A   1      39.872  27.886  27.725  1.00  0.00     0.031 C 
ATOM     48  C   UNL A   1      37.629  31.843  32.913  1.00  0.00     0.029 A 
ATOM     49  C   UNL A   1      38.912  31.179  33.127  1.00  0.00     0.049 A 
ATOM     50  H   UNL A   1      39.953  29.972  31.788  1.00  0.00     0.167 HD
ATOM     51  C   UNL A   1      41.918  27.256  28.966  1.00  0.00     0.037 A 
ATOM     52  C   UNL A   1      39.646  31.244  34.254  1.00  0.00     0.037 A 
ATOM     53  C   UNL A   1      42.808  27.333  30.094  1.00  0.00     0.049 A 
ATOM     54  C   UNL A   1      40.949  30.496  34.327  1.00  0.00     0.074 A 
ATOM     55  C   UNL A   1      44.054  26.752  30.251  1.00  0.00     0.029 A 
ATOM     56  N   UNL A   1      42.547  28.044  31.256  1.00  0.00    -0.354 N 
ATOM     57  N   UNL A   1      41.522  29.741  33.421  1.00  0.00    -0.248 NA
ATOM     58  C   UNL A   1      41.710  30.608  35.579  1.00  0.00     0.031 C 
ATOM     59  C   UNL A   1      44.529  27.076  31.526  1.00  0.00     0.029 A 
ATOM     60  C   UNL A   1      43.600  27.899  32.143  1.00  0.00     0.049 A 
ATOM     61  H   UNL A   1      41.734  28.573  31.425  1.00  0.00     0.167 HD
ATOM     62  C   UNL A   1      42.719  29.315  33.980  1.00  0.00     0.074 A 
ATOM     63  C   UNL A   1      42.797  29.904  35.300  1.00  0.00     0.031 C 
ATOM     64  C   UNL A   1      43.667  28.504  33.448  1.00  0.00     0.037 A 
BRANCH  51  65
ATOM     65  C   UNL A   1      42.317  26.393  27.803  1.00  0.00     0.064 A 
ATOM     66  C   UNL A   1      43.237  26.835  26.841  1.00  0.00     0.173 A 
ATOM     67  C   UNL A   1      41.798  25.096  27.667  1.00  0.00     0.173 A 
ATOM     68  F   UNL A   1      43.753  28.071  26.917  1.00  0.00    -0.203 F 
ATOM     69  C   UNL A   1      43.598  26.024  25.768  1.00  0.00     0.198 A 
ATOM     70  C   UNL A   1      42.186  24.276  26.610  1.00  0.00     0.198 A 
ATOM     71  F   UNL A   1      40.920  24.622  28.563  1.00  0.00    -0.203 F 
ATOM     72  F   UNL A   1      44.436  26.490  24.831  1.00  0.00    -0.200 F 
ATOM     73  C   UNL A   1      43.079  24.744  25.657  1.00  0.00     0.200 A 
ATOM     74  F   UNL A   1      41.694  23.034  26.513  1.00  0.00    -0.200 F 
ATOM     75  F   UNL A   1      43.432  23.962  24.628  1.00  0.00    -0.200 F 
ENDBRANCH  51  65
BRANCH  52  76
ATOM     76  C   UNL A   1      39.178  32.067  35.402  1.00  0.00     0.064 A 
ATOM     77  C   UNL A   1      39.498  33.429  35.484  1.00  0.00     0.173 A 
ATOM     78  C   UNL A   1      38.414  31.513  36.438  1.00  0.00     0.173 A 
ATOM     79  F   UNL A   1      40.246  34.000  34.528  1.00  0.00    -0.203 F 
ATOM     80  C   UNL A   1      39.090  34.201  36.570  1.00  0.00     0.198 A 
ATOM     81  C   UNL A   1      37.982  32.292  37.509  1.00  0.00     0.198 A 
ATOM     82  F   UNL A   1      38.076  30.215  36.405  1.00  0.00    -0.203 F 
ATOM     83  F   UNL A   1      39.451  35.490  36.646  1.00  0.00    -0.200 F 
ATOM     84  C   UNL A   1      38.328  33.634  37.578  1.00  0.00     0.200 A 
ATOM     85  F   UNL A   1      37.233  31.744  38.476  1.00  0.00    -0.200 F 
ATOM     86  F   UNL A   1      37.933  34.377  38.622  1.00  0.00    -0.200 F 
ENDBRANCH  52  76
BRANCH  64  87
ATOM     87  C   UNL A   1      44.889  28.236  34.277  1.00  0.00     0.064 A 
ATOM     88  C   UNL A   1      44.966  27.130  35.136  1.00  0.00     0.173 A 
ATOM     89  C   UNL A   1      46.015  29.066  34.169  1.00  0.00     0.173 A 
ATOM     90  F   UNL A   1      43.910  26.316  35.284  1.00  0.00    -0.203 F 
ATOM     91  C   UNL A   1      46.120  26.876  35.870  1.00  0.00     0.198 A 
ATOM     92  C   UNL A   1      47.177  28.792  34.884  1.00  0.00     0.198 A 
ATOM     93  F   UNL A   1      45.993  30.133  33.356  1.00  0.00    -0.203 F 
ATOM     94  F   UNL A   1      46.158  25.837  36.716  1.00  0.00    -0.200 F 
ATOM     95  C   UNL A   1      47.227  27.702  35.738  1.00  0.00     0.200 A 
ATOM     96  F   UNL A   1      48.250  29.583  34.744  1.00  0.00    -0.200 F 
ATOM     97  F   UNL A   1      48.341  27.448  36.438  1.00  0.00    -0.200 F 
ENDBRANCH  64  87
ENDBRANCH  38  39
ENDBRANCH  30  33
ENDBRANCH  28  29
ENDBRANCH   1  28
TORSDOF 14
ENDMDL
