MODEL 1
REMARK VINA RESULT:     -13.4      0.000      0.000
REMARK SMILES COc1cc(-c2cccc(C(N)=O)c2)ccc1C(=O)NCCCNC(=O)c1ccc(-c2c3nc(c(-c4c(F)c(F)c(F)c(F)c4F)c4ccc([nH]4)c(-c4c(F)c(F)c(F)c(F)c4F)c4nc(c(-c5c(F)c(F)c(F)c(F)c5F)c5ccc2[nH]5)C=C4)C=C3)cc1
REMARK SMILES IDX 22 1 21 2 20 3 18 4 19 5 17 7 3 8 4 9 5 10 16 11 15 12 2 13
REMARK SMILES IDX 1 14 6 15 7 16 14 17 8 18 10 19 9 20 11 21 12 22 13 23 23 26
REMARK SMILES IDX 24 27 25 28 26 30 27 31 28 32 89 33 29 34 88 35 30 36 31 37
REMARK SMILES IDX 32 38 82 39 33 40 87 41 81 42 83 43 34 44 86 45 80 46 79 47
REMARK SMILES IDX 35 49 67 50 47 51 66 52 48 53 51 54 65 55 84 56 49 57 50 58
REMARK SMILES IDX 64 60 85 61 52 62 36 63 37 64 45 65 38 66 39 67 43 68 46 69
REMARK SMILES IDX 40 70 41 71 44 72 42 73 68 74 69 75 77 76 70 77 71 78 75 79
REMARK SMILES IDX 78 80 72 81 73 82 76 83 74 84 53 85 54 86 62 87 55 88 56 89
REMARK SMILES IDX 60 90 63 91 57 92 58 93 61 94 59 95
REMARK H PARENT 20 6 12 24 12 25 24 29 83 48 51 59
REMARK Flexibility Score: inf
ROOT
ATOM      1  C   UNL A   1      31.476  32.148  26.543  1.00  0.00     0.042 C 
ENDROOT
BRANCH   1   2
ATOM      2  C   UNL A   1      31.744  30.713  26.130  1.00  0.00     0.118 C 
BRANCH   2   3
ATOM      3  N   UNL A   1      31.024  30.282  24.945  1.00  0.00    -0.352 N 
ATOM      4  C   UNL A   1      30.994  29.044  24.348  1.00  0.00     0.255 C 
ATOM      5  O   UNL A   1      30.264  28.881  23.373  1.00  0.00    -0.269 OA
ATOM      6  H   UNL A   1      30.480  30.976  24.506  1.00  0.00     0.163 HD
BRANCH   4   7
ATOM      7  C   UNL A   1      31.875  27.935  24.791  1.00  0.00     0.081 A 
ATOM      8  C   UNL A   1      33.214  27.766  24.430  1.00  0.00     0.132 A 
ATOM      9  C   UNL A   1      33.868  26.567  24.730  1.00  0.00     0.056 A 
ATOM     10  C   UNL A   1      33.242  25.549  25.468  1.00  0.00    -0.015 A 
ATOM     11  C   UNL A   1      31.269  26.969  25.610  1.00  0.00     0.018 A 
ATOM     12  C   UNL A   1      31.948  25.794  25.949  1.00  0.00     0.010 A 
BRANCH   8  13
ATOM     13  O   UNL A   1      33.945  28.644  23.678  1.00  0.00    -0.496 OA
ATOM     14  C   UNL A   1      33.940  28.315  22.291  1.00  0.00     0.278 C 
ENDBRANCH   8  13
BRANCH  10  15
ATOM     15  C   UNL A   1      33.907  24.247  25.646  1.00  0.00    -0.017 A 
ATOM     16  C   UNL A   1      35.305  24.136  25.677  1.00  0.00     0.009 A 
ATOM     17  C   UNL A   1      33.152  23.062  25.699  1.00  0.00     0.022 A 
ATOM     18  C   UNL A   1      35.927  22.887  25.732  1.00  0.00     0.001 A 
ATOM     19  C   UNL A   1      33.765  21.800  25.750  1.00  0.00     0.040 A 
ATOM     20  C   UNL A   1      35.161  21.721  25.764  1.00  0.00     0.014 A 
BRANCH  19  21
ATOM     21  C   UNL A   1      32.876  20.604  25.769  1.00  0.00     0.248 C 
ATOM     22  N   UNL A   1      33.213  19.545  26.562  1.00  0.00    -0.366 N 
ATOM     23  O   UNL A   1      31.861  20.549  25.080  1.00  0.00    -0.270 OA
ATOM     24  H   UNL A   1      34.026  19.584  27.116  1.00  0.00     0.159 HD
ATOM     25  H   UNL A   1      32.643  18.742  26.581  1.00  0.00     0.159 HD
ENDBRANCH  19  21
ENDBRANCH  10  15
ENDBRANCH   4   7
ENDBRANCH   2   3
ENDBRANCH   1   2
BRANCH   1  26
ATOM     26  C   UNL A   1      32.626  32.826  27.271  1.00  0.00     0.118 C 
BRANCH  26  27
ATOM     27  N   UNL A   1      32.355  34.195  27.694  1.00  0.00    -0.352 N 
ATOM     28  C   UNL A   1      32.951  35.020  28.620  1.00  0.00     0.251 C 
ATOM     29  H   UNL A   1      31.596  34.610  27.224  1.00  0.00     0.163 HD
ATOM     30  O   UNL A   1      32.463  36.122  28.842  1.00  0.00    -0.269 OA
BRANCH  28  31
ATOM     31  C   UNL A   1      34.137  34.582  29.393  1.00  0.00     0.039 A 
ATOM     32  C   UNL A   1      33.958  34.123  30.703  1.00  0.00     0.014 A 
ATOM     33  C   UNL A   1      35.419  34.615  28.853  1.00  0.00     0.014 A 
ATOM     34  C   UNL A   1      35.043  33.599  31.415  1.00  0.00     0.010 A 
ATOM     35  C   UNL A   1      36.464  33.968  29.502  1.00  0.00     0.010 A 
ATOM     36  C   UNL A   1      36.294  33.457  30.795  1.00  0.00    -0.014 A 
BRANCH  36  37
ATOM     37  C   UNL A   1      37.441  32.797  31.474  1.00  0.00     0.031 A 
ATOM     38  C   UNL A   1      38.155  31.648  30.808  1.00  0.00     0.074 A 
ATOM     39  C   UNL A   1      37.781  33.160  32.728  1.00  0.00     0.049 A 
ATOM     40  N   UNL A   1      39.084  30.858  31.285  1.00  0.00    -0.248 NA
ATOM     41  C   UNL A   1      37.734  31.311  29.438  1.00  0.00     0.031 C 
ATOM     42  C   UNL A   1      37.123  34.201  33.519  1.00  0.00     0.029 A 
ATOM     43  N   UNL A   1      38.760  32.681  33.564  1.00  0.00    -0.354 N 
ATOM     44  C   UNL A   1      39.320  29.912  30.296  1.00  0.00     0.074 A 
ATOM     45  C   UNL A   1      38.397  30.186  29.218  1.00  0.00     0.031 C 
ATOM     46  C   UNL A   1      37.738  34.309  34.707  1.00  0.00     0.029 A 
ATOM     47  C   UNL A   1      38.806  33.319  34.781  1.00  0.00     0.049 A 
ATOM     48  H   UNL A   1      39.370  31.950  33.315  1.00  0.00     0.167 HD
ATOM     49  C   UNL A   1      40.245  28.922  30.270  1.00  0.00     0.037 A 
ATOM     50  C   UNL A   1      39.619  33.125  35.836  1.00  0.00     0.037 A 
ATOM     51  C   UNL A   1      41.211  28.697  31.312  1.00  0.00     0.049 A 
ATOM     52  C   UNL A   1      40.680  32.060  35.759  1.00  0.00     0.074 A 
ATOM     53  C   UNL A   1      42.250  27.783  31.342  1.00  0.00     0.029 A 
ATOM     54  N   UNL A   1      41.264  29.405  32.503  1.00  0.00    -0.354 N 
ATOM     55  N   UNL A   1      40.939  31.220  34.788  1.00  0.00    -0.248 NA
ATOM     56  C   UNL A   1      41.565  31.923  36.924  1.00  0.00     0.031 C 
ATOM     57  C   UNL A   1      42.914  27.918  32.566  1.00  0.00     0.029 A 
ATOM     58  C   UNL A   1      42.313  28.942  33.280  1.00  0.00     0.049 A 
ATOM     59  H   UNL A   1      40.648  30.129  32.758  1.00  0.00     0.167 HD
ATOM     60  C   UNL A   1      42.028  30.472  35.212  1.00  0.00     0.074 A 
ATOM     61  C   UNL A   1      42.393  30.971  36.521  1.00  0.00     0.031 C 
ATOM     62  C   UNL A   1      42.667  29.460  34.576  1.00  0.00     0.037 A 
BRANCH  49  63
ATOM     63  C   UNL A   1      40.271  28.026  29.067  1.00  0.00     0.064 A 
ATOM     64  C   UNL A   1      41.017  28.350  27.924  1.00  0.00     0.173 A 
ATOM     65  C   UNL A   1      39.560  26.816  29.062  1.00  0.00     0.173 A 
ATOM     66  F   UNL A   1      41.705  29.502  27.871  1.00  0.00    -0.203 F 
ATOM     67  C   UNL A   1      41.024  27.516  26.809  1.00  0.00     0.198 A 
ATOM     68  C   UNL A   1      39.594  25.969  27.958  1.00  0.00     0.198 A 
ATOM     69  F   UNL A   1      38.835  26.454  30.131  1.00  0.00    -0.203 F 
ATOM     70  F   UNL A   1      41.699  27.876  25.709  1.00  0.00    -0.200 F 
ATOM     71  C   UNL A   1      40.318  26.323  26.829  1.00  0.00     0.200 A 
ATOM     72  F   UNL A   1      38.922  24.809  27.983  1.00  0.00    -0.200 F 
ATOM     73  F   UNL A   1      40.328  25.518  25.758  1.00  0.00    -0.200 F 
ENDBRANCH  49  63
BRANCH  50  74
ATOM     74  C   UNL A   1      39.493  33.987  37.040  1.00  0.00     0.064 A 
ATOM     75  C   UNL A   1      38.776  33.547  38.162  1.00  0.00     0.173 A 
ATOM     76  C   UNL A   1      40.076  35.260  37.097  1.00  0.00     0.173 A 
ATOM     77  F   UNL A   1      38.184  32.343  38.147  1.00  0.00    -0.203 F 
ATOM     78  C   UNL A   1      38.630  34.355  39.287  1.00  0.00     0.198 A 
ATOM     79  C   UNL A   1      39.952  36.058  38.233  1.00  0.00     0.198 A 
ATOM     80  F   UNL A   1      40.778  35.725  36.053  1.00  0.00    -0.203 F 
ATOM     81  F   UNL A   1      37.902  33.928  40.327  1.00  0.00    -0.200 F 
ATOM     82  C   UNL A   1      39.223  35.609  39.323  1.00  0.00     0.200 A 
ATOM     83  F   UNL A   1      40.537  37.263  38.271  1.00  0.00    -0.200 F 
ATOM     84  F   UNL A   1      39.083  36.386  40.407  1.00  0.00    -0.200 F 
ENDBRANCH  50  74
BRANCH  62  85
ATOM     85  C   UNL A   1      43.844  28.846  35.272  1.00  0.00     0.064 A 
ATOM     86  C   UNL A   1      43.689  27.788  36.180  1.00  0.00     0.173 A 
ATOM     87  C   UNL A   1      45.145  29.295  34.997  1.00  0.00     0.173 A 
ATOM     88  F   UNL A   1      42.464  27.336  36.486  1.00  0.00    -0.203 F 
ATOM     89  C   UNL A   1      44.793  27.215  36.803  1.00  0.00     0.198 A 
ATOM     90  C   UNL A   1      46.248  28.700  35.601  1.00  0.00     0.198 A 
ATOM     91  F   UNL A   1      45.345  30.300  34.132  1.00  0.00    -0.203 F 
ATOM     92  F   UNL A   1      44.619  26.233  37.699  1.00  0.00    -0.200 F 
ATOM     93  C   UNL A   1      46.072  27.666  36.508  1.00  0.00     0.200 A 
ATOM     94  F   UNL A   1      47.484  29.129  35.307  1.00  0.00    -0.200 F 
ATOM     95  F   UNL A   1      47.135  27.107  37.104  1.00  0.00    -0.200 F 
ENDBRANCH  62  85
ENDBRANCH  36  37
ENDBRANCH  28  31
ENDBRANCH  26  27
ENDBRANCH   1  26
TORSDOF 13
ENDMDL
MODEL 2
REMARK VINA RESULT:     -13.3      0.960      1.966
REMARK SMILES COc1cc(-c2cccc(C(N)=O)c2)ccc1C(=O)NCCCNC(=O)c1ccc(-c2c3nc(c(-c4c(F)c(F)c(F)c(F)c4F)c4ccc([nH]4)c(-c4c(F)c(F)c(F)c(F)c4F)c4nc(c(-c5c(F)c(F)c(F)c(F)c5F)c5ccc2[nH]5)C=C4)C=C3)cc1
REMARK SMILES IDX 22 1 21 2 20 3 18 4 19 5 17 7 3 8 4 9 5 10 16 11 15 12 2 13
REMARK SMILES IDX 1 14 6 15 7 16 14 17 8 18 10 19 9 20 11 21 12 22 13 23 23 26
REMARK SMILES IDX 24 27 25 28 26 30 27 31 28 32 89 33 29 34 88 35 30 36 31 37
REMARK SMILES IDX 32 38 82 39 33 40 87 41 81 42 83 43 34 44 86 45 80 46 79 47
REMARK SMILES IDX 35 49 67 50 47 51 66 52 48 53 51 54 65 55 84 56 49 57 50 58
REMARK SMILES IDX 64 60 85 61 52 62 36 63 37 64 45 65 38 66 39 67 43 68 46 69
REMARK SMILES IDX 40 70 41 71 44 72 42 73 68 74 69 75 77 76 70 77 71 78 75 79
REMARK SMILES IDX 78 80 72 81 73 82 76 83 74 84 53 85 54 86 62 87 55 88 56 89
REMARK SMILES IDX 60 90 63 91 57 92 58 93 61 94 59 95
REMARK H PARENT 20 6 12 24 12 25 24 29 83 48 51 59
REMARK Flexibility Score: inf
ROOT
ATOM      1  C   UNL A   1      31.457  32.155  26.574  1.00  0.00     0.042 C 
ENDROOT
BRANCH   1   2
ATOM      2  C   UNL A   1      31.710  30.708  26.198  1.00  0.00     0.118 C 
BRANCH   2   3
ATOM      3  N   UNL A   1      31.053  30.277  24.977  1.00  0.00    -0.352 N 
ATOM      4  C   UNL A   1      31.042  29.037  24.386  1.00  0.00     0.255 C 
ATOM      5  O   UNL A   1      30.365  28.875  23.373  1.00  0.00    -0.269 OA
ATOM      6  H   UNL A   1      30.542  30.974  24.505  1.00  0.00     0.163 HD
BRANCH   4   7
ATOM      7  C   UNL A   1      31.885  27.921  24.882  1.00  0.00     0.081 A 
ATOM      8  C   UNL A   1      33.226  27.705  24.553  1.00  0.00     0.132 A 
ATOM      9  C   UNL A   1      33.841  26.500  24.906  1.00  0.00     0.056 A 
ATOM     10  C   UNL A   1      33.176  25.525  25.666  1.00  0.00    -0.015 A 
ATOM     11  C   UNL A   1      31.239  26.999  25.722  1.00  0.00     0.018 A 
ATOM     12  C   UNL A   1      31.880  25.820  26.114  1.00  0.00     0.010 A 
BRANCH   8  13
ATOM     13  O   UNL A   1      33.993  28.537  23.786  1.00  0.00    -0.496 OA
ATOM     14  C   UNL A   1      33.941  28.209  22.400  1.00  0.00     0.278 C 
ENDBRANCH   8  13
BRANCH  10  15
ATOM     15  C   UNL A   1      33.803  24.213  25.900  1.00  0.00    -0.017 A 
ATOM     16  C   UNL A   1      33.210  23.256  26.736  1.00  0.00     0.009 A 
ATOM     17  C   UNL A   1      35.067  23.920  25.359  1.00  0.00     0.022 A 
ATOM     18  C   UNL A   1      33.866  22.061  27.040  1.00  0.00     0.001 A 
ATOM     19  C   UNL A   1      35.739  22.725  25.660  1.00  0.00     0.040 A 
ATOM     20  C   UNL A   1      35.129  21.796  26.509  1.00  0.00     0.014 A 
BRANCH  19  21
ATOM     21  C   UNL A   1      37.090  22.525  25.062  1.00  0.00     0.248 C 
ATOM     22  N   UNL A   1      37.978  23.561  25.081  1.00  0.00    -0.366 N 
ATOM     23  O   UNL A   1      37.409  21.458  24.546  1.00  0.00    -0.270 OA
ATOM     24  H   UNL A   1      37.725  24.418  25.493  1.00  0.00     0.159 HD
ATOM     25  H   UNL A   1      38.872  23.452  24.682  1.00  0.00     0.159 HD
ENDBRANCH  19  21
ENDBRANCH  10  15
ENDBRANCH   4   7
ENDBRANCH   2   3
ENDBRANCH   1   2
BRANCH   1  26
ATOM     26  C   UNL A   1      32.620  32.845  27.269  1.00  0.00     0.118 C 
BRANCH  26  27
ATOM     27  N   UNL A   1      32.350  34.216  27.687  1.00  0.00    -0.352 N 
ATOM     28  C   UNL A   1      32.949  35.044  28.610  1.00  0.00     0.251 C 
ATOM     29  H   UNL A   1      31.591  34.631  27.217  1.00  0.00     0.163 HD
ATOM     30  O   UNL A   1      32.463  36.148  28.828  1.00  0.00    -0.269 OA
BRANCH  28  31
ATOM     31  C   UNL A   1      34.137  34.608  29.381  1.00  0.00     0.039 A 
ATOM     32  C   UNL A   1      33.961  34.162  30.696  1.00  0.00     0.014 A 
ATOM     33  C   UNL A   1      35.417  34.630  28.835  1.00  0.00     0.014 A 
ATOM     34  C   UNL A   1      35.046  33.640  31.409  1.00  0.00     0.010 A 
ATOM     35  C   UNL A   1      36.461  33.984  29.487  1.00  0.00     0.010 A 
ATOM     36  C   UNL A   1      36.295  33.487  30.785  1.00  0.00    -0.014 A 
BRANCH  36  37
ATOM     37  C   UNL A   1      37.441  32.827  31.465  1.00  0.00     0.031 A 
ATOM     38  C   UNL A   1      38.166  31.688  30.794  1.00  0.00     0.074 A 
ATOM     39  C   UNL A   1      37.771  33.181  32.724  1.00  0.00     0.049 A 
ATOM     40  N   UNL A   1      39.096  30.899  31.270  1.00  0.00    -0.248 NA
ATOM     41  C   UNL A   1      37.754  31.359  29.419  1.00  0.00     0.031 C 
ATOM     42  C   UNL A   1      37.103  34.213  33.519  1.00  0.00     0.029 A 
ATOM     43  N   UNL A   1      38.748  32.701  33.562  1.00  0.00    -0.354 N 
ATOM     44  C   UNL A   1      39.344  29.962  30.275  1.00  0.00     0.074 A 
ATOM     45  C   UNL A   1      38.425  30.240  29.194  1.00  0.00     0.031 C 
ATOM     46  C   UNL A   1      37.710  34.314  34.712  1.00  0.00     0.029 A 
ATOM     47  C   UNL A   1      38.784  33.330  34.784  1.00  0.00     0.049 A 
ATOM     48  H   UNL A   1      39.364  31.976  33.311  1.00  0.00     0.167 HD
ATOM     49  C   UNL A   1      40.274  28.978  30.247  1.00  0.00     0.037 A 
ATOM     50  C   UNL A   1      39.592  33.132  35.842  1.00  0.00     0.037 A 
ATOM     51  C   UNL A   1      41.235  28.750  31.292  1.00  0.00     0.049 A 
ATOM     52  C   UNL A   1      40.659  32.074  35.763  1.00  0.00     0.074 A 
ATOM     53  C   UNL A   1      42.280  27.842  31.320  1.00  0.00     0.029 A 
ATOM     54  N   UNL A   1      41.277  29.449  32.489  1.00  0.00    -0.354 N 
ATOM     55  N   UNL A   1      40.929  31.243  34.787  1.00  0.00    -0.248 NA
ATOM     56  C   UNL A   1      41.538  31.932  36.932  1.00  0.00     0.031 C 
ATOM     57  C   UNL A   1      42.935  27.971  32.549  1.00  0.00     0.029 A 
ATOM     58  C   UNL A   1      42.324  28.985  33.268  1.00  0.00     0.049 A 
ATOM     59  H   UNL A   1      40.656  30.167  32.746  1.00  0.00     0.167 HD
ATOM     60  C   UNL A   1      42.019  30.498  35.211  1.00  0.00     0.074 A 
ATOM     61  C   UNL A   1      42.374  30.988  36.527  1.00  0.00     0.031 C 
ATOM     62  C   UNL A   1      42.668  29.495  34.571  1.00  0.00     0.037 A 
BRANCH  49  63
ATOM     63  C   UNL A   1      40.312  28.092  29.036  1.00  0.00     0.064 A 
ATOM     64  C   UNL A   1      41.058  28.433  27.897  1.00  0.00     0.173 A 
ATOM     65  C   UNL A   1      39.614  26.875  29.020  1.00  0.00     0.173 A 
ATOM     66  F   UNL A   1      41.734  29.592  27.856  1.00  0.00    -0.203 F 
ATOM     67  C   UNL A   1      41.076  27.608  26.776  1.00  0.00     0.198 A 
ATOM     68  C   UNL A   1      39.660  26.037  27.909  1.00  0.00     0.198 A 
ATOM     69  F   UNL A   1      38.890  26.497  30.084  1.00  0.00    -0.203 F 
ATOM     70  F   UNL A   1      41.750  27.984  25.681  1.00  0.00    -0.200 F 
ATOM     71  C   UNL A   1      40.382  26.407  26.785  1.00  0.00     0.200 A 
ATOM     72  F   UNL A   1      38.999  24.870  27.924  1.00  0.00    -0.200 F 
ATOM     73  F   UNL A   1      40.404  25.612  25.707  1.00  0.00    -0.200 F 
ENDBRANCH  49  63
BRANCH  50  74
ATOM     74  C   UNL A   1      39.454  33.983  37.053  1.00  0.00     0.064 A 
ATOM     75  C   UNL A   1      40.032  35.260  37.099  1.00  0.00     0.173 A 
ATOM     76  C   UNL A   1      38.752  33.544  38.184  1.00  0.00     0.173 A 
ATOM     77  F   UNL A   1      40.729  35.716  36.047  1.00  0.00    -0.203 F 
ATOM     78  C   UNL A   1      39.930  36.057  38.236  1.00  0.00     0.198 A 
ATOM     79  C   UNL A   1      38.629  34.352  39.313  1.00  0.00     0.198 A 
ATOM     80  F   UNL A   1      38.176  32.333  38.189  1.00  0.00    -0.203 F 
ATOM     81  F   UNL A   1      40.530  37.254  38.269  1.00  0.00    -0.200 F 
ATOM     82  C   UNL A   1      39.224  35.604  39.342  1.00  0.00     0.200 A 
ATOM     83  F   UNL A   1      37.935  33.918  40.373  1.00  0.00    -0.200 F 
ATOM     84  F   UNL A   1      39.126  36.372  40.435  1.00  0.00    -0.200 F 
ENDBRANCH  50  74
BRANCH  62  85
ATOM     85  C   UNL A   1      43.844  28.882  35.269  1.00  0.00     0.064 A 
ATOM     86  C   UNL A   1      45.147  29.358  35.064  1.00  0.00     0.173 A 
ATOM     87  C   UNL A   1      43.660  27.835  36.185  1.00  0.00     0.173 A 
ATOM     88  F   UNL A   1      45.374  30.347  34.186  1.00  0.00    -0.203 F 
ATOM     89  C   UNL A   1      46.227  28.793  35.735  1.00  0.00     0.198 A 
ATOM     90  C   UNL A   1      44.739  27.292  36.875  1.00  0.00     0.198 A 
ATOM     91  F   UNL A   1      42.433  27.350  36.420  1.00  0.00    -0.203 F 
ATOM     92  F   UNL A   1      47.470  29.235  35.492  1.00  0.00    -0.200 F 
ATOM     93  C   UNL A   1      46.023  27.766  36.645  1.00  0.00     0.200 A 
ATOM     94  F   UNL A   1      44.538  26.307  37.762  1.00  0.00    -0.200 F 
ATOM     95  F   UNL A   1      47.064  27.228  37.295  1.00  0.00    -0.200 F 
ENDBRANCH  62  85
ENDBRANCH  36  37
ENDBRANCH  28  31
ENDBRANCH  26  27
ENDBRANCH   1  26
TORSDOF 13
ENDMDL
MODEL 3
REMARK VINA RESULT:     -13.2      5.667     11.479
REMARK SMILES COc1cc(-c2cccc(C(N)=O)c2)ccc1C(=O)NCCCNC(=O)c1ccc(-c2c3nc(c(-c4c(F)c(F)c(F)c(F)c4F)c4ccc([nH]4)c(-c4c(F)c(F)c(F)c(F)c4F)c4nc(c(-c5c(F)c(F)c(F)c(F)c5F)c5ccc2[nH]5)C=C4)C=C3)cc1
REMARK SMILES IDX 22 1 21 2 20 3 18 4 19 5 17 7 3 8 4 9 5 10 16 11 15 12 2 13
REMARK SMILES IDX 1 14 6 15 7 16 14 17 8 18 10 19 9 20 11 21 12 22 13 23 23 26
REMARK SMILES IDX 24 27 25 28 26 30 27 31 28 32 89 33 29 34 88 35 30 36 31 37
REMARK SMILES IDX 32 38 82 39 33 40 87 41 81 42 83 43 34 44 86 45 80 46 79 47
REMARK SMILES IDX 35 49 67 50 47 51 66 52 48 53 51 54 65 55 84 56 49 57 50 58
REMARK SMILES IDX 64 60 85 61 52 62 36 63 37 64 45 65 38 66 39 67 43 68 46 69
REMARK SMILES IDX 40 70 41 71 44 72 42 73 68 74 69 75 77 76 70 77 71 78 75 79
REMARK SMILES IDX 78 80 72 81 73 82 76 83 74 84 53 85 54 86 62 87 55 88 56 89
REMARK SMILES IDX 60 90 63 91 57 92 58 93 61 94 59 95
REMARK H PARENT 20 6 12 24 12 25 24 29 83 48 51 59
REMARK Flexibility Score: inf
ROOT
ATOM      1  C   UNL A   1      38.195  19.622  25.035  1.00  0.00     0.042 C 
ENDROOT
BRANCH   1   2
ATOM      2  C   UNL A   1      37.122  20.691  24.963  1.00  0.00     0.118 C 
BRANCH   2   3
ATOM      3  N   UNL A   1      35.761  20.184  24.984  1.00  0.00    -0.352 N 
ATOM      4  C   UNL A   1      34.576  20.870  24.878  1.00  0.00     0.255 C 
ATOM      5  O   UNL A   1      33.526  20.230  24.861  1.00  0.00    -0.269 OA
ATOM      6  H   UNL A   1      35.677  19.209  25.088  1.00  0.00     0.163 HD
BRANCH   4   7
ATOM      7  C   UNL A   1      34.522  22.353  24.871  1.00  0.00     0.081 A 
ATOM      8  C   UNL A   1      34.412  23.169  26.000  1.00  0.00     0.132 A 
ATOM      9  C   UNL A   1      34.147  24.533  25.846  1.00  0.00     0.056 A 
ATOM     10  C   UNL A   1      34.074  25.134  24.579  1.00  0.00    -0.015 A 
ATOM     11  C   UNL A   1      34.546  22.955  23.602  1.00  0.00     0.018 A 
ATOM     12  C   UNL A   1      34.332  24.329  23.461  1.00  0.00     0.010 A 
BRANCH   8  13
ATOM     13  O   UNL A   1      34.421  22.729  27.294  1.00  0.00    -0.496 OA
ATOM     14  C   UNL A   1      33.111  22.483  27.799  1.00  0.00     0.278 C 
ENDBRANCH   8  13
BRANCH  10  15
ATOM     15  C   UNL A   1      33.656  26.540  24.450  1.00  0.00    -0.017 A 
ATOM     16  C   UNL A   1      33.337  27.099  23.204  1.00  0.00     0.009 A 
ATOM     17  C   UNL A   1      33.652  27.389  25.571  1.00  0.00     0.022 A 
ATOM     18  C   UNL A   1      33.050  28.460  23.077  1.00  0.00     0.001 A 
ATOM     19  C   UNL A   1      33.370  28.760  25.457  1.00  0.00     0.040 A 
ATOM     20  C   UNL A   1      33.071  29.291  24.197  1.00  0.00     0.014 A 
BRANCH  19  21
ATOM     21  C   UNL A   1      33.426  29.580  26.700  1.00  0.00     0.248 C 
ATOM     22  N   UNL A   1      33.652  28.955  27.892  1.00  0.00    -0.366 N 
ATOM     23  O   UNL A   1      33.262  30.797  26.672  1.00  0.00    -0.270 OA
ATOM     24  H   UNL A   1      33.784  27.980  27.918  1.00  0.00     0.159 HD
ATOM     25  H   UNL A   1      33.683  29.478  28.726  1.00  0.00     0.159 HD
ENDBRANCH  19  21
ENDBRANCH  10  15
ENDBRANCH   4   7
ENDBRANCH   2   3
ENDBRANCH   1   2
BRANCH   1  26
ATOM     26  C   UNL A   1      39.399  19.984  25.890  1.00  0.00     0.118 C 
BRANCH  26  27
ATOM     27  N   UNL A   1      40.462  18.987  25.896  1.00  0.00    -0.352 N 
ATOM     28  C   UNL A   1      41.821  19.075  26.094  1.00  0.00     0.251 C 
ATOM     29  H   UNL A   1      40.145  18.070  25.724  1.00  0.00     0.163 HD
ATOM     30  O   UNL A   1      42.512  18.071  25.962  1.00  0.00    -0.269 OA
BRANCH  28  31
ATOM     31  C   UNL A   1      42.472  20.368  26.411  1.00  0.00     0.039 A 
ATOM     32  C   UNL A   1      43.094  21.081  25.380  1.00  0.00     0.014 A 
ATOM     33  C   UNL A   1      42.483  20.889  27.701  1.00  0.00     0.014 A 
ATOM     34  C   UNL A   1      43.619  22.354  25.627  1.00  0.00     0.010 A 
ATOM     35  C   UNL A   1      42.873  22.206  27.916  1.00  0.00     0.010 A 
ATOM     36  C   UNL A   1      43.454  22.956  26.885  1.00  0.00    -0.014 A 
BRANCH  36  37
ATOM     37  C   UNL A   1      43.888  24.352  27.156  1.00  0.00     0.031 A 
ATOM     38  C   UNL A   1      42.898  25.367  27.668  1.00  0.00     0.074 A 
ATOM     39  C   UNL A   1      45.144  24.738  26.850  1.00  0.00     0.049 A 
ATOM     40  N   UNL A   1      43.042  26.657  27.839  1.00  0.00    -0.248 NA
ATOM     41  C   UNL A   1      41.547  24.873  27.984  1.00  0.00     0.031 C 
ATOM     42  C   UNL A   1      46.180  23.878  26.275  1.00  0.00     0.029 A 
ATOM     43  N   UNL A   1      45.759  25.960  26.969  1.00  0.00    -0.354 N 
ATOM     44  C   UNL A   1      41.797  27.128  28.235  1.00  0.00     0.074 A 
ATOM     45  C   UNL A   1      40.893  26.000  28.220  1.00  0.00     0.031 C 
ATOM     46  C   UNL A   1      47.310  24.588  26.126  1.00  0.00     0.029 A 
ATOM     47  C   UNL A   1      47.070  25.960  26.556  1.00  0.00     0.049 A 
ATOM     48  H   UNL A   1      45.304  26.760  27.317  1.00  0.00     0.167 HD
ATOM     49  C   UNL A   1      41.443  28.380  28.610  1.00  0.00     0.037 A 
ATOM     50  C   UNL A   1      47.975  26.956  26.527  1.00  0.00     0.037 A 
ATOM     51  C   UNL A   1      42.360  29.485  28.695  1.00  0.00     0.049 A 
ATOM     52  C   UNL A   1      47.574  28.325  27.008  1.00  0.00     0.074 A 
ATOM     53  C   UNL A   1      42.125  30.770  29.153  1.00  0.00     0.029 A 
ATOM     54  N   UNL A   1      43.696  29.429  28.325  1.00  0.00    -0.354 N 
ATOM     55  N   UNL A   1      46.412  28.739  27.449  1.00  0.00    -0.248 NA
ATOM     56  C   UNL A   1      48.615  29.362  26.993  1.00  0.00     0.031 C 
ATOM     57  C   UNL A   1      43.312  31.500  29.031  1.00  0.00     0.029 A 
ATOM     58  C   UNL A   1      44.295  30.660  28.535  1.00  0.00     0.049 A 
ATOM     59  H   UNL A   1      44.150  28.633  27.967  1.00  0.00     0.167 HD
ATOM     60  C   UNL A   1      46.586  30.074  27.785  1.00  0.00     0.074 A 
ATOM     61  C   UNL A   1      47.972  30.396  27.516  1.00  0.00     0.031 C 
ATOM     62  C   UNL A   1      45.679  30.956  28.271  1.00  0.00     0.037 A 
BRANCH  49  63
ATOM     63  C   UNL A   1      40.008  28.615  28.982  1.00  0.00     0.064 A 
ATOM     64  C   UNL A   1      39.540  28.394  30.287  1.00  0.00     0.173 A 
ATOM     65  C   UNL A   1      39.092  29.088  28.030  1.00  0.00     0.173 A 
ATOM     66  F   UNL A   1      40.372  27.929  31.232  1.00  0.00    -0.203 F 
ATOM     67  C   UNL A   1      38.204  28.604  30.616  1.00  0.00     0.198 A 
ATOM     68  C   UNL A   1      37.763  29.328  28.371  1.00  0.00     0.198 A 
ATOM     69  F   UNL A   1      39.487  29.322  26.770  1.00  0.00    -0.203 F 
ATOM     70  F   UNL A   1      37.770  28.331  31.854  1.00  0.00    -0.200 F 
ATOM     71  C   UNL A   1      37.318  29.077  29.660  1.00  0.00     0.200 A 
ATOM     72  F   UNL A   1      36.911  29.798  27.449  1.00  0.00    -0.200 F 
ATOM     73  F   UNL A   1      36.033  29.284  29.979  1.00  0.00    -0.200 F 
ENDBRANCH  49  63
BRANCH  50  74
ATOM     74  C   UNL A   1      49.362  26.688  26.067  1.00  0.00     0.064 A 
ATOM     75  C   UNL A   1      50.325  26.185  26.954  1.00  0.00     0.173 A 
ATOM     76  C   UNL A   1      49.758  26.931  24.744  1.00  0.00     0.173 A 
ATOM     77  F   UNL A   1      49.998  25.955  28.235  1.00  0.00    -0.203 F 
ATOM     78  C   UNL A   1      51.635  25.953  26.541  1.00  0.00     0.198 A 
ATOM     79  C   UNL A   1      51.062  26.675  24.325  1.00  0.00     0.198 A 
ATOM     80  F   UNL A   1      48.873  27.406  23.855  1.00  0.00    -0.203 F 
ATOM     81  F   UNL A   1      52.545  25.514  27.420  1.00  0.00    -0.200 F 
ATOM     82  C   UNL A   1      52.001  26.193  25.225  1.00  0.00     0.200 A 
ATOM     83  F   UNL A   1      51.409  26.895  23.050  1.00  0.00    -0.200 F 
ATOM     84  F   UNL A   1      53.261  25.969  24.827  1.00  0.00    -0.200 F 
ENDBRANCH  50  74
BRANCH  62  85
ATOM     85  C   UNL A   1      46.163  32.342  28.571  1.00  0.00     0.064 A 
ATOM     86  C   UNL A   1      46.686  32.680  29.828  1.00  0.00     0.173 A 
ATOM     87  C   UNL A   1      46.141  33.333  27.578  1.00  0.00     0.173 A 
ATOM     88  F   UNL A   1      46.713  31.771  30.814  1.00  0.00    -0.203 F 
ATOM     89  C   UNL A   1      47.151  33.967  30.085  1.00  0.00     0.198 A 
ATOM     90  C   UNL A   1      46.633  34.610  27.831  1.00  0.00     0.198 A 
ATOM     91  F   UNL A   1      45.656  33.058  26.358  1.00  0.00    -0.203 F 
ATOM     92  F   UNL A   1      47.608  34.279  31.306  1.00  0.00    -0.200 F 
ATOM     93  C   UNL A   1      47.131  34.928  29.086  1.00  0.00     0.200 A 
ATOM     94  F   UNL A   1      46.623  35.535  26.860  1.00  0.00    -0.200 F 
ATOM     95  F   UNL A   1      47.585  36.164  29.334  1.00  0.00    -0.200 F 
ENDBRANCH  62  85
ENDBRANCH  36  37
ENDBRANCH  28  31
ENDBRANCH  26  27
ENDBRANCH   1  26
TORSDOF 13
ENDMDL
