MODEL 1
REMARK VINA RESULT:     -11.8      0.000      0.000
REMARK SMILES COc1ccc2c(c1)[C@H]([NH2+][C@@H](C(=O)NCCCNC(=O)c1ccc(-c3c4nc(c(-c5c(F)c(F)c(F)c(F)c5F)c5ccc([nH]5)c(-c5c(F)c(F)c(F)c(F)c5F)c5nc(c(-c6c(F)c(F)c(F)c(F)c6F)c6ccc3[nH]6)C=C5)C=C4)cc1)C1CC1)CC2
REMARK SMILES IDX 15 1 14 2 12 3 13 4 11 6 10 7 9 10 3 11 4 12 8 13 5 14 7 15
REMARK SMILES IDX 6 16 88 17 87 18 2 19 1 20 84 21 85 22 86 23 16 24 17 25
REMARK SMILES IDX 18 26 19 27 20 29 21 30 22 31 83 32 23 33 82 34 24 35 25 36
REMARK SMILES IDX 26 37 76 38 27 39 81 40 75 41 77 42 28 43 80 44 74 45 73 46
REMARK SMILES IDX 29 48 61 49 41 50 60 51 42 52 45 53 59 54 78 55 43 56 44 57
REMARK SMILES IDX 58 59 79 60 46 61 30 62 31 63 39 64 32 65 33 66 37 67 40 68
REMARK SMILES IDX 34 69 35 70 38 71 36 72 62 73 63 74 71 75 64 76 65 77 69 78
REMARK SMILES IDX 72 79 66 80 67 81 70 82 68 83 47 84 48 85 56 86 49 87 50 88
REMARK SMILES IDX 54 89 57 90 51 91 52 92 55 93 53 94
REMARK H PARENT 14 5 10 8 10 9 18 28 77 47 45 58
REMARK Flexibility Score: inf
ROOT
ATOM      1  C   UNL A   1      36.710  20.966  24.856  1.00  0.00     0.118 C 
ENDROOT
BRANCH   1   2
ATOM      2  N   UNL A   1      36.012  21.177  26.108  1.00  0.00    -0.351 N 
ATOM      3  C   UNL A   1      34.676  21.405  26.299  1.00  0.00     0.278 C 
ATOM      4  O   UNL A   1      34.351  21.946  27.356  1.00  0.00    -0.268 OA
ATOM      5  H   UNL A   1      36.566  21.154  26.921  1.00  0.00     0.163 HD
BRANCH   3   6
ATOM      6  C   UNL A   1      33.680  20.940  25.203  1.00  0.00     0.276 C 
BRANCH   6   7
ATOM      7  N   UNL A   1      32.484  21.824  25.247  1.00  0.00    -0.330 N 
ATOM      8  H   UNL A   1      31.648  21.241  25.247  1.00  0.00     0.347 HD
ATOM      9  H   UNL A   1      32.552  22.390  26.094  1.00  0.00     0.347 HD
BRANCH   7  10
ATOM     10  C   UNL A   1      32.415  22.738  24.115  1.00  0.00     0.214 C 
ATOM     11  C   UNL A   1      33.398  26.230  25.346  1.00  0.00     0.119 A 
ATOM     12  C   UNL A   1      33.659  26.804  24.097  1.00  0.00     0.047 A 
ATOM     13  C   UNL A   1      33.101  24.877  25.463  1.00  0.00     0.056 A 
ATOM     14  C   UNL A   1      33.648  26.010  22.944  1.00  0.00     0.008 A 
ATOM     15  C   UNL A   1      32.977  24.121  24.313  1.00  0.00     0.016 A 
ATOM     16  C   UNL A   1      33.330  24.666  23.071  1.00  0.00    -0.038 A 
ATOM     17  C   UNL A   1      33.281  23.607  22.009  1.00  0.00     0.042 C 
ATOM     18  C   UNL A   1      33.233  22.327  22.875  1.00  0.00     0.075 C 
BRANCH  11  19
ATOM     19  O   UNL A   1      33.449  26.962  26.500  1.00  0.00    -0.497 OA
ATOM     20  C   UNL A   1      33.985  28.262  26.251  1.00  0.00     0.278 C 
ENDBRANCH  11  19
ENDBRANCH   7  10
ENDBRANCH   6   7
BRANCH   6  21
ATOM     21  C   UNL A   1      33.336  19.463  25.206  1.00  0.00     0.057 C 
ATOM     22  C   UNL A   1      32.548  18.805  24.096  1.00  0.00     0.011 C 
ATOM     23  C   UNL A   1      33.987  18.431  24.310  1.00  0.00     0.011 C 
ENDBRANCH   6  21
ENDBRANCH   3   6
ENDBRANCH   1   2
BRANCH   1  24
ATOM     24  C   UNL A   1      37.759  19.868  25.002  1.00  0.00     0.042 C 
BRANCH  24  25
ATOM     25  C   UNL A   1      39.014  20.309  25.750  1.00  0.00     0.118 C 
BRANCH  25  26
ATOM     26  N   UNL A   1      40.023  19.262  25.826  1.00  0.00    -0.352 N 
ATOM     27  C   UNL A   1      41.373  19.358  26.054  1.00  0.00     0.251 C 
ATOM     28  H   UNL A   1      39.685  18.347  25.694  1.00  0.00     0.163 HD
ATOM     29  O   UNL A   1      42.089  18.373  25.911  1.00  0.00    -0.269 OA
BRANCH  27  30
ATOM     30  C   UNL A   1      41.967  20.651  26.448  1.00  0.00     0.039 A 
ATOM     31  C   UNL A   1      42.383  21.531  25.446  1.00  0.00     0.014 A 
ATOM     32  C   UNL A   1      42.125  20.995  27.794  1.00  0.00     0.014 A 
ATOM     33  C   UNL A   1      42.897  22.782  25.792  1.00  0.00     0.010 A 
ATOM     34  C   UNL A   1      42.564  22.271  28.135  1.00  0.00     0.010 A 
ATOM     35  C   UNL A   1      42.956  23.177  27.138  1.00  0.00    -0.014 A 
BRANCH  35  36
ATOM     36  C   UNL A   1      43.415  24.538  27.518  1.00  0.00     0.031 A 
ATOM     37  C   UNL A   1      42.417  25.604  27.874  1.00  0.00     0.074 A 
ATOM     38  C   UNL A   1      44.731  24.827  27.486  1.00  0.00     0.049 A 
ATOM     39  N   UNL A   1      42.620  26.863  28.171  1.00  0.00    -0.248 NA
ATOM     40  C   UNL A   1      40.999  25.211  27.871  1.00  0.00     0.031 C 
ATOM     41  C   UNL A   1      45.793  23.892  27.114  1.00  0.00     0.029 A 
ATOM     42  N   UNL A   1      45.398  25.995  27.760  1.00  0.00    -0.354 N 
ATOM     43  C   UNL A   1      41.362  27.410  28.381  1.00  0.00     0.074 A 
ATOM     44  C   UNL A   1      40.397  26.365  28.122  1.00  0.00     0.031 C 
ATOM     45  C   UNL A   1      46.979  24.513  27.206  1.00  0.00     0.029 A 
ATOM     46  C   UNL A   1      46.760  25.902  27.599  1.00  0.00     0.049 A 
ATOM     47  H   UNL A   1      44.945  26.821  28.046  1.00  0.00     0.167 HD
ATOM     48  C   UNL A   1      41.041  28.665  28.777  1.00  0.00     0.037 A 
ATOM     49  C   UNL A   1      47.721  26.834  27.741  1.00  0.00     0.037 A 
ATOM     50  C   UNL A   1      42.006  29.699  29.050  1.00  0.00     0.049 A 
ATOM     51  C   UNL A   1      47.335  28.228  28.159  1.00  0.00     0.074 A 
ATOM     52  C   UNL A   1      41.785  30.987  29.507  1.00  0.00     0.029 A 
ATOM     53  N   UNL A   1      43.377  29.565  28.884  1.00  0.00    -0.354 N 
ATOM     54  N   UNL A   1      46.147  28.714  28.424  1.00  0.00    -0.248 NA
ATOM     55  C   UNL A   1      48.426  29.202  28.303  1.00  0.00     0.031 C 
ATOM     56  C   UNL A   1      43.016  31.649  29.563  1.00  0.00     0.029 A 
ATOM     57  C   UNL A   1      44.012  30.756  29.204  1.00  0.00     0.049 A 
ATOM     58  H   UNL A   1      43.832  28.745  28.583  1.00  0.00     0.167 HD
ATOM     59  C   UNL A   1      46.349  30.036  28.798  1.00  0.00     0.074 A 
ATOM     60  C   UNL A   1      47.777  30.271  28.741  1.00  0.00     0.031 C 
ATOM     61  C   UNL A   1      45.435  30.972  29.154  1.00  0.00     0.037 A 
BRANCH  48  62
ATOM     62  C   UNL A   1      39.586  28.995  28.943  1.00  0.00     0.064 A 
ATOM     63  C   UNL A   1      38.789  29.379  27.854  1.00  0.00     0.173 A 
ATOM     64  C   UNL A   1      38.966  28.879  30.198  1.00  0.00     0.173 A 
ATOM     65  F   UNL A   1      39.331  29.515  26.634  1.00  0.00    -0.203 F 
ATOM     66  C   UNL A   1      37.435  29.661  28.018  1.00  0.00     0.198 A 
ATOM     67  C   UNL A   1      37.606  29.130  30.353  1.00  0.00     0.198 A 
ATOM     68  F   UNL A   1      39.680  28.510  31.272  1.00  0.00    -0.203 F 
ATOM     69  F   UNL A   1      36.706  30.073  26.972  1.00  0.00    -0.200 F 
ATOM     70  C   UNL A   1      36.843  29.528  29.265  1.00  0.00     0.200 A 
ATOM     71  F   UNL A   1      37.032  28.985  31.554  1.00  0.00    -0.200 F 
ATOM     72  F   UNL A   1      35.537  29.789  29.420  1.00  0.00    -0.200 F 
ENDBRANCH  48  62
BRANCH  49  73
ATOM     73  C   UNL A   1      49.146  26.481  27.499  1.00  0.00     0.064 A 
ATOM     74  C   UNL A   1      50.025  26.257  28.569  1.00  0.00     0.173 A 
ATOM     75  C   UNL A   1      49.664  26.381  26.200  1.00  0.00     0.173 A 
ATOM     76  F   UNL A   1      49.582  26.360  29.831  1.00  0.00    -0.203 F 
ATOM     77  C   UNL A   1      51.372  25.977  28.349  1.00  0.00     0.198 A 
ATOM     78  C   UNL A   1      51.004  26.068  25.980  1.00  0.00     0.198 A 
ATOM     79  F   UNL A   1      48.866  26.580  25.140  1.00  0.00    -0.203 F 
ATOM     80  F   UNL A   1      52.200  25.825  29.391  1.00  0.00    -0.200 F 
ATOM     81  C   UNL A   1      51.859  25.877  27.055  1.00  0.00     0.200 A 
ATOM     82  F   UNL A   1      51.467  25.956  24.727  1.00  0.00    -0.200 F 
ATOM     83  F   UNL A   1      53.154  25.608  26.843  1.00  0.00    -0.200 F 
ENDBRANCH  49  73
BRANCH  61  84
ATOM     84  C   UNL A   1      45.953  32.323  29.557  1.00  0.00     0.064 A 
ATOM     85  C   UNL A   1      46.090  33.369  28.634  1.00  0.00     0.173 A 
ATOM     86  C   UNL A   1      46.280  32.585  30.897  1.00  0.00     0.173 A 
ATOM     87  F   UNL A   1      45.804  33.167  27.338  1.00  0.00    -0.203 F 
ATOM     88  C   UNL A   1      46.565  34.617  29.029  1.00  0.00     0.198 A 
ATOM     89  C   UNL A   1      46.720  33.844  31.296  1.00  0.00     0.198 A 
ATOM     90  F   UNL A   1      46.160  31.623  31.823  1.00  0.00    -0.203 F 
ATOM     91  F   UNL A   1      46.740  35.585  28.118  1.00  0.00    -0.200 F 
ATOM     92  C   UNL A   1      46.871  34.856  30.360  1.00  0.00     0.200 A 
ATOM     93  F   UNL A   1      47.000  34.077  32.585  1.00  0.00    -0.200 F 
ATOM     94  F   UNL A   1      47.320  36.060  30.741  1.00  0.00    -0.200 F 
ENDBRANCH  61  84
ENDBRANCH  35  36
ENDBRANCH  27  30
ENDBRANCH  25  26
ENDBRANCH  24  25
ENDBRANCH   1  24
TORSDOF 14
ENDMDL
MODEL 2
REMARK VINA RESULT:     -11.8      5.897     10.914
REMARK SMILES COc1ccc2c(c1)[C@H]([NH2+][C@@H](C(=O)NCCCNC(=O)c1ccc(-c3c4nc(c(-c5c(F)c(F)c(F)c(F)c5F)c5ccc([nH]5)c(-c5c(F)c(F)c(F)c(F)c5F)c5nc(c(-c6c(F)c(F)c(F)c(F)c6F)c6ccc3[nH]6)C=C5)C=C4)cc1)C1CC1)CC2
REMARK SMILES IDX 15 1 14 2 12 3 13 4 11 6 10 7 9 10 3 11 4 12 8 13 5 14 7 15
REMARK SMILES IDX 6 16 88 17 87 18 2 19 1 20 84 21 85 22 86 23 16 24 17 25
REMARK SMILES IDX 18 26 19 27 20 29 21 30 22 31 83 32 23 33 82 34 24 35 25 36
REMARK SMILES IDX 26 37 76 38 27 39 81 40 75 41 77 42 28 43 80 44 74 45 73 46
REMARK SMILES IDX 29 48 61 49 41 50 60 51 42 52 45 53 59 54 78 55 43 56 44 57
REMARK SMILES IDX 58 59 79 60 46 61 30 62 31 63 39 64 32 65 33 66 37 67 40 68
REMARK SMILES IDX 34 69 35 70 38 71 36 72 62 73 63 74 71 75 64 76 65 77 69 78
REMARK SMILES IDX 72 79 66 80 67 81 70 82 68 83 47 84 48 85 56 86 49 87 50 88
REMARK SMILES IDX 54 89 57 90 51 91 52 92 55 93 53 94
REMARK H PARENT 14 5 10 8 10 9 18 28 77 47 45 58
REMARK Flexibility Score: inf
ROOT
ATOM      1  C   UNL A   1      31.788  30.769  26.065  1.00  0.00     0.118 C 
ENDROOT
BRANCH   1   2
ATOM      2  N   UNL A   1      31.568  29.636  26.941  1.00  0.00    -0.351 N 
ATOM      3  C   UNL A   1      31.798  28.313  26.679  1.00  0.00     0.278 C 
ATOM      4  O   UNL A   1      31.188  27.496  27.370  1.00  0.00    -0.268 OA
ATOM      5  H   UNL A   1      31.210  29.843  27.834  1.00  0.00     0.163 HD
BRANCH   3   6
ATOM      6  C   UNL A   1      32.820  27.942  25.571  1.00  0.00     0.276 C 
BRANCH   6   7
ATOM      7  N   UNL A   1      32.097  27.849  24.274  1.00  0.00    -0.330 N 
ATOM      8  H   UNL A   1      32.251  28.711  23.751  1.00  0.00     0.347 HD
ATOM      9  H   UNL A   1      32.460  27.035  23.778  1.00  0.00     0.347 HD
BRANCH   7  10
ATOM     10  C   UNL A   1      30.662  27.657  24.439  1.00  0.00     0.214 C 
ATOM     11  C   UNL A   1      28.867  30.543  22.673  1.00  0.00     0.119 A 
ATOM     12  C   UNL A   1      27.597  29.959  22.598  1.00  0.00     0.047 A 
ATOM     13  C   UNL A   1      29.957  29.825  23.148  1.00  0.00     0.056 A 
ATOM     14  C   UNL A   1      27.416  28.625  22.983  1.00  0.00     0.008 A 
ATOM     15  C   UNL A   1      29.752  28.548  23.635  1.00  0.00     0.016 A 
ATOM     16  C   UNL A   1      28.507  27.926  23.475  1.00  0.00    -0.038 A 
ATOM     17  C   UNL A   1      28.584  26.494  23.919  1.00  0.00     0.042 C 
ATOM     18  C   UNL A   1      30.116  26.290  23.982  1.00  0.00     0.075 C 
BRANCH  11  19
ATOM     19  O   UNL A   1      29.094  31.827  22.259  1.00  0.00    -0.497 OA
ATOM     20  C   UNL A   1      28.142  32.214  21.268  1.00  0.00     0.278 C 
ENDBRANCH  11  19
ENDBRANCH   7  10
ENDBRANCH   6   7
BRANCH   6  21
ATOM     21  C   UNL A   1      33.698  26.739  25.857  1.00  0.00     0.057 C 
ATOM     22  C   UNL A   1      33.155  25.328  25.919  1.00  0.00     0.011 C 
ATOM     23  C   UNL A   1      34.106  25.712  24.822  1.00  0.00     0.011 C 
ENDBRANCH   6  21
ENDBRANCH   3   6
ENDBRANCH   1   2
BRANCH   1  24
ATOM     24  C   UNL A   1      31.497  32.078  26.793  1.00  0.00     0.042 C 
BRANCH  24  25
ATOM     25  C   UNL A   1      32.750  32.838  27.220  1.00  0.00     0.118 C 
BRANCH  25  26
ATOM     26  N   UNL A   1      32.465  34.201  27.644  1.00  0.00    -0.352 N 
ATOM     27  C   UNL A   1      33.021  34.940  28.660  1.00  0.00     0.251 C 
ATOM     28  H   UNL A   1      31.770  34.664  27.124  1.00  0.00     0.163 HD
ATOM     29  O   UNL A   1      32.528  36.017  28.974  1.00  0.00    -0.269 OA
BRANCH  27  30
ATOM     30  C   UNL A   1      34.198  34.426  29.390  1.00  0.00     0.039 A 
ATOM     31  C   UNL A   1      33.999  33.779  30.612  1.00  0.00     0.014 A 
ATOM     32  C   UNL A   1      35.491  34.586  28.883  1.00  0.00     0.014 A 
ATOM     33  C   UNL A   1      35.089  33.237  31.295  1.00  0.00     0.010 A 
ATOM     34  C   UNL A   1      36.566  33.978  29.525  1.00  0.00     0.010 A 
ATOM     35  C   UNL A   1      36.377  33.299  30.738  1.00  0.00    -0.014 A 
BRANCH  35  36
ATOM     36  C   UNL A   1      37.533  32.648  31.407  1.00  0.00     0.031 A 
ATOM     37  C   UNL A   1      38.253  31.509  30.740  1.00  0.00     0.074 A 
ATOM     38  C   UNL A   1      37.896  33.048  32.641  1.00  0.00     0.049 A 
ATOM     39  N   UNL A   1      39.241  30.778  31.190  1.00  0.00    -0.248 NA
ATOM     40  C   UNL A   1      37.785  31.124  29.399  1.00  0.00     0.031 C 
ATOM     41  C   UNL A   1      37.248  34.111  33.411  1.00  0.00     0.029 A 
ATOM     42  N   UNL A   1      38.893  32.599  33.471  1.00  0.00    -0.354 N 
ATOM     43  C   UNL A   1      39.505  29.846  30.196  1.00  0.00     0.074 A 
ATOM     44  C   UNL A   1      38.538  30.064  29.143  1.00  0.00     0.031 C 
ATOM     45  C   UNL A   1      37.878  34.249  34.588  1.00  0.00     0.029 A 
ATOM     46  C   UNL A   1      38.944  33.256  34.677  1.00  0.00     0.049 A 
ATOM     47  H   UNL A   1      39.514  31.875  33.226  1.00  0.00     0.167 HD
ATOM     48  C   UNL A   1      40.481  28.907  30.155  1.00  0.00     0.037 A 
ATOM     49  C   UNL A   1      39.751  33.070  35.738  1.00  0.00     0.037 A 
ATOM     50  C   UNL A   1      41.452  28.703  31.199  1.00  0.00     0.049 A 
ATOM     51  C   UNL A   1      40.812  32.004  35.675  1.00  0.00     0.074 A 
ATOM     52  C   UNL A   1      42.512  27.813  31.228  1.00  0.00     0.029 A 
ATOM     53  N   UNL A   1      41.477  29.393  32.401  1.00  0.00    -0.354 N 
ATOM     54  N   UNL A   1      41.098  31.176  34.700  1.00  0.00    -0.248 NA
ATOM     55  C   UNL A   1      41.667  31.851  36.860  1.00  0.00     0.031 C 
ATOM     56  C   UNL A   1      43.144  27.926  32.471  1.00  0.00     0.029 A 
ATOM     57  C   UNL A   1      42.518  28.931  33.192  1.00  0.00     0.049 A 
ATOM     58  H   UNL A   1      40.847  30.106  32.657  1.00  0.00     0.167 HD
ATOM     59  C   UNL A   1      42.183  30.430  35.139  1.00  0.00     0.074 A 
ATOM     60  C   UNL A   1      42.515  30.914  36.462  1.00  0.00     0.031 C 
ATOM     61  C   UNL A   1      42.844  29.430  34.503  1.00  0.00     0.037 A 
BRANCH  48  62
ATOM     62  C   UNL A   1      40.552  28.027  28.940  1.00  0.00     0.064 A 
ATOM     63  C   UNL A   1      39.819  26.834  28.851  1.00  0.00     0.173 A 
ATOM     64  C   UNL A   1      41.326  28.402  27.831  1.00  0.00     0.173 A 
ATOM     65  F   UNL A   1      39.070  26.422  29.885  1.00  0.00    -0.203 F 
ATOM     66  C   UNL A   1      39.877  26.037  27.710  1.00  0.00     0.198 A 
ATOM     67  C   UNL A   1      41.357  27.621  26.679  1.00  0.00     0.198 A 
ATOM     68  F   UNL A   1      42.043  29.536  27.859  1.00  0.00    -0.203 F 
ATOM     69  F   UNL A   1      39.206  24.878  27.668  1.00  0.00    -0.200 F 
ATOM     70  C   UNL A   1      40.640  26.436  26.622  1.00  0.00     0.200 A 
ATOM     71  F   UNL A   1      42.081  28.015  25.623  1.00  0.00    -0.200 F 
ATOM     72  F   UNL A   1      40.686  25.675  25.520  1.00  0.00    -0.200 F 
ENDBRANCH  48  62
BRANCH  49  73
ATOM     73  C   UNL A   1      39.600  33.921  36.950  1.00  0.00     0.064 A 
ATOM     74  C   UNL A   1      38.841  33.487  38.046  1.00  0.00     0.173 A 
ATOM     75  C   UNL A   1      40.193  35.190  37.030  1.00  0.00     0.173 A 
ATOM     76  F   UNL A   1      38.238  32.289  38.010  1.00  0.00    -0.203 F 
ATOM     77  C   UNL A   1      38.655  34.302  39.161  1.00  0.00     0.198 A 
ATOM     78  C   UNL A   1      40.034  35.990  38.160  1.00  0.00     0.198 A 
ATOM     79  F   UNL A   1      40.934  35.651  36.011  1.00  0.00    -0.203 F 
ATOM     80  F   UNL A   1      37.877  33.885  40.169  1.00  0.00    -0.200 F 
ATOM     81  C   UNL A   1      39.256  35.549  39.219  1.00  0.00     0.200 A 
ATOM     82  F   UNL A   1      40.630  37.188  38.218  1.00  0.00    -0.200 F 
ATOM     83  F   UNL A   1      39.077  36.332  40.292  1.00  0.00    -0.200 F 
ENDBRANCH  49  73
BRANCH  61  84
ATOM     84  C   UNL A   1      44.024  28.825  35.210  1.00  0.00     0.064 A 
ATOM     85  C   UNL A   1      43.883  27.747  36.094  1.00  0.00     0.173 A 
ATOM     86  C   UNL A   1      45.319  29.309  34.967  1.00  0.00     0.173 A 
ATOM     87  F   UNL A   1      42.665  27.256  36.372  1.00  0.00    -0.203 F 
ATOM     88  C   UNL A   1      44.991  27.196  36.734  1.00  0.00     0.198 A 
ATOM     89  C   UNL A   1      46.428  28.733  35.580  1.00  0.00     0.198 A 
ATOM     90  F   UNL A   1      45.511  30.334  34.124  1.00  0.00    -0.203 F 
ATOM     91  F   UNL A   1      44.825  26.201  37.618  1.00  0.00    -0.200 F 
ATOM     92  C   UNL A   1      46.262  27.683  36.470  1.00  0.00     0.200 A 
ATOM     93  F   UNL A   1      47.656  29.195  35.311  1.00  0.00    -0.200 F 
ATOM     94  F   UNL A   1      47.327  27.145  37.080  1.00  0.00    -0.200 F 
ENDBRANCH  61  84
ENDBRANCH  35  36
ENDBRANCH  27  30
ENDBRANCH  25  26
ENDBRANCH  24  25
ENDBRANCH   1  24
TORSDOF 14
ENDMDL
MODEL 3
REMARK VINA RESULT:     -11.7      3.444      7.868
REMARK SMILES COc1ccc2c(c1)[C@H]([NH2+][C@@H](C(=O)NCCCNC(=O)c1ccc(-c3c4nc(c(-c5c(F)c(F)c(F)c(F)c5F)c5ccc([nH]5)c(-c5c(F)c(F)c(F)c(F)c5F)c5nc(c(-c6c(F)c(F)c(F)c(F)c6F)c6ccc3[nH]6)C=C5)C=C4)cc1)C1CC1)CC2
REMARK SMILES IDX 15 1 14 2 12 3 13 4 11 6 10 7 9 10 3 11 4 12 8 13 5 14 7 15
REMARK SMILES IDX 6 16 88 17 87 18 2 19 1 20 84 21 85 22 86 23 16 24 17 25
REMARK SMILES IDX 18 26 19 27 20 29 21 30 22 31 83 32 23 33 82 34 24 35 25 36
REMARK SMILES IDX 26 37 76 38 27 39 81 40 75 41 77 42 28 43 80 44 74 45 73 46
REMARK SMILES IDX 29 48 61 49 41 50 60 51 42 52 45 53 59 54 78 55 43 56 44 57
REMARK SMILES IDX 58 59 79 60 46 61 30 62 31 63 39 64 32 65 33 66 37 67 40 68
REMARK SMILES IDX 34 69 35 70 38 71 36 72 62 73 63 74 71 75 64 76 65 77 69 78
REMARK SMILES IDX 72 79 66 80 67 81 70 82 68 83 47 84 48 85 56 86 49 87 50 88
REMARK SMILES IDX 54 89 57 90 51 91 52 92 55 93 53 94
REMARK H PARENT 14 5 10 8 10 9 18 28 77 47 45 58
REMARK Flexibility Score: inf
ROOT
ATOM      1  C   UNL A   1      33.417  29.333  24.869  1.00  0.00     0.118 C 
ENDROOT
BRANCH   1   2
ATOM      2  N   UNL A   1      33.738  29.040  23.486  1.00  0.00    -0.351 N 
ATOM      3  C   UNL A   1      33.209  28.061  22.689  1.00  0.00     0.278 C 
ATOM      4  O   UNL A   1      33.876  27.720  21.711  1.00  0.00    -0.268 OA
ATOM      5  H   UNL A   1      34.419  29.614  23.069  1.00  0.00     0.163 HD
BRANCH   3   6
ATOM      6  C   UNL A   1      31.813  27.485  23.049  1.00  0.00     0.276 C 
BRANCH   6   7
ATOM      7  N   UNL A   1      31.822  26.022  22.777  1.00  0.00    -0.330 N 
ATOM      8  H   UNL A   1      30.994  25.787  22.230  1.00  0.00     0.347 HD
ATOM      9  H   UNL A   1      32.683  25.809  22.273  1.00  0.00     0.347 HD
BRANCH   7  10
ATOM     10  C   UNL A   1      31.818  25.221  23.994  1.00  0.00     0.214 C 
ATOM     11  C   UNL A   1      35.305  23.696  24.422  1.00  0.00     0.119 A 
ATOM     12  C   UNL A   1      35.197  23.352  25.774  1.00  0.00     0.047 A 
ATOM     13  C   UNL A   1      34.302  24.415  23.784  1.00  0.00     0.056 A 
ATOM     14  C   UNL A   1      34.077  23.753  26.511  1.00  0.00     0.008 A 
ATOM     15  C   UNL A   1      33.147  24.709  24.484  1.00  0.00     0.016 A 
ATOM     16  C   UNL A   1      33.073  24.452  25.859  1.00  0.00    -0.038 A 
ATOM     17  C   UNL A   1      31.802  25.017  26.422  1.00  0.00     0.042 C 
ATOM     18  C   UNL A   1      31.362  25.953  25.271  1.00  0.00     0.075 C 
BRANCH  11  19
ATOM     19  O   UNL A   1      36.407  23.365  23.681  1.00  0.00    -0.497 OA
ATOM     20  C   UNL A   1      37.115  22.282  24.284  1.00  0.00     0.278 C 
ENDBRANCH  11  19
ENDBRANCH   7  10
ENDBRANCH   6   7
BRANCH   6  21
ATOM     21  C   UNL A   1      30.625  28.202  22.438  1.00  0.00     0.057 C 
ATOM     22  C   UNL A   1      29.238  28.145  23.039  1.00  0.00     0.011 C 
ATOM     23  C   UNL A   1      29.986  29.447  23.016  1.00  0.00     0.011 C 
ENDBRANCH   6  21
ENDBRANCH   3   6
ENDBRANCH   1   2
BRANCH   1  24
ATOM     24  C   UNL A   1      34.077  28.321  25.800  1.00  0.00     0.042 C 
BRANCH  24  25
ATOM     25  C   UNL A   1      33.745  28.532  27.275  1.00  0.00     0.118 C 
BRANCH  25  26
ATOM     26  N   UNL A   1      33.687  29.939  27.644  1.00  0.00    -0.352 N 
ATOM     27  C   UNL A   1      34.615  30.716  28.291  1.00  0.00     0.251 C 
ATOM     28  H   UNL A   1      32.857  30.403  27.391  1.00  0.00     0.163 HD
ATOM     29  O   UNL A   1      34.314  31.843  28.667  1.00  0.00    -0.269 OA
BRANCH  27  30
ATOM     30  C   UNL A   1      35.968  30.186  28.556  1.00  0.00     0.039 A 
ATOM     31  C   UNL A   1      36.934  30.281  27.552  1.00  0.00     0.014 A 
ATOM     32  C   UNL A   1      36.285  29.589  29.780  1.00  0.00     0.014 A 
ATOM     33  C   UNL A   1      38.235  29.837  27.797  1.00  0.00     0.010 A 
ATOM     34  C   UNL A   1      37.599  29.219  30.050  1.00  0.00     0.010 A 
ATOM     35  C   UNL A   1      38.588  29.337  29.061  1.00  0.00    -0.014 A 
BRANCH  35  36
ATOM     36  C   UNL A   1      39.987  28.945  29.367  1.00  0.00     0.031 A 
ATOM     37  C   UNL A   1      40.879  29.866  30.154  1.00  0.00     0.074 A 
ATOM     38  C   UNL A   1      40.471  27.784  28.885  1.00  0.00     0.049 A 
ATOM     39  N   UNL A   1      42.142  29.727  30.467  1.00  0.00    -0.248 NA
ATOM     40  C   UNL A   1      40.278  31.121  30.631  1.00  0.00     0.031 C 
ATOM     41  C   UNL A   1      39.720  26.827  28.072  1.00  0.00     0.029 A 
ATOM     42  N   UNL A   1      41.715  27.215  29.001  1.00  0.00    -0.354 N 
ATOM     43  C   UNL A   1      42.487  30.875  31.167  1.00  0.00     0.074 A 
ATOM     44  C   UNL A   1      41.319  31.727  31.184  1.00  0.00     0.031 C 
ATOM     45  C   UNL A   1      40.508  25.781  27.782  1.00  0.00     0.029 A 
ATOM     46  C   UNL A   1      41.833  26.011  28.349  1.00  0.00     0.049 A 
ATOM     47  H   UNL A   1      42.454  27.630  29.503  1.00  0.00     0.167 HD
ATOM     48  C   UNL A   1      43.665  31.181  31.762  1.00  0.00     0.037 A 
ATOM     49  C   UNL A   1      42.893  25.192  28.214  1.00  0.00     0.037 A 
ATOM     50  C   UNL A   1      44.821  30.322  31.756  1.00  0.00     0.049 A 
ATOM     51  C   UNL A   1      44.198  25.568  28.865  1.00  0.00     0.074 A 
ATOM     52  C   UNL A   1      46.045  30.518  32.374  1.00  0.00     0.029 A 
ATOM     53  N   UNL A   1      44.900  29.106  31.092  1.00  0.00    -0.354 N 
ATOM     54  N   UNL A   1      44.491  26.623  29.585  1.00  0.00    -0.248 NA
ATOM     55  C   UNL A   1      45.318  24.633  28.690  1.00  0.00     0.031 C 
ATOM     56  C   UNL A   1      46.881  29.448  32.038  1.00  0.00     0.029 A 
ATOM     57  C   UNL A   1      46.160  28.554  31.265  1.00  0.00     0.049 A 
ATOM     58  H   UNL A   1      44.169  28.696  30.575  1.00  0.00     0.167 HD
ATOM     59  C   UNL A   1      45.813  26.464  29.975  1.00  0.00     0.074 A 
ATOM     60  C   UNL A   1      46.261  25.202  29.426  1.00  0.00     0.031 C 
ATOM     61  C   UNL A   1      46.589  27.290  30.721  1.00  0.00     0.037 A 
BRANCH  48  62
ATOM     62  C   UNL A   1      43.767  32.499  32.473  1.00  0.00     0.064 A 
ATOM     63  C   UNL A   1      44.109  33.678  31.793  1.00  0.00     0.173 A 
ATOM     64  C   UNL A   1      43.472  32.596  33.842  1.00  0.00     0.173 A 
ATOM     65  F   UNL A   1      44.410  33.642  30.486  1.00  0.00    -0.203 F 
ATOM     66  C   UNL A   1      44.179  34.898  32.461  1.00  0.00     0.198 A 
ATOM     67  C   UNL A   1      43.510  33.822  34.500  1.00  0.00     0.198 A 
ATOM     68  F   UNL A   1      43.133  31.502  34.540  1.00  0.00    -0.203 F 
ATOM     69  F   UNL A   1      44.556  36.002  31.801  1.00  0.00    -0.200 F 
ATOM     70  C   UNL A   1      43.871  34.971  33.811  1.00  0.00     0.200 A 
ATOM     71  F   UNL A   1      43.197  33.894  35.800  1.00  0.00    -0.200 F 
ATOM     72  F   UNL A   1      43.928  36.148  34.451  1.00  0.00    -0.200 F 
ENDBRANCH  48  62
BRANCH  49  73
ATOM     73  C   UNL A   1      42.767  23.927  27.442  1.00  0.00     0.064 A 
ATOM     74  C   UNL A   1      42.341  22.743  28.061  1.00  0.00     0.173 A 
ATOM     75  C   UNL A   1      43.087  23.868  26.077  1.00  0.00     0.173 A 
ATOM     76  F   UNL A   1      42.042  22.743  29.369  1.00  0.00    -0.203 F 
ATOM     77  C   UNL A   1      42.270  21.544  27.354  1.00  0.00     0.198 A 
ATOM     78  C   UNL A   1      42.983  22.676  25.363  1.00  0.00     0.198 A 
ATOM     79  F   UNL A   1      43.493  24.973  25.434  1.00  0.00    -0.203 F 
ATOM     80  F   UNL A   1      41.917  20.417  27.987  1.00  0.00    -0.200 F 
ATOM     81  C   UNL A   1      42.586  21.513  26.005  1.00  0.00     0.200 A 
ATOM     82  F   UNL A   1      43.274  22.654  24.055  1.00  0.00    -0.200 F 
ATOM     83  F   UNL A   1      42.517  20.360  25.325  1.00  0.00    -0.200 F 
ENDBRANCH  49  73
BRANCH  61  84
ATOM     84  C   UNL A   1      47.987  26.834  31.026  1.00  0.00     0.064 A 
ATOM     85  C   UNL A   1      48.274  26.007  32.121  1.00  0.00     0.173 A 
ATOM     86  C   UNL A   1      49.051  27.201  30.187  1.00  0.00     0.173 A 
ATOM     87  F   UNL A   1      47.296  25.638  32.963  1.00  0.00    -0.203 F 
ATOM     88  C   UNL A   1      49.576  25.589  32.383  1.00  0.00     0.198 A 
ATOM     89  C   UNL A   1      50.346  26.753  30.430  1.00  0.00     0.198 A 
ATOM     90  F   UNL A   1      48.831  27.986  29.121  1.00  0.00    -0.203 F 
ATOM     91  F   UNL A   1      49.834  24.844  33.467  1.00  0.00    -0.200 F 
ATOM     92  C   UNL A   1      50.609  25.955  31.533  1.00  0.00     0.200 A 
ATOM     93  F   UNL A   1      51.339  27.095  29.598  1.00  0.00    -0.200 F 
ATOM     94  F   UNL A   1      51.861  25.545  31.781  1.00  0.00    -0.200 F 
ENDBRANCH  61  84
ENDBRANCH  35  36
ENDBRANCH  27  30
ENDBRANCH  25  26
ENDBRANCH  24  25
ENDBRANCH   1  24
TORSDOF 14
ENDMDL
