MODEL 1
REMARK VINA RESULT:     -12.1      0.000      0.000
REMARK SMILES O=C(Cc1cccn(C(F)F)c1=O)NCCCNC(=O)c1ccc(-c2c3nc(c(-c4c(F)c(F)c(F)c(F)c4F)c4ccc([nH]4)c(-c4c(F)c(F)c(F)c(F)c4F)c4nc(c(-c5c(F)c(F)c(F)c(F)c5F)c5ccc2[nH]5)C=C4)C=C3)cc1
REMARK SMILES IDX 16 1 15 2 14 3 1 4 2 5 3 7 4 8 5 9 12 10 6 11 8 12 13 13
REMARK SMILES IDX 7 14 9 15 10 16 11 17 17 18 18 19 19 20 20 22 21 23 22 24
REMARK SMILES IDX 83 25 23 26 82 27 24 28 25 29 26 30 76 31 27 32 81 33 75 34
REMARK SMILES IDX 77 35 28 36 80 37 74 38 73 39 29 41 61 42 41 43 60 44 42 45
REMARK SMILES IDX 45 46 59 47 78 48 43 49 44 50 58 52 79 53 46 54 30 55 31 56
REMARK SMILES IDX 39 57 32 58 33 59 37 60 40 61 34 62 35 63 38 64 36 65 62 66
REMARK SMILES IDX 63 67 71 68 64 69 65 70 69 71 72 72 66 73 67 74 70 75 68 76
REMARK SMILES IDX 47 77 48 78 56 79 49 80 50 81 54 82 57 83 51 84 52 85 55 86
REMARK SMILES IDX 53 87
REMARK H PARENT 14 6 18 21 77 40 45 51
REMARK Flexibility Score: inf
ROOT
ATOM      1  C   UNL A   1      31.563  32.126  26.830  1.00  0.00     0.042 C 
ENDROOT
BRANCH   1   2
ATOM      2  C   UNL A   1      31.864  30.638  26.731  1.00  0.00     0.117 C 
BRANCH   2   3
ATOM      3  N   UNL A   1      31.682  30.125  25.389  1.00  0.00    -0.356 N 
ATOM      4  O   UNL A   1      33.713  29.058  25.250  1.00  0.00    -0.275 OA
ATOM      5  C   UNL A   1      32.618  29.327  24.766  1.00  0.00     0.224 C 
ATOM      6  H   UNL A   1      30.857  30.354  24.904  1.00  0.00     0.163 HD
BRANCH   5   7
ATOM      7  C   UNL A   1      32.182  28.791  23.411  1.00  0.00     0.141 C 
BRANCH   7   8
ATOM      8  C   UNL A   1      30.854  28.091  23.515  1.00  0.00     0.027 A 
ATOM      9  C   UNL A   1      30.710  26.808  23.890  1.00  0.00     0.011 A 
ATOM     10  C   UNL A   1      29.624  28.896  23.208  1.00  0.00     0.258 A 
ATOM     11  C   UNL A   1      29.410  26.202  24.005  1.00  0.00     0.019 A 
ATOM     12  N   UNL A   1      28.417  28.225  23.288  1.00  0.00    -0.258 N 
ATOM     13  O   UNL A   1      29.723  30.087  22.923  1.00  0.00    -0.269 OA
ATOM     14  C   UNL A   1      28.317  26.909  23.697  1.00  0.00     0.095 A 
BRANCH  12  15
ATOM     15  C   UNL A   1      27.218  28.952  22.955  1.00  0.00     0.451 C 
ATOM     16  F   UNL A   1      26.129  28.254  23.376  1.00  0.00    -0.185 F 
ATOM     17  F   UNL A   1      27.200  30.130  23.632  1.00  0.00    -0.185 F 
ENDBRANCH  12  15
ENDBRANCH   7   8
ENDBRANCH   5   7
ENDBRANCH   2   3
ENDBRANCH   1   2
BRANCH   1  18
ATOM     18  C   UNL A   1      32.775  33.000  27.134  1.00  0.00     0.118 C 
BRANCH  18  19
ATOM     19  N   UNL A   1      32.433  34.310  27.673  1.00  0.00    -0.352 N 
ATOM     20  C   UNL A   1      32.999  35.027  28.700  1.00  0.00     0.251 C 
ATOM     21  H   UNL A   1      31.672  34.752  27.232  1.00  0.00     0.163 HD
ATOM     22  O   UNL A   1      32.475  36.078  29.065  1.00  0.00    -0.269 OA
BRANCH  20  23
ATOM     23  C   UNL A   1      34.206  34.532  29.399  1.00  0.00     0.039 A 
ATOM     24  C   UNL A   1      35.485  34.732  28.879  1.00  0.00     0.014 A 
ATOM     25  C   UNL A   1      34.050  33.848  30.610  1.00  0.00     0.014 A 
ATOM     26  C   UNL A   1      36.578  34.096  29.463  1.00  0.00     0.010 A 
ATOM     27  C   UNL A   1      35.161  33.284  31.245  1.00  0.00     0.010 A 
ATOM     28  C   UNL A   1      36.428  33.354  30.645  1.00  0.00    -0.014 A 
BRANCH  28  29
ATOM     29  C   UNL A   1      37.598  32.639  31.222  1.00  0.00     0.031 A 
ATOM     30  C   UNL A   1      38.092  32.968  32.605  1.00  0.00     0.074 A 
ATOM     31  C   UNL A   1      38.183  31.648  30.521  1.00  0.00     0.049 A 
ATOM     32  N   UNL A   1      39.083  32.436  33.279  1.00  0.00    -0.248 NA
ATOM     33  C   UNL A   1      37.388  34.036  33.332  1.00  0.00     0.031 C 
ATOM     34  C   UNL A   1      37.792  31.224  29.177  1.00  0.00     0.029 A 
ATOM     35  N   UNL A   1      39.214  30.802  30.850  1.00  0.00    -0.354 N 
ATOM     36  C   UNL A   1      39.126  33.109  34.492  1.00  0.00     0.074 A 
ATOM     37  C   UNL A   1      38.087  34.115  34.454  1.00  0.00     0.031 C 
ATOM     38  C   UNL A   1      38.536  30.168  28.816  1.00  0.00     0.029 A 
ATOM     39  C   UNL A   1      39.494  29.875  29.877  1.00  0.00     0.049 A 
ATOM     40  H   UNL A   1      39.704  30.856  31.702  1.00  0.00     0.167 HD
ATOM     41  C   UNL A   1      39.944  32.896  35.550  1.00  0.00     0.037 A 
ATOM     42  C   UNL A   1      40.425  28.902  29.838  1.00  0.00     0.037 A 
ATOM     43  C   UNL A   1      40.962  31.878  35.602  1.00  0.00     0.049 A 
ATOM     44  C   UNL A   1      41.352  28.720  31.007  1.00  0.00     0.074 A 
ATOM     45  C   UNL A   1      41.822  31.573  36.643  1.00  0.00     0.029 A 
ATOM     46  N   UNL A   1      41.253  30.998  34.572  1.00  0.00    -0.354 N 
ATOM     47  N   UNL A   1      41.374  29.357  32.150  1.00  0.00    -0.248 NA
ATOM     48  C   UNL A   1      42.391  27.688  30.874  1.00  0.00     0.031 C 
ATOM     49  C   UNL A   1      42.662  30.535  36.227  1.00  0.00     0.029 A 
ATOM     50  C   UNL A   1      42.295  30.163  34.944  1.00  0.00     0.049 A 
ATOM     51  H   UNL A   1      40.789  30.970  33.704  1.00  0.00     0.167 HD
ATOM     52  C   UNL A   1      42.415  28.799  32.878  1.00  0.00     0.074 A 
ATOM     53  C   UNL A   1      42.989  27.755  32.055  1.00  0.00     0.031 C 
ATOM     54  C   UNL A   1      42.858  29.128  34.116  1.00  0.00     0.037 A 
BRANCH  41  55
ATOM     55  C   UNL A   1      39.780  33.779  36.754  1.00  0.00     0.064 A 
ATOM     56  C   UNL A   1      40.412  35.029  36.837  1.00  0.00     0.173 A 
ATOM     57  C   UNL A   1      38.925  33.405  37.801  1.00  0.00     0.173 A 
ATOM     58  F   UNL A   1      41.247  35.430  35.866  1.00  0.00    -0.203 F 
ATOM     59  C   UNL A   1      40.203  35.866  37.931  1.00  0.00     0.198 A 
ATOM     60  C   UNL A   1      38.699  34.255  38.881  1.00  0.00     0.198 A 
ATOM     61  F   UNL A   1      38.291  32.223  37.766  1.00  0.00    -0.203 F 
ATOM     62  F   UNL A   1      40.841  37.042  38.004  1.00  0.00    -0.200 F 
ATOM     63  C   UNL A   1      39.340  35.482  38.946  1.00  0.00     0.200 A 
ATOM     64  F   UNL A   1      37.854  33.888  39.854  1.00  0.00    -0.200 F 
ATOM     65  F   UNL A   1      39.128  36.295  39.991  1.00  0.00    -0.200 F 
ENDBRANCH  41  55
BRANCH  42  66
ATOM     66  C   UNL A   1      40.514  28.020  28.646  1.00  0.00     0.064 A 
ATOM     67  C   UNL A   1      41.285  28.389  27.536  1.00  0.00     0.173 A 
ATOM     68  C   UNL A   1      39.853  26.783  28.602  1.00  0.00     0.173 A 
ATOM     69  F   UNL A   1      41.917  29.571  27.523  1.00  0.00    -0.203 F 
ATOM     70  C   UNL A   1      41.387  27.556  26.423  1.00  0.00     0.198 A 
ATOM     71  C   UNL A   1      39.978  25.939  27.502  1.00  0.00     0.198 A 
ATOM     72  F   UNL A   1      39.104  26.385  29.641  1.00  0.00    -0.203 F 
ATOM     73  F   UNL A   1      42.107  27.944  25.362  1.00  0.00    -0.200 F 
ATOM     74  C   UNL A   1      40.742  26.328  26.412  1.00  0.00     0.200 A 
ATOM     75  F   UNL A   1      39.366  24.748  27.501  1.00  0.00    -0.200 F 
ATOM     76  F   UNL A   1      40.853  25.521  25.348  1.00  0.00    -0.200 F 
ENDBRANCH  42  66
BRANCH  54  77
ATOM     77  C   UNL A   1      44.015  28.349  34.669  1.00  0.00     0.064 A 
ATOM     78  C   UNL A   1      45.334  28.801  34.525  1.00  0.00     0.173 A 
ATOM     79  C   UNL A   1      43.796  27.177  35.409  1.00  0.00     0.173 A 
ATOM     80  F   UNL A   1      45.594  29.908  33.814  1.00  0.00    -0.203 F 
ATOM     81  C   UNL A   1      46.395  28.101  35.092  1.00  0.00     0.198 A 
ATOM     82  C   UNL A   1      44.857  26.495  35.998  1.00  0.00     0.198 A 
ATOM     83  F   UNL A   1      42.551  26.709  35.581  1.00  0.00    -0.203 F 
ATOM     84  F   UNL A   1      47.652  28.532  34.914  1.00  0.00    -0.200 F 
ATOM     85  C   UNL A   1      46.155  26.954  35.835  1.00  0.00     0.200 A 
ATOM     86  F   UNL A   1      44.622  25.395  36.726  1.00  0.00    -0.200 F 
ATOM     87  F   UNL A   1      47.176  26.290  36.393  1.00  0.00    -0.200 F 
ENDBRANCH  54  77
ENDBRANCH  28  29
ENDBRANCH  20  23
ENDBRANCH  18  19
ENDBRANCH   1  18
TORSDOF 12
ENDMDL
MODEL 2
REMARK VINA RESULT:     -12.0      1.878      3.098
REMARK SMILES O=C(Cc1cccn(C(F)F)c1=O)NCCCNC(=O)c1ccc(-c2c3nc(c(-c4c(F)c(F)c(F)c(F)c4F)c4ccc([nH]4)c(-c4c(F)c(F)c(F)c(F)c4F)c4nc(c(-c5c(F)c(F)c(F)c(F)c5F)c5ccc2[nH]5)C=C4)C=C3)cc1
REMARK SMILES IDX 16 1 15 2 14 3 1 4 2 5 3 7 4 8 5 9 12 10 6 11 8 12 13 13
REMARK SMILES IDX 7 14 9 15 10 16 11 17 17 18 18 19 19 20 20 22 21 23 22 24
REMARK SMILES IDX 83 25 23 26 82 27 24 28 25 29 26 30 76 31 27 32 81 33 75 34
REMARK SMILES IDX 77 35 28 36 80 37 74 38 73 39 29 41 61 42 41 43 60 44 42 45
REMARK SMILES IDX 45 46 59 47 78 48 43 49 44 50 58 52 79 53 46 54 30 55 31 56
REMARK SMILES IDX 39 57 32 58 33 59 37 60 40 61 34 62 35 63 38 64 36 65 62 66
REMARK SMILES IDX 63 67 71 68 64 69 65 70 69 71 72 72 66 73 67 74 70 75 68 76
REMARK SMILES IDX 47 77 48 78 56 79 49 80 50 81 54 82 57 83 51 84 52 85 55 86
REMARK SMILES IDX 53 87
REMARK H PARENT 14 6 18 21 77 40 45 51
REMARK Flexibility Score: inf
ROOT
ATOM      1  C   UNL A   1      31.840  28.964  26.943  1.00  0.00     0.042 C 
ENDROOT
BRANCH   1   2
ATOM      2  C   UNL A   1      32.141  27.505  26.634  1.00  0.00     0.117 C 
BRANCH   2   3
ATOM      3  N   UNL A   1      31.542  27.069  25.389  1.00  0.00    -0.356 N 
ATOM      4  O   UNL A   1      29.944  25.717  26.339  1.00  0.00    -0.275 OA
ATOM      5  C   UNL A   1      30.447  26.233  25.345  1.00  0.00     0.224 C 
ATOM      6  H   UNL A   1      31.932  27.384  24.542  1.00  0.00     0.163 HD
BRANCH   5   7
ATOM      7  C   UNL A   1      29.895  25.995  23.948  1.00  0.00     0.141 C 
BRANCH   7   8
ATOM      8  C   UNL A   1      28.946  27.094  23.554  1.00  0.00     0.027 A 
ATOM      9  C   UNL A   1      27.639  27.106  23.875  1.00  0.00     0.011 A 
ATOM     10  C   UNL A   1      29.511  28.253  22.784  1.00  0.00     0.258 A 
ATOM     11  C   UNL A   1      26.786  28.204  23.501  1.00  0.00     0.019 A 
ATOM     12  N   UNL A   1      28.614  29.239  22.414  1.00  0.00    -0.258 N 
ATOM     13  O   UNL A   1      30.712  28.296  22.531  1.00  0.00    -0.269 OA
ATOM     14  C   UNL A   1      27.283  29.218  22.784  1.00  0.00     0.095 A 
BRANCH  12  15
ATOM     15  C   UNL A   1      29.112  30.344  21.633  1.00  0.00     0.451 C 
ATOM     16  F   UNL A   1      28.166  30.729  20.734  1.00  0.00    -0.185 F 
ATOM     17  F   UNL A   1      29.323  31.413  22.445  1.00  0.00    -0.185 F 
ENDBRANCH  12  15
ENDBRANCH   7   8
ENDBRANCH   5   7
ENDBRANCH   2   3
ENDBRANCH   1   2
BRANCH   1  18
ATOM     18  C   UNL A   1      32.586  29.965  26.068  1.00  0.00     0.118 C 
BRANCH  18  19
ATOM     19  N   UNL A   1      32.437  31.348  26.502  1.00  0.00    -0.352 N 
ATOM     20  C   UNL A   1      33.236  32.119  27.314  1.00  0.00     0.251 C 
ATOM     21  H   UNL A   1      31.635  31.804  26.160  1.00  0.00     0.163 HD
ATOM     22  O   UNL A   1      32.859  33.242  27.643  1.00  0.00    -0.269 OA
BRANCH  20  23
ATOM     23  C   UNL A   1      34.522  31.599  27.831  1.00  0.00     0.039 A 
ATOM     24  C   UNL A   1      34.691  30.252  28.150  1.00  0.00     0.014 A 
ATOM     25  C   UNL A   1      35.588  32.490  28.000  1.00  0.00     0.014 A 
ATOM     26  C   UNL A   1      35.846  29.834  28.805  1.00  0.00     0.010 A 
ATOM     27  C   UNL A   1      36.784  32.049  28.578  1.00  0.00     0.010 A 
ATOM     28  C   UNL A   1      36.902  30.729  29.038  1.00  0.00    -0.014 A 
BRANCH  28  29
ATOM     29  C   UNL A   1      38.104  30.275  29.787  1.00  0.00     0.031 A 
ATOM     30  C   UNL A   1      38.330  30.709  31.211  1.00  0.00     0.074 A 
ATOM     31  C   UNL A   1      38.968  29.421  29.203  1.00  0.00     0.049 A 
ATOM     32  N   UNL A   1      39.308  30.397  32.026  1.00  0.00    -0.248 NA
ATOM     33  C   UNL A   1      37.332  31.614  31.801  1.00  0.00     0.031 C 
ATOM     34  C   UNL A   1      38.856  28.916  27.835  1.00  0.00     0.029 A 
ATOM     35  N   UNL A   1      40.094  28.808  29.693  1.00  0.00    -0.354 N 
ATOM     36  C   UNL A   1      39.050  31.073  33.211  1.00  0.00     0.074 A 
ATOM     37  C   UNL A   1      37.843  31.844  33.002  1.00  0.00     0.031 C 
ATOM     38  C   UNL A   1      39.840  28.032  27.612  1.00  0.00     0.029 A 
ATOM     39  C   UNL A   1      40.686  27.951  28.799  1.00  0.00     0.049 A 
ATOM     40  H   UNL A   1      40.444  28.968  30.600  1.00  0.00     0.167 HD
ATOM     41  C   UNL A   1      39.744  31.042  34.373  1.00  0.00     0.037 A 
ATOM     42  C   UNL A   1      41.792  27.191  28.915  1.00  0.00     0.037 A 
ATOM     43  C   UNL A   1      40.930  30.256  34.593  1.00  0.00     0.049 A 
ATOM     44  C   UNL A   1      42.571  27.212  30.200  1.00  0.00     0.074 A 
ATOM     45  C   UNL A   1      41.686  30.142  35.747  1.00  0.00     0.029 A 
ATOM     46  N   UNL A   1      41.531  29.447  33.640  1.00  0.00    -0.354 N 
ATOM     47  N   UNL A   1      42.308  27.849  31.314  1.00  0.00    -0.248 NA
ATOM     48  C   UNL A   1      43.805  26.416  30.240  1.00  0.00     0.031 C 
ATOM     49  C   UNL A   1      42.768  29.297  35.480  1.00  0.00     0.029 A 
ATOM     50  C   UNL A   1      42.660  28.847  34.174  1.00  0.00     0.049 A 
ATOM     51  H   UNL A   1      41.203  29.317  32.721  1.00  0.00     0.167 HD
ATOM     52  C   UNL A   1      43.333  27.523  32.191  1.00  0.00     0.074 A 
ATOM     53  C   UNL A   1      44.212  26.613  31.486  1.00  0.00     0.031 C 
ATOM     54  C   UNL A   1      43.529  27.945  33.464  1.00  0.00     0.037 A 
BRANCH  41  55
ATOM     55  C   UNL A   1      39.243  31.881  35.513  1.00  0.00     0.064 A 
ATOM     56  C   UNL A   1      38.367  31.359  36.476  1.00  0.00     0.173 A 
ATOM     57  C   UNL A   1      39.701  33.195  35.686  1.00  0.00     0.173 A 
ATOM     58  F   UNL A   1      37.891  30.111  36.352  1.00  0.00    -0.203 F 
ATOM     59  C   UNL A   1      37.957  32.128  37.564  1.00  0.00     0.198 A 
ATOM     60  C   UNL A   1      39.310  33.953  36.787  1.00  0.00     0.198 A 
ATOM     61  F   UNL A   1      40.547  33.739  34.797  1.00  0.00    -0.203 F 
ATOM     62  F   UNL A   1      37.095  31.620  38.455  1.00  0.00    -0.200 F 
ATOM     63  C   UNL A   1      38.437  33.420  37.723  1.00  0.00     0.200 A 
ATOM     64  F   UNL A   1      39.786  35.195  36.946  1.00  0.00    -0.200 F 
ATOM     65  F   UNL A   1      38.054  34.154  38.778  1.00  0.00    -0.200 F 
ENDBRANCH  41  55
BRANCH  42  66
ATOM     66  C   UNL A   1      42.218  26.338  27.776  1.00  0.00     0.064 A 
ATOM     67  C   UNL A   1      43.219  26.764  26.895  1.00  0.00     0.173 A 
ATOM     68  C   UNL A   1      41.653  25.071  27.562  1.00  0.00     0.173 A 
ATOM     69  F   UNL A   1      43.773  27.976  27.046  1.00  0.00    -0.203 F 
ATOM     70  C   UNL A   1      43.636  25.959  25.836  1.00  0.00     0.198 A 
ATOM     71  C   UNL A   1      42.090  24.255  26.521  1.00  0.00     0.198 A 
ATOM     72  F   UNL A   1      40.693  24.617  28.380  1.00  0.00    -0.203 F 
ATOM     73  F   UNL A   1      44.574  26.403  24.988  1.00  0.00    -0.200 F 
ATOM     74  C   UNL A   1      43.078  24.702  25.657  1.00  0.00     0.200 A 
ATOM     75  F   UNL A   1      41.560  23.037  26.361  1.00  0.00    -0.200 F 
ATOM     76  F   UNL A   1      43.491  23.922  24.648  1.00  0.00    -0.200 F 
ENDBRANCH  42  66
BRANCH  54  77
ATOM     77  C   UNL A   1      44.734  27.425  34.189  1.00  0.00     0.064 A 
ATOM     78  C   UNL A   1      44.702  26.203  34.876  1.00  0.00     0.173 A 
ATOM     79  C   UNL A   1      45.952  28.121  34.138  1.00  0.00     0.173 A 
ATOM     80  F   UNL A   1      43.558  25.509  34.964  1.00  0.00    -0.203 F 
ATOM     81  C   UNL A   1      45.842  25.702  35.496  1.00  0.00     0.198 A 
ATOM     82  C   UNL A   1      47.097  27.603  34.737  1.00  0.00     0.198 A 
ATOM     83  F   UNL A   1      46.035  29.290  33.487  1.00  0.00    -0.203 F 
ATOM     84  F   UNL A   1      45.782  24.548  36.176  1.00  0.00    -0.200 F 
ATOM     85  C   UNL A   1      47.040  26.397  35.419  1.00  0.00     0.200 A 
ATOM     86  F   UNL A   1      48.256  28.270  34.649  1.00  0.00    -0.200 F 
ATOM     87  F   UNL A   1      48.141  25.906  36.003  1.00  0.00    -0.200 F 
ENDBRANCH  54  77
ENDBRANCH  28  29
ENDBRANCH  20  23
ENDBRANCH  18  19
ENDBRANCH   1  18
TORSDOF 12
ENDMDL
MODEL 3
REMARK VINA RESULT:     -12.0      2.207      3.726
REMARK SMILES O=C(Cc1cccn(C(F)F)c1=O)NCCCNC(=O)c1ccc(-c2c3nc(c(-c4c(F)c(F)c(F)c(F)c4F)c4ccc([nH]4)c(-c4c(F)c(F)c(F)c(F)c4F)c4nc(c(-c5c(F)c(F)c(F)c(F)c5F)c5ccc2[nH]5)C=C4)C=C3)cc1
REMARK SMILES IDX 16 1 15 2 14 3 1 4 2 5 3 7 4 8 5 9 12 10 6 11 8 12 13 13
REMARK SMILES IDX 7 14 9 15 10 16 11 17 17 18 18 19 19 20 20 22 21 23 22 24
REMARK SMILES IDX 83 25 23 26 82 27 24 28 25 29 26 30 76 31 27 32 81 33 75 34
REMARK SMILES IDX 77 35 28 36 80 37 74 38 73 39 29 41 61 42 41 43 60 44 42 45
REMARK SMILES IDX 45 46 59 47 78 48 43 49 44 50 58 52 79 53 46 54 30 55 31 56
REMARK SMILES IDX 39 57 32 58 33 59 37 60 40 61 34 62 35 63 38 64 36 65 62 66
REMARK SMILES IDX 63 67 71 68 64 69 65 70 69 71 72 72 66 73 67 74 70 75 68 76
REMARK SMILES IDX 47 77 48 78 56 79 49 80 50 81 54 82 57 83 51 84 52 85 55 86
REMARK SMILES IDX 53 87
REMARK H PARENT 14 6 18 21 77 40 45 51
REMARK Flexibility Score: inf
ROOT
ATOM      1  C   UNL A   1      33.610  29.274  24.459  1.00  0.00     0.042 C 
ENDROOT
BRANCH   1   2
ATOM      2  C   UNL A   1      32.811  28.786  23.259  1.00  0.00     0.117 C 
BRANCH   2   3
ATOM      3  N   UNL A   1      31.403  29.110  23.363  1.00  0.00    -0.356 N 
ATOM      4  O   UNL A   1      30.659  27.451  21.957  1.00  0.00    -0.275 OA
ATOM      5  C   UNL A   1      30.424  28.376  22.729  1.00  0.00     0.224 C 
ATOM      6  H   UNL A   1      31.136  29.883  23.910  1.00  0.00     0.163 HD
BRANCH   5   7
ATOM      7  C   UNL A   1      29.003  28.802  23.066  1.00  0.00     0.141 C 
BRANCH   7   8
ATOM      8  C   UNL A   1      28.839  30.289  22.905  1.00  0.00     0.027 A 
ATOM      9  C   UNL A   1      29.169  31.186  23.852  1.00  0.00     0.011 A 
ATOM     10  C   UNL A   1      28.304  30.788  21.593  1.00  0.00     0.258 A 
ATOM     11  C   UNL A   1      29.023  32.600  23.628  1.00  0.00     0.019 A 
ATOM     12  N   UNL A   1      28.141  32.157  21.479  1.00  0.00    -0.258 N 
ATOM     13  O   UNL A   1      28.053  29.995  20.690  1.00  0.00    -0.269 OA
ATOM     14  C   UNL A   1      28.513  33.041  22.473  1.00  0.00     0.095 A 
BRANCH  12  15
ATOM     15  C   UNL A   1      27.585  32.669  20.251  1.00  0.00     0.451 C 
ATOM     16  F   UNL A   1      27.217  33.967  20.424  1.00  0.00    -0.185 F 
ATOM     17  F   UNL A   1      28.543  32.671  19.287  1.00  0.00    -0.185 F 
ENDBRANCH  12  15
ENDBRANCH   7   8
ENDBRANCH   5   7
ENDBRANCH   2   3
ENDBRANCH   1   2
BRANCH   1  18
ATOM     18  C   UNL A   1      32.836  29.286  25.773  1.00  0.00     0.118 C 
BRANCH  18  19
ATOM     19  N   UNL A   1      32.530  30.625  26.260  1.00  0.00    -0.352 N 
ATOM     20  C   UNL A   1      33.221  31.438  27.126  1.00  0.00     0.251 C 
ATOM     21  H   UNL A   1      31.692  31.008  25.914  1.00  0.00     0.163 HD
ATOM     22  O   UNL A   1      32.719  32.499  27.491  1.00  0.00    -0.269 OA
BRANCH  20  23
ATOM     23  C   UNL A   1      34.542  31.035  27.658  1.00  0.00     0.039 A 
ATOM     24  C   UNL A   1      34.814  29.714  28.016  1.00  0.00     0.014 A 
ATOM     25  C   UNL A   1      35.536  32.010  27.802  1.00  0.00     0.014 A 
ATOM     26  C   UNL A   1      35.998  29.406  28.683  1.00  0.00     0.010 A 
ATOM     27  C   UNL A   1      36.761  31.680  28.391  1.00  0.00     0.010 A 
ATOM     28  C   UNL A   1      36.980  30.387  28.890  1.00  0.00    -0.014 A 
BRANCH  28  29
ATOM     29  C   UNL A   1      38.213  30.049  29.652  1.00  0.00     0.031 A 
ATOM     30  C   UNL A   1      38.412  30.560  31.053  1.00  0.00     0.074 A 
ATOM     31  C   UNL A   1      39.130  29.230  29.101  1.00  0.00     0.049 A 
ATOM     32  N   UNL A   1      39.411  30.352  31.876  1.00  0.00    -0.248 NA
ATOM     33  C   UNL A   1      37.356  31.422  31.608  1.00  0.00     0.031 C 
ATOM     34  C   UNL A   1      39.049  28.658  27.757  1.00  0.00     0.029 A 
ATOM     35  N   UNL A   1      40.297  28.718  29.612  1.00  0.00    -0.354 N 
ATOM     36  C   UNL A   1      39.111  31.062  33.031  1.00  0.00     0.074 A 
ATOM     37  C   UNL A   1      37.854  31.739  32.795  1.00  0.00     0.031 C 
ATOM     38  C   UNL A   1      40.091  27.834  27.568  1.00  0.00     0.029 A 
ATOM     39  C   UNL A   1      40.944  27.864  28.752  1.00  0.00     0.049 A 
ATOM     40  H   UNL A   1      40.638  28.941  30.508  1.00  0.00     0.167 HD
ATOM     41  C   UNL A   1      39.808  31.130  34.189  1.00  0.00     0.037 A 
ATOM     42  C   UNL A   1      42.099  27.186  28.896  1.00  0.00     0.037 A 
ATOM     43  C   UNL A   1      41.046  30.436  34.437  1.00  0.00     0.049 A 
ATOM     44  C   UNL A   1      42.877  27.317  30.175  1.00  0.00     0.074 A 
ATOM     45  C   UNL A   1      41.811  30.425  35.591  1.00  0.00     0.029 A 
ATOM     46  N   UNL A   1      41.698  29.628  33.518  1.00  0.00    -0.354 N 
ATOM     47  N   UNL A   1      42.575  27.984  31.261  1.00  0.00    -0.248 NA
ATOM     48  C   UNL A   1      44.163  26.609  30.243  1.00  0.00     0.031 C 
ATOM     49  C   UNL A   1      42.947  29.644  35.356  1.00  0.00     0.029 A 
ATOM     50  C   UNL A   1      42.867  29.131  34.072  1.00  0.00     0.049 A 
ATOM     51  H   UNL A   1      41.377  29.436  32.607  1.00  0.00     0.167 HD
ATOM     52  C   UNL A   1      43.622  27.767  32.145  1.00  0.00     0.074 A 
ATOM     53  C   UNL A   1      44.560  26.889  31.477  1.00  0.00     0.031 C 
ATOM     54  C   UNL A   1      43.792  28.258  33.397  1.00  0.00     0.037 A 
BRANCH  41  55
ATOM     55  C   UNL A   1      39.255  31.983  35.294  1.00  0.00     0.064 A 
ATOM     56  C   UNL A   1      38.451  31.439  36.307  1.00  0.00     0.173 A 
ATOM     57  C   UNL A   1      39.591  33.342  35.382  1.00  0.00     0.173 A 
ATOM     58  F   UNL A   1      38.093  30.147  36.264  1.00  0.00    -0.203 F 
ATOM     59  C   UNL A   1      37.994  32.228  37.360  1.00  0.00     0.198 A 
ATOM     60  C   UNL A   1      39.154  34.122  36.449  1.00  0.00     0.198 A 
ATOM     61  F   UNL A   1      40.364  33.909  34.442  1.00  0.00    -0.203 F 
ATOM     62  F   UNL A   1      37.202  31.695  38.300  1.00  0.00    -0.200 F 
ATOM     63  C   UNL A   1      38.354  33.565  37.435  1.00  0.00     0.200 A 
ATOM     64  F   UNL A   1      39.514  35.410  36.527  1.00  0.00    -0.200 F 
ATOM     65  F   UNL A   1      37.926  34.320  38.457  1.00  0.00    -0.200 F 
ENDBRANCH  41  55
BRANCH  42  66
ATOM     66  C   UNL A   1      42.579  26.313  27.794  1.00  0.00     0.064 A 
ATOM     67  C   UNL A   1      42.122  24.995  27.672  1.00  0.00     0.173 A 
ATOM     68  C   UNL A   1      43.480  26.786  26.828  1.00  0.00     0.173 A 
ATOM     69  F   UNL A   1      41.277  24.491  28.584  1.00  0.00    -0.203 F 
ATOM     70  C   UNL A   1      42.554  24.178  26.628  1.00  0.00     0.198 A 
ATOM     71  C   UNL A   1      43.889  25.979  25.770  1.00  0.00     0.198 A 
ATOM     72  F   UNL A   1      43.944  28.042  26.901  1.00  0.00    -0.203 F 
ATOM     73  F   UNL A   1      42.127  22.911  26.551  1.00  0.00    -0.200 F 
ATOM     74  C   UNL A   1      43.430  24.674  25.673  1.00  0.00     0.200 A 
ATOM     75  F   UNL A   1      44.722  26.466  24.842  1.00  0.00    -0.200 F 
ATOM     76  F   UNL A   1      43.832  23.893  24.662  1.00  0.00    -0.200 F 
ENDBRANCH  42  66
BRANCH  54  77
ATOM     77  C   UNL A   1      45.032  27.854  34.138  1.00  0.00     0.064 A 
ATOM     78  C   UNL A   1      45.076  26.679  34.902  1.00  0.00     0.173 A 
ATOM     79  C   UNL A   1      46.208  28.612  34.026  1.00  0.00     0.173 A 
ATOM     80  F   UNL A   1      43.973  25.930  35.050  1.00  0.00    -0.203 F 
ATOM     81  C   UNL A   1      46.248  26.284  35.538  1.00  0.00     0.198 A 
ATOM     82  C   UNL A   1      47.386  28.198  34.641  1.00  0.00     0.198 A 
ATOM     83  F   UNL A   1      46.219  29.740  33.300  1.00  0.00    -0.203 F 
ATOM     84  F   UNL A   1      46.260  25.174  36.290  1.00  0.00    -0.200 F 
ATOM     85  C   UNL A   1      47.404  27.038  35.400  1.00  0.00     0.200 A 
ATOM     86  F   UNL A   1      48.505  28.921  34.496  1.00  0.00    -0.200 F 
ATOM     87  F   UNL A   1      48.537  26.647  36.000  1.00  0.00    -0.200 F 
ENDBRANCH  54  77
ENDBRANCH  28  29
ENDBRANCH  20  23
ENDBRANCH  18  19
ENDBRANCH   1  18
TORSDOF 12
ENDMDL
