MODEL 1
REMARK VINA RESULT:     -14.9      0.000      0.000
REMARK SMILES Cc1ccccc1C(=O)Nc1ccc(N2CCCCC2)cc1C(=O)NCCCNC(=O)c1ccc(-c2c3nc(c(-c4c(F)c(F)c(F)c(F)c4F)c4ccc([nH]4)c(-c4c(F)c(F)c(F)c(F)c4F)c4nc(c(-c5c(F)c(F)c(F)c(F)c5F)c5ccc2[nH]5)C=C4)C=C3)cc1
REMARK SMILES IDX 27 1 26 2 25 3 23 4 24 5 22 7 11 8 12 9 13 10 21 11 14 12
REMARK SMILES IDX 10 13 8 14 9 15 7 17 1 18 2 19 3 20 4 21 6 22 5 23 15 24
REMARK SMILES IDX 16 25 20 26 17 27 19 28 18 29 28 30 29 31 30 32 31 34 32 35
REMARK SMILES IDX 33 36 94 37 34 38 93 39 35 40 36 41 37 42 87 43 38 44 92 45
REMARK SMILES IDX 86 46 88 47 39 48 91 49 85 50 84 51 40 53 72 54 52 55 71 56
REMARK SMILES IDX 53 57 56 58 70 59 89 60 54 61 55 62 69 64 90 65 57 66 41 67
REMARK SMILES IDX 42 68 50 69 43 70 44 71 48 72 51 73 45 74 46 75 49 76 47 77
REMARK SMILES IDX 73 78 74 79 82 80 75 81 76 82 80 83 83 84 77 85 78 86 81 87
REMARK SMILES IDX 79 88 58 89 59 90 67 91 60 92 61 93 65 94 68 95 62 96 63 97
REMARK SMILES IDX 66 98 64 99
REMARK H PARENT 25 6 10 16 29 33 88 52 56 63
REMARK Flexibility Score: inf
ROOT
ATOM      1  C   UNL A   1      32.652  30.972  27.307  1.00  0.00     0.042 C 
ENDROOT
BRANCH   1   2
ATOM      2  C   UNL A   1      32.140  29.573  27.057  1.00  0.00     0.118 C 
BRANCH   2   3
ATOM      3  N   UNL A   1      33.080  28.722  26.335  1.00  0.00    -0.352 N 
ATOM      4  C   UNL A   1      32.863  27.821  25.310  1.00  0.00     0.253 C 
ATOM      5  O   UNL A   1      33.822  27.214  24.842  1.00  0.00    -0.269 OA
ATOM      6  H   UNL A   1      34.018  28.803  26.624  1.00  0.00     0.163 HD
BRANCH   4   7
ATOM      7  C   UNL A   1      31.492  27.596  24.784  1.00  0.00     0.065 A 
ATOM      8  C   UNL A   1      30.659  26.553  25.212  1.00  0.00     0.054 A 
ATOM      9  C   UNL A   1      29.398  26.420  24.615  1.00  0.00     0.029 A 
ATOM     10  C   UNL A   1      28.895  27.426  23.791  1.00  0.00     0.028 A 
ATOM     11  C   UNL A   1      31.032  28.461  23.773  1.00  0.00     0.042 A 
ATOM     12  C   UNL A   1      29.687  28.510  23.418  1.00  0.00     0.038 A 
BRANCH   8  13
ATOM     13  N   UNL A   1      30.903  25.609  26.219  1.00  0.00    -0.321 N 
ATOM     14  C   UNL A   1      31.622  24.444  26.284  1.00  0.00     0.255 C 
ATOM     15  O   UNL A   1      31.494  23.764  27.310  1.00  0.00    -0.269 OA
ATOM     16  H   UNL A   1      30.459  25.833  27.069  1.00  0.00     0.170 HD
BRANCH  14  17
ATOM     17  C   UNL A   1      32.655  24.009  25.300  1.00  0.00     0.043 A 
ATOM     18  C   UNL A   1      31.079  23.517  23.314  1.00  0.00     0.045 C 
ATOM     19  C   UNL A   1      32.429  23.641  23.958  1.00  0.00    -0.038 A 
ATOM     20  C   UNL A   1      33.542  23.401  23.124  1.00  0.00     0.004 A 
ATOM     21  C   UNL A   1      34.847  23.590  23.576  1.00  0.00     0.000 A 
ATOM     22  C   UNL A   1      33.984  24.206  25.733  1.00  0.00     0.014 A 
ATOM     23  C   UNL A   1      35.069  24.006  24.880  1.00  0.00     0.001 A 
ENDBRANCH  14  17
ENDBRANCH   8  13
BRANCH  12  24
ATOM     24  N   UNL A   1      29.105  29.631  22.831  1.00  0.00    -0.372 N 
ATOM     25  C   UNL A   1      28.949  30.771  23.756  1.00  0.00     0.116 C 
ATOM     26  C   UNL A   1      29.444  30.013  21.458  1.00  0.00     0.116 C 
ATOM     27  C   UNL A   1      27.852  31.701  23.252  1.00  0.00     0.021 C 
ATOM     28  C   UNL A   1      28.345  30.920  20.906  1.00  0.00     0.021 C 
ATOM     29  C   UNL A   1      28.101  32.130  21.809  1.00  0.00     0.004 C 
ENDBRANCH  12  24
ENDBRANCH   4   7
ENDBRANCH   2   3
ENDBRANCH   1   2
BRANCH   1  30
ATOM     30  C   UNL A   1      34.164  31.041  27.363  1.00  0.00     0.118 C 
BRANCH  30  31
ATOM     31  N   UNL A   1      34.652  31.723  28.566  1.00  0.00    -0.352 N 
ATOM     32  C   UNL A   1      35.763  31.440  29.347  1.00  0.00     0.251 C 
ATOM     33  H   UNL A   1      34.113  32.493  28.862  1.00  0.00     0.163 HD
ATOM     34  O   UNL A   1      36.123  32.186  30.236  1.00  0.00    -0.269 OA
BRANCH  32  35
ATOM     35  C   UNL A   1      36.563  30.252  28.983  1.00  0.00     0.039 A 
ATOM     36  C   UNL A   1      36.730  29.261  29.955  1.00  0.00     0.014 A 
ATOM     37  C   UNL A   1      37.402  30.333  27.878  1.00  0.00     0.014 A 
ATOM     38  C   UNL A   1      37.913  28.531  29.964  1.00  0.00     0.010 A 
ATOM     39  C   UNL A   1      38.626  29.700  27.962  1.00  0.00     0.010 A 
ATOM     40  C   UNL A   1      38.912  28.859  29.048  1.00  0.00    -0.014 A 
BRANCH  40  41
ATOM     41  C   UNL A   1      40.316  28.497  29.240  1.00  0.00     0.031 A 
ATOM     42  C   UNL A   1      40.854  27.248  28.658  1.00  0.00     0.074 A 
ATOM     43  C   UNL A   1      41.163  29.344  29.872  1.00  0.00     0.049 A 
ATOM     44  N   UNL A   1      41.928  26.662  29.069  1.00  0.00    -0.248 NA
ATOM     45  C   UNL A   1      40.186  26.521  27.587  1.00  0.00     0.031 C 
ATOM     46  C   UNL A   1      42.626  29.298  29.847  1.00  0.00     0.029 A 
ATOM     47  N   UNL A   1      40.866  30.323  30.840  1.00  0.00    -0.354 N 
ATOM     48  C   UNL A   1      42.246  25.673  28.168  1.00  0.00     0.074 A 
ATOM     49  C   UNL A   1      41.091  25.581  27.307  1.00  0.00     0.031 C 
ATOM     50  C   UNL A   1      43.102  29.945  30.921  1.00  0.00     0.029 A 
ATOM     51  C   UNL A   1      41.962  30.307  31.739  1.00  0.00     0.049 A 
ATOM     52  H   UNL A   1      40.068  30.895  30.883  1.00  0.00     0.167 HD
ATOM     53  C   UNL A   1      43.506  25.146  28.182  1.00  0.00     0.037 A 
ATOM     54  C   UNL A   1      41.830  30.013  33.063  1.00  0.00     0.037 A 
ATOM     55  C   UNL A   1      44.298  25.696  29.280  1.00  0.00     0.049 A 
ATOM     56  C   UNL A   1      42.715  28.892  33.546  1.00  0.00     0.074 A 
ATOM     57  C   UNL A   1      45.278  26.676  29.337  1.00  0.00     0.029 A 
ATOM     58  N   UNL A   1      43.941  25.422  30.596  1.00  0.00    -0.354 N 
ATOM     59  N   UNL A   1      43.240  27.995  32.761  1.00  0.00    -0.248 NA
ATOM     60  C   UNL A   1      43.046  28.668  34.949  1.00  0.00     0.031 C 
ATOM     61  C   UNL A   1      45.532  26.970  30.698  1.00  0.00     0.029 A 
ATOM     62  C   UNL A   1      44.703  26.173  31.468  1.00  0.00     0.049 A 
ATOM     63  H   UNL A   1      43.244  24.783  30.866  1.00  0.00     0.167 HD
ATOM     64  C   UNL A   1      43.948  27.084  33.508  1.00  0.00     0.074 A 
ATOM     65  C   UNL A   1      43.811  27.564  34.869  1.00  0.00     0.031 C 
ATOM     66  C   UNL A   1      44.566  26.019  32.911  1.00  0.00     0.037 A 
BRANCH  53  67
ATOM     67  C   UNL A   1      44.128  24.350  27.048  1.00  0.00     0.064 A 
ATOM     68  C   UNL A   1      43.804  22.986  26.859  1.00  0.00     0.173 A 
ATOM     69  C   UNL A   1      45.095  24.840  26.152  1.00  0.00     0.173 A 
ATOM     70  F   UNL A   1      42.804  22.402  27.529  1.00  0.00    -0.203 F 
ATOM     71  C   UNL A   1      44.492  22.162  25.963  1.00  0.00     0.198 A 
ATOM     72  C   UNL A   1      45.820  24.007  25.292  1.00  0.00     0.198 A 
ATOM     73  F   UNL A   1      45.325  26.149  26.017  1.00  0.00    -0.203 F 
ATOM     74  F   UNL A   1      44.146  20.872  25.848  1.00  0.00    -0.200 F 
ATOM     75  C   UNL A   1      45.530  22.662  25.210  1.00  0.00     0.200 A 
ATOM     76  F   UNL A   1      46.800  24.526  24.537  1.00  0.00    -0.200 F 
ATOM     77  F   UNL A   1      46.222  21.866  24.386  1.00  0.00    -0.200 F 
ENDBRANCH  53  67
BRANCH  54  78
ATOM     78  C   UNL A   1      40.489  30.330  33.607  1.00  0.00     0.064 A 
ATOM     79  C   UNL A   1      40.206  31.664  33.953  1.00  0.00     0.173 A 
ATOM     80  C   UNL A   1      39.408  29.462  33.414  1.00  0.00     0.173 A 
ATOM     81  F   UNL A   1      41.211  32.533  34.146  1.00  0.00    -0.203 F 
ATOM     82  C   UNL A   1      38.898  32.140  33.979  1.00  0.00     0.198 A 
ATOM     83  C   UNL A   1      38.098  29.941  33.452  1.00  0.00     0.198 A 
ATOM     84  F   UNL A   1      39.618  28.186  33.062  1.00  0.00    -0.203 F 
ATOM     85  F   UNL A   1      38.664  33.443  34.192  1.00  0.00    -0.200 F 
ATOM     86  C   UNL A   1      37.847  31.284  33.698  1.00  0.00     0.200 A 
ATOM     87  F   UNL A   1      37.082  29.123  33.143  1.00  0.00    -0.200 F 
ATOM     88  F   UNL A   1      36.598  31.761  33.612  1.00  0.00    -0.200 F 
ENDBRANCH  54  78
BRANCH  66  89
ATOM     89  C   UNL A   1      45.185  24.791  33.560  1.00  0.00     0.064 A 
ATOM     90  C   UNL A   1      44.520  23.578  33.802  1.00  0.00     0.173 A 
ATOM     91  C   UNL A   1      46.577  24.767  33.862  1.00  0.00     0.173 A 
ATOM     92  F   UNL A   1      43.238  23.399  33.466  1.00  0.00    -0.203 F 
ATOM     93  C   UNL A   1      45.169  22.462  34.347  1.00  0.00     0.198 A 
ATOM     94  C   UNL A   1      47.232  23.636  34.351  1.00  0.00     0.198 A 
ATOM     95  F   UNL A   1      47.365  25.833  33.661  1.00  0.00    -0.203 F 
ATOM     96  F   UNL A   1      44.469  21.344  34.590  1.00  0.00    -0.200 F 
ATOM     97  C   UNL A   1      46.524  22.486  34.609  1.00  0.00     0.200 A 
ATOM     98  F   UNL A   1      48.558  23.668  34.546  1.00  0.00    -0.200 F 
ATOM     99  F   UNL A   1      47.147  21.399  35.084  1.00  0.00    -0.200 F 
ENDBRANCH  66  89
ENDBRANCH  40  41
ENDBRANCH  32  35
ENDBRANCH  30  31
ENDBRANCH   1  30
TORSDOF 13
ENDMDL
MODEL 2
REMARK VINA RESULT:     -14.8      4.151     10.367
REMARK SMILES Cc1ccccc1C(=O)Nc1ccc(N2CCCCC2)cc1C(=O)NCCCNC(=O)c1ccc(-c2c3nc(c(-c4c(F)c(F)c(F)c(F)c4F)c4ccc([nH]4)c(-c4c(F)c(F)c(F)c(F)c4F)c4nc(c(-c5c(F)c(F)c(F)c(F)c5F)c5ccc2[nH]5)C=C4)C=C3)cc1
REMARK SMILES IDX 27 1 26 2 25 3 23 4 24 5 22 7 11 8 12 9 13 10 21 11 14 12
REMARK SMILES IDX 10 13 8 14 9 15 7 17 1 18 2 19 3 20 4 21 6 22 5 23 15 24
REMARK SMILES IDX 16 25 20 26 17 27 19 28 18 29 28 30 29 31 30 32 31 34 32 35
REMARK SMILES IDX 33 36 94 37 34 38 93 39 35 40 36 41 37 42 87 43 38 44 92 45
REMARK SMILES IDX 86 46 88 47 39 48 91 49 85 50 84 51 40 53 72 54 52 55 71 56
REMARK SMILES IDX 53 57 56 58 70 59 89 60 54 61 55 62 69 64 90 65 57 66 41 67
REMARK SMILES IDX 42 68 50 69 43 70 44 71 48 72 51 73 45 74 46 75 49 76 47 77
REMARK SMILES IDX 73 78 74 79 82 80 75 81 76 82 80 83 83 84 77 85 78 86 81 87
REMARK SMILES IDX 79 88 58 89 59 90 67 91 60 92 61 93 65 94 68 95 62 96 63 97
REMARK SMILES IDX 66 98 64 99
REMARK H PARENT 25 6 10 16 29 33 88 52 56 63
REMARK Flexibility Score: inf
ROOT
ATOM      1  C   UNL A   1      38.204  21.436  25.083  1.00  0.00     0.042 C 
ENDROOT
BRANCH   1   2
ATOM      2  C   UNL A   1      36.972  22.004  24.420  1.00  0.00     0.118 C 
BRANCH   2   3
ATOM      3  N   UNL A   1      36.175  22.859  25.294  1.00  0.00    -0.352 N 
ATOM      4  C   UNL A   1      34.803  22.987  25.408  1.00  0.00     0.253 C 
ATOM      5  O   UNL A   1      34.349  23.775  26.232  1.00  0.00    -0.269 OA
ATOM      6  H   UNL A   1      36.696  23.436  25.898  1.00  0.00     0.163 HD
BRANCH   4   7
ATOM      7  C   UNL A   1      33.898  22.180  24.550  1.00  0.00     0.065 A 
ATOM      8  C   UNL A   1      33.408  22.619  23.313  1.00  0.00     0.054 A 
ATOM      9  C   UNL A   1      32.529  21.783  22.609  1.00  0.00     0.029 A 
ATOM     10  C   UNL A   1      32.334  20.463  23.011  1.00  0.00     0.028 A 
ATOM     11  C   UNL A   1      33.489  20.923  25.035  1.00  0.00     0.042 A 
ATOM     12  C   UNL A   1      32.881  19.988  24.202  1.00  0.00     0.038 A 
BRANCH   8  13
ATOM     13  N   UNL A   1      33.710  23.809  22.635  1.00  0.00    -0.321 N 
ATOM     14  C   UNL A   1      33.277  25.105  22.737  1.00  0.00     0.255 C 
ATOM     15  O   UNL A   1      33.650  25.890  21.858  1.00  0.00    -0.269 OA
ATOM     16  H   UNL A   1      34.385  23.685  21.929  1.00  0.00     0.170 HD
BRANCH  14  17
ATOM     17  C   UNL A   1      32.528  25.678  23.893  1.00  0.00     0.043 A 
ATOM     18  C   UNL A   1      30.278  24.472  23.502  1.00  0.00     0.045 C 
ATOM     19  C   UNL A   1      31.207  25.365  24.272  1.00  0.00    -0.038 A 
ATOM     20  C   UNL A   1      30.706  25.889  25.483  1.00  0.00     0.004 A 
ATOM     21  C   UNL A   1      31.507  26.642  26.339  1.00  0.00     0.000 A 
ATOM     22  C   UNL A   1      33.325  26.432  24.780  1.00  0.00     0.014 A 
ATOM     23  C   UNL A   1      32.825  26.904  25.993  1.00  0.00     0.001 A 
ENDBRANCH  14  17
ENDBRANCH   8  13
BRANCH  12  24
ATOM     24  N   UNL A   1      32.913  18.619  24.459  1.00  0.00    -0.372 N 
ATOM     25  C   UNL A   1      34.067  17.929  23.849  1.00  0.00     0.116 C 
ATOM     26  C   UNL A   1      32.528  18.099  25.773  1.00  0.00     0.116 C 
ATOM     27  C   UNL A   1      33.755  16.446  23.684  1.00  0.00     0.021 C 
ATOM     28  C   UNL A   1      32.173  16.618  25.639  1.00  0.00     0.021 C 
ATOM     29  C   UNL A   1      33.310  15.819  25.001  1.00  0.00     0.004 C 
ENDBRANCH  12  24
ENDBRANCH   4   7
ENDBRANCH   2   3
ENDBRANCH   1   2
BRANCH   1  30
ATOM     30  C   UNL A   1      38.702  22.293  26.228  1.00  0.00     0.118 C 
BRANCH  30  31
ATOM     31  N   UNL A   1      40.156  22.476  26.204  1.00  0.00    -0.352 N 
ATOM     32  C   UNL A   1      40.906  23.600  26.521  1.00  0.00     0.251 C 
ATOM     33  H   UNL A   1      40.676  21.688  25.921  1.00  0.00     0.163 HD
ATOM     34  O   UNL A   1      42.118  23.557  26.591  1.00  0.00    -0.269 OA
BRANCH  32  35
ATOM     35  C   UNL A   1      40.168  24.828  26.882  1.00  0.00     0.039 A 
ATOM     36  C   UNL A   1      40.415  25.978  26.127  1.00  0.00     0.014 A 
ATOM     37  C   UNL A   1      39.576  24.898  28.138  1.00  0.00     0.014 A 
ATOM     38  C   UNL A   1      40.328  27.216  26.753  1.00  0.00     0.010 A 
ATOM     39  C   UNL A   1      39.614  26.113  28.791  1.00  0.00     0.010 A 
ATOM     40  C   UNL A   1      40.066  27.261  28.121  1.00  0.00    -0.014 A 
BRANCH  40  41
ATOM     41  C   UNL A   1      40.390  28.417  28.955  1.00  0.00     0.031 A 
ATOM     42  C   UNL A   1      39.369  29.452  29.230  1.00  0.00     0.074 A 
ATOM     43  C   UNL A   1      41.598  28.510  29.562  1.00  0.00     0.049 A 
ATOM     44  N   UNL A   1      39.642  30.653  29.615  1.00  0.00    -0.248 NA
ATOM     45  C   UNL A   1      37.943  29.227  29.041  1.00  0.00     0.031 C 
ATOM     46  C   UNL A   1      41.953  29.396  30.672  1.00  0.00     0.029 A 
ATOM     47  N   UNL A   1      42.825  27.947  29.165  1.00  0.00    -0.354 N 
ATOM     48  C   UNL A   1      38.465  31.259  29.989  1.00  0.00     0.074 A 
ATOM     49  C   UNL A   1      37.433  30.354  29.543  1.00  0.00     0.031 C 
ATOM     50  C   UNL A   1      43.283  29.567  30.686  1.00  0.00     0.029 A 
ATOM     51  C   UNL A   1      43.809  28.910  29.506  1.00  0.00     0.049 A 
ATOM     52  H   UNL A   1      42.970  27.071  28.739  1.00  0.00     0.167 HD
ATOM     53  C   UNL A   1      38.517  32.392  30.750  1.00  0.00     0.037 A 
ATOM     54  C   UNL A   1      44.621  29.498  28.584  1.00  0.00     0.037 A 
ATOM     55  C   UNL A   1      39.897  32.828  30.957  1.00  0.00     0.049 A 
ATOM     56  C   UNL A   1      44.589  31.005  28.593  1.00  0.00     0.074 A 
ATOM     57  C   UNL A   1      40.775  32.705  32.023  1.00  0.00     0.029 A 
ATOM     58  N   UNL A   1      40.653  33.267  29.876  1.00  0.00    -0.354 N 
ATOM     59  N   UNL A   1      43.610  31.705  29.095  1.00  0.00    -0.248 NA
ATOM     60  C   UNL A   1      45.629  31.842  28.006  1.00  0.00     0.031 C 
ATOM     61  C   UNL A   1      42.061  33.102  31.586  1.00  0.00     0.029 A 
ATOM     62  C   UNL A   1      41.966  33.462  30.252  1.00  0.00     0.049 A 
ATOM     63  H   UNL A   1      40.300  33.418  28.969  1.00  0.00     0.167 HD
ATOM     64  C   UNL A   1      43.854  33.044  28.903  1.00  0.00     0.074 A 
ATOM     65  C   UNL A   1      45.140  33.074  28.234  1.00  0.00     0.031 C 
ATOM     66  C   UNL A   1      42.949  33.985  29.313  1.00  0.00     0.037 A 
BRANCH  53  67
ATOM     67  C   UNL A   1      37.356  32.955  31.551  1.00  0.00     0.064 A 
ATOM     68  C   UNL A   1      36.318  33.674  30.912  1.00  0.00     0.173 A 
ATOM     69  C   UNL A   1      37.229  32.886  32.950  1.00  0.00     0.173 A 
ATOM     70  F   UNL A   1      36.208  33.714  29.579  1.00  0.00    -0.203 F 
ATOM     71  C   UNL A   1      35.339  34.378  31.619  1.00  0.00     0.198 A 
ATOM     72  C   UNL A   1      36.282  33.631  33.662  1.00  0.00     0.198 A 
ATOM     73  F   UNL A   1      37.963  32.039  33.678  1.00  0.00    -0.203 F 
ATOM     74  F   UNL A   1      34.396  35.056  30.950  1.00  0.00    -0.200 F 
ATOM     75  C   UNL A   1      35.347  34.394  32.996  1.00  0.00     0.200 A 
ATOM     76  F   UNL A   1      36.284  33.596  35.002  1.00  0.00    -0.200 F 
ATOM     77  F   UNL A   1      34.440  35.105  33.676  1.00  0.00    -0.200 F 
ENDBRANCH  53  67
BRANCH  54  78
ATOM     78  C   UNL A   1      44.855  28.662  27.383  1.00  0.00     0.064 A 
ATOM     79  C   UNL A   1      45.825  27.646  27.455  1.00  0.00     0.173 A 
ATOM     80  C   UNL A   1      43.901  28.584  26.362  1.00  0.00     0.173 A 
ATOM     81  F   UNL A   1      46.758  27.678  28.420  1.00  0.00    -0.203 F 
ATOM     82  C   UNL A   1      45.767  26.533  26.621  1.00  0.00     0.198 A 
ATOM     83  C   UNL A   1      43.854  27.472  25.520  1.00  0.00     0.198 A 
ATOM     84  F   UNL A   1      42.941  29.513  26.259  1.00  0.00    -0.203 F 
ATOM     85  F   UNL A   1      46.632  25.523  26.790  1.00  0.00    -0.200 F 
ATOM     86  C   UNL A   1      44.762  26.434  25.673  1.00  0.00     0.200 A 
ATOM     87  F   UNL A   1      42.859  27.355  24.628  1.00  0.00    -0.200 F 
ATOM     88  F   UNL A   1      44.635  25.316  24.944  1.00  0.00    -0.200 F 
ENDBRANCH  54  78
BRANCH  66  89
ATOM     89  C   UNL A   1      42.909  35.471  28.992  1.00  0.00     0.064 A 
ATOM     90  C   UNL A   1      42.220  36.050  27.914  1.00  0.00     0.173 A 
ATOM     91  C   UNL A   1      43.501  36.411  29.883  1.00  0.00     0.173 A 
ATOM     92  F   UNL A   1      41.514  35.313  27.052  1.00  0.00    -0.203 F 
ATOM     93  C   UNL A   1      42.173  37.437  27.712  1.00  0.00     0.198 A 
ATOM     94  C   UNL A   1      43.404  37.792  29.710  1.00  0.00     0.198 A 
ATOM     95  F   UNL A   1      44.171  36.026  30.979  1.00  0.00    -0.203 F 
ATOM     96  F   UNL A   1      41.529  37.926  26.642  1.00  0.00    -0.200 F 
ATOM     97  C   UNL A   1      42.752  38.307  28.614  1.00  0.00     0.200 A 
ATOM     98  F   UNL A   1      43.928  38.616  30.629  1.00  0.00    -0.200 F 
ATOM     99  F   UNL A   1      42.659  39.631  28.441  1.00  0.00    -0.200 F 
ENDBRANCH  66  89
ENDBRANCH  40  41
ENDBRANCH  32  35
ENDBRANCH  30  31
ENDBRANCH   1  30
TORSDOF 13
ENDMDL
MODEL 3
REMARK VINA RESULT:     -14.5      1.955      3.121
REMARK SMILES Cc1ccccc1C(=O)Nc1ccc(N2CCCCC2)cc1C(=O)NCCCNC(=O)c1ccc(-c2c3nc(c(-c4c(F)c(F)c(F)c(F)c4F)c4ccc([nH]4)c(-c4c(F)c(F)c(F)c(F)c4F)c4nc(c(-c5c(F)c(F)c(F)c(F)c5F)c5ccc2[nH]5)C=C4)C=C3)cc1
REMARK SMILES IDX 27 1 26 2 25 3 23 4 24 5 22 7 11 8 12 9 13 10 21 11 14 12
REMARK SMILES IDX 10 13 8 14 9 15 7 17 1 18 2 19 3 20 4 21 6 22 5 23 15 24
REMARK SMILES IDX 16 25 20 26 17 27 19 28 18 29 28 30 29 31 30 32 31 34 32 35
REMARK SMILES IDX 33 36 94 37 34 38 93 39 35 40 36 41 37 42 87 43 38 44 92 45
REMARK SMILES IDX 86 46 88 47 39 48 91 49 85 50 84 51 40 53 72 54 52 55 71 56
REMARK SMILES IDX 53 57 56 58 70 59 89 60 54 61 55 62 69 64 90 65 57 66 41 67
REMARK SMILES IDX 42 68 50 69 43 70 44 71 48 72 51 73 45 74 46 75 49 76 47 77
REMARK SMILES IDX 73 78 74 79 82 80 75 81 76 82 80 83 83 84 77 85 78 86 81 87
REMARK SMILES IDX 79 88 58 89 59 90 67 91 60 92 61 93 65 94 68 95 62 96 63 97
REMARK SMILES IDX 66 98 64 99
REMARK H PARENT 25 6 10 16 29 33 88 52 56 63
REMARK Flexibility Score: inf
ROOT
ATOM      1  C   UNL A   1      35.245  29.640  26.873  1.00  0.00     0.042 C 
ENDROOT
BRANCH   1   2
ATOM      2  C   UNL A   1      34.168  28.655  26.485  1.00  0.00     0.118 C 
BRANCH   2   3
ATOM      3  N   UNL A   1      33.142  28.472  27.507  1.00  0.00    -0.352 N 
ATOM      4  C   UNL A   1      31.835  28.037  27.391  1.00  0.00     0.253 C 
ATOM      5  O   UNL A   1      31.148  27.950  28.405  1.00  0.00    -0.269 OA
ATOM      6  H   UNL A   1      33.425  28.692  28.424  1.00  0.00     0.163 HD
BRANCH   4   7
ATOM      7  C   UNL A   1      31.276  27.679  26.063  1.00  0.00     0.065 A 
ATOM      8  C   UNL A   1      30.943  26.370  25.689  1.00  0.00     0.054 A 
ATOM      9  C   UNL A   1      30.457  26.149  24.393  1.00  0.00     0.029 A 
ATOM     10  C   UNL A   1      30.096  27.223  23.581  1.00  0.00     0.028 A 
ATOM     11  C   UNL A   1      31.113  28.715  25.123  1.00  0.00     0.042 A 
ATOM     12  C   UNL A   1      30.351  28.536  23.972  1.00  0.00     0.038 A 
BRANCH   8  13
ATOM     13  N   UNL A   1      30.995  25.208  26.471  1.00  0.00    -0.321 N 
ATOM     14  C   UNL A   1      31.682  24.025  26.384  1.00  0.00     0.255 C 
ATOM     15  O   UNL A   1      31.367  23.134  27.181  1.00  0.00    -0.269 OA
ATOM     16  H   UNL A   1      30.407  25.251  27.260  1.00  0.00     0.170 HD
BRANCH  14  17
ATOM     17  C   UNL A   1      32.873  23.779  25.520  1.00  0.00     0.043 A 
ATOM     18  C   UNL A   1      31.642  22.769  23.486  1.00  0.00     0.045 C 
ATOM     19  C   UNL A   1      32.861  23.265  24.207  1.00  0.00    -0.038 A 
ATOM     20  C   UNL A   1      34.070  23.238  23.479  1.00  0.00     0.004 A 
ATOM     21  C   UNL A   1      35.249  23.771  23.999  1.00  0.00     0.000 A 
ATOM     22  C   UNL A   1      34.074  24.324  26.023  1.00  0.00     0.014 A 
ATOM     23  C   UNL A   1      35.248  24.328  25.269  1.00  0.00     0.001 A 
ENDBRANCH  14  17
ENDBRANCH   8  13
BRANCH  12  24
ATOM     24  N   UNL A   1      29.751  29.596  23.295  1.00  0.00    -0.372 N 
ATOM     25  C   UNL A   1      29.719  30.852  24.071  1.00  0.00     0.116 C 
ATOM     26  C   UNL A   1      29.971  29.782  21.859  1.00  0.00     0.116 C 
ATOM     27  C   UNL A   1      28.609  31.756  23.548  1.00  0.00     0.021 C 
ATOM     28  C   UNL A   1      28.854  30.657  21.292  1.00  0.00     0.021 C 
ATOM     29  C   UNL A   1      28.735  31.983  22.045  1.00  0.00     0.004 C 
ENDBRANCH  12  24
ENDBRANCH   4   7
ENDBRANCH   2   3
ENDBRANCH   1   2
BRANCH   1  30
ATOM     30  C   UNL A   1      35.041  30.216  28.259  1.00  0.00     0.118 C 
BRANCH  30  31
ATOM     31  N   UNL A   1      34.128  31.364  28.262  1.00  0.00    -0.352 N 
ATOM     32  C   UNL A   1      34.334  32.648  28.748  1.00  0.00     0.251 C 
ATOM     33  H   UNL A   1      33.243  31.200  27.863  1.00  0.00     0.163 HD
ATOM     34  O   UNL A   1      33.531  33.539  28.550  1.00  0.00    -0.269 OA
BRANCH  32  35
ATOM     35  C   UNL A   1      35.621  32.922  29.418  1.00  0.00     0.039 A 
ATOM     36  C   UNL A   1      36.635  33.513  28.658  1.00  0.00     0.014 A 
ATOM     37  C   UNL A   1      35.898  32.265  30.611  1.00  0.00     0.014 A 
ATOM     38  C   UNL A   1      37.956  33.195  28.950  1.00  0.00     0.010 A 
ATOM     39  C   UNL A   1      37.198  31.850  30.820  1.00  0.00     0.010 A 
ATOM     40  C   UNL A   1      38.217  32.251  29.942  1.00  0.00    -0.014 A 
BRANCH  40  41
ATOM     41  C   UNL A   1      39.479  31.518  30.029  1.00  0.00     0.031 A 
ATOM     42  C   UNL A   1      39.612  30.179  29.413  1.00  0.00     0.074 A 
ATOM     43  C   UNL A   1      40.570  32.092  30.592  1.00  0.00     0.049 A 
ATOM     44  N   UNL A   1      40.513  29.317  29.744  1.00  0.00    -0.248 NA
ATOM     45  C   UNL A   1      38.694  29.680  28.399  1.00  0.00     0.031 C 
ATOM     46  C   UNL A   1      41.959  31.650  30.456  1.00  0.00     0.029 A 
ATOM     47  N   UNL A   1      40.623  33.098  31.575  1.00  0.00    -0.354 N 
ATOM     48  C   UNL A   1      40.482  28.294  28.825  1.00  0.00     0.074 A 
ATOM     49  C   UNL A   1      39.286  28.533  28.054  1.00  0.00     0.031 C 
ATOM     50  C   UNL A   1      42.671  32.125  31.488  1.00  0.00     0.029 A 
ATOM     51  C   UNL A   1      41.737  32.770  32.389  1.00  0.00     0.049 A 
ATOM     52  H   UNL A   1      40.016  33.866  31.675  1.00  0.00     0.167 HD
ATOM     53  C   UNL A   1      41.547  27.443  28.747  1.00  0.00     0.037 A 
ATOM     54  C   UNL A   1      41.628  32.501  33.720  1.00  0.00     0.037 A 
ATOM     55  C   UNL A   1      42.539  27.739  29.779  1.00  0.00     0.049 A 
ATOM     56  C   UNL A   1      42.207  31.174  34.140  1.00  0.00     0.074 A 
ATOM     57  C   UNL A   1      43.750  28.414  29.758  1.00  0.00     0.029 A 
ATOM     58  N   UNL A   1      42.219  27.551  31.119  1.00  0.00    -0.354 N 
ATOM     59  N   UNL A   1      42.407  30.181  33.320  1.00  0.00    -0.248 NA
ATOM     60  C   UNL A   1      42.567  30.845  35.514  1.00  0.00     0.031 C 
ATOM     61  C   UNL A   1      44.174  28.606  31.095  1.00  0.00     0.029 A 
ATOM     62  C   UNL A   1      43.219  28.051  31.929  1.00  0.00     0.049 A 
ATOM     63  H   UNL A   1      41.396  27.121  31.444  1.00  0.00     0.167 HD
ATOM     64  C   UNL A   1      42.894  29.099  34.016  1.00  0.00     0.074 A 
ATOM     65  C   UNL A   1      42.993  29.576  35.381  1.00  0.00     0.031 C 
ATOM     66  C   UNL A   1      43.152  27.917  33.378  1.00  0.00     0.037 A 
BRANCH  53  67
ATOM     67  C   UNL A   1      41.844  26.527  27.572  1.00  0.00     0.064 A 
ATOM     68  C   UNL A   1      41.178  25.287  27.436  1.00  0.00     0.173 A 
ATOM     69  C   UNL A   1      42.812  26.770  26.580  1.00  0.00     0.173 A 
ATOM     70  F   UNL A   1      40.133  24.962  28.207  1.00  0.00    -0.203 F 
ATOM     71  C   UNL A   1      41.553  24.325  26.493  1.00  0.00     0.198 A 
ATOM     72  C   UNL A   1      43.224  25.791  25.669  1.00  0.00     0.198 A 
ATOM     73  F   UNL A   1      43.343  27.984  26.403  1.00  0.00    -0.203 F 
ATOM     74  F   UNL A   1      40.891  23.161  26.433  1.00  0.00    -0.200 F 
ATOM     75  C   UNL A   1      42.606  24.559  25.638  1.00  0.00     0.200 A 
ATOM     76  F   UNL A   1      44.224  26.058  24.818  1.00  0.00    -0.200 F 
ATOM     77  F   UNL A   1      42.999  23.624  24.765  1.00  0.00    -0.200 F 
ENDBRANCH  53  67
BRANCH  54  78
ATOM     78  C   UNL A   1      40.468  33.162  34.363  1.00  0.00     0.064 A 
ATOM     79  C   UNL A   1      39.299  32.407  34.572  1.00  0.00     0.173 A 
ATOM     80  C   UNL A   1      40.628  34.337  35.106  1.00  0.00     0.173 A 
ATOM     81  F   UNL A   1      39.104  31.271  33.883  1.00  0.00    -0.203 F 
ATOM     82  C   UNL A   1      38.392  32.744  35.572  1.00  0.00     0.198 A 
ATOM     83  C   UNL A   1      39.710  34.678  36.100  1.00  0.00     0.198 A 
ATOM     84  F   UNL A   1      41.732  35.084  34.964  1.00  0.00    -0.203 F 
ATOM     85  F   UNL A   1      37.350  31.941  35.829  1.00  0.00    -0.200 F 
ATOM     86  C   UNL A   1      38.615  33.864  36.355  1.00  0.00     0.200 A 
ATOM     87  F   UNL A   1      39.943  35.739  36.885  1.00  0.00    -0.200 F 
ATOM     88  F   UNL A   1      37.805  34.131  37.390  1.00  0.00    -0.200 F 
ENDBRANCH  54  78
BRANCH  66  89
ATOM     89  C   UNL A   1      43.459  26.555  33.983  1.00  0.00     0.064 A 
ATOM     90  C   UNL A   1      44.722  25.940  33.997  1.00  0.00     0.173 A 
ATOM     91  C   UNL A   1      42.457  25.853  34.711  1.00  0.00     0.173 A 
ATOM     92  F   UNL A   1      45.797  26.525  33.459  1.00  0.00    -0.203 F 
ATOM     93  C   UNL A   1      44.950  24.710  34.629  1.00  0.00     0.198 A 
ATOM     94  C   UNL A   1      42.701  24.657  35.387  1.00  0.00     0.198 A 
ATOM     95  F   UNL A   1      41.204  26.318  34.822  1.00  0.00    -0.203 F 
ATOM     96  F   UNL A   1      46.170  24.155  34.574  1.00  0.00    -0.200 F 
ATOM     97  C   UNL A   1      43.946  24.076  35.333  1.00  0.00     0.200 A 
ATOM     98  F   UNL A   1      41.724  24.090  36.108  1.00  0.00    -0.200 F 
ATOM     99  F   UNL A   1      44.185  22.925  35.976  1.00  0.00    -0.200 F 
ENDBRANCH  66  89
ENDBRANCH  40  41
ENDBRANCH  32  35
ENDBRANCH  30  31
ENDBRANCH   1  30
TORSDOF 13
ENDMDL
