MODEL 1
REMARK VINA RESULT:     -13.2      0.000      0.000
REMARK SMILES CCc1ccc2[nH]c(C(=O)c3cc(C)ccn3)c(CC(=O)NCCCNC(=O)c3ccc(-c4c5nc(c(-c6c(F)c(F)c(F)c(F)c6F)c6ccc([nH]6)c(-c6c(F)c(F)c(F)c(F)c6F)c6nc(c(-c7c(F)c(F)c(F)c(F)c7F)c7ccc4[nH]7)C=C6)C=C5)cc3)c2c1
REMARK SMILES IDX 23 1 22 2 20 3 21 4 19 6 18 7 3 8 4 9 93 10 5 11 92 12 6 13
REMARK SMILES IDX 7 14 8 15 2 17 1 18 9 19 10 20 11 21 12 22 17 23 13 24 16 25
REMARK SMILES IDX 14 26 15 27 24 28 25 29 26 30 27 31 28 33 29 34 30 35 91 36
REMARK SMILES IDX 31 37 90 38 32 39 33 40 34 41 84 42 35 43 89 44 83 45 85 46
REMARK SMILES IDX 36 47 88 48 82 49 81 50 37 52 69 53 49 54 68 55 50 56 53 57
REMARK SMILES IDX 67 58 86 59 51 60 52 61 66 63 87 64 54 65 38 66 39 67 47 68
REMARK SMILES IDX 40 69 41 70 45 71 48 72 42 73 43 74 46 75 44 76 70 77 71 78
REMARK SMILES IDX 79 79 72 80 73 81 77 82 80 83 74 84 75 85 78 86 76 87 55 88
REMARK SMILES IDX 56 89 64 90 57 91 58 92 62 93 65 94 59 95 60 96 63 97 61 98
REMARK H PARENT 22 5 7 16 26 32 85 51 53 62
REMARK Flexibility Score: inf
ROOT
ATOM      1  C   UNL A   1      32.757  27.074  26.502  1.00  0.00     0.117 C 
ENDROOT
BRANCH   1   2
ATOM      2  N   UNL A   1      31.857  25.993  26.841  1.00  0.00    -0.356 N 
ATOM      3  C   UNL A   1      31.989  24.649  26.643  1.00  0.00     0.224 C 
ATOM      4  O   UNL A   1      31.170  23.924  27.216  1.00  0.00    -0.275 OA
ATOM      5  H   UNL A   1      31.021  26.269  27.283  1.00  0.00     0.163 HD
BRANCH   3   6
ATOM      6  C   UNL A   1      33.162  24.069  25.859  1.00  0.00     0.138 C 
BRANCH   6   7
ATOM      7  C   UNL A   1      32.798  23.448  24.534  1.00  0.00    -0.002 A 
ATOM      8  C   UNL A   1      32.449  19.613  24.580  1.00  0.00    -0.048 A 
ATOM      9  C   UNL A   1      32.214  19.498  23.203  1.00  0.00     0.006 A 
ATOM     10  C   UNL A   1      32.625  20.894  25.128  1.00  0.00     0.014 A 
ATOM     11  C   UNL A   1      32.153  20.618  22.365  1.00  0.00     0.027 A 
ATOM     12  C   UNL A   1      32.593  22.044  24.304  1.00  0.00     0.004 A 
ATOM     13  C   UNL A   1      32.350  21.874  22.947  1.00  0.00     0.046 A 
ATOM     14  N   UNL A   1      32.362  23.123  22.376  1.00  0.00    -0.352 N 
ATOM     15  C   UNL A   1      32.555  24.105  23.326  1.00  0.00     0.093 A 
ATOM     16  H   UNL A   1      32.249  23.295  21.413  1.00  0.00     0.167 HD
BRANCH   8  17
ATOM     17  C   UNL A   1      32.528  18.344  25.401  1.00  0.00     0.032 C 
ATOM     18  C   UNL A   1      32.969  17.077  24.677  1.00  0.00     0.009 C 
ENDBRANCH   8  17
BRANCH  15  19
ATOM     19  C   UNL A   1      32.518  25.543  23.067  1.00  0.00     0.227 C 
ATOM     20  O   UNL A   1      33.510  26.197  22.757  1.00  0.00    -0.285 OA
BRANCH  19  21
ATOM     21  C   UNL A   1      31.240  26.282  23.241  1.00  0.00     0.113 A 
ATOM     22  C   UNL A   1      31.093  27.548  22.682  1.00  0.00     0.036 A 
ATOM     23  N   UNL A   1      30.262  25.639  23.926  1.00  0.00    -0.253 NA
ATOM     24  C   UNL A   1      29.867  28.200  22.832  1.00  0.00    -0.047 A 
ATOM     25  C   UNL A   1      29.076  26.271  24.020  1.00  0.00     0.112 A 
ATOM     26  C   UNL A   1      29.632  29.560  22.247  1.00  0.00     0.044 C 
ATOM     27  C   UNL A   1      28.835  27.535  23.500  1.00  0.00     0.023 A 
ENDBRANCH  19  21
ENDBRANCH  15  19
ENDBRANCH   6   7
ENDBRANCH   3   6
ENDBRANCH   1   2
BRANCH   1  28
ATOM     28  C   UNL A   1      32.032  28.351  26.090  1.00  0.00     0.042 C 
BRANCH  28  29
ATOM     29  C   UNL A   1      32.934  29.433  25.503  1.00  0.00     0.118 C 
BRANCH  29  30
ATOM     30  N   UNL A   1      32.611  30.765  25.990  1.00  0.00    -0.352 N 
ATOM     31  C   UNL A   1      33.189  31.523  26.975  1.00  0.00     0.251 C 
ATOM     32  H   UNL A   1      31.849  31.193  25.537  1.00  0.00     0.163 HD
ATOM     33  O   UNL A   1      32.643  32.569  27.320  1.00  0.00    -0.269 OA
BRANCH  31  34
ATOM     34  C   UNL A   1      34.447  31.112  27.642  1.00  0.00     0.039 A 
ATOM     35  C   UNL A   1      34.564  29.784  28.071  1.00  0.00     0.014 A 
ATOM     36  C   UNL A   1      35.469  32.021  27.929  1.00  0.00     0.014 A 
ATOM     37  C   UNL A   1      35.707  29.363  28.754  1.00  0.00     0.010 A 
ATOM     38  C   UNL A   1      36.638  31.587  28.555  1.00  0.00     0.010 A 
ATOM     39  C   UNL A   1      36.760  30.259  28.991  1.00  0.00    -0.014 A 
BRANCH  39  40
ATOM     40  C   UNL A   1      37.971  29.835  29.737  1.00  0.00     0.031 A 
ATOM     41  C   UNL A   1      38.206  30.333  31.137  1.00  0.00     0.074 A 
ATOM     42  C   UNL A   1      38.879  29.036  29.147  1.00  0.00     0.049 A 
ATOM     43  N   UNL A   1      39.225  30.123  31.932  1.00  0.00    -0.248 NA
ATOM     44  C   UNL A   1      37.167  31.204  31.708  1.00  0.00     0.031 C 
ATOM     45  C   UNL A   1      38.785  28.510  27.785  1.00  0.00     0.029 A 
ATOM     46  N   UNL A   1      40.066  28.534  29.619  1.00  0.00    -0.354 N 
ATOM     47  C   UNL A   1      38.965  30.859  33.080  1.00  0.00     0.074 A 
ATOM     48  C   UNL A   1      37.709  31.545  32.868  1.00  0.00     0.031 C 
ATOM     49  C   UNL A   1      39.856  27.737  27.540  1.00  0.00     0.029 A 
ATOM     50  C   UNL A   1      40.722  27.735  28.715  1.00  0.00     0.049 A 
ATOM     51  H   UNL A   1      40.413  28.727  30.520  1.00  0.00     0.167 HD
ATOM     52  C   UNL A   1      39.700  30.945  34.215  1.00  0.00     0.037 A 
ATOM     53  C   UNL A   1      41.888  27.072  28.827  1.00  0.00     0.037 A 
ATOM     54  C   UNL A   1      40.925  30.226  34.447  1.00  0.00     0.049 A 
ATOM     55  C   UNL A   1      42.666  27.150  30.111  1.00  0.00     0.074 A 
ATOM     56  C   UNL A   1      41.709  30.198  35.589  1.00  0.00     0.029 A 
ATOM     57  N   UNL A   1      41.540  29.399  33.519  1.00  0.00    -0.354 N 
ATOM     58  N   UNL A   1      42.387  27.812  31.207  1.00  0.00    -0.248 NA
ATOM     59  C   UNL A   1      43.917  26.382  30.175  1.00  0.00     0.031 C 
ATOM     60  C   UNL A   1      42.811  29.372  35.341  1.00  0.00     0.029 A 
ATOM     61  C   UNL A   1      42.697  28.861  34.059  1.00  0.00     0.049 A 
ATOM     62  H   UNL A   1      41.203  29.221  32.612  1.00  0.00     0.167 HD
ATOM     63  C   UNL A   1      43.407  27.515  32.101  1.00  0.00     0.074 A 
ATOM     64  C   UNL A   1      44.312  26.612  31.420  1.00  0.00     0.031 C 
ATOM     65  C   UNL A   1      43.576  27.951  33.373  1.00  0.00     0.037 A 
BRANCH  52  66
ATOM     66  C   UNL A   1      39.195  31.858  35.291  1.00  0.00     0.064 A 
ATOM     67  C   UNL A   1      38.423  31.379  36.361  1.00  0.00     0.173 A 
ATOM     68  C   UNL A   1      39.492  33.229  35.258  1.00  0.00     0.173 A 
ATOM     69  F   UNL A   1      38.100  30.078  36.430  1.00  0.00    -0.203 F 
ATOM     70  C   UNL A   1      37.940  32.244  37.339  1.00  0.00     0.198 A 
ATOM     71  C   UNL A   1      39.029  34.086  36.251  1.00  0.00     0.198 A 
ATOM     72  F   UNL A   1      40.230  33.735  34.259  1.00  0.00    -0.203 F 
ATOM     73  F   UNL A   1      37.162  31.772  38.323  1.00  0.00    -0.200 F 
ATOM     74  C   UNL A   1      38.245  33.595  37.286  1.00  0.00     0.200 A 
ATOM     75  F   UNL A   1      39.332  35.391  36.203  1.00  0.00    -0.200 F 
ATOM     76  F   UNL A   1      37.778  34.428  38.226  1.00  0.00    -0.200 F 
ENDBRANCH  52  66
BRANCH  53  77
ATOM     77  C   UNL A   1      42.362  26.227  27.704  1.00  0.00     0.064 A 
ATOM     78  C   UNL A   1      43.305  26.719  26.793  1.00  0.00     0.173 A 
ATOM     79  C   UNL A   1      41.901  24.915  27.527  1.00  0.00     0.173 A 
ATOM     80  F   UNL A   1      43.759  27.976  26.913  1.00  0.00    -0.203 F 
ATOM     81  C   UNL A   1      43.764  25.933  25.738  1.00  0.00     0.198 A 
ATOM     82  C   UNL A   1      42.375  24.124  26.485  1.00  0.00     0.198 A 
ATOM     83  F   UNL A   1      41.000  24.400  28.377  1.00  0.00    -0.203 F 
ATOM     84  F   UNL A   1      44.645  26.438  24.864  1.00  0.00    -0.200 F 
ATOM     85  C   UNL A   1      43.303  24.634  25.589  1.00  0.00     0.200 A 
ATOM     86  F   UNL A   1      41.935  22.865  26.347  1.00  0.00    -0.200 F 
ATOM     87  F   UNL A   1      43.749  23.876  24.578  1.00  0.00    -0.200 F 
ENDBRANCH  53  77
BRANCH  65  88
ATOM     88  C   UNL A   1      44.758  27.421  34.127  1.00  0.00     0.064 A 
ATOM     89  C   UNL A   1      44.687  26.230  34.862  1.00  0.00     0.173 A 
ATOM     90  C   UNL A   1      45.985  28.100  34.084  1.00  0.00     0.173 A 
ATOM     91  F   UNL A   1      43.529  25.557  34.944  1.00  0.00    -0.203 F 
ATOM     92  C   UNL A   1      45.799  25.746  35.544  1.00  0.00     0.198 A 
ATOM     93  C   UNL A   1      47.101  27.601  34.750  1.00  0.00     0.198 A 
ATOM     94  F   UNL A   1      46.102  29.242  33.390  1.00  0.00    -0.203 F 
ATOM     95  F   UNL A   1      45.701  24.625  36.272  1.00  0.00    -0.200 F 
ATOM     96  C   UNL A   1      47.006  26.428  35.483  1.00  0.00     0.200 A 
ATOM     97  F   UNL A   1      48.268  28.258  34.685  1.00  0.00    -0.200 F 
ATOM     98  F   UNL A   1      48.076  25.959  36.140  1.00  0.00    -0.200 F 
ENDBRANCH  65  88
ENDBRANCH  39  40
ENDBRANCH  31  34
ENDBRANCH  29  30
ENDBRANCH  28  29
ENDBRANCH   1  28
TORSDOF 14
ENDMDL
MODEL 2
REMARK VINA RESULT:     -13.1      2.044      3.047
REMARK SMILES CCc1ccc2[nH]c(C(=O)c3cc(C)ccn3)c(CC(=O)NCCCNC(=O)c3ccc(-c4c5nc(c(-c6c(F)c(F)c(F)c(F)c6F)c6ccc([nH]6)c(-c6c(F)c(F)c(F)c(F)c6F)c6nc(c(-c7c(F)c(F)c(F)c(F)c7F)c7ccc4[nH]7)C=C6)C=C5)cc3)c2c1
REMARK SMILES IDX 23 1 22 2 20 3 21 4 19 6 18 7 3 8 4 9 93 10 5 11 92 12 6 13
REMARK SMILES IDX 7 14 8 15 2 17 1 18 9 19 10 20 11 21 12 22 17 23 13 24 16 25
REMARK SMILES IDX 14 26 15 27 24 28 25 29 26 30 27 31 28 33 29 34 30 35 91 36
REMARK SMILES IDX 31 37 90 38 32 39 33 40 34 41 84 42 35 43 89 44 83 45 85 46
REMARK SMILES IDX 36 47 88 48 82 49 81 50 37 52 69 53 49 54 68 55 50 56 53 57
REMARK SMILES IDX 67 58 86 59 51 60 52 61 66 63 87 64 54 65 38 66 39 67 47 68
REMARK SMILES IDX 40 69 41 70 45 71 48 72 42 73 43 74 46 75 44 76 70 77 71 78
REMARK SMILES IDX 79 79 72 80 73 81 77 82 80 83 74 84 75 85 78 86 76 87 55 88
REMARK SMILES IDX 56 89 64 90 57 91 58 92 62 93 65 94 59 95 60 96 63 97 61 98
REMARK H PARENT 22 5 7 16 26 32 85 51 53 62
REMARK Flexibility Score: inf
ROOT
ATOM      1  C   UNL A   1      31.140  30.508  25.797  1.00  0.00     0.117 C 
ENDROOT
BRANCH   1   2
ATOM      2  N   UNL A   1      32.258  30.086  24.980  1.00  0.00    -0.356 N 
ATOM      3  C   UNL A   1      32.683  28.828  24.662  1.00  0.00     0.224 C 
ATOM      4  O   UNL A   1      33.538  28.745  23.775  1.00  0.00    -0.275 OA
ATOM      5  H   UNL A   1      32.792  30.818  24.596  1.00  0.00     0.163 HD
BRANCH   3   6
ATOM      6  C   UNL A   1      32.044  27.589  25.280  1.00  0.00     0.138 C 
BRANCH   6   7
ATOM      7  C   UNL A   1      31.852  26.432  24.332  1.00  0.00    -0.002 A 
ATOM      8  C   UNL A   1      34.819  23.986  24.131  1.00  0.00    -0.048 A 
ATOM      9  C   UNL A   1      34.250  23.192  23.126  1.00  0.00     0.006 A 
ATOM     10  C   UNL A   1      34.082  25.075  24.626  1.00  0.00     0.014 A 
ATOM     11  C   UNL A   1      32.979  23.455  22.603  1.00  0.00     0.027 A 
ATOM     12  C   UNL A   1      32.804  25.381  24.101  1.00  0.00     0.004 A 
ATOM     13  C   UNL A   1      32.285  24.557  23.109  1.00  0.00     0.046 A 
ATOM     14  N   UNL A   1      31.049  25.056  22.778  1.00  0.00    -0.352 N 
ATOM     15  C   UNL A   1      30.725  26.147  23.557  1.00  0.00     0.093 A 
ATOM     16  H   UNL A   1      30.470  24.683  22.075  1.00  0.00     0.167 HD
BRANCH   8  17
ATOM     17  C   UNL A   1      36.211  23.642  24.614  1.00  0.00     0.032 C 
ATOM     18  C   UNL A   1      36.896  22.448  23.958  1.00  0.00     0.009 C 
ENDBRANCH   8  17
BRANCH  15  19
ATOM     19  C   UNL A   1      29.443  26.848  23.530  1.00  0.00     0.227 C 
ATOM     20  O   UNL A   1      28.384  26.329  23.876  1.00  0.00    -0.285 OA
BRANCH  19  21
ATOM     21  C   UNL A   1      29.382  28.236  23.003  1.00  0.00     0.113 A 
ATOM     22  C   UNL A   1      28.446  29.130  23.517  1.00  0.00     0.036 A 
ATOM     23  N   UNL A   1      30.292  28.559  22.051  1.00  0.00    -0.253 NA
ATOM     24  C   UNL A   1      28.440  30.438  23.027  1.00  0.00    -0.047 A 
ATOM     25  C   UNL A   1      30.293  29.837  21.626  1.00  0.00     0.112 A 
ATOM     26  C   UNL A   1      27.469  31.457  23.542  1.00  0.00     0.044 C 
ATOM     27  C   UNL A   1      29.398  30.798  22.075  1.00  0.00     0.023 A 
ENDBRANCH  19  21
ENDBRANCH  15  19
ENDBRANCH   6   7
ENDBRANCH   3   6
ENDBRANCH   1   2
BRANCH   1  28
ATOM     28  C   UNL A   1      31.187  31.989  26.159  1.00  0.00     0.042 C 
BRANCH  28  29
ATOM     29  C   UNL A   1      32.444  32.422  26.909  1.00  0.00     0.118 C 
BRANCH  29  30
ATOM     30  N   UNL A   1      32.382  33.800  27.369  1.00  0.00    -0.352 N 
ATOM     31  C   UNL A   1      33.079  34.446  28.357  1.00  0.00     0.251 C 
ATOM     32  H   UNL A   1      31.730  34.362  26.891  1.00  0.00     0.163 HD
ATOM     33  O   UNL A   1      32.745  35.586  28.673  1.00  0.00    -0.269 OA
BRANCH  31  34
ATOM     34  C   UNL A   1      34.216  33.806  29.059  1.00  0.00     0.039 A 
ATOM     35  C   UNL A   1      35.514  34.193  28.704  1.00  0.00     0.014 A 
ATOM     36  C   UNL A   1      34.033  32.777  29.988  1.00  0.00     0.014 A 
ATOM     37  C   UNL A   1      36.619  33.577  29.297  1.00  0.00     0.010 A 
ATOM     38  C   UNL A   1      35.135  32.206  30.627  1.00  0.00     0.010 A 
ATOM     39  C   UNL A   1      36.438  32.587  30.273  1.00  0.00    -0.014 A 
BRANCH  39  40
ATOM     40  C   UNL A   1      37.601  31.905  30.895  1.00  0.00     0.031 A 
ATOM     41  C   UNL A   1      38.029  32.268  32.290  1.00  0.00     0.074 A 
ATOM     42  C   UNL A   1      38.298  30.991  30.195  1.00  0.00     0.049 A 
ATOM     43  N   UNL A   1      39.047  31.829  32.986  1.00  0.00    -0.248 NA
ATOM     44  C   UNL A   1      37.216  33.278  32.986  1.00  0.00     0.031 C 
ATOM     45  C   UNL A   1      38.006  30.573  28.824  1.00  0.00     0.029 A 
ATOM     46  N   UNL A   1      39.402  30.254  30.542  1.00  0.00    -0.354 N 
ATOM     47  C   UNL A   1      39.016  32.530  34.184  1.00  0.00     0.074 A 
ATOM     48  C   UNL A   1      37.897  33.445  34.110  1.00  0.00     0.031 C 
ATOM     49  C   UNL A   1      38.892  29.634  28.454  1.00  0.00     0.029 A 
ATOM     50  C   UNL A   1      39.828  29.404  29.551  1.00  0.00     0.049 A 
ATOM     51  H   UNL A   1      39.846  30.326  31.418  1.00  0.00     0.167 HD
ATOM     52  C   UNL A   1      39.837  32.413  35.255  1.00  0.00     0.037 A 
ATOM     53  C   UNL A   1      40.855  28.534  29.534  1.00  0.00     0.037 A 
ATOM     54  C   UNL A   1      40.920  31.471  35.351  1.00  0.00     0.049 A 
ATOM     55  C   UNL A   1      41.728  28.393  30.750  1.00  0.00     0.074 A 
ATOM     56  C   UNL A   1      41.768  31.232  36.420  1.00  0.00     0.029 A 
ATOM     57  N   UNL A   1      41.299  30.602  34.338  1.00  0.00    -0.354 N 
ATOM     58  N   UNL A   1      41.660  29.028  31.894  1.00  0.00    -0.248 NA
ATOM     59  C   UNL A   1      42.815  27.407  30.673  1.00  0.00     0.031 C 
ATOM     60  C   UNL A   1      42.676  30.235  36.043  1.00  0.00     0.029 A 
ATOM     61  C   UNL A   1      42.373  29.832  34.753  1.00  0.00     0.049 A 
ATOM     62  H   UNL A   1      40.868  30.543  33.456  1.00  0.00     0.167 HD
ATOM     63  C   UNL A   1      42.671  28.498  32.684  1.00  0.00     0.074 A 
ATOM     64  C   UNL A   1      43.338  27.487  31.889  1.00  0.00     0.031 C 
ATOM     65  C   UNL A   1      43.012  28.818  33.955  1.00  0.00     0.037 A 
BRANCH  52  66
ATOM     66  C   UNL A   1      39.592  33.337  36.411  1.00  0.00     0.064 A 
ATOM     67  C   UNL A   1      40.210  34.594  36.491  1.00  0.00     0.173 A 
ATOM     68  C   UNL A   1      38.722  32.964  37.446  1.00  0.00     0.173 A 
ATOM     69  F   UNL A   1      41.061  34.990  35.532  1.00  0.00    -0.203 F 
ATOM     70  C   UNL A   1      39.992  35.430  37.583  1.00  0.00     0.198 A 
ATOM     71  C   UNL A   1      38.487  33.813  38.524  1.00  0.00     0.198 A 
ATOM     72  F   UNL A   1      38.103  31.774  37.413  1.00  0.00    -0.203 F 
ATOM     73  F   UNL A   1      40.633  36.605  37.664  1.00  0.00    -0.200 F 
ATOM     74  C   UNL A   1      39.128  35.042  38.596  1.00  0.00     0.200 A 
ATOM     75  F   UNL A   1      37.645  33.439  39.498  1.00  0.00    -0.200 F 
ATOM     76  F   UNL A   1      38.921  35.846  39.648  1.00  0.00    -0.200 F 
ENDBRANCH  52  66
BRANCH  53  77
ATOM     77  C   UNL A   1      41.078  27.686  28.338  1.00  0.00     0.064 A 
ATOM     78  C   UNL A   1      41.945  28.105  27.320  1.00  0.00     0.173 A 
ATOM     79  C   UNL A   1      40.450  26.441  28.195  1.00  0.00     0.173 A 
ATOM     80  F   UNL A   1      42.551  29.299  27.407  1.00  0.00    -0.203 F 
ATOM     81  C   UNL A   1      42.168  27.314  26.195  1.00  0.00     0.198 A 
ATOM     82  C   UNL A   1      40.689  25.642  27.079  1.00  0.00     0.198 A 
ATOM     83  F   UNL A   1      39.615  25.997  29.145  1.00  0.00    -0.203 F 
ATOM     84  F   UNL A   1      42.979  27.751  25.223  1.00  0.00    -0.200 F 
ATOM     85  C   UNL A   1      41.545  26.081  26.079  1.00  0.00     0.200 A 
ATOM     86  F   UNL A   1      40.093  24.446  26.973  1.00  0.00    -0.200 F 
ATOM     87  F   UNL A   1      41.765  25.317  25.001  1.00  0.00    -0.200 F 
ENDBRANCH  53  77
BRANCH  65  88
ATOM     88  C   UNL A   1      44.128  28.038  34.582  1.00  0.00     0.064 A 
ATOM     89  C   UNL A   1      43.893  26.834  35.259  1.00  0.00     0.173 A 
ATOM     90  C   UNL A   1      45.453  28.489  34.474  1.00  0.00     0.173 A 
ATOM     91  F   UNL A   1      42.641  26.375  35.401  1.00  0.00    -0.203 F 
ATOM     92  C   UNL A   1      44.944  26.116  35.823  1.00  0.00     0.198 A 
ATOM     93  C   UNL A   1      46.503  27.757  35.020  1.00  0.00     0.198 A 
ATOM     94  F   UNL A   1      45.728  29.634  33.832  1.00  0.00    -0.203 F 
ATOM     95  F   UNL A   1      44.693  24.985  36.498  1.00  0.00    -0.200 F 
ATOM     96  C   UNL A   1      46.248  26.574  35.698  1.00  0.00     0.200 A 
ATOM     97  F   UNL A   1      47.763  28.197  34.894  1.00  0.00    -0.200 F 
ATOM     98  F   UNL A   1      47.257  25.880  36.240  1.00  0.00    -0.200 F 
ENDBRANCH  65  88
ENDBRANCH  39  40
ENDBRANCH  31  34
ENDBRANCH  29  30
ENDBRANCH  28  29
ENDBRANCH   1  28
TORSDOF 14
ENDMDL
MODEL 3
REMARK VINA RESULT:     -13.1      2.290      8.489
REMARK SMILES CCc1ccc2[nH]c(C(=O)c3cc(C)ccn3)c(CC(=O)NCCCNC(=O)c3ccc(-c4c5nc(c(-c6c(F)c(F)c(F)c(F)c6F)c6ccc([nH]6)c(-c6c(F)c(F)c(F)c(F)c6F)c6nc(c(-c7c(F)c(F)c(F)c(F)c7F)c7ccc4[nH]7)C=C6)C=C5)cc3)c2c1
REMARK SMILES IDX 23 1 22 2 20 3 21 4 19 6 18 7 3 8 4 9 93 10 5 11 92 12 6 13
REMARK SMILES IDX 7 14 8 15 2 17 1 18 9 19 10 20 11 21 12 22 17 23 13 24 16 25
REMARK SMILES IDX 14 26 15 27 24 28 25 29 26 30 27 31 28 33 29 34 30 35 91 36
REMARK SMILES IDX 31 37 90 38 32 39 33 40 34 41 84 42 35 43 89 44 83 45 85 46
REMARK SMILES IDX 36 47 88 48 82 49 81 50 37 52 69 53 49 54 68 55 50 56 53 57
REMARK SMILES IDX 67 58 86 59 51 60 52 61 66 63 87 64 54 65 38 66 39 67 47 68
REMARK SMILES IDX 40 69 41 70 45 71 48 72 42 73 43 74 46 75 44 76 70 77 71 78
REMARK SMILES IDX 79 79 72 80 73 81 77 82 80 83 74 84 75 85 78 86 76 87 55 88
REMARK SMILES IDX 56 89 64 90 57 91 58 92 62 93 65 94 59 95 60 96 63 97 61 98
REMARK H PARENT 22 5 7 16 26 32 85 51 53 62
REMARK Flexibility Score: inf
ROOT
ATOM      1  C   UNL A   1      31.526  30.822  26.082  1.00  0.00     0.117 C 
ENDROOT
BRANCH   1   2
ATOM      2  N   UNL A   1      32.239  29.832  26.862  1.00  0.00    -0.356 N 
ATOM      3  C   UNL A   1      32.795  28.647  26.473  1.00  0.00     0.224 C 
ATOM      4  O   UNL A   1      33.530  28.089  27.293  1.00  0.00    -0.275 OA
ATOM      5  H   UNL A   1      32.338  30.047  27.817  1.00  0.00     0.163 HD
BRANCH   3   6
ATOM      6  C   UNL A   1      32.618  28.108  25.058  1.00  0.00     0.138 C 
BRANCH   6   7
ATOM      7  C   UNL A   1      31.335  27.352  24.820  1.00  0.00    -0.002 A 
ATOM      8  C   UNL A   1      28.620  29.313  22.921  1.00  0.00    -0.048 A 
ATOM      9  C   UNL A   1      27.653  28.303  23.018  1.00  0.00     0.006 A 
ATOM     10  C   UNL A   1      29.894  29.079  23.464  1.00  0.00     0.014 A 
ATOM     11  C   UNL A   1      27.920  27.078  23.640  1.00  0.00     0.027 A 
ATOM     12  C   UNL A   1      30.188  27.860  24.120  1.00  0.00     0.004 A 
ATOM     13  C   UNL A   1      29.195  26.891  24.183  1.00  0.00     0.046 A 
ATOM     14  N   UNL A   1      29.724  25.816  24.854  1.00  0.00    -0.352 N 
ATOM     15  C   UNL A   1      31.045  26.035  25.186  1.00  0.00     0.093 A 
ATOM     16  H   UNL A   1      29.225  24.996  25.071  1.00  0.00     0.167 HD
BRANCH   8  17
ATOM     17  C   UNL A   1      28.229  30.616  22.257  1.00  0.00     0.032 C 
ATOM     18  C   UNL A   1      27.678  31.715  23.159  1.00  0.00     0.009 C 
ENDBRANCH   8  17
BRANCH  15  19
ATOM     19  C   UNL A   1      31.927  25.053  25.813  1.00  0.00     0.227 C 
ATOM     20  O   UNL A   1      31.780  24.653  26.965  1.00  0.00    -0.285 OA
BRANCH  19  21
ATOM     21  C   UNL A   1      33.104  24.545  25.060  1.00  0.00     0.113 A 
ATOM     22  C   UNL A   1      34.348  24.482  25.681  1.00  0.00     0.036 A 
ATOM     23  N   UNL A   1      32.872  24.133  23.788  1.00  0.00    -0.253 NA
ATOM     24  C   UNL A   1      35.425  23.965  24.959  1.00  0.00    -0.047 A 
ATOM     25  C   UNL A   1      33.918  23.599  23.128  1.00  0.00     0.112 A 
ATOM     26  C   UNL A   1      36.790  23.856  25.567  1.00  0.00     0.044 C 
ATOM     27  C   UNL A   1      35.195  23.498  23.661  1.00  0.00     0.023 A 
ENDBRANCH  19  21
ENDBRANCH  15  19
ENDBRANCH   6   7
ENDBRANCH   3   6
ENDBRANCH   1   2
BRANCH   1  28
ATOM     28  C   UNL A   1      31.359  32.152  26.811  1.00  0.00     0.042 C 
BRANCH  28  29
ATOM     29  C   UNL A   1      32.659  32.914  27.051  1.00  0.00     0.118 C 
BRANCH  29  30
ATOM     30  N   UNL A   1      32.440  34.256  27.566  1.00  0.00    -0.352 N 
ATOM     31  C   UNL A   1      32.997  34.907  28.637  1.00  0.00     0.251 C 
ATOM     32  H   UNL A   1      31.782  34.787  27.061  1.00  0.00     0.163 HD
ATOM     33  O   UNL A   1      32.541  35.997  28.975  1.00  0.00    -0.269 OA
BRANCH  31  34
ATOM     34  C   UNL A   1      34.126  34.328  29.402  1.00  0.00     0.039 A 
ATOM     35  C   UNL A   1      35.424  34.517  28.911  1.00  0.00     0.014 A 
ATOM     36  C   UNL A   1      33.927  33.534  30.536  1.00  0.00     0.014 A 
ATOM     37  C   UNL A   1      36.515  33.942  29.567  1.00  0.00     0.010 A 
ATOM     38  C   UNL A   1      35.022  33.012  31.227  1.00  0.00     0.010 A 
ATOM     39  C   UNL A   1      36.324  33.195  30.738  1.00  0.00    -0.014 A 
BRANCH  39  40
ATOM     40  C   UNL A   1      37.470  32.557  31.433  1.00  0.00     0.031 A 
ATOM     41  C   UNL A   1      38.219  31.432  30.773  1.00  0.00     0.074 A 
ATOM     42  C   UNL A   1      37.814  32.958  32.671  1.00  0.00     0.049 A 
ATOM     43  N   UNL A   1      39.209  30.711  31.236  1.00  0.00    -0.248 NA
ATOM     44  C   UNL A   1      37.779  31.052  29.422  1.00  0.00     0.031 C 
ATOM     45  C   UNL A   1      37.150  34.015  33.433  1.00  0.00     0.029 A 
ATOM     46  N   UNL A   1      38.807  32.515  33.509  1.00  0.00    -0.354 N 
ATOM     47  C   UNL A   1      39.487  29.774  30.249  1.00  0.00     0.074 A 
ATOM     48  C   UNL A   1      38.543  29.998  29.175  1.00  0.00     0.031 C 
ATOM     49  C   UNL A   1      37.769  34.158  34.616  1.00  0.00     0.029 A 
ATOM     50  C   UNL A   1      38.856  33.186  34.705  1.00  0.00     0.049 A 
ATOM     51  H   UNL A   1      39.426  31.786  33.273  1.00  0.00     0.167 HD
ATOM     52  C   UNL A   1      40.451  28.823  30.233  1.00  0.00     0.037 A 
ATOM     53  C   UNL A   1      39.688  33.037  35.753  1.00  0.00     0.037 A 
ATOM     54  C   UNL A   1      41.421  28.629  31.277  1.00  0.00     0.049 A 
ATOM     55  C   UNL A   1      40.776  32.001  35.694  1.00  0.00     0.074 A 
ATOM     56  C   UNL A   1      42.476  27.734  31.323  1.00  0.00     0.029 A 
ATOM     57  N   UNL A   1      41.459  29.353  32.459  1.00  0.00    -0.354 N 
ATOM     58  N   UNL A   1      41.058  31.153  34.736  1.00  0.00    -0.248 NA
ATOM     59  C   UNL A   1      41.664  31.908  36.861  1.00  0.00     0.031 C 
ATOM     60  C   UNL A   1      43.138  27.900  32.545  1.00  0.00     0.029 A 
ATOM     61  C   UNL A   1      42.514  28.920  33.246  1.00  0.00     0.049 A 
ATOM     62  H   UNL A   1      40.829  30.068  32.703  1.00  0.00     0.167 HD
ATOM     63  C   UNL A   1      42.175  30.449  35.168  1.00  0.00     0.074 A 
ATOM     64  C   UNL A   1      42.519  30.970  36.474  1.00  0.00     0.031 C 
ATOM     65  C   UNL A   1      42.853  29.462  34.535  1.00  0.00     0.037 A 
BRANCH  52  66
ATOM     66  C   UNL A   1      40.495  27.913  29.041  1.00  0.00     0.064 A 
ATOM     67  C   UNL A   1      41.304  28.194  27.930  1.00  0.00     0.173 A 
ATOM     68  C   UNL A   1      39.725  26.740  29.015  1.00  0.00     0.173 A 
ATOM     69  F   UNL A   1      42.047  29.310  27.902  1.00  0.00    -0.203 F 
ATOM     70  C   UNL A   1      41.314  27.352  26.821  1.00  0.00     0.198 A 
ATOM     71  C   UNL A   1      39.758  25.888  27.915  1.00  0.00     0.198 A 
ATOM     72  F   UNL A   1      38.939  26.424  30.055  1.00  0.00    -0.203 F 
ATOM     73  F   UNL A   1      42.055  27.668  25.750  1.00  0.00    -0.200 F 
ATOM     74  C   UNL A   1      40.545  26.198  26.815  1.00  0.00     0.200 A 
ATOM     75  F   UNL A   1      39.019  24.769  27.915  1.00  0.00    -0.200 F 
ATOM     76  F   UNL A   1      40.553  25.390  25.747  1.00  0.00    -0.200 F 
ENDBRANCH  52  66
BRANCH  53  77
ATOM     77  C   UNL A   1      39.558  33.934  36.927  1.00  0.00     0.064 A 
ATOM     78  C   UNL A   1      38.809  33.540  38.043  1.00  0.00     0.173 A 
ATOM     79  C   UNL A   1      40.188  35.186  36.967  1.00  0.00     0.173 A 
ATOM     80  F   UNL A   1      38.173  32.358  38.039  1.00  0.00    -0.203 F 
ATOM     81  C   UNL A   1      38.685  34.370  39.155  1.00  0.00     0.198 A 
ATOM     82  C   UNL A   1      40.079  36.006  38.087  1.00  0.00     0.198 A 
ATOM     83  F   UNL A   1      40.918  35.603  35.923  1.00  0.00    -0.203 F 
ATOM     84  F   UNL A   1      37.939  33.982  40.198  1.00  0.00    -0.200 F 
ATOM     85  C   UNL A   1      39.325  35.600  39.178  1.00  0.00     0.200 A 
ATOM     86  F   UNL A   1      40.707  37.191  38.111  1.00  0.00    -0.200 F 
ATOM     87  F   UNL A   1      39.211  36.396  40.250  1.00  0.00    -0.200 F 
ENDBRANCH  53  77
BRANCH  65  88
ATOM     88  C   UNL A   1      44.064  28.912  35.227  1.00  0.00     0.064 A 
ATOM     89  C   UNL A   1      45.341  29.445  35.007  1.00  0.00     0.173 A 
ATOM     90  C   UNL A   1      43.936  27.859  36.145  1.00  0.00     0.173 A 
ATOM     91  F   UNL A   1      45.513  30.442  34.125  1.00  0.00    -0.203 F 
ATOM     92  C   UNL A   1      46.452  28.931  35.669  1.00  0.00     0.198 A 
ATOM     93  C   UNL A   1      45.046  27.362  36.821  1.00  0.00     0.198 A 
ATOM     94  F   UNL A   1      42.733  27.318  36.390  1.00  0.00    -0.203 F 
ATOM     95  F   UNL A   1      47.670  29.431  35.417  1.00  0.00    -0.200 F 
ATOM     96  C   UNL A   1      46.303  27.894  36.579  1.00  0.00     0.200 A 
ATOM     97  F   UNL A   1      44.901  26.364  37.704  1.00  0.00    -0.200 F 
ATOM     98  F   UNL A   1      47.375  27.402  37.216  1.00  0.00    -0.200 F 
ENDBRANCH  65  88
ENDBRANCH  39  40
ENDBRANCH  31  34
ENDBRANCH  29  30
ENDBRANCH  28  29
ENDBRANCH   1  28
TORSDOF 14
ENDMDL
