MODEL 1
REMARK VINA RESULT:     -11.5      0.000      0.000
REMARK SMILES CCC[NH2+][C@@]1(C(=O)NCCCNC(=O)c2ccc(-c3c4nc(c(-c5c(F)c(F)c(F)c(F)c5F)c5ccc([nH]5)c(-c5c(F)c(F)c(F)c(F)c5F)c5nc(c(-c6c(F)c(F)c(F)c(F)c6F)c6ccc3[nH]6)C=C5)C=C4)cc2)CCC[C@H](n2nc(C)c(C)c2C)C1
REMARK SMILES IDX 9 1 8 2 6 3 7 4 5 6 78 7 90 8 79 9 81 10 80 11 4 12 3 15
REMARK SMILES IDX 2 16 1 17 82 18 83 19 88 20 84 21 86 22 89 23 85 24 87 25
REMARK SMILES IDX 10 26 11 27 12 28 13 29 14 31 15 32 16 33 77 34 17 35 76 36
REMARK SMILES IDX 18 37 19 38 20 39 70 40 21 41 75 42 69 43 71 44 22 45 74 46
REMARK SMILES IDX 68 47 67 48 23 50 55 51 35 52 54 53 36 54 39 55 53 56 72 57
REMARK SMILES IDX 37 58 38 59 52 61 73 62 40 63 24 64 25 65 33 66 26 67 27 68
REMARK SMILES IDX 31 69 34 70 28 71 29 72 32 73 30 74 56 75 57 76 65 77 58 78
REMARK SMILES IDX 59 79 63 80 66 81 60 82 61 83 64 84 62 85 41 86 42 87 50 88
REMARK SMILES IDX 43 89 44 90 48 91 51 92 45 93 46 94 49 95 47 96
REMARK H PARENT 8 5 4 13 4 14 12 30 71 49 39 60
REMARK Flexibility Score: inf
ROOT
ATOM      1  C   UNL A   1      32.727  27.436  26.798  1.00  0.00     0.118 C 
ENDROOT
BRANCH   1   2
ATOM      2  N   UNL A   1      33.100  26.580  25.664  1.00  0.00    -0.351 N 
ATOM      3  C   UNL A   1      32.556  26.233  24.452  1.00  0.00     0.281 C 
ATOM      4  O   UNL A   1      33.417  26.118  23.563  1.00  0.00    -0.268 OA
ATOM      5  H   UNL A   1      33.969  26.139  25.813  1.00  0.00     0.163 HD
BRANCH   3   6
ATOM      6  C   UNL A   1      31.016  25.879  24.142  1.00  0.00     0.177 C 
ATOM      7  C   UNL A   1      30.080  26.329  25.251  1.00  0.00     0.079 C 
ATOM      8  C   UNL A   1      30.653  24.397  23.850  1.00  0.00     0.106 C 
ATOM      9  C   UNL A   1      29.878  25.272  26.362  1.00  0.00     0.009 C 
ATOM     10  C   UNL A   1      31.155  23.410  24.865  1.00  0.00     0.114 C 
ATOM     11  C   UNL A   1      30.409  23.809  26.179  1.00  0.00     0.028 C 
BRANCH   6  12
ATOM     12  N   UNL A   1      30.629  26.402  22.796  1.00  0.00    -0.334 N 
ATOM     13  H   UNL A   1      31.084  25.795  22.115  1.00  0.00     0.347 HD
ATOM     14  H   UNL A   1      29.611  26.410  22.861  1.00  0.00     0.347 HD
BRANCH  12  15
ATOM     15  C   UNL A   1      30.908  27.754  22.378  1.00  0.00     0.261 C 
BRANCH  15  16
ATOM     16  C   UNL A   1      29.624  28.593  22.582  1.00  0.00     0.058 C 
ATOM     17  C   UNL A   1      29.784  29.807  23.501  1.00  0.00     0.010 C 
ENDBRANCH  15  16
ENDBRANCH  12  15
ENDBRANCH   6  12
BRANCH  10  18
ATOM     18  N   UNL A   1      32.606  23.201  24.784  1.00  0.00    -0.266 N 
ATOM     19  N   UNL A   1      33.389  23.411  25.876  1.00  0.00    -0.178 NA
ATOM     20  C   UNL A   1      33.367  22.626  23.762  1.00  0.00     0.039 A 
ATOM     21  C   UNL A   1      34.639  23.254  25.412  1.00  0.00     0.063 A 
ATOM     22  C   UNL A   1      34.669  22.994  24.032  1.00  0.00    -0.007 A 
ATOM     23  C   UNL A   1      32.925  21.829  22.585  1.00  0.00     0.066 C 
ATOM     24  C   UNL A   1      35.831  23.319  26.283  1.00  0.00     0.069 C 
ATOM     25  C   UNL A   1      35.842  22.952  23.125  1.00  0.00     0.048 C 
ENDBRANCH  10  18
ENDBRANCH   3   6
ENDBRANCH   1   2
BRANCH   1  26
ATOM     26  C   UNL A   1      32.090  28.796  26.460  1.00  0.00     0.042 C 
BRANCH  26  27
ATOM     27  C   UNL A   1      32.943  29.856  25.753  1.00  0.00     0.118 C 
BRANCH  27  28
ATOM     28  N   UNL A   1      32.728  31.210  26.262  1.00  0.00    -0.352 N 
ATOM     29  C   UNL A   1      33.379  31.910  27.251  1.00  0.00     0.251 C 
ATOM     30  H   UNL A   1      31.996  31.701  25.824  1.00  0.00     0.163 HD
ATOM     31  O   UNL A   1      32.901  32.999  27.616  1.00  0.00    -0.269 OA
BRANCH  29  32
ATOM     32  C   UNL A   1      34.624  31.437  27.909  1.00  0.00     0.039 A 
ATOM     33  C   UNL A   1      34.663  30.161  28.484  1.00  0.00     0.014 A 
ATOM     34  C   UNL A   1      35.728  32.270  28.081  1.00  0.00     0.014 A 
ATOM     35  C   UNL A   1      35.807  29.715  29.168  1.00  0.00     0.010 A 
ATOM     36  C   UNL A   1      36.902  31.796  28.687  1.00  0.00     0.010 A 
ATOM     37  C   UNL A   1      36.958  30.516  29.259  1.00  0.00    -0.014 A 
BRANCH  37  38
ATOM     38  C   UNL A   1      38.185  30.044  29.980  1.00  0.00     0.031 A 
ATOM     39  C   UNL A   1      38.479  30.504  31.391  1.00  0.00     0.074 A 
ATOM     40  C   UNL A   1      39.061  29.214  29.375  1.00  0.00     0.049 A 
ATOM     41  N   UNL A   1      39.494  30.208  32.171  1.00  0.00    -0.248 NA
ATOM     42  C   UNL A   1      37.521  31.438  32.001  1.00  0.00     0.031 C 
ATOM     43  C   UNL A   1      38.949  28.723  28.001  1.00  0.00     0.029 A 
ATOM     44  N   UNL A   1      40.223  28.635  29.836  1.00  0.00    -0.354 N 
ATOM     45  C   UNL A   1      39.299  30.926  33.346  1.00  0.00     0.074 A 
ATOM     46  C   UNL A   1      38.106  31.722  33.156  1.00  0.00     0.031 C 
ATOM     47  C   UNL A   1      39.973  27.892  27.744  1.00  0.00     0.029 A 
ATOM     48  C   UNL A   1      40.837  27.815  28.918  1.00  0.00     0.049 A 
ATOM     49  H   UNL A   1      40.580  28.793  30.739  1.00  0.00     0.167 HD
ATOM     50  C   UNL A   1      40.020  30.903  34.495  1.00  0.00     0.037 A 
ATOM     51  C   UNL A   1      41.968  27.083  29.007  1.00  0.00     0.037 A 
ATOM     52  C   UNL A   1      41.189  30.090  34.710  1.00  0.00     0.049 A 
ATOM     53  C   UNL A   1      42.757  27.080  30.291  1.00  0.00     0.074 A 
ATOM     54  C   UNL A   1      41.951  29.964  35.860  1.00  0.00     0.029 A 
ATOM     55  N   UNL A   1      41.765  29.266  33.758  1.00  0.00    -0.354 N 
ATOM     56  N   UNL A   1      42.513  27.707  31.416  1.00  0.00    -0.248 NA
ATOM     57  C   UNL A   1      43.976  26.258  30.320  1.00  0.00     0.031 C 
ATOM     58  C   UNL A   1      43.015  29.098  35.590  1.00  0.00     0.029 A 
ATOM     59  C   UNL A   1      42.882  28.639  34.290  1.00  0.00     0.049 A 
ATOM     60  H   UNL A   1      41.431  29.142  32.840  1.00  0.00     0.167 HD
ATOM     61  C   UNL A   1      43.519  27.323  32.293  1.00  0.00     0.074 A 
ATOM     62  C   UNL A   1      44.374  26.402  31.576  1.00  0.00     0.031 C 
ATOM     63  C   UNL A   1      43.713  27.700  33.581  1.00  0.00     0.037 A 
BRANCH  50  64
ATOM     64  C   UNL A   1      39.553  31.772  35.631  1.00  0.00     0.064 A 
ATOM     65  C   UNL A   1      40.043  33.075  35.806  1.00  0.00     0.173 A 
ATOM     66  C   UNL A   1      38.566  31.320  36.521  1.00  0.00     0.173 A 
ATOM     67  F   UNL A   1      40.991  33.556  34.987  1.00  0.00    -0.203 F 
ATOM     68  C   UNL A   1      39.585  33.882  36.845  1.00  0.00     0.198 A 
ATOM     69  C   UNL A   1      38.086  32.142  37.539  1.00  0.00     0.198 A 
ATOM     70  F   UNL A   1      38.052  30.087  36.393  1.00  0.00    -0.203 F 
ATOM     71  F   UNL A   1      40.104  35.105  37.021  1.00  0.00    -0.200 F 
ATOM     72  C   UNL A   1      38.602  33.417  37.705  1.00  0.00     0.200 A 
ATOM     73  F   UNL A   1      37.122  31.698  38.357  1.00  0.00    -0.200 F 
ATOM     74  F   UNL A   1      38.154  34.199  38.697  1.00  0.00    -0.200 F 
ENDBRANCH  50  64
BRANCH  51  75
ATOM     75  C   UNL A   1      42.417  26.256  27.852  1.00  0.00     0.064 A 
ATOM     76  C   UNL A   1      43.366  26.744  26.942  1.00  0.00     0.173 A 
ATOM     77  C   UNL A   1      41.886  24.980  27.615  1.00  0.00     0.173 A 
ATOM     78  F   UNL A   1      43.885  27.970  27.109  1.00  0.00    -0.203 F 
ATOM     79  C   UNL A   1      43.747  26.000  25.826  1.00  0.00     0.198 A 
ATOM     80  C   UNL A   1      42.293  24.223  26.517  1.00  0.00     0.198 A 
ATOM     81  F   UNL A   1      40.976  24.465  28.453  1.00  0.00    -0.203 F 
ATOM     82  F   UNL A   1      44.611  26.517  24.942  1.00  0.00    -0.200 F 
ATOM     83  C   UNL A   1      43.214  24.738  25.618  1.00  0.00     0.200 A 
ATOM     84  F   UNL A   1      41.783  22.998  26.326  1.00  0.00    -0.200 F 
ATOM     85  F   UNL A   1      43.577  24.023  24.544  1.00  0.00    -0.200 F 
ENDBRANCH  51  75
BRANCH  63  86
ATOM     86  C   UNL A   1      44.856  27.074  34.330  1.00  0.00     0.064 A 
ATOM     87  C   UNL A   1      46.120  27.675  34.391  1.00  0.00     0.173 A 
ATOM     88  C   UNL A   1      44.663  25.879  35.039  1.00  0.00     0.173 A 
ATOM     89  F   UNL A   1      46.361  28.812  33.721  1.00  0.00    -0.203 F 
ATOM     90  C   UNL A   1      47.156  27.092  35.118  1.00  0.00     0.198 A 
ATOM     91  C   UNL A   1      45.691  25.314  35.789  1.00  0.00     0.198 A 
ATOM     92  F   UNL A   1      43.469  25.265  35.021  1.00  0.00    -0.203 F 
ATOM     93  F   UNL A   1      48.370  27.661  35.126  1.00  0.00    -0.200 F 
ATOM     94  C   UNL A   1      46.939  25.917  35.823  1.00  0.00     0.200 A 
ATOM     95  F   UNL A   1      45.473  24.187  36.482  1.00  0.00    -0.200 F 
ATOM     96  F   UNL A   1      47.933  25.364  36.529  1.00  0.00    -0.200 F 
ENDBRANCH  63  86
ENDBRANCH  37  38
ENDBRANCH  29  32
ENDBRANCH  27  28
ENDBRANCH  26  27
ENDBRANCH   1  26
TORSDOF 14
ENDMDL
MODEL 2
REMARK VINA RESULT:     -11.3      0.406      1.634
REMARK SMILES CCC[NH2+][C@@]1(C(=O)NCCCNC(=O)c2ccc(-c3c4nc(c(-c5c(F)c(F)c(F)c(F)c5F)c5ccc([nH]5)c(-c5c(F)c(F)c(F)c(F)c5F)c5nc(c(-c6c(F)c(F)c(F)c(F)c6F)c6ccc3[nH]6)C=C5)C=C4)cc2)CCC[C@H](n2nc(C)c(C)c2C)C1
REMARK SMILES IDX 9 1 8 2 6 3 7 4 5 6 78 7 90 8 79 9 81 10 80 11 4 12 3 15
REMARK SMILES IDX 2 16 1 17 82 18 83 19 88 20 84 21 86 22 89 23 85 24 87 25
REMARK SMILES IDX 10 26 11 27 12 28 13 29 14 31 15 32 16 33 77 34 17 35 76 36
REMARK SMILES IDX 18 37 19 38 20 39 70 40 21 41 75 42 69 43 71 44 22 45 74 46
REMARK SMILES IDX 68 47 67 48 23 50 55 51 35 52 54 53 36 54 39 55 53 56 72 57
REMARK SMILES IDX 37 58 38 59 52 61 73 62 40 63 24 64 25 65 33 66 26 67 27 68
REMARK SMILES IDX 31 69 34 70 28 71 29 72 32 73 30 74 56 75 57 76 65 77 58 78
REMARK SMILES IDX 59 79 63 80 66 81 60 82 61 83 64 84 62 85 41 86 42 87 50 88
REMARK SMILES IDX 43 89 44 90 48 91 51 92 45 93 46 94 49 95 47 96
REMARK H PARENT 8 5 4 13 4 14 12 30 71 49 39 60
REMARK Flexibility Score: inf
ROOT
ATOM      1  C   UNL A   1      32.683  27.498  26.907  1.00  0.00     0.118 C 
ENDROOT
BRANCH   1   2
ATOM      2  N   UNL A   1      33.084  26.682  25.753  1.00  0.00    -0.351 N 
ATOM      3  C   UNL A   1      32.599  26.425  24.494  1.00  0.00     0.281 C 
ATOM      4  O   UNL A   1      33.507  26.311  23.653  1.00  0.00    -0.268 OA
ATOM      5  H   UNL A   1      33.919  26.190  25.929  1.00  0.00     0.163 HD
BRANCH   3   6
ATOM      6  C   UNL A   1      31.066  26.166  24.076  1.00  0.00     0.177 C 
ATOM      7  C   UNL A   1      30.088  26.575  25.165  1.00  0.00     0.079 C 
ATOM      8  C   UNL A   1      30.659  24.729  23.651  1.00  0.00     0.106 C 
ATOM      9  C   UNL A   1      29.779  25.448  26.177  1.00  0.00     0.009 C 
ATOM     10  C   UNL A   1      31.060  23.647  24.612  1.00  0.00     0.114 C 
ATOM     11  C   UNL A   1      30.258  23.980  25.911  1.00  0.00     0.028 C 
BRANCH   6  12
ATOM     12  N   UNL A   1      30.778  26.807  22.756  1.00  0.00    -0.334 N 
ATOM     13  H   UNL A   1      31.273  26.251  22.058  1.00  0.00     0.347 HD
ATOM     14  H   UNL A   1      29.758  26.827  22.752  1.00  0.00     0.347 HD
BRANCH  12  15
ATOM     15  C   UNL A   1      31.101  28.184  22.472  1.00  0.00     0.261 C 
BRANCH  15  16
ATOM     16  C   UNL A   1      29.781  28.990  22.450  1.00  0.00     0.058 C 
ATOM     17  C   UNL A   1      29.628  30.011  23.581  1.00  0.00     0.010 C 
ENDBRANCH  15  16
ENDBRANCH  12  15
ENDBRANCH   6  12
BRANCH  10  18
ATOM     18  N   UNL A   1      32.504  23.378  24.593  1.00  0.00    -0.266 N 
ATOM     19  N   UNL A   1      33.228  23.452  25.741  1.00  0.00    -0.178 NA
ATOM     20  C   UNL A   1      33.299  22.861  23.566  1.00  0.00     0.039 A 
ATOM     21  C   UNL A   1      34.496  23.278  25.335  1.00  0.00     0.063 A 
ATOM     22  C   UNL A   1      34.597  23.142  23.941  1.00  0.00    -0.007 A 
ATOM     23  C   UNL A   1      32.896  22.195  22.298  1.00  0.00     0.066 C 
ATOM     24  C   UNL A   1      35.635  23.210  26.273  1.00  0.00     0.069 C 
ATOM     25  C   UNL A   1      35.820  23.127  23.101  1.00  0.00     0.048 C 
ENDBRANCH  10  18
ENDBRANCH   3   6
ENDBRANCH   1   2
BRANCH   1  26
ATOM     26  C   UNL A   1      32.030  28.859  26.602  1.00  0.00     0.042 C 
BRANCH  26  27
ATOM     27  C   UNL A   1      32.816  29.887  25.779  1.00  0.00     0.118 C 
BRANCH  27  28
ATOM     28  N   UNL A   1      32.603  31.266  26.216  1.00  0.00    -0.352 N 
ATOM     29  C   UNL A   1      33.274  32.026  27.145  1.00  0.00     0.251 C 
ATOM     30  H   UNL A   1      31.856  31.726  25.771  1.00  0.00     0.163 HD
ATOM     31  O   UNL A   1      32.797  33.131  27.461  1.00  0.00    -0.269 OA
BRANCH  29  32
ATOM     32  C   UNL A   1      34.540  31.600  27.796  1.00  0.00     0.039 A 
ATOM     33  C   UNL A   1      34.666  30.292  28.279  1.00  0.00     0.014 A 
ATOM     34  C   UNL A   1      35.575  32.498  28.051  1.00  0.00     0.014 A 
ATOM     35  C   UNL A   1      35.829  29.883  28.955  1.00  0.00     0.010 A 
ATOM     36  C   UNL A   1      36.771  32.069  28.648  1.00  0.00     0.010 A 
ATOM     37  C   UNL A   1      36.914  30.759  29.128  1.00  0.00    -0.014 A 
BRANCH  37  38
ATOM     38  C   UNL A   1      38.161  30.328  29.841  1.00  0.00     0.031 A 
ATOM     39  C   UNL A   1      38.440  30.781  31.258  1.00  0.00     0.074 A 
ATOM     40  C   UNL A   1      39.069  29.543  29.223  1.00  0.00     0.049 A 
ATOM     41  N   UNL A   1      39.468  30.517  32.031  1.00  0.00    -0.248 NA
ATOM     42  C   UNL A   1      37.445  31.667  31.881  1.00  0.00     0.031 C 
ATOM     43  C   UNL A   1      38.974  29.066  27.844  1.00  0.00     0.029 A 
ATOM     44  N   UNL A   1      40.254  29.006  29.675  1.00  0.00    -0.354 N 
ATOM     45  C   UNL A   1      39.246  31.211  33.216  1.00  0.00     0.074 A 
ATOM     46  C   UNL A   1      38.021  31.960  33.038  1.00  0.00     0.031 C 
ATOM     47  C   UNL A   1      40.030  28.280  27.573  1.00  0.00     0.029 A 
ATOM     48  C   UNL A   1      40.900  28.223  28.745  1.00  0.00     0.049 A 
ATOM     49  H   UNL A   1      40.607  29.166  30.580  1.00  0.00     0.167 HD
ATOM     50  C   UNL A   1      39.970  31.202  34.363  1.00  0.00     0.037 A 
ATOM     51  C   UNL A   1      42.060  27.537  28.822  1.00  0.00     0.037 A 
ATOM     52  C   UNL A   1      41.171  30.435  34.566  1.00  0.00     0.049 A 
ATOM     53  C   UNL A   1      42.851  27.550  30.105  1.00  0.00     0.074 A 
ATOM     54  C   UNL A   1      41.941  30.325  35.713  1.00  0.00     0.029 A 
ATOM     55  N   UNL A   1      41.779  29.647  33.602  1.00  0.00    -0.354 N 
ATOM     56  N   UNL A   1      42.584  28.151  31.238  1.00  0.00    -0.248 NA
ATOM     57  C   UNL A   1      44.103  26.778  30.121  1.00  0.00     0.031 C 
ATOM     58  C   UNL A   1      43.039  29.506  35.429  1.00  0.00     0.029 A 
ATOM     59  C   UNL A   1      42.922  29.060  34.124  1.00  0.00     0.049 A 
ATOM     60  H   UNL A   1      41.448  29.522  32.683  1.00  0.00     0.167 HD
ATOM     61  C   UNL A   1      43.607  27.797  32.109  1.00  0.00     0.074 A 
ATOM     62  C   UNL A   1      44.497  26.921  31.378  1.00  0.00     0.031 C 
ATOM     63  C   UNL A   1      43.789  28.165  33.401  1.00  0.00     0.037 A 
BRANCH  50  64
ATOM     64  C   UNL A   1      39.471  32.036  35.512  1.00  0.00     0.064 A 
ATOM     65  C   UNL A   1      38.560  31.524  36.449  1.00  0.00     0.173 A 
ATOM     66  C   UNL A   1      39.950  33.340  35.713  1.00  0.00     0.173 A 
ATOM     67  F   UNL A   1      38.065  30.285  36.303  1.00  0.00    -0.203 F 
ATOM     68  C   UNL A   1      38.125  32.294  37.524  1.00  0.00     0.198 A 
ATOM     69  C   UNL A   1      39.539  34.096  36.809  1.00  0.00     0.198 A 
ATOM     70  F   UNL A   1      40.833  33.876  34.857  1.00  0.00    -0.203 F 
ATOM     71  F   UNL A   1      37.217  31.800  38.377  1.00  0.00    -0.200 F 
ATOM     72  C   UNL A   1      38.620  33.576  37.708  1.00  0.00     0.200 A 
ATOM     73  F   UNL A   1      40.034  35.327  36.995  1.00  0.00    -0.200 F 
ATOM     74  F   UNL A   1      38.210  34.312  38.750  1.00  0.00    -0.200 F 
ENDBRANCH  50  64
BRANCH  51  75
ATOM     75  C   UNL A   1      42.540  26.745  27.656  1.00  0.00     0.064 A 
ATOM     76  C   UNL A   1      42.092  25.433  27.442  1.00  0.00     0.173 A 
ATOM     77  C   UNL A   1      43.478  27.265  26.753  1.00  0.00     0.173 A 
ATOM     78  F   UNL A   1      41.214  24.879  28.292  1.00  0.00    -0.203 F 
ATOM     79  C   UNL A   1      42.582  24.664  26.388  1.00  0.00     0.198 A 
ATOM     80  C   UNL A   1      43.943  26.507  25.679  1.00  0.00     0.198 A 
ATOM     81  F   UNL A   1      43.941  28.513  26.911  1.00  0.00    -0.203 F 
ATOM     82  F   UNL A   1      42.180  23.394  26.244  1.00  0.00    -0.200 F 
ATOM     83  C   UNL A   1      43.504  25.204  25.504  1.00  0.00     0.200 A 
ATOM     84  F   UNL A   1      44.826  27.037  24.821  1.00  0.00    -0.200 F 
ATOM     85  F   UNL A   1      43.977  24.465  24.492  1.00  0.00    -0.200 F 
ENDBRANCH  51  75
BRANCH  63  86
ATOM     86  C   UNL A   1      44.958  27.576  34.139  1.00  0.00     0.064 A 
ATOM     87  C   UNL A   1      46.199  28.225  34.201  1.00  0.00     0.173 A 
ATOM     88  C   UNL A   1      44.813  26.369  34.840  1.00  0.00     0.173 A 
ATOM     89  F   UNL A   1      46.393  29.375  33.539  1.00  0.00    -0.203 F 
ATOM     90  C   UNL A   1      47.259  27.675  34.918  1.00  0.00     0.198 A 
ATOM     91  C   UNL A   1      45.866  25.837  35.580  1.00  0.00     0.198 A 
ATOM     92  F   UNL A   1      43.644  25.710  34.821  1.00  0.00    -0.203 F 
ATOM     93  F   UNL A   1      48.451  28.290  34.926  1.00  0.00    -0.200 F 
ATOM     94  C   UNL A   1      47.090  26.487  35.614  1.00  0.00     0.200 A 
ATOM     95  F   UNL A   1      45.693  24.697  36.265  1.00  0.00    -0.200 F 
ATOM     96  F   UNL A   1      48.107  25.966  36.311  1.00  0.00    -0.200 F 
ENDBRANCH  63  86
ENDBRANCH  37  38
ENDBRANCH  29  32
ENDBRANCH  27  28
ENDBRANCH  26  27
ENDBRANCH   1  26
TORSDOF 14
ENDMDL
MODEL 3
REMARK VINA RESULT:     -11.2      4.269      9.648
REMARK SMILES CCC[NH2+][C@@]1(C(=O)NCCCNC(=O)c2ccc(-c3c4nc(c(-c5c(F)c(F)c(F)c(F)c5F)c5ccc([nH]5)c(-c5c(F)c(F)c(F)c(F)c5F)c5nc(c(-c6c(F)c(F)c(F)c(F)c6F)c6ccc3[nH]6)C=C5)C=C4)cc2)CCC[C@H](n2nc(C)c(C)c2C)C1
REMARK SMILES IDX 9 1 8 2 6 3 7 4 5 6 78 7 90 8 79 9 81 10 80 11 4 12 3 15
REMARK SMILES IDX 2 16 1 17 82 18 83 19 88 20 84 21 86 22 89 23 85 24 87 25
REMARK SMILES IDX 10 26 11 27 12 28 13 29 14 31 15 32 16 33 77 34 17 35 76 36
REMARK SMILES IDX 18 37 19 38 20 39 70 40 21 41 75 42 69 43 71 44 22 45 74 46
REMARK SMILES IDX 68 47 67 48 23 50 55 51 35 52 54 53 36 54 39 55 53 56 72 57
REMARK SMILES IDX 37 58 38 59 52 61 73 62 40 63 24 64 25 65 33 66 26 67 27 68
REMARK SMILES IDX 31 69 34 70 28 71 29 72 32 73 30 74 56 75 57 76 65 77 58 78
REMARK SMILES IDX 59 79 63 80 66 81 60 82 61 83 64 84 62 85 41 86 42 87 50 88
REMARK SMILES IDX 43 89 44 90 48 91 51 92 45 93 46 94 49 95 47 96
REMARK H PARENT 8 5 4 13 4 14 12 30 71 49 39 60
REMARK Flexibility Score: inf
ROOT
ATOM      1  C   UNL A   1      36.007  23.825  24.055  1.00  0.00     0.118 C 
ENDROOT
BRANCH   1   2
ATOM      2  N   UNL A   1      34.793  24.274  24.749  1.00  0.00    -0.351 N 
ATOM      3  C   UNL A   1      33.553  23.756  25.032  1.00  0.00     0.281 C 
ATOM      4  O   UNL A   1      33.145  24.094  26.156  1.00  0.00    -0.268 OA
ATOM      5  H   UNL A   1      34.895  25.188  25.104  1.00  0.00     0.163 HD
BRANCH   3   6
ATOM      6  C   UNL A   1      32.609  22.900  24.047  1.00  0.00     0.177 C 
ATOM      7  C   UNL A   1      33.354  22.386  22.826  1.00  0.00     0.079 C 
ATOM      8  C   UNL A   1      31.316  23.573  23.509  1.00  0.00     0.106 C 
ATOM      9  C   UNL A   1      33.344  23.371  21.633  1.00  0.00     0.009 C 
ATOM     10  C   UNL A   1      31.518  24.926  22.890  1.00  0.00     0.114 C 
ATOM     11  C   UNL A   1      32.429  24.642  21.653  1.00  0.00     0.028 C 
BRANCH   6  12
ATOM     12  N   UNL A   1      31.915  21.818  24.811  1.00  0.00    -0.334 N 
ATOM     13  H   UNL A   1      32.115  21.995  25.796  1.00  0.00     0.347 HD
ATOM     14  H   UNL A   1      30.958  21.903  24.470  1.00  0.00     0.347 HD
BRANCH  12  15
ATOM     15  C   UNL A   1      32.184  20.417  24.593  1.00  0.00     0.261 C 
BRANCH  15  16
ATOM     16  C   UNL A   1      33.410  20.027  25.452  1.00  0.00     0.058 C 
ATOM     17  C   UNL A   1      34.418  19.107  24.758  1.00  0.00     0.010 C 
ENDBRANCH  15  16
ENDBRANCH  12  15
ENDBRANCH   6  12
BRANCH  10  18
ATOM     18  N   UNL A   1      31.797  25.970  23.885  1.00  0.00    -0.266 N 
ATOM     19  N   UNL A   1      32.914  26.737  23.775  1.00  0.00    -0.178 NA
ATOM     20  C   UNL A   1      30.983  26.467  24.906  1.00  0.00     0.039 A 
ATOM     21  C   UNL A   1      32.910  27.474  24.897  1.00  0.00     0.063 A 
ATOM     22  C   UNL A   1      31.835  27.157  25.742  1.00  0.00    -0.007 A 
ATOM     23  C   UNL A   1      29.523  26.281  25.129  1.00  0.00     0.066 C 
ATOM     24  C   UNL A   1      33.919  28.519  25.171  1.00  0.00     0.069 C 
ATOM     25  C   UNL A   1      31.592  27.605  27.136  1.00  0.00     0.048 C 
ENDBRANCH  10  18
ENDBRANCH   3   6
ENDBRANCH   1   2
BRANCH   1  26
ATOM     26  C   UNL A   1      36.468  22.381  24.327  1.00  0.00     0.042 C 
BRANCH  26  27
ATOM     27  C   UNL A   1      36.706  21.942  25.777  1.00  0.00     0.118 C 
BRANCH  27  28
ATOM     28  N   UNL A   1      37.779  20.960  25.918  1.00  0.00    -0.352 N 
ATOM     29  C   UNL A   1      39.115  21.126  26.205  1.00  0.00     0.251 C 
ATOM     30  H   UNL A   1      37.501  20.026  25.786  1.00  0.00     0.163 HD
ATOM     31  O   UNL A   1      39.866  20.139  26.109  1.00  0.00    -0.269 OA
BRANCH  29  32
ATOM     32  C   UNL A   1      39.711  22.421  26.623  1.00  0.00     0.039 A 
ATOM     33  C   UNL A   1      39.349  23.598  25.957  1.00  0.00     0.014 A 
ATOM     34  C   UNL A   1      40.716  22.492  27.586  1.00  0.00     0.014 A 
ATOM     35  C   UNL A   1      39.945  24.826  26.292  1.00  0.00     0.010 A 
ATOM     36  C   UNL A   1      41.250  23.729  27.981  1.00  0.00     0.010 A 
ATOM     37  C   UNL A   1      40.889  24.917  27.329  1.00  0.00    -0.014 A 
BRANCH  37  38
ATOM     38  C   UNL A   1      41.524  26.225  27.696  1.00  0.00     0.031 A 
ATOM     39  C   UNL A   1      42.936  26.551  27.259  1.00  0.00     0.074 A 
ATOM     40  C   UNL A   1      40.854  27.129  28.443  1.00  0.00     0.049 A 
ATOM     41  N   UNL A   1      43.653  27.627  27.489  1.00  0.00    -0.248 NA
ATOM     42  C   UNL A   1      43.646  25.524  26.481  1.00  0.00     0.031 C 
ATOM     43  C   UNL A   1      39.509  26.944  28.987  1.00  0.00     0.029 A 
ATOM     44  N   UNL A   1      41.213  28.386  28.875  1.00  0.00    -0.354 N 
ATOM     45  C   UNL A   1      44.891  27.398  26.897  1.00  0.00     0.074 A 
ATOM     46  C   UNL A   1      44.853  26.057  26.355  1.00  0.00     0.031 C 
ATOM     47  C   UNL A   1      39.141  28.056  29.645  1.00  0.00     0.029 A 
ATOM     48  C   UNL A   1      40.235  29.023  29.605  1.00  0.00     0.049 A 
ATOM     49  H   UNL A   1      42.087  28.793  28.680  1.00  0.00     0.167 HD
ATOM     50  C   UNL A   1      45.953  28.233  26.779  1.00  0.00     0.037 A 
ATOM     51  C   UNL A   1      40.217  30.244  30.178  1.00  0.00     0.037 A 
ATOM     52  C   UNL A   1      45.993  29.581  27.283  1.00  0.00     0.049 A 
ATOM     53  C   UNL A   1      41.413  31.152  30.042  1.00  0.00     0.074 A 
ATOM     54  C   UNL A   1      47.007  30.517  27.164  1.00  0.00     0.029 A 
ATOM     55  N   UNL A   1      44.975  30.187  28.003  1.00  0.00    -0.354 N 
ATOM     56  N   UNL A   1      42.543  30.944  29.413  1.00  0.00    -0.248 NA
ATOM     57  C   UNL A   1      41.324  32.470  30.688  1.00  0.00     0.031 C 
ATOM     58  C   UNL A   1      46.622  31.673  27.850  1.00  0.00     0.029 A 
ATOM     59  C   UNL A   1      45.343  31.479  28.346  1.00  0.00     0.049 A 
ATOM     60  H   UNL A   1      44.117  29.763  28.235  1.00  0.00     0.167 HD
ATOM     61  C   UNL A   1      43.278  32.114  29.551  1.00  0.00     0.074 A 
ATOM     62  C   UNL A   1      42.464  33.034  30.316  1.00  0.00     0.031 C 
ATOM     63  C   UNL A   1      44.517  32.401  29.083  1.00  0.00     0.037 A 
BRANCH  50  64
ATOM     64  C   UNL A   1      47.167  27.723  26.052  1.00  0.00     0.064 A 
ATOM     65  C   UNL A   1      47.273  27.803  24.655  1.00  0.00     0.173 A 
ATOM     66  C   UNL A   1      48.262  27.202  26.761  1.00  0.00     0.173 A 
ATOM     67  F   UNL A   1      46.255  28.287  23.927  1.00  0.00    -0.203 F 
ATOM     68  C   UNL A   1      48.413  27.352  23.993  1.00  0.00     0.198 A 
ATOM     69  C   UNL A   1      49.414  26.784  26.098  1.00  0.00     0.198 A 
ATOM     70  F   UNL A   1      48.221  27.115  28.099  1.00  0.00    -0.203 F 
ATOM     71  F   UNL A   1      48.469  27.394  22.654  1.00  0.00    -0.200 F 
ATOM     72  C   UNL A   1      49.485  26.851  24.715  1.00  0.00     0.200 A 
ATOM     73  F   UNL A   1      50.456  26.319  26.800  1.00  0.00    -0.200 F 
ATOM     74  F   UNL A   1      50.585  26.430  24.078  1.00  0.00    -0.200 F 
ENDBRANCH  50  64
BRANCH  51  75
ATOM     75  C   UNL A   1      39.008  30.707  30.916  1.00  0.00     0.064 A 
ATOM     76  C   UNL A   1      38.912  30.558  32.307  1.00  0.00     0.173 A 
ATOM     77  C   UNL A   1      37.915  31.276  30.247  1.00  0.00     0.173 A 
ATOM     78  F   UNL A   1      39.919  29.995  32.992  1.00  0.00    -0.203 F 
ATOM     79  C   UNL A   1      37.760  30.934  32.997  1.00  0.00     0.198 A 
ATOM     80  C   UNL A   1      36.777  31.683  30.941  1.00  0.00     0.198 A 
ATOM     81  F   UNL A   1      37.954  31.442  28.917  1.00  0.00    -0.203 F 
ATOM     82  F   UNL A   1      37.673  30.724  34.317  1.00  0.00    -0.200 F 
ATOM     83  C   UNL A   1      36.695  31.501  32.314  1.00  0.00     0.200 A 
ATOM     84  F   UNL A   1      35.754  32.241  30.278  1.00  0.00    -0.200 F 
ATOM     85  F   UNL A   1      35.587  31.861  32.975  1.00  0.00    -0.200 F 
ENDBRANCH  51  75
BRANCH  63  86
ATOM     86  C   UNL A   1      45.056  33.783  29.322  1.00  0.00     0.064 A 
ATOM     87  C   UNL A   1      45.843  34.090  30.440  1.00  0.00     0.173 A 
ATOM     88  C   UNL A   1      44.821  34.802  28.386  1.00  0.00     0.173 A 
ATOM     89  F   UNL A   1      46.087  33.155  31.371  1.00  0.00    -0.203 F 
ATOM     90  C   UNL A   1      46.356  35.371  30.624  1.00  0.00     0.198 A 
ATOM     91  C   UNL A   1      45.361  36.074  28.558  1.00  0.00     0.198 A 
ATOM     92  F   UNL A   1      44.080  34.561  27.293  1.00  0.00    -0.203 F 
ATOM     93  F   UNL A   1      47.070  35.654  31.724  1.00  0.00    -0.200 F 
ATOM     94  C   UNL A   1      46.122  36.360  29.680  1.00  0.00     0.200 A 
ATOM     95  F   UNL A   1      45.146  37.023  27.635  1.00  0.00    -0.200 F 
ATOM     96  F   UNL A   1      46.627  37.588  29.854  1.00  0.00    -0.200 F 
ENDBRANCH  63  86
ENDBRANCH  37  38
ENDBRANCH  29  32
ENDBRANCH  27  28
ENDBRANCH  26  27
ENDBRANCH   1  26
TORSDOF 14
ENDMDL
