MODEL 1
REMARK VINA RESULT:     -14.7      0.000      0.000
REMARK SMILES COc1ccc(NC(=O)[C@H]2[C@@H](C(=O)NCCCNC(=O)c3ccc(-c4c5nc(c(-c6c(F)c(F)c(F)c(F)c6F)c6ccc([nH]6)c(-c6c(F)c(F)c(F)c(F)c6F)c6nc(c(-c7c(F)c(F)c(F)c(F)c7F)c7ccc4[nH]7)C=C6)C=C5)cc3)[C@H]3C=C[C@@H]2C3)c(C)c1
REMARK SMILES IDX 15 1 14 2 12 3 13 4 11 6 10 7 87 8 84 9 86 10 88 11 85 12
REMARK SMILES IDX 8 13 7 14 9 16 6 17 3 18 4 19 91 20 5 21 89 22 90 23 2 24
REMARK SMILES IDX 1 25 16 26 17 27 18 28 19 29 20 31 21 32 22 33 83 34 23 35
REMARK SMILES IDX 82 36 24 37 25 38 26 39 76 40 27 41 81 42 75 43 77 44 28 45
REMARK SMILES IDX 80 46 74 47 73 48 29 50 61 51 41 52 60 53 42 54 45 55 59 56
REMARK SMILES IDX 78 57 43 58 44 59 58 61 79 62 46 63 30 64 31 65 39 66 32 67
REMARK SMILES IDX 33 68 37 69 40 70 34 71 35 72 38 73 36 74 62 75 63 76 71 77
REMARK SMILES IDX 64 78 65 79 69 80 72 81 66 82 67 83 70 84 68 85 47 86 48 87
REMARK SMILES IDX 56 88 49 89 50 90 54 91 57 92 51 93 52 94 55 95 53 96
REMARK H PARENT 14 5 7 15 18 30 77 49 45 60
REMARK Flexibility Score: inf
ROOT
ATOM      1  C   UNL A   1      37.069  22.103  25.473  1.00  0.00     0.117 C 
ENDROOT
BRANCH   1   2
ATOM      2  N   UNL A   1      36.009  21.803  26.439  1.00  0.00    -0.356 N 
ATOM      3  C   UNL A   1      34.691  22.235  26.544  1.00  0.00     0.224 C 
ATOM      4  O   UNL A   1      34.028  21.815  27.493  1.00  0.00    -0.275 OA
ATOM      5  H   UNL A   1      36.281  21.177  27.148  1.00  0.00     0.163 HD
BRANCH   3   6
ATOM      6  C   UNL A   1      34.081  23.094  25.438  1.00  0.00     0.098 C 
ATOM      7  C   UNL A   1      32.847  24.090  25.516  1.00  0.00     0.099 C 
ATOM      8  C   UNL A   1      32.037  23.641  24.232  1.00  0.00     0.025 C 
ATOM      9  C   UNL A   1      33.671  22.133  24.274  1.00  0.00     0.025 C 
ATOM     10  C   UNL A   1      31.395  22.305  24.545  1.00  0.00    -0.027 C 
ATOM     11  C   UNL A   1      33.117  23.147  23.274  1.00  0.00     0.017 C 
ATOM     12  C   UNL A   1      32.385  21.406  24.604  1.00  0.00    -0.027 C 
BRANCH   7  13
ATOM     13  C   UNL A   1      31.769  24.374  26.588  1.00  0.00     0.228 C 
ATOM     14  N   UNL A   1      30.762  25.272  26.563  1.00  0.00    -0.326 N 
ATOM     15  H   UNL A   1      30.187  25.241  27.361  1.00  0.00     0.169 HD
ATOM     16  O   UNL A   1      31.720  23.643  27.596  1.00  0.00    -0.274 OA
BRANCH  14  17
ATOM     17  C   UNL A   1      30.375  26.228  25.640  1.00  0.00     0.044 A 
ATOM     18  C   UNL A   1      30.188  27.685  23.314  1.00  0.00     0.119 A 
ATOM     19  C   UNL A   1      29.206  26.767  23.637  1.00  0.00     0.048 A 
ATOM     20  C   UNL A   1      31.068  28.085  24.300  1.00  0.00     0.052 A 
ATOM     21  C   UNL A   1      29.312  26.004  24.790  1.00  0.00     0.030 A 
ATOM     22  C   UNL A   1      31.124  27.405  25.518  1.00  0.00    -0.024 A 
ATOM     23  C   UNL A   1      32.006  27.996  26.579  1.00  0.00     0.047 C 
BRANCH  18  24
ATOM     24  O   UNL A   1      30.225  28.288  22.093  1.00  0.00    -0.497 OA
ATOM     25  C   UNL A   1      29.994  29.696  22.167  1.00  0.00     0.278 C 
ENDBRANCH  18  24
ENDBRANCH  14  17
ENDBRANCH   7  13
ENDBRANCH   3   6
ENDBRANCH   1   2
BRANCH   1  26
ATOM     26  C   UNL A   1      38.353  21.203  25.404  1.00  0.00     0.042 C 
BRANCH  26  27
ATOM     27  C   UNL A   1      39.628  21.422  26.259  1.00  0.00     0.118 C 
BRANCH  27  28
ATOM     28  N   UNL A   1      39.742  22.688  26.972  1.00  0.00    -0.352 N 
ATOM     29  C   UNL A   1      40.756  23.627  26.761  1.00  0.00     0.251 C 
ATOM     30  H   UNL A   1      39.057  22.896  27.649  1.00  0.00     0.163 HD
ATOM     31  O   UNL A   1      41.876  23.399  26.378  1.00  0.00    -0.269 OA
BRANCH  29  32
ATOM     32  C   UNL A   1      40.256  25.025  26.951  1.00  0.00     0.039 A 
ATOM     33  C   UNL A   1      40.751  26.121  26.236  1.00  0.00     0.014 A 
ATOM     34  C   UNL A   1      39.417  25.221  28.051  1.00  0.00     0.014 A 
ATOM     35  C   UNL A   1      40.531  27.420  26.734  1.00  0.00     0.010 A 
ATOM     36  C   UNL A   1      39.228  26.502  28.555  1.00  0.00     0.010 A 
ATOM     37  C   UNL A   1      39.835  27.606  27.938  1.00  0.00    -0.014 A 
BRANCH  37  38
ATOM     38  C   UNL A   1      39.873  28.844  28.735  1.00  0.00     0.031 A 
ATOM     39  C   UNL A   1      38.795  29.860  28.733  1.00  0.00     0.074 A 
ATOM     40  C   UNL A   1      40.852  29.022  29.650  1.00  0.00     0.049 A 
ATOM     41  N   UNL A   1      38.980  31.091  29.098  1.00  0.00    -0.248 NA
ATOM     42  C   UNL A   1      37.427  29.581  28.319  1.00  0.00     0.031 C 
ATOM     43  C   UNL A   1      40.813  29.903  30.822  1.00  0.00     0.029 A 
ATOM     44  N   UNL A   1      42.131  28.466  29.685  1.00  0.00    -0.354 N 
ATOM     45  C   UNL A   1      37.750  31.686  29.210  1.00  0.00     0.074 A 
ATOM     46  C   UNL A   1      36.818  30.727  28.651  1.00  0.00     0.031 C 
ATOM     47  C   UNL A   1      42.043  30.000  31.345  1.00  0.00     0.029 A 
ATOM     48  C   UNL A   1      42.953  29.325  30.443  1.00  0.00     0.049 A 
ATOM     49  H   UNL A   1      42.409  27.623  29.258  1.00  0.00     0.167 HD
ATOM     50  C   UNL A   1      37.607  32.876  29.865  1.00  0.00     0.037 A 
ATOM     51  C   UNL A   1      44.056  29.900  29.882  1.00  0.00     0.037 A 
ATOM     52  C   UNL A   1      38.842  33.341  30.492  1.00  0.00     0.049 A 
ATOM     53  C   UNL A   1      44.004  31.407  29.766  1.00  0.00     0.074 A 
ATOM     54  C   UNL A   1      39.315  33.332  31.796  1.00  0.00     0.029 A 
ATOM     55  N   UNL A   1      39.916  33.721  29.706  1.00  0.00    -0.354 N 
ATOM     56  N   UNL A   1      43.026  32.157  30.183  1.00  0.00    -0.248 NA
ATOM     57  C   UNL A   1      45.017  32.161  29.027  1.00  0.00     0.031 C 
ATOM     58  C   UNL A   1      40.667  33.766  31.789  1.00  0.00     0.029 A 
ATOM     59  C   UNL A   1      41.025  34.017  30.479  1.00  0.00     0.049 A 
ATOM     60  H   UNL A   1      39.893  33.774  28.723  1.00  0.00     0.167 HD
ATOM     61  C   UNL A   1      43.200  33.423  29.690  1.00  0.00     0.074 A 
ATOM     62  C   UNL A   1      44.466  33.383  28.987  1.00  0.00     0.031 C 
ATOM     63  C   UNL A   1      42.263  34.403  29.828  1.00  0.00     0.037 A 
BRANCH  50  64
ATOM     64  C   UNL A   1      36.262  33.512  30.129  1.00  0.00     0.064 A 
ATOM     65  C   UNL A   1      35.483  34.065  29.091  1.00  0.00     0.173 A 
ATOM     66  C   UNL A   1      35.689  33.597  31.412  1.00  0.00     0.173 A 
ATOM     67  F   UNL A   1      35.842  33.956  27.806  1.00  0.00    -0.203 F 
ATOM     68  C   UNL A   1      34.296  34.759  29.335  1.00  0.00     0.198 A 
ATOM     69  C   UNL A   1      34.531  34.340  31.664  1.00  0.00     0.198 A 
ATOM     70  F   UNL A   1      36.220  32.935  32.450  1.00  0.00    -0.203 F 
ATOM     71  F   UNL A   1      33.603  35.270  28.308  1.00  0.00    -0.200 F 
ATOM     72  C   UNL A   1      33.842  34.933  30.626  1.00  0.00     0.200 A 
ATOM     73  F   UNL A   1      34.090  34.479  32.922  1.00  0.00    -0.200 F 
ATOM     74  F   UNL A   1      32.736  35.648  30.864  1.00  0.00    -0.200 F 
ENDBRANCH  50  64
BRANCH  51  75
ATOM     75  C   UNL A   1      44.697  29.027  28.871  1.00  0.00     0.064 A 
ATOM     76  C   UNL A   1      45.553  28.004  29.309  1.00  0.00     0.173 A 
ATOM     77  C   UNL A   1      44.170  28.940  27.575  1.00  0.00     0.173 A 
ATOM     78  F   UNL A   1      46.048  28.028  30.556  1.00  0.00    -0.203 F 
ATOM     79  C   UNL A   1      45.789  26.884  28.517  1.00  0.00     0.198 A 
ATOM     80  C   UNL A   1      44.399  27.813  26.792  1.00  0.00     0.198 A 
ATOM     81  F   UNL A   1      43.330  29.881  27.120  1.00  0.00    -0.203 F 
ATOM     82  F   UNL A   1      46.495  25.856  29.008  1.00  0.00    -0.200 F 
ATOM     83  C   UNL A   1      45.181  26.774  27.275  1.00  0.00     0.200 A 
ATOM     84  F   UNL A   1      43.782  27.689  25.609  1.00  0.00    -0.200 F 
ATOM     85  F   UNL A   1      45.295  25.638  26.574  1.00  0.00    -0.200 F 
ENDBRANCH  51  75
BRANCH  63  86
ATOM     86  C   UNL A   1      42.460  35.802  29.322  1.00  0.00     0.064 A 
ATOM     87  C   UNL A   1      41.920  36.242  28.101  1.00  0.00     0.173 A 
ATOM     88  C   UNL A   1      43.275  36.725  30.008  1.00  0.00     0.173 A 
ATOM     89  F   UNL A   1      41.208  35.410  27.326  1.00  0.00    -0.203 F 
ATOM     90  C   UNL A   1      42.113  37.544  27.640  1.00  0.00     0.198 A 
ATOM     91  C   UNL A   1      43.508  38.010  29.519  1.00  0.00     0.198 A 
ATOM     92  F   UNL A   1      43.845  36.417  31.181  1.00  0.00    -0.203 F 
ATOM     93  F   UNL A   1      41.521  37.942  26.505  1.00  0.00    -0.200 F 
ATOM     94  C   UNL A   1      42.910  38.426  28.346  1.00  0.00     0.200 A 
ATOM     95  F   UNL A   1      44.305  38.845  30.199  1.00  0.00    -0.200 F 
ATOM     96  F   UNL A   1      43.102  39.674  27.897  1.00  0.00    -0.200 F 
ENDBRANCH  63  86
ENDBRANCH  37  38
ENDBRANCH  29  32
ENDBRANCH  27  28
ENDBRANCH  26  27
ENDBRANCH   1  26
TORSDOF 13
ENDMDL
MODEL 2
REMARK VINA RESULT:     -14.3      3.875     10.230
REMARK SMILES COc1ccc(NC(=O)[C@H]2[C@@H](C(=O)NCCCNC(=O)c3ccc(-c4c5nc(c(-c6c(F)c(F)c(F)c(F)c6F)c6ccc([nH]6)c(-c6c(F)c(F)c(F)c(F)c6F)c6nc(c(-c7c(F)c(F)c(F)c(F)c7F)c7ccc4[nH]7)C=C6)C=C5)cc3)[C@H]3C=C[C@@H]2C3)c(C)c1
REMARK SMILES IDX 15 1 14 2 12 3 13 4 11 6 10 7 87 8 84 9 86 10 88 11 85 12
REMARK SMILES IDX 8 13 7 14 9 16 6 17 3 18 4 19 91 20 5 21 89 22 90 23 2 24
REMARK SMILES IDX 1 25 16 26 17 27 18 28 19 29 20 31 21 32 22 33 83 34 23 35
REMARK SMILES IDX 82 36 24 37 25 38 26 39 76 40 27 41 81 42 75 43 77 44 28 45
REMARK SMILES IDX 80 46 74 47 73 48 29 50 61 51 41 52 60 53 42 54 45 55 59 56
REMARK SMILES IDX 78 57 43 58 44 59 58 61 79 62 46 63 30 64 31 65 39 66 32 67
REMARK SMILES IDX 33 68 37 69 40 70 34 71 35 72 38 73 36 74 62 75 63 76 71 77
REMARK SMILES IDX 64 78 65 79 69 80 72 81 66 82 67 83 70 84 68 85 47 86 48 87
REMARK SMILES IDX 56 88 49 89 50 90 54 91 57 92 51 93 52 94 55 95 53 96
REMARK H PARENT 14 5 7 15 18 30 77 49 45 60
REMARK Flexibility Score: inf
ROOT
ATOM      1  C   UNL A   1      33.079  29.876  26.553  1.00  0.00     0.117 C 
ENDROOT
BRANCH   1   2
ATOM      2  N   UNL A   1      33.186  29.812  25.093  1.00  0.00    -0.356 N 
ATOM      3  C   UNL A   1      33.108  28.753  24.195  1.00  0.00     0.224 C 
ATOM      4  O   UNL A   1      33.255  29.008  22.999  1.00  0.00    -0.275 OA
ATOM      5  H   UNL A   1      33.343  30.686  24.667  1.00  0.00     0.163 HD
BRANCH   3   6
ATOM      6  C   UNL A   1      32.726  27.360  24.692  1.00  0.00     0.098 C 
ATOM      7  C   UNL A   1      33.025  25.949  24.031  1.00  0.00     0.099 C 
ATOM      8  C   UNL A   1      31.593  25.279  24.128  1.00  0.00     0.025 C 
ATOM      9  C   UNL A   1      31.171  27.336  24.860  1.00  0.00     0.025 C 
ATOM     10  C   UNL A   1      30.711  25.942  23.091  1.00  0.00    -0.027 C 
ATOM     11  C   UNL A   1      30.980  25.910  25.375  1.00  0.00     0.017 C 
ATOM     12  C   UNL A   1      30.487  27.191  23.518  1.00  0.00    -0.027 C 
BRANCH   7  13
ATOM     13  C   UNL A   1      33.578  25.509  22.654  1.00  0.00     0.228 C 
ATOM     14  N   UNL A   1      33.756  24.263  22.170  1.00  0.00    -0.326 N 
ATOM     15  H   UNL A   1      34.099  24.245  21.247  1.00  0.00     0.169 HD
ATOM     16  O   UNL A   1      33.825  26.383  21.802  1.00  0.00    -0.274 OA
BRANCH  14  17
ATOM     17  C   UNL A   1      33.554  23.004  22.708  1.00  0.00     0.044 A 
ATOM     18  C   UNL A   1      32.666  20.977  24.342  1.00  0.00     0.119 A 
ATOM     19  C   UNL A   1      32.088  21.170  23.101  1.00  0.00     0.048 A 
ATOM     20  C   UNL A   1      33.875  21.586  24.610  1.00  0.00     0.052 A 
ATOM     21  C   UNL A   1      32.506  22.211  22.288  1.00  0.00     0.030 A 
ATOM     22  C   UNL A   1      34.380  22.564  23.751  1.00  0.00    -0.024 A 
ATOM     23  C   UNL A   1      35.764  23.068  24.043  1.00  0.00     0.047 C 
BRANCH  18  24
ATOM     24  O   UNL A   1      32.136  20.107  25.247  1.00  0.00    -0.497 OA
ATOM     25  C   UNL A   1      32.870  18.885  25.331  1.00  0.00     0.278 C 
ENDBRANCH  18  24
ENDBRANCH  14  17
ENDBRANCH   7  13
ENDBRANCH   3   6
ENDBRANCH   1   2
BRANCH   1  26
ATOM     26  C   UNL A   1      32.895  31.258  27.273  1.00  0.00     0.042 C 
BRANCH  26  27
ATOM     27  C   UNL A   1      34.059  32.185  27.709  1.00  0.00     0.118 C 
BRANCH  27  28
ATOM     28  N   UNL A   1      35.362  31.564  27.918  1.00  0.00    -0.352 N 
ATOM     29  C   UNL A   1      35.937  31.333  29.170  1.00  0.00     0.251 C 
ATOM     30  H   UNL A   1      35.871  31.289  27.121  1.00  0.00     0.163 HD
ATOM     31  O   UNL A   1      35.746  31.970  30.176  1.00  0.00    -0.269 OA
BRANCH  29  32
ATOM     32  C   UNL A   1      36.760  30.082  29.173  1.00  0.00     0.039 A 
ATOM     33  C   UNL A   1      37.009  29.329  30.326  1.00  0.00     0.014 A 
ATOM     34  C   UNL A   1      37.465  29.823  27.995  1.00  0.00     0.014 A 
ATOM     35  C   UNL A   1      38.087  28.423  30.332  1.00  0.00     0.010 A 
ATOM     36  C   UNL A   1      38.546  28.950  28.016  1.00  0.00     0.010 A 
ATOM     37  C   UNL A   1      38.905  28.291  29.200  1.00  0.00    -0.014 A 
BRANCH  37  38
ATOM     38  C   UNL A   1      40.247  27.684  29.214  1.00  0.00     0.031 A 
ATOM     39  C   UNL A   1      40.544  26.326  28.703  1.00  0.00     0.074 A 
ATOM     40  C   UNL A   1      41.319  28.435  29.555  1.00  0.00     0.049 A 
ATOM     41  N   UNL A   1      41.592  25.648  29.059  1.00  0.00    -0.248 NA
ATOM     42  C   UNL A   1      39.692  25.617  27.760  1.00  0.00     0.031 C 
ATOM     43  C   UNL A   1      42.719  28.190  29.193  1.00  0.00     0.029 A 
ATOM     44  N   UNL A   1      41.369  29.577  30.356  1.00  0.00    -0.354 N 
ATOM     45  C   UNL A   1      41.689  24.560  28.231  1.00  0.00     0.074 A 
ATOM     46  C   UNL A   1      40.448  24.547  27.483  1.00  0.00     0.031 C 
ATOM     47  C   UNL A   1      43.511  28.997  29.911  1.00  0.00     0.029 A 
ATOM     48  C   UNL A   1      42.675  29.675  30.880  1.00  0.00     0.049 A 
ATOM     49  H   UNL A   1      40.627  30.202  30.524  1.00  0.00     0.167 HD
ATOM     50  C   UNL A   1      42.846  23.836  28.162  1.00  0.00     0.037 A 
ATOM     51  C   UNL A   1      42.883  29.659  32.229  1.00  0.00     0.037 A 
ATOM     52  C   UNL A   1      43.934  24.411  28.949  1.00  0.00     0.049 A 
ATOM     53  C   UNL A   1      43.659  28.467  32.743  1.00  0.00     0.074 A 
ATOM     54  C   UNL A   1      45.055  25.161  28.627  1.00  0.00     0.029 A 
ATOM     55  N   UNL A   1      43.847  24.440  30.331  1.00  0.00    -0.354 N 
ATOM     56  N   UNL A   1      44.149  27.516  32.002  1.00  0.00    -0.248 NA
ATOM     57  C   UNL A   1      43.810  28.201  34.174  1.00  0.00     0.031 C 
ATOM     58  C   UNL A   1      45.672  25.592  29.832  1.00  0.00     0.029 A 
ATOM     59  C   UNL A   1      44.914  25.124  30.888  1.00  0.00     0.049 A 
ATOM     60  H   UNL A   1      43.120  24.027  30.850  1.00  0.00     0.167 HD
ATOM     61  C   UNL A   1      44.557  26.491  32.813  1.00  0.00     0.074 A 
ATOM     62  C   UNL A   1      44.341  26.970  34.163  1.00  0.00     0.031 C 
ATOM     63  C   UNL A   1      44.978  25.289  32.328  1.00  0.00     0.037 A 
BRANCH  50  64
ATOM     64  C   UNL A   1      43.052  22.709  27.178  1.00  0.00     0.064 A 
ATOM     65  C   UNL A   1      42.351  21.489  27.284  1.00  0.00     0.173 A 
ATOM     66  C   UNL A   1      43.943  22.788  26.091  1.00  0.00     0.173 A 
ATOM     67  F   UNL A   1      41.388  21.308  28.196  1.00  0.00    -0.203 F 
ATOM     68  C   UNL A   1      42.617  20.398  26.454  1.00  0.00     0.198 A 
ATOM     69  C   UNL A   1      44.250  21.680  25.296  1.00  0.00     0.198 A 
ATOM     70  F   UNL A   1      44.516  23.953  25.752  1.00  0.00    -0.203 F 
ATOM     71  F   UNL A   1      41.924  19.261  26.610  1.00  0.00    -0.200 F 
ATOM     72  C   UNL A   1      43.597  20.480  25.487  1.00  0.00     0.200 A 
ATOM     73  F   UNL A   1      45.189  21.784  24.344  1.00  0.00    -0.200 F 
ATOM     74  F   UNL A   1      43.893  19.416  24.730  1.00  0.00    -0.200 F 
ENDBRANCH  50  64
BRANCH  51  75
ATOM     75  C   UNL A   1      41.774  30.295  32.979  1.00  0.00     0.064 A 
ATOM     76  C   UNL A   1      41.755  31.694  33.097  1.00  0.00     0.173 A 
ATOM     77  C   UNL A   1      40.582  29.595  33.210  1.00  0.00     0.173 A 
ATOM     78  F   UNL A   1      42.865  32.406  32.846  1.00  0.00    -0.203 F 
ATOM     79  C   UNL A   1      40.564  32.373  33.334  1.00  0.00     0.198 A 
ATOM     80  C   UNL A   1      39.392  30.278  33.434  1.00  0.00     0.198 A 
ATOM     81  F   UNL A   1      40.545  28.259  33.087  1.00  0.00    -0.203 F 
ATOM     82  F   UNL A   1      40.542  33.712  33.304  1.00  0.00    -0.200 F 
ATOM     83  C   UNL A   1      39.377  31.665  33.465  1.00  0.00     0.200 A 
ATOM     84  F   UNL A   1      38.241  29.598  33.522  1.00  0.00    -0.200 F 
ATOM     85  F   UNL A   1      38.214  32.323  33.553  1.00  0.00    -0.200 F 
ENDBRANCH  51  75
BRANCH  63  86
ATOM     86  C   UNL A   1      45.461  24.174  33.207  1.00  0.00     0.064 A 
ATOM     87  C   UNL A   1      44.635  23.099  33.578  1.00  0.00     0.173 A 
ATOM     88  C   UNL A   1      46.749  24.193  33.781  1.00  0.00     0.173 A 
ATOM     89  F   UNL A   1      43.361  23.037  33.162  1.00  0.00    -0.203 F 
ATOM     90  C   UNL A   1      45.094  22.069  34.399  1.00  0.00     0.198 A 
ATOM     91  C   UNL A   1      47.188  23.188  34.642  1.00  0.00     0.198 A 
ATOM     92  F   UNL A   1      47.623  25.170  33.503  1.00  0.00    -0.203 F 
ATOM     93  F   UNL A   1      44.295  21.028  34.669  1.00  0.00    -0.200 F 
ATOM     94  C   UNL A   1      46.368  22.116  34.935  1.00  0.00     0.200 A 
ATOM     95  F   UNL A   1      48.414  23.261  35.178  1.00  0.00    -0.200 F 
ATOM     96  F   UNL A   1      46.805  21.131  35.731  1.00  0.00    -0.200 F 
ENDBRANCH  63  86
ENDBRANCH  37  38
ENDBRANCH  29  32
ENDBRANCH  27  28
ENDBRANCH  26  27
ENDBRANCH   1  26
TORSDOF 13
ENDMDL
MODEL 3
REMARK VINA RESULT:     -14.0      1.697      3.529
REMARK SMILES COc1ccc(NC(=O)[C@H]2[C@@H](C(=O)NCCCNC(=O)c3ccc(-c4c5nc(c(-c6c(F)c(F)c(F)c(F)c6F)c6ccc([nH]6)c(-c6c(F)c(F)c(F)c(F)c6F)c6nc(c(-c7c(F)c(F)c(F)c(F)c7F)c7ccc4[nH]7)C=C6)C=C5)cc3)[C@H]3C=C[C@@H]2C3)c(C)c1
REMARK SMILES IDX 15 1 14 2 12 3 13 4 11 6 10 7 87 8 84 9 86 10 88 11 85 12
REMARK SMILES IDX 8 13 7 14 9 16 6 17 3 18 4 19 91 20 5 21 89 22 90 23 2 24
REMARK SMILES IDX 1 25 16 26 17 27 18 28 19 29 20 31 21 32 22 33 83 34 23 35
REMARK SMILES IDX 82 36 24 37 25 38 26 39 76 40 27 41 81 42 75 43 77 44 28 45
REMARK SMILES IDX 80 46 74 47 73 48 29 50 61 51 41 52 60 53 42 54 45 55 59 56
REMARK SMILES IDX 78 57 43 58 44 59 58 61 79 62 46 63 30 64 31 65 39 66 32 67
REMARK SMILES IDX 33 68 37 69 40 70 34 71 35 72 38 73 36 74 62 75 63 76 71 77
REMARK SMILES IDX 64 78 65 79 69 80 72 81 66 82 67 83 70 84 68 85 47 86 48 87
REMARK SMILES IDX 56 88 49 89 50 90 54 91 57 92 51 93 52 94 55 95 53 96
REMARK H PARENT 14 5 7 15 18 30 77 49 45 60
REMARK Flexibility Score: inf
ROOT
ATOM      1  C   UNL A   1      36.752  23.250  24.367  1.00  0.00     0.117 C 
ENDROOT
BRANCH   1   2
ATOM      2  N   UNL A   1      35.521  23.278  23.571  1.00  0.00    -0.356 N 
ATOM      3  C   UNL A   1      34.289  23.890  23.776  1.00  0.00     0.224 C 
ATOM      4  O   UNL A   1      33.420  23.721  22.921  1.00  0.00    -0.275 OA
ATOM      5  H   UNL A   1      35.578  22.766  22.732  1.00  0.00     0.163 HD
BRANCH   3   6
ATOM      6  C   UNL A   1      34.097  24.836  24.960  1.00  0.00     0.098 C 
ATOM      7  C   UNL A   1      33.107  24.699  26.193  1.00  0.00     0.099 C 
ATOM      8  C   UNL A   1      32.484  26.155  26.221  1.00  0.00     0.025 C 
ATOM      9  C   UNL A   1      33.729  26.241  24.381  1.00  0.00     0.025 C 
ATOM     10  C   UNL A   1      31.530  26.262  25.050  1.00  0.00    -0.027 C 
ATOM     11  C   UNL A   1      33.602  27.040  25.677  1.00  0.00     0.017 C 
ATOM     12  C   UNL A   1      32.280  26.279  23.942  1.00  0.00    -0.027 C 
BRANCH   7  13
ATOM     13  C   UNL A   1      31.925  23.754  26.516  1.00  0.00     0.228 C 
ATOM     14  N   UNL A   1      31.763  22.455  26.189  1.00  0.00    -0.326 N 
ATOM     15  H   UNL A   1      30.930  22.063  26.537  1.00  0.00     0.169 HD
ATOM     16  O   UNL A   1      31.011  24.170  27.252  1.00  0.00    -0.274 OA
BRANCH  14  17
ATOM     17  C   UNL A   1      32.531  21.564  25.461  1.00  0.00     0.044 A 
ATOM     18  C   UNL A   1      33.578  19.215  24.482  1.00  0.00     0.119 A 
ATOM     19  C   UNL A   1      32.665  19.933  23.732  1.00  0.00     0.048 A 
ATOM     20  C   UNL A   1      34.187  19.838  25.553  1.00  0.00     0.052 A 
ATOM     21  C   UNL A   1      32.107  21.098  24.234  1.00  0.00     0.030 A 
ATOM     22  C   UNL A   1      33.718  21.068  26.017  1.00  0.00    -0.024 A 
ATOM     23  C   UNL A   1      34.527  21.736  27.091  1.00  0.00     0.047 C 
BRANCH  18  24
ATOM     24  O   UNL A   1      33.977  17.966  24.114  1.00  0.00    -0.497 OA
ATOM     25  C   UNL A   1      33.200  17.433  23.040  1.00  0.00     0.278 C 
ENDBRANCH  18  24
ENDBRANCH  14  17
ENDBRANCH   7  13
ENDBRANCH   3   6
ENDBRANCH   1   2
BRANCH   1  26
ATOM     26  C   UNL A   1      37.435  21.882  24.718  1.00  0.00     0.042 C 
BRANCH  26  27
ATOM     27  C   UNL A   1      38.572  21.707  25.759  1.00  0.00     0.118 C 
BRANCH  27  28
ATOM     28  N   UNL A   1      38.785  22.798  26.702  1.00  0.00    -0.352 N 
ATOM     29  C   UNL A   1      39.981  23.508  26.833  1.00  0.00     0.251 C 
ATOM     30  H   UNL A   1      38.033  23.053  27.285  1.00  0.00     0.163 HD
ATOM     31  O   UNL A   1      41.090  23.095  26.600  1.00  0.00    -0.269 OA
BRANCH  29  32
ATOM     32  C   UNL A   1      39.733  24.940  27.193  1.00  0.00     0.039 A 
ATOM     33  C   UNL A   1      40.217  26.016  26.441  1.00  0.00     0.014 A 
ATOM     34  C   UNL A   1      39.177  25.156  28.457  1.00  0.00     0.014 A 
ATOM     35  C   UNL A   1      40.289  27.291  27.036  1.00  0.00     0.010 A 
ATOM     36  C   UNL A   1      39.278  26.408  29.050  1.00  0.00     0.010 A 
ATOM     37  C   UNL A   1      39.892  27.470  28.371  1.00  0.00    -0.014 A 
BRANCH  37  38
ATOM     38  C   UNL A   1      40.268  28.629  29.198  1.00  0.00     0.031 A 
ATOM     39  C   UNL A   1      39.301  29.634  29.699  1.00  0.00     0.074 A 
ATOM     40  C   UNL A   1      41.527  28.727  29.681  1.00  0.00     0.049 A 
ATOM     41  N   UNL A   1      39.648  30.826  30.072  1.00  0.00    -0.248 NA
ATOM     42  C   UNL A   1      37.872  29.386  29.816  1.00  0.00     0.031 C 
ATOM     43  C   UNL A   1      41.964  29.494  30.852  1.00  0.00     0.029 A 
ATOM     44  N   UNL A   1      42.705  28.177  29.175  1.00  0.00    -0.354 N 
ATOM     45  C   UNL A   1      38.572  31.401  30.699  1.00  0.00     0.074 A 
ATOM     46  C   UNL A   1      37.470  30.492  30.456  1.00  0.00     0.031 C 
ATOM     47  C   UNL A   1      43.302  29.550  30.871  1.00  0.00     0.029 A 
ATOM     48  C   UNL A   1      43.779  28.968  29.633  1.00  0.00     0.049 A 
ATOM     49  H   UNL A   1      42.774  27.380  28.601  1.00  0.00     0.167 HD
ATOM     50  C   UNL A   1      38.726  32.523  31.461  1.00  0.00     0.037 A 
ATOM     51  C   UNL A   1      44.602  29.599  28.747  1.00  0.00     0.037 A 
ATOM     52  C   UNL A   1      40.120  32.936  31.607  1.00  0.00     0.049 A 
ATOM     53  C   UNL A   1      44.555  31.110  28.794  1.00  0.00     0.074 A 
ATOM     54  C   UNL A   1      41.054  32.808  32.625  1.00  0.00     0.029 A 
ATOM     55  N   UNL A   1      40.824  33.394  30.507  1.00  0.00    -0.354 N 
ATOM     56  N   UNL A   1      43.833  31.812  29.618  1.00  0.00    -0.248 NA
ATOM     57  C   UNL A   1      45.232  31.936  27.793  1.00  0.00     0.031 C 
ATOM     58  C   UNL A   1      42.314  33.249  32.139  1.00  0.00     0.029 A 
ATOM     59  C   UNL A   1      42.153  33.624  30.820  1.00  0.00     0.049 A 
ATOM     60  H   UNL A   1      40.430  33.538  29.616  1.00  0.00     0.167 HD
ATOM     61  C   UNL A   1      43.843  33.120  29.210  1.00  0.00     0.074 A 
ATOM     62  C   UNL A   1      44.743  33.153  28.076  1.00  0.00     0.031 C 
ATOM     63  C   UNL A   1      43.059  34.077  29.782  1.00  0.00     0.037 A 
BRANCH  50  64
ATOM     64  C   UNL A   1      37.603  33.124  32.275  1.00  0.00     0.064 A 
ATOM     65  C   UNL A   1      36.597  33.916  31.684  1.00  0.00     0.173 A 
ATOM     66  C   UNL A   1      37.474  32.937  33.664  1.00  0.00     0.173 A 
ATOM     67  F   UNL A   1      36.522  34.086  30.359  1.00  0.00    -0.203 F 
ATOM     68  C   UNL A   1      35.622  34.573  32.440  1.00  0.00     0.198 A 
ATOM     69  C   UNL A   1      36.534  33.638  34.426  1.00  0.00     0.198 A 
ATOM     70  F   UNL A   1      38.235  32.045  34.314  1.00  0.00    -0.203 F 
ATOM     71  F   UNL A   1      34.697  35.321  31.822  1.00  0.00    -0.200 F 
ATOM     72  C   UNL A   1      35.617  34.468  33.815  1.00  0.00     0.200 A 
ATOM     73  F   UNL A   1      36.528  33.506  35.761  1.00  0.00    -0.200 F 
ATOM     74  F   UNL A   1      34.719  35.144  34.542  1.00  0.00    -0.200 F 
ENDBRANCH  50  64
BRANCH  51  75
ATOM     75  C   UNL A   1      44.783  28.828  27.494  1.00  0.00     0.064 A 
ATOM     76  C   UNL A   1      45.728  27.790  27.472  1.00  0.00     0.173 A 
ATOM     77  C   UNL A   1      43.788  28.839  26.507  1.00  0.00     0.173 A 
ATOM     78  F   UNL A   1      46.673  27.720  28.422  1.00  0.00    -0.203 F 
ATOM     79  C   UNL A   1      45.618  26.747  26.558  1.00  0.00     0.198 A 
ATOM     80  C   UNL A   1      43.675  27.788  25.604  1.00  0.00     0.198 A 
ATOM     81  F   UNL A   1      42.849  29.798  26.501  1.00  0.00    -0.203 F 
ATOM     82  F   UNL A   1      46.447  25.697  26.642  1.00  0.00    -0.200 F 
ATOM     83  C   UNL A   1      44.570  26.728  25.649  1.00  0.00     0.200 A 
ATOM     84  F   UNL A   1      42.642  27.751  24.751  1.00  0.00    -0.200 F 
ATOM     85  F   UNL A   1      44.384  25.659  24.865  1.00  0.00    -0.200 F 
ENDBRANCH  51  75
BRANCH  63  86
ATOM     86  C   UNL A   1      43.091  35.517  29.365  1.00  0.00     0.064 A 
ATOM     87  C   UNL A   1      43.781  36.496  30.102  1.00  0.00     0.173 A 
ATOM     88  C   UNL A   1      42.355  35.980  28.256  1.00  0.00     0.173 A 
ATOM     89  F   UNL A   1      44.435  36.175  31.227  1.00  0.00    -0.203 F 
ATOM     90  C   UNL A   1      43.801  37.834  29.706  1.00  0.00     0.198 A 
ATOM     91  C   UNL A   1      42.336  37.326  27.892  1.00  0.00     0.198 A 
ATOM     92  F   UNL A   1      41.656  35.138  27.481  1.00  0.00    -0.203 F 
ATOM     93  F   UNL A   1      44.529  38.721  30.398  1.00  0.00    -0.200 F 
ATOM     94  C   UNL A   1      43.075  38.249  28.604  1.00  0.00     0.200 A 
ATOM     95  F   UNL A   1      41.604  37.720  26.840  1.00  0.00    -0.200 F 
ATOM     96  F   UNL A   1      43.088  39.536  28.231  1.00  0.00    -0.200 F 
ENDBRANCH  63  86
ENDBRANCH  37  38
ENDBRANCH  29  32
ENDBRANCH  27  28
ENDBRANCH  26  27
ENDBRANCH   1  26
TORSDOF 13
ENDMDL
