MODEL 1
REMARK VINA RESULT:      -9.9      0.000      0.000
REMARK SMILES C[NH2+][C@]1(C(=O)NCCCNC(=O)c2ccc(-c3c4nc(c(-c5c(F)c(F)c(F)c(F)c5F)c5ccc([nH]5)c(-c5c(F)c(F)c(F)c(F)c5F)c5nc(c(-c6c(F)c(F)c(F)c(F)c6F)c6ccc3[nH]6)C=C5)C=C4)cc2)CC[C@@H](OCCCc2ccccc2)C1
REMARK SMILES IDX 4 1 5 2 6 3 3 5 76 6 89 7 77 8 78 9 2 10 1 11 79 14 80 15
REMARK SMILES IDX 81 16 82 17 83 18 84 19 88 20 85 21 87 22 86 23 7 24 8 25
REMARK SMILES IDX 9 26 10 27 11 28 12 30 13 31 14 32 75 33 15 34 74 35 16 36
REMARK SMILES IDX 17 37 18 38 68 39 19 40 73 41 67 42 69 43 20 44 72 45 66 46
REMARK SMILES IDX 65 47 21 49 53 50 33 51 52 52 34 53 37 54 51 55 70 56 35 57
REMARK SMILES IDX 36 58 50 60 71 61 38 62 22 63 23 64 31 65 24 66 25 67 29 68
REMARK SMILES IDX 32 69 26 70 27 71 30 72 28 73 54 74 55 75 63 76 56 77 57 78
REMARK SMILES IDX 61 79 64 80 58 81 59 82 62 83 60 84 39 85 40 86 48 87 41 88
REMARK SMILES IDX 42 89 46 90 49 91 43 92 44 93 47 94 45 95
REMARK H PARENT 6 4 2 12 2 13 10 29 69 48 37 59
REMARK Flexibility Score: inf
ROOT
ATOM      1  C   UNL A   1      36.537  33.254  34.526  1.00  0.00     0.281 C 
ATOM      2  O   UNL A   1      35.984  33.700  35.607  1.00  0.00    -0.268 OA
ATOM      3  N   UNL A   1      35.690  32.918  32.800  1.00  0.00    -0.351 N 
ATOM      4  H   UNL A   1      34.719  32.875  32.964  1.00  0.00     0.163 HD
ENDROOT
BRANCH   1   5
ATOM      5  C   UNL A   1      38.283  33.055  35.122  1.00  0.00     0.177 C 
ATOM      6  C   UNL A   1      38.930  32.519  36.432  1.00  0.00     0.082 C 
ATOM      7  C   UNL A   1      39.069  32.310  33.970  1.00  0.00     0.111 C 
ATOM      8  C   UNL A   1      40.161  31.698  36.045  1.00  0.00     0.039 C 
ATOM      9  C   UNL A   1      39.985  31.260  34.599  1.00  0.00     0.125 C 
BRANCH   5  10
ATOM     10  N   UNL A   1      38.827  34.500  34.970  1.00  0.00    -0.336 N 
ATOM     11  C   UNL A   1      39.298  35.182  36.167  1.00  0.00     0.331 C 
ATOM     12  H   UNL A   1      39.608  34.463  34.314  1.00  0.00     0.346 HD
ATOM     13  H   UNL A   1      38.020  35.045  34.667  1.00  0.00     0.346 HD
ENDBRANCH   5  10
BRANCH   9  14
ATOM     14  O   UNL A   1      39.728  29.856  34.588  1.00  0.00    -0.378 OA
BRANCH  14  15
ATOM     15  C   UNL A   1      39.395  29.153  33.410  1.00  0.00     0.161 C 
BRANCH  15  16
ATOM     16  C   UNL A   1      40.479  28.138  33.052  1.00  0.00     0.033 C 
BRANCH  16  17
ATOM     17  C   UNL A   1      41.712  28.196  33.933  1.00  0.00     0.038 C 
BRANCH  17  18
ATOM     18  C   UNL A   1      42.439  26.871  34.155  1.00  0.00    -0.048 A 
ATOM     19  C   UNL A   1      41.787  25.582  35.296  1.00  0.00     0.004 A 
ATOM     20  C   UNL A   1      43.798  26.403  32.986  1.00  0.00     0.004 A 
ATOM     21  C   UNL A   1      42.451  23.884  35.260  1.00  0.00     0.000 A 
ATOM     22  C   UNL A   1      44.461  24.702  32.978  1.00  0.00     0.000 A 
ATOM     23  C   UNL A   1      43.791  23.432  34.093  1.00  0.00     0.000 A 
ENDBRANCH  17  18
ENDBRANCH  16  17
ENDBRANCH  15  16
ENDBRANCH  14  15
ENDBRANCH   9  14
ENDBRANCH   1   5
BRANCH   3  24
ATOM     24  C   UNL A   1      35.908  32.678  31.204  1.00  0.00     0.118 C 
BRANCH  24  25
ATOM     25  C   UNL A   1      34.662  33.004  30.401  1.00  0.00     0.042 C 
BRANCH  25  26
ATOM     26  C   UNL A   1      34.910  32.697  28.938  1.00  0.00     0.118 C 
BRANCH  26  27
ATOM     27  N   UNL A   1      34.158  31.505  28.550  1.00  0.00    -0.352 N 
ATOM     28  C   UNL A   1      34.681  30.353  28.011  1.00  0.00     0.251 C 
ATOM     29  H   UNL A   1      33.184  31.529  28.687  1.00  0.00     0.163 HD
ATOM     30  O   UNL A   1      34.026  29.661  27.243  1.00  0.00    -0.269 OA
BRANCH  28  31
ATOM     31  C   UNL A   1      36.058  29.984  28.386  1.00  0.00     0.039 A 
ATOM     32  C   UNL A   1      36.332  29.422  29.630  1.00  0.00     0.014 A 
ATOM     33  C   UNL A   1      37.083  30.200  27.462  1.00  0.00     0.014 A 
ATOM     34  C   UNL A   1      37.643  29.053  29.931  1.00  0.00     0.010 A 
ATOM     35  C   UNL A   1      38.340  29.681  27.695  1.00  0.00     0.010 A 
ATOM     36  C   UNL A   1      38.649  29.161  28.954  1.00  0.00    -0.014 A 
BRANCH  36  37
ATOM     37  C   UNL A   1      40.060  28.821  29.240  1.00  0.00     0.031 A 
ATOM     38  C   UNL A   1      40.906  29.788  30.027  1.00  0.00     0.074 A 
ATOM     39  C   UNL A   1      40.585  27.687  28.742  1.00  0.00     0.049 A 
ATOM     40  N   UNL A   1      42.176  29.719  30.330  1.00  0.00    -0.248 NA
ATOM     41  C   UNL A   1      40.248  31.018  30.501  1.00  0.00     0.031 C 
ATOM     42  C   UNL A   1      39.870  26.713  27.916  1.00  0.00     0.029 A 
ATOM     43  N   UNL A   1      41.846  27.166  28.857  1.00  0.00    -0.354 N 
ATOM     44  C   UNL A   1      42.464  30.898  31.005  1.00  0.00     0.074 A 
ATOM     45  C   UNL A   1      41.267  31.703  30.992  1.00  0.00     0.031 C 
ATOM     46  C   UNL A   1      40.690  25.688  27.638  1.00  0.00     0.029 A 
ATOM     47  C   UNL A   1      42.000  25.959  28.220  1.00  0.00     0.049 A 
ATOM     48  H   UNL A   1      42.573  27.612  29.348  1.00  0.00     0.167 HD
ATOM     49  C   UNL A   1      43.615  31.260  31.618  1.00  0.00     0.037 A 
ATOM     50  C   UNL A   1      43.084  25.169  28.116  1.00  0.00     0.037 A 
ATOM     51  C   UNL A   1      44.790  30.434  31.646  1.00  0.00     0.049 A 
ATOM     52  C   UNL A   1      44.358  25.601  28.792  1.00  0.00     0.074 A 
ATOM     53  C   UNL A   1      45.993  30.666  32.285  1.00  0.00     0.029 A 
ATOM     54  N   UNL A   1      44.908  29.213  30.995  1.00  0.00    -0.354 N 
ATOM     55  N   UNL A   1      44.598  26.680  29.498  1.00  0.00    -0.248 NA
ATOM     56  C   UNL A   1      45.510  24.701  28.661  1.00  0.00     0.031 C 
ATOM     57  C   UNL A   1      46.863  29.621  31.961  1.00  0.00     0.029 A 
ATOM     58  C   UNL A   1      46.179  28.697  31.187  1.00  0.00     0.049 A 
ATOM     59  H   UNL A   1      44.194  28.779  30.474  1.00  0.00     0.167 HD
ATOM     60  C   UNL A   1      45.916  26.573  29.922  1.00  0.00     0.074 A 
ATOM     61  C   UNL A   1      46.415  25.315  29.408  1.00  0.00     0.031 C 
ATOM     62  C   UNL A   1      46.649  27.437  30.667  1.00  0.00     0.037 A 
BRANCH  49  63
ATOM     63  C   UNL A   1      43.653  32.600  32.299  1.00  0.00     0.064 A 
ATOM     64  C   UNL A   1      43.367  32.747  33.667  1.00  0.00     0.173 A 
ATOM     65  C   UNL A   1      43.995  33.753  31.577  1.00  0.00     0.173 A 
ATOM     66  F   UNL A   1      43.018  31.681  34.403  1.00  0.00    -0.203 F 
ATOM     67  C   UNL A   1      43.385  34.000  34.273  1.00  0.00     0.198 A 
ATOM     68  C   UNL A   1      44.053  34.999  32.197  1.00  0.00     0.198 A 
ATOM     69  F   UNL A   1      44.279  33.673  30.269  1.00  0.00    -0.203 F 
ATOM     70  F   UNL A   1      43.041  34.123  35.564  1.00  0.00    -0.200 F 
ATOM     71  C   UNL A   1      43.736  35.123  33.541  1.00  0.00     0.200 A 
ATOM     72  F   UNL A   1      44.408  36.080  31.491  1.00  0.00    -0.200 F 
ATOM     73  F   UNL A   1      43.759  36.327  34.128  1.00  0.00    -0.200 F 
ENDBRANCH  49  63
BRANCH  50  74
ATOM     74  C   UNL A   1      43.001  23.887  27.368  1.00  0.00     0.064 A 
ATOM     75  C   UNL A   1      42.557  22.713  27.994  1.00  0.00     0.173 A 
ATOM     76  C   UNL A   1      43.361  23.805  26.015  1.00  0.00     0.173 A 
ATOM     77  F   UNL A   1      42.212  22.736  29.291  1.00  0.00    -0.203 F 
ATOM     78  C   UNL A   1      42.505  21.504  27.305  1.00  0.00     0.198 A 
ATOM     79  C   UNL A   1      43.275  22.603  25.317  1.00  0.00     0.198 A 
ATOM     80  F   UNL A   1      43.781  24.900  25.364  1.00  0.00    -0.203 F 
ATOM     81  F   UNL A   1      42.130  20.388  27.944  1.00  0.00    -0.200 F 
ATOM     82  C   UNL A   1      42.858  21.450  25.966  1.00  0.00     0.200 A 
ATOM     83  F   UNL A   1      43.595  22.561  24.016  1.00  0.00    -0.200 F 
ATOM     84  F   UNL A   1      42.803  20.288  25.301  1.00  0.00    -0.200 F 
ENDBRANCH  50  74
BRANCH  62  85
ATOM     85  C   UNL A   1      48.055  27.032  31.006  1.00  0.00     0.064 A 
ATOM     86  C   UNL A   1      48.355  26.292  32.159  1.00  0.00     0.173 A 
ATOM     87  C   UNL A   1      49.111  27.355  30.140  1.00  0.00     0.173 A 
ATOM     88  F   UNL A   1      47.383  25.968  33.026  1.00  0.00    -0.203 F 
ATOM     89  C   UNL A   1      49.664  25.921  32.449  1.00  0.00     0.198 A 
ATOM     90  C   UNL A   1      50.412  26.946  30.412  1.00  0.00     0.198 A 
ATOM     91  F   UNL A   1      48.878  28.052  29.017  1.00  0.00    -0.203 F 
ATOM     92  F   UNL A   1      49.936  25.267  33.587  1.00  0.00    -0.200 F 
ATOM     93  C   UNL A   1      50.690  26.238  31.571  1.00  0.00     0.200 A 
ATOM     94  F   UNL A   1      51.397  27.234  29.550  1.00  0.00    -0.200 F 
ATOM     95  F   UNL A   1      51.948  25.870  31.846  1.00  0.00    -0.200 F 
ENDBRANCH  62  85
ENDBRANCH  36  37
ENDBRANCH  28  31
ENDBRANCH  26  27
ENDBRANCH  25  26
ENDBRANCH  24  25
ENDBRANCH   3  24
TORSDOF 16
ENDMDL
MODEL 2
REMARK VINA RESULT:      -9.8      3.829     10.468
REMARK SMILES C[NH2+][C@]1(C(=O)NCCCNC(=O)c2ccc(-c3c4nc(c(-c5c(F)c(F)c(F)c(F)c5F)c5ccc([nH]5)c(-c5c(F)c(F)c(F)c(F)c5F)c5nc(c(-c6c(F)c(F)c(F)c(F)c6F)c6ccc3[nH]6)C=C5)C=C4)cc2)CC[C@@H](OCCCc2ccccc2)C1
REMARK SMILES IDX 4 1 5 2 6 3 3 5 76 6 89 7 77 8 78 9 2 10 1 11 79 14 80 15
REMARK SMILES IDX 81 16 82 17 83 18 84 19 88 20 85 21 87 22 86 23 7 24 8 25
REMARK SMILES IDX 9 26 10 27 11 28 12 30 13 31 14 32 75 33 15 34 74 35 16 36
REMARK SMILES IDX 17 37 18 38 68 39 19 40 73 41 67 42 69 43 20 44 72 45 66 46
REMARK SMILES IDX 65 47 21 49 53 50 33 51 52 52 34 53 37 54 51 55 70 56 35 57
REMARK SMILES IDX 36 58 50 60 71 61 38 62 22 63 23 64 31 65 24 66 25 67 29 68
REMARK SMILES IDX 32 69 26 70 27 71 30 72 28 73 54 74 55 75 63 76 56 77 57 78
REMARK SMILES IDX 61 79 64 80 58 81 59 82 62 83 60 84 39 85 40 86 48 87 41 88
REMARK SMILES IDX 42 89 46 90 49 91 43 92 44 93 47 94 45 95
REMARK H PARENT 6 4 2 12 2 13 10 29 69 48 37 59
REMARK Flexibility Score: inf
ROOT
ATOM      1  C   UNL A   1      44.795  21.867  26.068  1.00  0.00     0.281 C 
ATOM      2  O   UNL A   1      46.004  21.721  25.633  1.00  0.00    -0.268 OA
ATOM      3  N   UNL A   1      43.213  20.836  25.575  1.00  0.00    -0.351 N 
ATOM      4  H   UNL A   1      43.428  20.373  24.732  1.00  0.00     0.163 HD
ENDROOT
BRANCH   1   5
ATOM      5  C   UNL A   1      45.048  23.284  27.240  1.00  0.00     0.177 C 
ATOM      6  C   UNL A   1      46.270  24.166  27.630  1.00  0.00     0.082 C 
ATOM      7  C   UNL A   1      43.899  24.328  26.939  1.00  0.00     0.111 C 
ATOM      8  C   UNL A   1      45.782  25.608  27.769  1.00  0.00     0.039 C 
ATOM      9  C   UNL A   1      44.492  25.736  26.971  1.00  0.00     0.125 C 
BRANCH   5  10
ATOM     10  N   UNL A   1      44.554  22.671  28.576  1.00  0.00    -0.336 N 
ATOM     11  C   UNL A   1      43.521  23.383  29.314  1.00  0.00     0.331 C 
ATOM     12  H   UNL A   1      44.193  21.741  28.368  1.00  0.00     0.346 HD
ATOM     13  H   UNL A   1      45.370  22.702  29.188  1.00  0.00     0.346 HD
ENDBRANCH   5  10
BRANCH   9  14
ATOM     14  O   UNL A   1      44.764  26.522  25.811  1.00  0.00    -0.378 OA
BRANCH  14  15
ATOM     15  C   UNL A   1      44.196  27.797  25.607  1.00  0.00     0.161 C 
BRANCH  15  16
ATOM     16  C   UNL A   1      44.327  28.664  26.857  1.00  0.00     0.033 C 
BRANCH  16  17
ATOM     17  C   UNL A   1      43.253  29.725  27.004  1.00  0.00     0.038 C 
BRANCH  17  18
ATOM     18  C   UNL A   1      43.744  31.130  27.350  1.00  0.00    -0.048 A 
ATOM     19  C   UNL A   1      44.329  32.302  26.056  1.00  0.00     0.004 A 
ATOM     20  C   UNL A   1      43.402  31.793  29.045  1.00  0.00     0.004 A 
ATOM     21  C   UNL A   1      44.547  34.073  26.433  1.00  0.00     0.000 A 
ATOM     22  C   UNL A   1      43.643  33.566  29.406  1.00  0.00     0.000 A 
ATOM     23  C   UNL A   1      44.197  34.718  28.113  1.00  0.00     0.000 A 
ENDBRANCH  17  18
ENDBRANCH  16  17
ENDBRANCH  15  16
ENDBRANCH  14  15
ENDBRANCH   9  14
ENDBRANCH   1   5
BRANCH   3  24
ATOM     24  C   UNL A   1      41.688  20.417  25.965  1.00  0.00     0.118 C 
BRANCH  24  25
ATOM     25  C   UNL A   1      41.410  20.585  27.448  1.00  0.00     0.042 C 
BRANCH  25  26
ATOM     26  C   UNL A   1      40.764  21.935  27.690  1.00  0.00     0.118 C 
BRANCH  26  27
ATOM     27  N   UNL A   1      39.910  22.282  26.556  1.00  0.00    -0.352 N 
ATOM     28  C   UNL A   1      39.095  23.387  26.461  1.00  0.00     0.251 C 
ATOM     29  H   UNL A   1      39.918  21.668  25.787  1.00  0.00     0.163 HD
ATOM     30  O   UNL A   1      38.063  23.355  25.803  1.00  0.00    -0.269 OA
BRANCH  28  31
ATOM     31  C   UNL A   1      39.506  24.606  27.179  1.00  0.00     0.039 A 
ATOM     32  C   UNL A   1      40.252  25.593  26.540  1.00  0.00     0.014 A 
ATOM     33  C   UNL A   1      39.121  24.756  28.513  1.00  0.00     0.014 A 
ATOM     34  C   UNL A   1      40.588  26.748  27.246  1.00  0.00     0.010 A 
ATOM     35  C   UNL A   1      39.308  25.966  29.151  1.00  0.00     0.010 A 
ATOM     36  C   UNL A   1      40.098  26.949  28.549  1.00  0.00    -0.014 A 
BRANCH  36  37
ATOM     37  C   UNL A   1      40.460  28.138  29.350  1.00  0.00     0.031 A 
ATOM     38  C   UNL A   1      41.821  28.206  29.993  1.00  0.00     0.074 A 
ATOM     39  C   UNL A   1      39.552  29.111  29.547  1.00  0.00     0.049 A 
ATOM     40  N   UNL A   1      42.317  29.119  30.788  1.00  0.00    -0.248 NA
ATOM     41  C   UNL A   1      42.734  27.075  29.747  1.00  0.00     0.031 C 
ATOM     42  C   UNL A   1      38.186  29.114  29.020  1.00  0.00     0.029 A 
ATOM     43  N   UNL A   1      39.643  30.285  30.245  1.00  0.00    -0.354 N 
ATOM     44  C   UNL A   1      43.578  28.660  31.144  1.00  0.00     0.074 A 
ATOM     45  C   UNL A   1      43.741  27.353  30.557  1.00  0.00     0.031 C 
ATOM     46  C   UNL A   1      37.582  30.258  29.376  1.00  0.00     0.029 A 
ATOM     47  C   UNL A   1      38.498  31.041  30.197  1.00  0.00     0.049 A 
ATOM     48  H   UNL A   1      40.451  30.560  30.736  1.00  0.00     0.167 HD
ATOM     49  C   UNL A   1      44.533  29.293  31.864  1.00  0.00     0.037 A 
ATOM     50  C   UNL A   1      38.225  32.231  30.762  1.00  0.00     0.037 A 
ATOM     51  C   UNL A   1      44.366  30.607  32.419  1.00  0.00     0.049 A 
ATOM     52  C   UNL A   1      39.297  32.907  31.573  1.00  0.00     0.074 A 
ATOM     53  C   UNL A   1      45.281  31.374  33.114  1.00  0.00     0.029 A 
ATOM     54  N   UNL A   1      43.193  31.347  32.344  1.00  0.00    -0.354 N 
ATOM     55  N   UNL A   1      40.517  32.503  31.838  1.00  0.00    -0.248 NA
ATOM     56  C   UNL A   1      38.956  34.209  32.160  1.00  0.00     0.031 C 
ATOM     57  C   UNL A   1      44.641  32.547  33.523  1.00  0.00     0.029 A 
ATOM     58  C   UNL A   1      43.352  32.550  33.014  1.00  0.00     0.049 A 
ATOM     59  H   UNL A   1      42.372  31.061  31.883  1.00  0.00     0.167 HD
ATOM     60  C   UNL A   1      41.099  33.513  32.592  1.00  0.00     0.074 A 
ATOM     61  C   UNL A   1      40.103  34.556  32.726  1.00  0.00     0.031 C 
ATOM     62  C   UNL A   1      42.344  33.574  33.128  1.00  0.00     0.037 A 
BRANCH  49  63
ATOM     63  C   UNL A   1      45.831  28.569  32.091  1.00  0.00     0.064 A 
ATOM     64  C   UNL A   1      46.892  28.640  31.173  1.00  0.00     0.173 A 
ATOM     65  C   UNL A   1      46.025  27.805  33.252  1.00  0.00     0.173 A 
ATOM     66  F   UNL A   1      46.759  29.342  30.038  1.00  0.00    -0.203 F 
ATOM     67  C   UNL A   1      48.078  27.943  31.390  1.00  0.00     0.198 A 
ATOM     68  C   UNL A   1      47.227  27.143  33.486  1.00  0.00     0.198 A 
ATOM     69  F   UNL A   1      45.047  27.702  34.165  1.00  0.00    -0.203 F 
ATOM     70  F   UNL A   1      49.049  27.971  30.466  1.00  0.00    -0.200 F 
ATOM     71  C   UNL A   1      48.249  27.203  32.550  1.00  0.00     0.200 A 
ATOM     72  F   UNL A   1      47.395  26.442  34.615  1.00  0.00    -0.200 F 
ATOM     73  F   UNL A   1      49.393  26.539  32.760  1.00  0.00    -0.200 F 
ENDBRANCH  49  63
BRANCH  50  74
ATOM     74  C   UNL A   1      36.895  32.864  30.557  1.00  0.00     0.064 A 
ATOM     75  C   UNL A   1      36.587  33.525  29.360  1.00  0.00     0.173 A 
ATOM     76  C   UNL A   1      35.905  32.821  31.550  1.00  0.00     0.173 A 
ATOM     77  F   UNL A   1      37.504  33.605  28.384  1.00  0.00    -0.203 F 
ATOM     78  C   UNL A   1      35.352  34.144  29.175  1.00  0.00     0.198 A 
ATOM     79  C   UNL A   1      34.658  33.409  31.350  1.00  0.00     0.198 A 
ATOM     80  F   UNL A   1      36.142  32.190  32.709  1.00  0.00    -0.203 F 
ATOM     81  F   UNL A   1      35.106  34.816  28.043  1.00  0.00    -0.200 F 
ATOM     82  C   UNL A   1      34.387  34.080  30.167  1.00  0.00     0.200 A 
ATOM     83  F   UNL A   1      33.720  33.325  32.303  1.00  0.00    -0.200 F 
ATOM     84  F   UNL A   1      33.198  34.671  29.988  1.00  0.00    -0.200 F 
ENDBRANCH  50  74
BRANCH  62  85
ATOM     85  C   UNL A   1      42.712  34.825  33.873  1.00  0.00     0.064 A 
ATOM     86  C   UNL A   1      43.191  35.966  33.213  1.00  0.00     0.173 A 
ATOM     87  C   UNL A   1      42.541  34.894  35.264  1.00  0.00     0.173 A 
ATOM     88  F   UNL A   1      43.384  35.947  31.885  1.00  0.00    -0.203 F 
ATOM     89  C   UNL A   1      43.519  37.117  33.923  1.00  0.00     0.198 A 
ATOM     90  C   UNL A   1      42.829  36.061  35.965  1.00  0.00     0.198 A 
ATOM     91  F   UNL A   1      42.075  33.835  35.944  1.00  0.00    -0.203 F 
ATOM     92  F   UNL A   1      44.033  38.174  33.279  1.00  0.00    -0.200 F 
ATOM     93  C   UNL A   1      43.328  37.168  35.295  1.00  0.00     0.200 A 
ATOM     94  F   UNL A   1      42.623  36.114  37.288  1.00  0.00    -0.200 F 
ATOM     95  F   UNL A   1      43.633  38.281  35.975  1.00  0.00    -0.200 F 
ENDBRANCH  62  85
ENDBRANCH  36  37
ENDBRANCH  28  31
ENDBRANCH  26  27
ENDBRANCH  25  26
ENDBRANCH  24  25
ENDBRANCH   3  24
TORSDOF 16
ENDMDL
MODEL 3
REMARK VINA RESULT:      -9.5      1.576      2.989
REMARK SMILES C[NH2+][C@]1(C(=O)NCCCNC(=O)c2ccc(-c3c4nc(c(-c5c(F)c(F)c(F)c(F)c5F)c5ccc([nH]5)c(-c5c(F)c(F)c(F)c(F)c5F)c5nc(c(-c6c(F)c(F)c(F)c(F)c6F)c6ccc3[nH]6)C=C5)C=C4)cc2)CC[C@@H](OCCCc2ccccc2)C1
REMARK SMILES IDX 4 1 5 2 6 3 3 5 76 6 89 7 77 8 78 9 2 10 1 11 79 14 80 15
REMARK SMILES IDX 81 16 82 17 83 18 84 19 88 20 85 21 87 22 86 23 7 24 8 25
REMARK SMILES IDX 9 26 10 27 11 28 12 30 13 31 14 32 75 33 15 34 74 35 16 36
REMARK SMILES IDX 17 37 18 38 68 39 19 40 73 41 67 42 69 43 20 44 72 45 66 46
REMARK SMILES IDX 65 47 21 49 53 50 33 51 52 52 34 53 37 54 51 55 70 56 35 57
REMARK SMILES IDX 36 58 50 60 71 61 38 62 22 63 23 64 31 65 24 66 25 67 29 68
REMARK SMILES IDX 32 69 26 70 27 71 30 72 28 73 54 74 55 75 63 76 56 77 57 78
REMARK SMILES IDX 61 79 64 80 58 81 59 82 62 83 60 84 39 85 40 86 48 87 41 88
REMARK SMILES IDX 42 89 46 90 49 91 43 92 44 93 47 94 45 95
REMARK H PARENT 6 4 2 12 2 13 10 29 69 48 37 59
REMARK Flexibility Score: inf
ROOT
ATOM      1  C   UNL A   1      32.975  35.701  30.550  1.00  0.00     0.281 C 
ATOM      2  O   UNL A   1      32.339  36.769  30.909  1.00  0.00    -0.268 OA
ATOM      3  N   UNL A   1      33.245  35.022  28.740  1.00  0.00    -0.351 N 
ATOM      4  H   UNL A   1      32.580  35.468  28.167  1.00  0.00     0.163 HD
ENDROOT
BRANCH   1   5
ATOM      5  C   UNL A   1      33.511  35.076  32.213  1.00  0.00     0.177 C 
ATOM      6  C   UNL A   1      33.318  33.738  32.984  1.00  0.00     0.082 C 
ATOM      7  C   UNL A   1      35.061  35.367  32.325  1.00  0.00     0.111 C 
ATOM      8  C   UNL A   1      34.635  33.410  33.689  1.00  0.00     0.039 C 
ATOM      9  C   UNL A   1      35.744  34.158  32.963  1.00  0.00     0.125 C 
BRANCH   5  10
ATOM     10  N   UNL A   1      32.933  36.166  33.153  1.00  0.00    -0.336 N 
ATOM     11  C   UNL A   1      33.865  37.090  33.783  1.00  0.00     0.331 C 
ATOM     12  H   UNL A   1      32.277  36.723  32.605  1.00  0.00     0.346 HD
ATOM     13  H   UNL A   1      32.528  35.644  33.930  1.00  0.00     0.346 HD
ENDBRANCH   5  10
BRANCH   9  14
ATOM     14  O   UNL A   1      36.527  33.204  32.247  1.00  0.00    -0.378 OA
BRANCH  14  15
ATOM     15  C   UNL A   1      37.934  33.152  32.340  1.00  0.00     0.161 C 
BRANCH  15  16
ATOM     16  C   UNL A   1      38.387  33.113  33.799  1.00  0.00     0.033 C 
BRANCH  16  17
ATOM     17  C   UNL A   1      37.892  31.910  34.579  1.00  0.00     0.038 C 
BRANCH  17  18
ATOM     18  C   UNL A   1      38.753  30.651  34.484  1.00  0.00    -0.048 A 
ATOM     19  C   UNL A   1      38.600  29.472  33.079  1.00  0.00     0.004 A 
ATOM     20  C   UNL A   1      40.221  30.498  35.604  1.00  0.00     0.004 A 
ATOM     21  C   UNL A   1      39.874  28.199  32.789  1.00  0.00     0.000 A 
ATOM     22  C   UNL A   1      41.475  29.206  35.305  1.00  0.00     0.000 A 
ATOM     23  C   UNL A   1      41.326  28.063  33.899  1.00  0.00     0.000 A 
ENDBRANCH  17  18
ENDBRANCH  16  17
ENDBRANCH  15  16
ENDBRANCH  14  15
ENDBRANCH   9  14
ENDBRANCH   1   5
BRANCH   3  24
ATOM     24  C   UNL A   1      34.104  34.028  27.776  1.00  0.00     0.118 C 
BRANCH  24  25
ATOM     25  C   UNL A   1      35.322  33.460  28.480  1.00  0.00     0.042 C 
BRANCH  25  26
ATOM     26  C   UNL A   1      34.885  32.385  29.455  1.00  0.00     0.118 C 
BRANCH  26  27
ATOM     27  N   UNL A   1      34.226  31.300  28.731  1.00  0.00    -0.352 N 
ATOM     28  C   UNL A   1      34.844  30.348  27.955  1.00  0.00     0.251 C 
ATOM     29  H   UNL A   1      33.246  31.245  28.805  1.00  0.00     0.163 HD
ATOM     30  O   UNL A   1      34.272  29.846  26.996  1.00  0.00    -0.269 OA
BRANCH  28  31
ATOM     31  C   UNL A   1      36.219  29.956  28.314  1.00  0.00     0.039 A 
ATOM     32  C   UNL A   1      36.482  29.299  29.514  1.00  0.00     0.014 A 
ATOM     33  C   UNL A   1      37.252  30.247  27.421  1.00  0.00     0.014 A 
ATOM     34  C   UNL A   1      37.792  28.913  29.799  1.00  0.00     0.010 A 
ATOM     35  C   UNL A   1      38.509  29.718  27.626  1.00  0.00     0.010 A 
ATOM     36  C   UNL A   1      38.808  29.102  28.845  1.00  0.00    -0.014 A 
BRANCH  36  37
ATOM     37  C   UNL A   1      40.217  28.745  29.118  1.00  0.00     0.031 A 
ATOM     38  C   UNL A   1      41.090  29.717  29.869  1.00  0.00     0.074 A 
ATOM     39  C   UNL A   1      40.717  27.592  28.640  1.00  0.00     0.049 A 
ATOM     40  N   UNL A   1      42.364  29.636  30.154  1.00  0.00    -0.248 NA
ATOM     41  C   UNL A   1      40.459  30.970  30.322  1.00  0.00     0.031 C 
ATOM     42  C   UNL A   1      39.974  26.610  27.848  1.00  0.00     0.029 A 
ATOM     43  N   UNL A   1      41.971  27.053  28.749  1.00  0.00    -0.354 N 
ATOM     44  C   UNL A   1      42.680  30.826  30.797  1.00  0.00     0.074 A 
ATOM     45  C   UNL A   1      41.496  31.650  30.782  1.00  0.00     0.031 C 
ATOM     46  C   UNL A   1      40.774  25.565  27.584  1.00  0.00     0.029 A 
ATOM     47  C   UNL A   1      42.096  25.829  28.139  1.00  0.00     0.049 A 
ATOM     48  H   UNL A   1      42.712  27.500  29.219  1.00  0.00     0.167 HD
ATOM     49  C   UNL A   1      43.845  31.183  31.384  1.00  0.00     0.037 A 
ATOM     50  C   UNL A   1      43.166  25.020  28.039  1.00  0.00     0.037 A 
ATOM     51  C   UNL A   1      45.008  30.339  31.415  1.00  0.00     0.049 A 
ATOM     52  C   UNL A   1      44.457  25.447  28.685  1.00  0.00     0.074 A 
ATOM     53  C   UNL A   1      46.224  30.568  32.030  1.00  0.00     0.029 A 
ATOM     54  N   UNL A   1      45.096  29.102  30.792  1.00  0.00    -0.354 N 
ATOM     55  N   UNL A   1      44.725  26.538  29.362  1.00  0.00    -0.248 NA
ATOM     56  C   UNL A   1      45.592  24.525  28.560  1.00  0.00     0.031 C 
ATOM     57  C   UNL A   1      47.072  29.501  31.719  1.00  0.00     0.029 A 
ATOM     58  C   UNL A   1      46.362  28.570  30.978  1.00  0.00     0.049 A 
ATOM     59  H   UNL A   1      44.368  28.666  30.292  1.00  0.00     0.167 HD
ATOM     60  C   UNL A   1      46.046  26.421  29.769  1.00  0.00     0.074 A 
ATOM     61  C   UNL A   1      46.518  25.142  29.278  1.00  0.00     0.031 C 
ATOM     62  C   UNL A   1      46.804  27.291  30.482  1.00  0.00     0.037 A 
BRANCH  49  63
ATOM     63  C   UNL A   1      43.914  32.539  32.031  1.00  0.00     0.064 A 
ATOM     64  C   UNL A   1      43.594  32.733  33.386  1.00  0.00     0.173 A 
ATOM     65  C   UNL A   1      44.322  33.659  31.292  1.00  0.00     0.173 A 
ATOM     66  F   UNL A   1      43.183  31.701  34.138  1.00  0.00    -0.203 F 
ATOM     67  C   UNL A   1      43.642  34.000  33.960  1.00  0.00     0.198 A 
ATOM     68  C   UNL A   1      44.409  34.917  31.880  1.00  0.00     0.198 A 
ATOM     69  F   UNL A   1      44.642  33.533  29.995  1.00  0.00    -0.203 F 
ATOM     70  F   UNL A   1      43.265  34.170  35.236  1.00  0.00    -0.200 F 
ATOM     71  C   UNL A   1      44.058  35.089  33.211  1.00  0.00     0.200 A 
ATOM     72  F   UNL A   1      44.827  35.966  31.159  1.00  0.00    -0.200 F 
ATOM     73  F   UNL A   1      44.110  36.307  33.768  1.00  0.00    -0.200 F 
ENDBRANCH  49  63
BRANCH  50  74
ATOM     74  C   UNL A   1      43.051  23.721  27.324  1.00  0.00     0.064 A 
ATOM     75  C   UNL A   1      43.463  23.592  25.991  1.00  0.00     0.173 A 
ATOM     76  C   UNL A   1      42.529  22.582  27.956  1.00  0.00     0.173 A 
ATOM     77  F   UNL A   1      43.958  24.655  25.337  1.00  0.00    -0.203 F 
ATOM     78  C   UNL A   1      43.331  22.384  25.308  1.00  0.00     0.198 A 
ATOM     79  C   UNL A   1      42.431  21.366  27.284  1.00  0.00     0.198 A 
ATOM     80  F   UNL A   1      42.132  22.646  29.235  1.00  0.00    -0.203 F 
ATOM     81  F   UNL A   1      43.683  22.306  24.018  1.00  0.00    -0.200 F 
ATOM     82  C   UNL A   1      42.821  21.271  25.957  1.00  0.00     0.200 A 
ATOM     83  F   UNL A   1      41.958  20.287  27.923  1.00  0.00    -0.200 F 
ATOM     84  F   UNL A   1      42.698  20.108  25.302  1.00  0.00    -0.200 F 
ENDBRANCH  50  74
BRANCH  62  85
ATOM     85  C   UNL A   1      48.209  26.871  30.810  1.00  0.00     0.064 A 
ATOM     86  C   UNL A   1      48.504  26.088  31.935  1.00  0.00     0.173 A 
ATOM     87  C   UNL A   1      49.268  27.225  29.960  1.00  0.00     0.173 A 
ATOM     88  F   UNL A   1      47.529  25.733  32.786  1.00  0.00    -0.203 F 
ATOM     89  C   UNL A   1      49.812  25.704  32.216  1.00  0.00     0.198 A 
ATOM     90  C   UNL A   1      50.568  26.804  30.221  1.00  0.00     0.198 A 
ATOM     91  F   UNL A   1      49.039  27.965  28.864  1.00  0.00    -0.203 F 
ATOM     92  F   UNL A   1      50.079  25.007  33.329  1.00  0.00    -0.200 F 
ATOM     93  C   UNL A   1      50.840  26.053  31.354  1.00  0.00     0.200 A 
ATOM     94  F   UNL A   1      51.556  27.124  29.375  1.00  0.00    -0.200 F 
ATOM     95  F   UNL A   1      52.097  25.673  31.619  1.00  0.00    -0.200 F 
ENDBRANCH  62  85
ENDBRANCH  36  37
ENDBRANCH  28  31
ENDBRANCH  26  27
ENDBRANCH  25  26
ENDBRANCH  24  25
ENDBRANCH   3  24
TORSDOF 16
ENDMDL
