MODEL 1
REMARK VINA RESULT:     -13.1      0.000      0.000
REMARK SMILES O=C(NCCCNC(=O)c1nc2c(F)cccc2s1)c1ccc(-c2c3nc(c(-c4c(F)c(F)c(F)c(F)c4F)c4ccc([nH]4)c(-c4c(F)c(F)c(F)c(F)c4F)c4nc(c(-c5c(F)c(F)c(F)c(F)c5F)c5ccc2[nH]5)C=C4)C=C3)cc1
REMARK SMILES IDX 4 1 3 2 1 3 2 4 20 6 21 7 82 8 22 9 81 10 23 11 24 12 25 13
REMARK SMILES IDX 75 14 26 15 80 16 74 17 76 18 27 19 79 20 73 21 72 22 28 24
REMARK SMILES IDX 60 25 40 26 59 27 41 28 44 29 58 30 77 31 42 32 43 33 57 35
REMARK SMILES IDX 78 36 45 37 29 38 30 39 38 40 31 41 32 42 36 43 39 44 33 45
REMARK SMILES IDX 34 46 37 47 35 48 61 49 62 50 70 51 63 52 64 53 68 54 71 55
REMARK SMILES IDX 65 56 66 57 69 58 67 59 46 60 47 61 55 62 48 63 49 64 53 65
REMARK SMILES IDX 56 66 50 67 51 68 54 69 52 70 5 71 6 72 7 73 8 74 9 76 10 77
REMARK SMILES IDX 11 78 19 79 12 80 18 81 13 82 17 83 14 84 15 85 16 86
REMARK H PARENT 3 5 76 23 44 34 7 75
REMARK Flexibility Score: inf
ROOT
ATOM      1  C   UNL A   1      39.206  22.082  26.457  1.00  0.00     0.118 C 
ENDROOT
BRANCH   1   2
ATOM      2  N   UNL A   1      40.587  22.103  26.011  1.00  0.00    -0.352 N 
ATOM      3  O   UNL A   1      42.757  22.508  25.855  1.00  0.00    -0.269 OA
ATOM      4  C   UNL A   1      41.660  22.925  26.232  1.00  0.00     0.251 C 
ATOM      5  H   UNL A   1      40.802  21.354  25.410  1.00  0.00     0.163 HD
BRANCH   4   6
ATOM      6  C   UNL A   1      41.582  24.295  26.808  1.00  0.00     0.039 A 
ATOM      7  C   UNL A   1      42.135  24.691  28.023  1.00  0.00     0.014 A 
ATOM      8  C   UNL A   1      40.862  25.246  26.058  1.00  0.00     0.014 A 
ATOM      9  C   UNL A   1      41.880  25.961  28.531  1.00  0.00     0.010 A 
ATOM     10  C   UNL A   1      40.629  26.531  26.544  1.00  0.00     0.010 A 
ATOM     11  C   UNL A   1      41.113  26.876  27.800  1.00  0.00    -0.014 A 
BRANCH  11  12
ATOM     12  C   UNL A   1      40.992  28.226  28.343  1.00  0.00     0.031 A 
ATOM     13  C   UNL A   1      42.114  29.143  28.001  1.00  0.00     0.074 A 
ATOM     14  C   UNL A   1      39.943  28.694  29.044  1.00  0.00     0.049 A 
ATOM     15  N   UNL A   1      42.964  29.697  28.805  1.00  0.00    -0.248 NA
ATOM     16  C   UNL A   1      42.361  29.418  26.580  1.00  0.00     0.031 C 
ATOM     17  C   UNL A   1      38.632  28.076  29.241  1.00  0.00     0.029 A 
ATOM     18  N   UNL A   1      39.827  29.894  29.687  1.00  0.00    -0.354 N 
ATOM     19  C   UNL A   1      43.775  30.507  28.012  1.00  0.00     0.074 A 
ATOM     20  C   UNL A   1      43.428  30.217  26.644  1.00  0.00     0.031 C 
ATOM     21  C   UNL A   1      37.794  28.981  29.799  1.00  0.00     0.029 A 
ATOM     22  C   UNL A   1      38.543  30.185  30.121  1.00  0.00     0.049 A 
ATOM     23  H   UNL A   1      40.589  30.499  29.830  1.00  0.00     0.167 HD
ATOM     24  C   UNL A   1      44.552  31.485  28.551  1.00  0.00     0.037 A 
ATOM     25  C   UNL A   1      38.125  31.351  30.670  1.00  0.00     0.037 A 
ATOM     26  C   UNL A   1      44.763  31.273  29.958  1.00  0.00     0.049 A 
ATOM     27  C   UNL A   1      39.313  32.042  31.224  1.00  0.00     0.074 A 
ATOM     28  C   UNL A   1      45.387  30.308  30.724  1.00  0.00     0.029 A 
ATOM     29  N   UNL A   1      44.020  32.021  30.831  1.00  0.00    -0.354 N 
ATOM     30  N   UNL A   1      39.983  31.636  32.266  1.00  0.00    -0.248 NA
ATOM     31  C   UNL A   1      39.971  33.060  30.419  1.00  0.00     0.031 C 
ATOM     32  C   UNL A   1      44.648  30.256  31.942  1.00  0.00     0.029 A 
ATOM     33  C   UNL A   1      43.626  31.204  31.855  1.00  0.00     0.049 A 
ATOM     34  H   UNL A   1      43.806  32.978  30.739  1.00  0.00     0.167 HD
ATOM     35  C   UNL A   1      41.287  32.025  32.016  1.00  0.00     0.074 A 
ATOM     36  C   UNL A   1      41.191  33.018  30.956  1.00  0.00     0.031 C 
ATOM     37  C   UNL A   1      42.336  31.296  32.496  1.00  0.00     0.037 A 
BRANCH  24  38
ATOM     38  C   UNL A   1      44.840  32.820  27.900  1.00  0.00     0.064 A 
ATOM     39  C   UNL A   1      46.135  33.077  27.398  1.00  0.00     0.173 A 
ATOM     40  C   UNL A   1      44.008  33.952  28.029  1.00  0.00     0.173 A 
ATOM     41  F   UNL A   1      47.020  32.080  27.242  1.00  0.00    -0.203 F 
ATOM     42  C   UNL A   1      46.587  34.374  27.140  1.00  0.00     0.198 A 
ATOM     43  C   UNL A   1      44.446  35.240  27.719  1.00  0.00     0.198 A 
ATOM     44  F   UNL A   1      42.783  33.880  28.562  1.00  0.00    -0.203 F 
ATOM     45  F   UNL A   1      47.868  34.575  26.799  1.00  0.00    -0.200 F 
ATOM     46  C   UNL A   1      45.746  35.456  27.309  1.00  0.00     0.200 A 
ATOM     47  F   UNL A   1      43.620  36.280  27.903  1.00  0.00    -0.200 F 
ATOM     48  F   UNL A   1      46.195  36.704  27.129  1.00  0.00    -0.200 F 
ENDBRANCH  24  38
BRANCH  25  49
ATOM     49  C   UNL A   1      36.812  32.029  30.549  1.00  0.00     0.064 A 
ATOM     50  C   UNL A   1      35.898  32.028  31.618  1.00  0.00     0.173 A 
ATOM     51  C   UNL A   1      36.554  32.938  29.506  1.00  0.00     0.173 A 
ATOM     52  F   UNL A   1      36.089  31.220  32.670  1.00  0.00    -0.203 F 
ATOM     53  C   UNL A   1      34.819  32.916  31.661  1.00  0.00     0.198 A 
ATOM     54  C   UNL A   1      35.469  33.815  29.546  1.00  0.00     0.198 A 
ATOM     55  F   UNL A   1      37.402  33.062  28.475  1.00  0.00    -0.203 F 
ATOM     56  F   UNL A   1      34.015  32.938  32.734  1.00  0.00    -0.200 F 
ATOM     57  C   UNL A   1      34.614  33.818  30.631  1.00  0.00     0.200 A 
ATOM     58  F   UNL A   1      35.300  34.705  28.558  1.00  0.00    -0.200 F 
ATOM     59  F   UNL A   1      33.621  34.716  30.705  1.00  0.00    -0.200 F 
ENDBRANCH  25  49
BRANCH  37  60
ATOM     60  C   UNL A   1      42.055  30.316  33.597  1.00  0.00     0.064 A 
ATOM     61  C   UNL A   1      41.649  28.988  33.383  1.00  0.00     0.173 A 
ATOM     62  C   UNL A   1      42.349  30.699  34.914  1.00  0.00     0.173 A 
ATOM     63  F   UNL A   1      41.444  28.520  32.144  1.00  0.00    -0.203 F 
ATOM     64  C   UNL A   1      41.507  28.099  34.446  1.00  0.00     0.198 A 
ATOM     65  C   UNL A   1      42.244  29.797  35.968  1.00  0.00     0.198 A 
ATOM     66  F   UNL A   1      42.793  31.940  35.169  1.00  0.00    -0.203 F 
ATOM     67  F   UNL A   1      41.109  26.838  34.219  1.00  0.00    -0.200 F 
ATOM     68  C   UNL A   1      41.813  28.501  35.736  1.00  0.00     0.200 A 
ATOM     69  F   UNL A   1      42.589  30.177  37.207  1.00  0.00    -0.200 F 
ATOM     70  F   UNL A   1      41.724  27.631  36.751  1.00  0.00    -0.200 F 
ENDBRANCH  37  60
ENDBRANCH  11  12
ENDBRANCH   4   6
ENDBRANCH   1   2
BRANCH   1  71
ATOM     71  C   UNL A   1      38.166  21.728  25.395  1.00  0.00     0.042 C 
BRANCH  71  72
ATOM     72  C   UNL A   1      37.075  22.771  25.177  1.00  0.00     0.118 C 
BRANCH  72  73
ATOM     73  N   UNL A   1      36.176  22.900  26.309  1.00  0.00    -0.350 N 
ATOM     74  C   UNL A   1      34.950  22.308  26.558  1.00  0.00     0.280 C 
ATOM     75  H   UNL A   1      36.491  23.507  27.017  1.00  0.00     0.163 HD
ATOM     76  O   UNL A   1      34.356  22.705  27.561  1.00  0.00    -0.267 OA
BRANCH  74  77
ATOM     77  C   UNL A   1      34.414  21.298  25.652  1.00  0.00     0.182 A 
ATOM     78  N   UNL A   1      34.956  20.104  25.519  1.00  0.00    -0.228 NA
ATOM     79  S   UNL A   1      33.114  21.641  24.588  1.00  0.00    -0.109 S 
ATOM     80  C   UNL A   1      34.228  19.351  24.606  1.00  0.00     0.118 A 
ATOM     81  C   UNL A   1      33.136  20.010  24.037  1.00  0.00     0.058 A 
ATOM     82  C   UNL A   1      34.463  18.013  24.222  1.00  0.00     0.150 A 
ATOM     83  C   UNL A   1      32.253  19.367  23.151  1.00  0.00     0.021 A 
ATOM     84  F   UNL A   1      35.513  17.336  24.711  1.00  0.00    -0.205 F 
ATOM     85  C   UNL A   1      33.601  17.362  23.338  1.00  0.00     0.041 A 
ATOM     86  C   UNL A   1      32.497  18.031  22.820  1.00  0.00     0.005 A 
ENDBRANCH  74  77
ENDBRANCH  72  73
ENDBRANCH  71  72
ENDBRANCH   1  71
TORSDOF 10
ENDMDL
MODEL 2
REMARK VINA RESULT:     -13.0      5.244     11.007
REMARK SMILES O=C(NCCCNC(=O)c1nc2c(F)cccc2s1)c1ccc(-c2c3nc(c(-c4c(F)c(F)c(F)c(F)c4F)c4ccc([nH]4)c(-c4c(F)c(F)c(F)c(F)c4F)c4nc(c(-c5c(F)c(F)c(F)c(F)c5F)c5ccc2[nH]5)C=C4)C=C3)cc1
REMARK SMILES IDX 4 1 3 2 1 3 2 4 20 6 21 7 82 8 22 9 81 10 23 11 24 12 25 13
REMARK SMILES IDX 75 14 26 15 80 16 74 17 76 18 27 19 79 20 73 21 72 22 28 24
REMARK SMILES IDX 60 25 40 26 59 27 41 28 44 29 58 30 77 31 42 32 43 33 57 35
REMARK SMILES IDX 78 36 45 37 29 38 30 39 38 40 31 41 32 42 36 43 39 44 33 45
REMARK SMILES IDX 34 46 37 47 35 48 61 49 62 50 70 51 63 52 64 53 68 54 71 55
REMARK SMILES IDX 65 56 66 57 69 58 67 59 46 60 47 61 55 62 48 63 49 64 53 65
REMARK SMILES IDX 56 66 50 67 51 68 54 69 52 70 5 71 6 72 7 73 8 74 9 76 10 77
REMARK SMILES IDX 11 78 19 79 12 80 18 81 13 82 17 83 14 84 15 85 16 86
REMARK H PARENT 3 5 76 23 44 34 7 75
REMARK Flexibility Score: inf
ROOT
ATOM      1  C   UNL A   1      35.093  34.202  28.832  1.00  0.00     0.118 C 
ENDROOT
BRANCH   1   2
ATOM      2  N   UNL A   1      34.489  33.044  28.198  1.00  0.00    -0.352 N 
ATOM      3  O   UNL A   1      33.934  30.970  27.664  1.00  0.00    -0.269 OA
ATOM      4  C   UNL A   1      34.808  31.715  28.110  1.00  0.00     0.251 C 
ATOM      5  H   UNL A   1      33.658  33.266  27.720  1.00  0.00     0.163 HD
BRANCH   4   6
ATOM      6  C   UNL A   1      36.140  31.134  28.432  1.00  0.00     0.039 A 
ATOM      7  C   UNL A   1      37.165  31.792  29.105  1.00  0.00     0.014 A 
ATOM      8  C   UNL A   1      36.369  29.817  27.985  1.00  0.00     0.014 A 
ATOM      9  C   UNL A   1      38.419  31.201  29.228  1.00  0.00     0.010 A 
ATOM     10  C   UNL A   1      37.612  29.205  28.132  1.00  0.00     0.010 A 
ATOM     11  C   UNL A   1      38.648  29.914  28.727  1.00  0.00    -0.014 A 
BRANCH  11  12
ATOM     12  C   UNL A   1      39.951  29.316  29.001  1.00  0.00     0.031 A 
ATOM     13  C   UNL A   1      40.212  29.007  30.433  1.00  0.00     0.074 A 
ATOM     14  C   UNL A   1      40.865  28.976  28.072  1.00  0.00     0.049 A 
ATOM     15  N   UNL A   1      41.114  29.520  31.208  1.00  0.00    -0.248 NA
ATOM     16  C   UNL A   1      39.307  28.064  31.104  1.00  0.00     0.031 C 
ATOM     17  C   UNL A   1      40.707  28.916  26.619  1.00  0.00     0.029 A 
ATOM     18  N   UNL A   1      42.144  28.539  28.269  1.00  0.00    -0.354 N 
ATOM     19  C   UNL A   1      40.989  28.865  32.433  1.00  0.00     0.074 A 
ATOM     20  C   UNL A   1      39.799  28.058  32.344  1.00  0.00     0.031 C 
ATOM     21  C   UNL A   1      41.783  28.297  26.081  1.00  0.00     0.029 A 
ATOM     22  C   UNL A   1      42.759  28.045  27.129  1.00  0.00     0.049 A 
ATOM     23  H   UNL A   1      42.591  28.571  29.145  1.00  0.00     0.167 HD
ATOM     24  C   UNL A   1      41.977  28.906  33.367  1.00  0.00     0.037 A 
ATOM     25  C   UNL A   1      43.969  27.438  27.067  1.00  0.00     0.037 A 
ATOM     26  C   UNL A   1      42.877  30.004  33.134  1.00  0.00     0.049 A 
ATOM     27  C   UNL A   1      44.747  27.858  28.256  1.00  0.00     0.074 A 
ATOM     28  C   UNL A   1      42.770  31.381  33.137  1.00  0.00     0.029 A 
ATOM     29  N   UNL A   1      44.080  29.723  32.543  1.00  0.00    -0.354 N 
ATOM     30  N   UNL A   1      45.211  29.061  28.446  1.00  0.00    -0.248 NA
ATOM     31  C   UNL A   1      44.762  26.992  29.425  1.00  0.00     0.031 C 
ATOM     32  C   UNL A   1      43.706  31.835  32.163  1.00  0.00     0.029 A 
ATOM     33  C   UNL A   1      44.341  30.710  31.632  1.00  0.00     0.049 A 
ATOM     34  H   UNL A   1      44.656  28.949  32.739  1.00  0.00     0.167 HD
ATOM     35  C   UNL A   1      45.180  29.234  29.819  1.00  0.00     0.074 A 
ATOM     36  C   UNL A   1      45.045  27.893  30.368  1.00  0.00     0.031 C 
ATOM     37  C   UNL A   1      44.981  30.471  30.360  1.00  0.00     0.037 A 
BRANCH  24  38
ATOM     38  C   UNL A   1      42.344  27.765  34.290  1.00  0.00     0.064 A 
ATOM     39  C   UNL A   1      42.964  26.616  33.752  1.00  0.00     0.173 A 
ATOM     40  C   UNL A   1      41.835  27.618  35.598  1.00  0.00     0.173 A 
ATOM     41  F   UNL A   1      43.476  26.631  32.511  1.00  0.00    -0.203 F 
ATOM     42  C   UNL A   1      42.985  25.395  34.433  1.00  0.00     0.198 A 
ATOM     43  C   UNL A   1      41.906  26.412  36.296  1.00  0.00     0.198 A 
ATOM     44  F   UNL A   1      41.153  28.593  36.211  1.00  0.00    -0.203 F 
ATOM     45  F   UNL A   1      43.462  24.302  33.822  1.00  0.00    -0.200 F 
ATOM     46  C   UNL A   1      42.448  25.292  35.701  1.00  0.00     0.200 A 
ATOM     47  F   UNL A   1      41.367  26.327  37.521  1.00  0.00    -0.200 F 
ATOM     48  F   UNL A   1      42.405  24.110  36.329  1.00  0.00    -0.200 F 
ENDBRANCH  24  38
BRANCH  25  49
ATOM     49  C   UNL A   1      44.424  26.338  26.183  1.00  0.00     0.064 A 
ATOM     50  C   UNL A   1      45.668  26.404  25.531  1.00  0.00     0.173 A 
ATOM     51  C   UNL A   1      43.790  25.081  26.197  1.00  0.00     0.173 A 
ATOM     52  F   UNL A   1      46.357  27.554  25.502  1.00  0.00    -0.203 F 
ATOM     53  C   UNL A   1      46.263  25.270  24.970  1.00  0.00     0.198 A 
ATOM     54  C   UNL A   1      44.381  23.953  25.626  1.00  0.00     0.198 A 
ATOM     55  F   UNL A   1      42.633  24.901  26.849  1.00  0.00    -0.203 F 
ATOM     56  F   UNL A   1      47.486  25.357  24.428  1.00  0.00    -0.200 F 
ATOM     57  C   UNL A   1      45.625  24.043  25.031  1.00  0.00     0.200 A 
ATOM     58  F   UNL A   1      43.768  22.765  25.719  1.00  0.00    -0.200 F 
ATOM     59  F   UNL A   1      46.226  22.943  24.556  1.00  0.00    -0.200 F 
ENDBRANCH  25  49
BRANCH  37  60
ATOM     60  C   UNL A   1      45.185  31.661  29.470  1.00  0.00     0.064 A 
ATOM     61  C   UNL A   1      44.184  32.208  28.649  1.00  0.00     0.173 A 
ATOM     62  C   UNL A   1      46.399  32.357  29.563  1.00  0.00     0.173 A 
ATOM     63  F   UNL A   1      42.965  31.656  28.583  1.00  0.00    -0.203 F 
ATOM     64  C   UNL A   1      44.407  33.378  27.926  1.00  0.00     0.198 A 
ATOM     65  C   UNL A   1      46.604  33.546  28.870  1.00  0.00     0.198 A 
ATOM     66  F   UNL A   1      47.370  31.907  30.374  1.00  0.00    -0.203 F 
ATOM     67  F   UNL A   1      43.441  33.879  27.141  1.00  0.00    -0.200 F 
ATOM     68  C   UNL A   1      45.613  34.051  28.044  1.00  0.00     0.200 A 
ATOM     69  F   UNL A   1      47.753  34.218  29.027  1.00  0.00    -0.200 F 
ATOM     70  F   UNL A   1      45.808  35.202  27.387  1.00  0.00    -0.200 F 
ENDBRANCH  37  60
ENDBRANCH  11  12
ENDBRANCH   4   6
ENDBRANCH   1   2
BRANCH   1  71
ATOM     71  C   UNL A   1      34.169  35.397  29.061  1.00  0.00     0.042 C 
BRANCH  71  72
ATOM     72  C   UNL A   1      33.211  35.263  30.240  1.00  0.00     0.118 C 
BRANCH  72  73
ATOM     73  N   UNL A   1      33.530  36.158  31.337  1.00  0.00    -0.350 N 
ATOM     74  C   UNL A   1      34.404  36.005  32.399  1.00  0.00     0.280 C 
ATOM     75  H   UNL A   1      33.046  37.014  31.324  1.00  0.00     0.163 HD
ATOM     76  O   UNL A   1      34.376  36.894  33.250  1.00  0.00    -0.267 OA
BRANCH  74  77
ATOM     77  C   UNL A   1      35.274  34.836  32.485  1.00  0.00     0.182 A 
ATOM     78  N   UNL A   1      36.582  34.914  32.352  1.00  0.00    -0.228 NA
ATOM     79  S   UNL A   1      34.640  33.249  32.629  1.00  0.00    -0.109 S 
ATOM     80  C   UNL A   1      37.151  33.654  32.496  1.00  0.00     0.118 A 
ATOM     81  C   UNL A   1      36.239  32.620  32.721  1.00  0.00     0.058 A 
ATOM     82  C   UNL A   1      38.523  33.326  32.461  1.00  0.00     0.150 A 
ATOM     83  C   UNL A   1      36.653  31.297  32.963  1.00  0.00     0.021 A 
ATOM     84  F   UNL A   1      39.445  34.270  32.221  1.00  0.00    -0.205 F 
ATOM     85  C   UNL A   1      38.950  32.017  32.691  1.00  0.00     0.041 A 
ATOM     86  C   UNL A   1      38.022  31.016  32.955  1.00  0.00     0.005 A 
ENDBRANCH  74  77
ENDBRANCH  72  73
ENDBRANCH  71  72
ENDBRANCH   1  71
TORSDOF 10
ENDMDL
MODEL 3
REMARK VINA RESULT:     -12.9      1.595      1.897
REMARK SMILES O=C(NCCCNC(=O)c1nc2c(F)cccc2s1)c1ccc(-c2c3nc(c(-c4c(F)c(F)c(F)c(F)c4F)c4ccc([nH]4)c(-c4c(F)c(F)c(F)c(F)c4F)c4nc(c(-c5c(F)c(F)c(F)c(F)c5F)c5ccc2[nH]5)C=C4)C=C3)cc1
REMARK SMILES IDX 4 1 3 2 1 3 2 4 20 6 21 7 82 8 22 9 81 10 23 11 24 12 25 13
REMARK SMILES IDX 75 14 26 15 80 16 74 17 76 18 27 19 79 20 73 21 72 22 28 24
REMARK SMILES IDX 60 25 40 26 59 27 41 28 44 29 58 30 77 31 42 32 43 33 57 35
REMARK SMILES IDX 78 36 45 37 29 38 30 39 38 40 31 41 32 42 36 43 39 44 33 45
REMARK SMILES IDX 34 46 37 47 35 48 61 49 62 50 70 51 63 52 64 53 68 54 71 55
REMARK SMILES IDX 65 56 66 57 69 58 67 59 46 60 47 61 55 62 48 63 49 64 53 65
REMARK SMILES IDX 56 66 50 67 51 68 54 69 52 70 5 71 6 72 7 73 8 74 9 76 10 77
REMARK SMILES IDX 11 78 19 79 12 80 18 81 13 82 17 83 14 84 15 85 16 86
REMARK H PARENT 3 5 76 23 44 34 7 75
REMARK Flexibility Score: inf
ROOT
ATOM      1  C   UNL A   1      40.000  22.088  26.746  1.00  0.00     0.118 C 
ENDROOT
BRANCH   1   2
ATOM      2  N   UNL A   1      41.220  22.320  25.995  1.00  0.00    -0.352 N 
ATOM      3  O   UNL A   1      43.209  23.050  25.358  1.00  0.00    -0.269 OA
ATOM      4  C   UNL A   1      42.182  23.295  25.992  1.00  0.00     0.251 C 
ATOM      5  H   UNL A   1      41.397  21.612  25.334  1.00  0.00     0.163 HD
BRANCH   4   6
ATOM      6  C   UNL A   1      42.038  24.637  26.620  1.00  0.00     0.039 A 
ATOM      7  C   UNL A   1      42.611  25.026  27.828  1.00  0.00     0.014 A 
ATOM      8  C   UNL A   1      41.231  25.564  25.930  1.00  0.00     0.014 A 
ATOM      9  C   UNL A   1      42.295  26.260  28.390  1.00  0.00     0.010 A 
ATOM     10  C   UNL A   1      40.935  26.814  26.471  1.00  0.00     0.010 A 
ATOM     11  C   UNL A   1      41.444  27.147  27.720  1.00  0.00    -0.014 A 
BRANCH  11  12
ATOM     12  C   UNL A   1      41.258  28.467  28.315  1.00  0.00     0.031 A 
ATOM     13  C   UNL A   1      42.360  29.434  28.057  1.00  0.00     0.074 A 
ATOM     14  C   UNL A   1      40.168  28.870  28.995  1.00  0.00     0.049 A 
ATOM     15  N   UNL A   1      43.161  29.978  28.916  1.00  0.00    -0.248 NA
ATOM     16  C   UNL A   1      42.651  29.778  26.659  1.00  0.00     0.031 C 
ATOM     17  C   UNL A   1      38.872  28.203  29.115  1.00  0.00     0.029 A 
ATOM     18  N   UNL A   1      39.988  30.036  29.684  1.00  0.00    -0.354 N 
ATOM     19  C   UNL A   1      43.973  30.848  28.191  1.00  0.00     0.074 A 
ATOM     20  C   UNL A   1      43.687  30.607  26.799  1.00  0.00     0.031 C 
ATOM     21  C   UNL A   1      37.984  29.056  29.677  1.00  0.00     0.029 A 
ATOM     22  C   UNL A   1      38.680  30.267  30.080  1.00  0.00     0.049 A 
ATOM     23  H   UNL A   1      40.724  30.659  29.882  1.00  0.00     0.167 HD
ATOM     24  C   UNL A   1      44.697  31.825  28.801  1.00  0.00     0.037 A 
ATOM     25  C   UNL A   1      38.203  31.394  30.662  1.00  0.00     0.037 A 
ATOM     26  C   UNL A   1      44.862  31.558  30.205  1.00  0.00     0.049 A 
ATOM     27  C   UNL A   1      39.346  32.097  31.291  1.00  0.00     0.074 A 
ATOM     28  C   UNL A   1      45.489  30.580  30.952  1.00  0.00     0.029 A 
ATOM     29  N   UNL A   1      44.062  32.243  31.080  1.00  0.00    -0.354 N 
ATOM     30  N   UNL A   1      39.990  31.667  32.339  1.00  0.00    -0.248 NA
ATOM     31  C   UNL A   1      39.999  33.171  30.556  1.00  0.00     0.031 C 
ATOM     32  C   UNL A   1      44.707  30.452  32.137  1.00  0.00     0.029 A 
ATOM     33  C   UNL A   1      43.658  31.369  32.052  1.00  0.00     0.049 A 
ATOM     34  H   UNL A   1      43.821  33.195  31.021  1.00  0.00     0.167 HD
ATOM     35  C   UNL A   1      41.289  32.108  32.157  1.00  0.00     0.074 A 
ATOM     36  C   UNL A   1      41.199  33.143  31.138  1.00  0.00     0.031 C 
ATOM     37  C   UNL A   1      42.342  31.392  32.646  1.00  0.00     0.037 A 
BRANCH  24  38
ATOM     38  C   UNL A   1      44.964  33.196  28.219  1.00  0.00     0.064 A 
ATOM     39  C   UNL A   1      46.298  33.599  27.990  1.00  0.00     0.173 A 
ATOM     40  C   UNL A   1      44.006  34.231  28.175  1.00  0.00     0.173 A 
ATOM     41  F   UNL A   1      47.298  32.705  28.018  1.00  0.00    -0.203 F 
ATOM     42  C   UNL A   1      46.650  34.942  27.827  1.00  0.00     0.198 A 
ATOM     43  C   UNL A   1      44.356  35.563  27.958  1.00  0.00     0.198 A 
ATOM     44  F   UNL A   1      42.714  34.018  28.449  1.00  0.00    -0.203 F 
ATOM     45  F   UNL A   1      47.944  35.285  27.752  1.00  0.00    -0.200 F 
ATOM     46  C   UNL A   1      45.680  35.924  27.820  1.00  0.00     0.200 A 
ATOM     47  F   UNL A   1      43.402  36.506  27.969  1.00  0.00    -0.200 F 
ATOM     48  F   UNL A   1      46.019  37.217  27.732  1.00  0.00    -0.200 F 
ENDBRANCH  24  38
BRANCH  25  49
ATOM     49  C   UNL A   1      36.874  32.035  30.520  1.00  0.00     0.064 A 
ATOM     50  C   UNL A   1      35.933  31.984  31.563  1.00  0.00     0.173 A 
ATOM     51  C   UNL A   1      36.615  32.958  29.488  1.00  0.00     0.173 A 
ATOM     52  F   UNL A   1      36.120  31.159  32.603  1.00  0.00    -0.203 F 
ATOM     53  C   UNL A   1      34.826  32.838  31.595  1.00  0.00     0.198 A 
ATOM     54  C   UNL A   1      35.504  33.801  29.517  1.00  0.00     0.198 A 
ATOM     55  F   UNL A   1      37.486  33.129  28.484  1.00  0.00    -0.203 F 
ATOM     56  F   UNL A   1      33.994  32.813  32.646  1.00  0.00    -0.200 F 
ATOM     57  C   UNL A   1      34.621  33.755  30.579  1.00  0.00     0.200 A 
ATOM     58  F   UNL A   1      35.333  34.707  28.543  1.00  0.00    -0.200 F 
ATOM     59  F   UNL A   1      33.599  34.621  30.644  1.00  0.00    -0.200 F 
ENDBRANCH  25  49
BRANCH  37  60
ATOM     60  C   UNL A   1      42.054  30.356  33.692  1.00  0.00     0.064 A 
ATOM     61  C   UNL A   1      41.652  29.040  33.405  1.00  0.00     0.173 A 
ATOM     62  C   UNL A   1      42.335  30.671  35.029  1.00  0.00     0.173 A 
ATOM     63  F   UNL A   1      41.459  28.636  32.142  1.00  0.00    -0.203 F 
ATOM     64  C   UNL A   1      41.502  28.097  34.420  1.00  0.00     0.198 A 
ATOM     65  C   UNL A   1      42.222  29.715  36.035  1.00  0.00     0.198 A 
ATOM     66  F   UNL A   1      42.774  31.898  35.353  1.00  0.00    -0.203 F 
ATOM     67  F   UNL A   1      41.109  26.848  34.124  1.00  0.00    -0.200 F 
ATOM     68  C   UNL A   1      41.796  28.432  35.731  1.00  0.00     0.200 A 
ATOM     69  F   UNL A   1      42.555  30.031  37.294  1.00  0.00    -0.200 F 
ATOM     70  F   UNL A   1      41.699  27.511  36.699  1.00  0.00    -0.200 F 
ENDBRANCH  37  60
ENDBRANCH  11  12
ENDBRANCH   4   6
ENDBRANCH   1   2
BRANCH   1  71
ATOM     71  C   UNL A   1      38.829  23.014  26.421  1.00  0.00     0.042 C 
BRANCH  71  72
ATOM     72  C   UNL A   1      37.624  22.339  25.777  1.00  0.00     0.118 C 
BRANCH  72  73
ATOM     73  N   UNL A   1      37.477  22.658  24.368  1.00  0.00    -0.350 N 
ATOM     74  C   UNL A   1      36.354  22.987  23.631  1.00  0.00     0.280 C 
ATOM     75  H   UNL A   1      38.316  22.639  23.854  1.00  0.00     0.163 HD
ATOM     76  O   UNL A   1      36.519  23.091  22.416  1.00  0.00    -0.267 OA
BRANCH  74  77
ATOM     77  C   UNL A   1      35.061  23.166  24.285  1.00  0.00     0.182 A 
ATOM     78  N   UNL A   1      34.145  22.220  24.319  1.00  0.00    -0.228 NA
ATOM     79  S   UNL A   1      34.586  24.678  24.942  1.00  0.00    -0.109 S 
ATOM     80  C   UNL A   1      33.029  22.663  25.018  1.00  0.00     0.118 A 
ATOM     81  C   UNL A   1      33.115  23.973  25.496  1.00  0.00     0.058 A 
ATOM     82  C   UNL A   1      31.857  21.933  25.307  1.00  0.00     0.150 A 
ATOM     83  C   UNL A   1      32.105  24.549  26.287  1.00  0.00     0.021 A 
ATOM     84  F   UNL A   1      31.701  20.680  24.853  1.00  0.00    -0.205 F 
ATOM     85  C   UNL A   1      30.840  22.492  26.084  1.00  0.00     0.041 A 
ATOM     86  C   UNL A   1      30.973  23.784  26.581  1.00  0.00     0.005 A 
ENDBRANCH  74  77
ENDBRANCH  72  73
ENDBRANCH  71  72
ENDBRANCH   1  71
TORSDOF 10
ENDMDL
