MODEL 1
REMARK VINA RESULT:     -12.3      0.000      0.000
REMARK SMILES CC[C@@H](C)[C@@H](C(=O)NCCCNC(=O)c1ccc(-c2c3nc(c(-c4c(F)c(F)c(F)c(F)c4F)c4ccc([nH]4)c(-c4c(F)c(F)c(F)c(F)c4F)c4nc(c(-c5c(F)c(F)c(F)c(F)c5F)c5ccc2[nH]5)C=C4)C=C3)cc1)N1C(=O)/C(=C/c2ccc(O)cc2)SC1=S
REMARK SMILES IDX 9 1 8 2 6 3 7 4 5 6 3 7 4 8 2 9 1 10 78 11 79 12 91 13 80 14
REMARK SMILES IDX 81 15 90 16 92 17 82 18 83 19 84 20 89 21 85 22 88 23 86 24
REMARK SMILES IDX 87 25 10 27 11 28 12 29 13 30 14 32 15 33 16 34 77 35 17 36
REMARK SMILES IDX 76 37 18 38 19 39 20 40 70 41 21 42 75 43 69 44 71 45 22 46
REMARK SMILES IDX 74 47 68 48 67 49 23 51 55 52 35 53 54 54 36 55 39 56 53 57
REMARK SMILES IDX 72 58 37 59 38 60 52 62 73 63 40 64 24 65 25 66 33 67 26 68
REMARK SMILES IDX 27 69 31 70 34 71 28 72 29 73 32 74 30 75 56 76 57 77 65 78
REMARK SMILES IDX 58 79 59 80 63 81 66 82 60 83 61 84 64 85 62 86 41 87 42 88
REMARK SMILES IDX 50 89 43 90 44 91 48 92 51 93 45 94 46 95 49 96 47 97
REMARK H PARENT 8 5 87 26 12 31 71 50 39 61
REMARK Flexibility Score: inf
ROOT
ATOM      1  C   UNL A   1      33.899  27.861  25.184  1.00  0.00     0.117 C 
ENDROOT
BRANCH   1   2
ATOM      2  N   UNL A   1      33.161  26.807  25.873  1.00  0.00    -0.354 N 
ATOM      3  C   UNL A   1      32.841  25.524  25.525  1.00  0.00     0.243 C 
ATOM      4  O   UNL A   1      32.192  24.880  26.356  1.00  0.00    -0.273 OA
ATOM      5  H   UNL A   1      32.830  27.071  26.761  1.00  0.00     0.163 HD
BRANCH   3   6
ATOM      6  C   UNL A   1      33.299  24.892  24.181  1.00  0.00     0.184 C 
BRANCH   6   7
ATOM      7  C   UNL A   1      32.324  25.112  22.972  1.00  0.00     0.018 C 
ATOM      8  C   UNL A   1      33.085  25.660  21.757  1.00  0.00     0.010 C 
BRANCH   7   9
ATOM      9  C   UNL A   1      31.139  26.018  23.317  1.00  0.00     0.002 C 
ATOM     10  C   UNL A   1      30.919  27.206  22.395  1.00  0.00     0.004 C 
ENDBRANCH   7   9
ENDBRANCH   6   7
BRANCH   6  11
ATOM     11  N   UNL A   1      33.560  23.446  24.479  1.00  0.00    -0.280 N 
ATOM     12  C   UNL A   1      32.566  22.493  24.314  1.00  0.00     0.266 C 
ATOM     13  C   UNL A   1      34.722  22.980  25.069  1.00  0.00     0.149 C 
ATOM     14  O   UNL A   1      31.399  22.670  24.009  1.00  0.00    -0.268 OA
ATOM     15  C   UNL A   1      33.105  21.131  24.549  1.00  0.00     0.081 C 
ATOM     16  S   UNL A   1      34.646  21.227  25.278  1.00  0.00    -0.054 SA
ATOM     17  S   UNL A   1      36.063  23.858  25.541  1.00  0.00    -0.052 S 
ATOM     18  C   UNL A   1      32.407  20.060  24.151  1.00  0.00     0.029 C 
BRANCH  18  19
ATOM     19  C   UNL A   1      32.748  18.655  24.362  1.00  0.00    -0.024 A 
ATOM     20  C   UNL A   1      32.529  18.048  25.605  1.00  0.00     0.012 A 
ATOM     21  C   UNL A   1      33.399  17.940  23.349  1.00  0.00     0.012 A 
ATOM     22  C   UNL A   1      32.952  16.736  25.825  1.00  0.00     0.047 A 
ATOM     23  C   UNL A   1      33.826  16.632  23.571  1.00  0.00     0.047 A 
ATOM     24  C   UNL A   1      33.599  16.041  24.809  1.00  0.00     0.115 A 
BRANCH  24  25
ATOM     25  O   UNL A   1      34.014  14.768  25.071  1.00  0.00    -0.508 OA
ATOM     26  H   UNL A   1      34.233  14.518  25.946  1.00  0.00     0.293 HD
ENDBRANCH  24  25
ENDBRANCH  18  19
ENDBRANCH   6  11
ENDBRANCH   3   6
ENDBRANCH   1   2
BRANCH   1  27
ATOM     27  C   UNL A   1      33.060  29.133  24.997  1.00  0.00     0.042 C 
BRANCH  27  28
ATOM     28  C   UNL A   1      32.343  29.605  26.254  1.00  0.00     0.118 C 
BRANCH  28  29
ATOM     29  N   UNL A   1      32.326  31.052  26.348  1.00  0.00    -0.352 N 
ATOM     30  C   UNL A   1      33.058  31.892  27.152  1.00  0.00     0.251 C 
ATOM     31  H   UNL A   1      31.695  31.502  25.740  1.00  0.00     0.163 HD
ATOM     32  O   UNL A   1      32.700  33.061  27.274  1.00  0.00    -0.269 OA
BRANCH  30  33
ATOM     33  C   UNL A   1      34.257  31.416  27.888  1.00  0.00     0.039 A 
ATOM     34  C   UNL A   1      35.320  32.305  28.079  1.00  0.00     0.014 A 
ATOM     35  C   UNL A   1      34.384  30.096  28.328  1.00  0.00     0.014 A 
ATOM     36  C   UNL A   1      36.479  31.885  28.741  1.00  0.00     0.010 A 
ATOM     37  C   UNL A   1      35.499  29.704  29.069  1.00  0.00     0.010 A 
ATOM     38  C   UNL A   1      36.570  30.587  29.267  1.00  0.00    -0.014 A 
BRANCH  38  39
ATOM     39  C   UNL A   1      37.789  30.131  29.992  1.00  0.00     0.031 A 
ATOM     40  C   UNL A   1      38.052  30.595  31.402  1.00  0.00     0.074 A 
ATOM     41  C   UNL A   1      38.680  29.330  29.374  1.00  0.00     0.049 A 
ATOM     42  N   UNL A   1      39.080  30.355  32.177  1.00  0.00    -0.248 NA
ATOM     43  C   UNL A   1      37.035  31.464  32.016  1.00  0.00     0.031 C 
ATOM     44  C   UNL A   1      38.565  28.838  28.001  1.00  0.00     0.029 A 
ATOM     45  N   UNL A   1      39.864  28.793  29.819  1.00  0.00    -0.354 N 
ATOM     46  C   UNL A   1      38.838  31.047  33.357  1.00  0.00     0.074 A 
ATOM     47  C   UNL A   1      37.596  31.766  33.178  1.00  0.00     0.031 C 
ATOM     48  C   UNL A   1      39.618  28.052  27.723  1.00  0.00     0.029 A 
ATOM     49  C   UNL A   1      40.507  28.020  28.881  1.00  0.00     0.049 A 
ATOM     50  H   UNL A   1      40.219  28.946  30.724  1.00  0.00     0.167 HD
ATOM     51  C   UNL A   1      39.568  31.061  34.499  1.00  0.00     0.037 A 
ATOM     52  C   UNL A   1      41.683  27.367  28.943  1.00  0.00     0.037 A 
ATOM     53  C   UNL A   1      40.792  30.326  34.687  1.00  0.00     0.049 A 
ATOM     54  C   UNL A   1      42.487  27.423  30.217  1.00  0.00     0.074 A 
ATOM     55  C   UNL A   1      41.580  30.241  35.823  1.00  0.00     0.029 A 
ATOM     56  N   UNL A   1      41.405  29.551  33.715  1.00  0.00    -0.354 N 
ATOM     57  N   UNL A   1      42.213  28.031  31.345  1.00  0.00    -0.248 NA
ATOM     58  C   UNL A   1      43.765  26.694  30.226  1.00  0.00     0.031 C 
ATOM     59  C   UNL A   1      42.696  29.455  35.522  1.00  0.00     0.029 A 
ATOM     60  C   UNL A   1      42.573  29.001  34.219  1.00  0.00     0.049 A 
ATOM     61  H   UNL A   1      41.061  29.411  32.804  1.00  0.00     0.167 HD
ATOM     62  C   UNL A   1      43.262  27.730  32.205  1.00  0.00     0.074 A 
ATOM     63  C   UNL A   1      44.168  26.871  31.475  1.00  0.00     0.031 C 
ATOM     64  C   UNL A   1      43.457  28.132  33.485  1.00  0.00     0.037 A 
BRANCH  51  65
ATOM     65  C   UNL A   1      39.060  31.888  35.645  1.00  0.00     0.064 A 
ATOM     66  C   UNL A   1      38.211  31.347  36.623  1.00  0.00     0.173 A 
ATOM     67  C   UNL A   1      39.473  33.221  35.803  1.00  0.00     0.173 A 
ATOM     68  F   UNL A   1      37.779  30.082  36.517  1.00  0.00    -0.203 F 
ATOM     69  C   UNL A   1      37.778  32.113  37.702  1.00  0.00     0.198 A 
ATOM     70  C   UNL A   1      39.064  33.975  36.900  1.00  0.00     0.198 A 
ATOM     71  F   UNL A   1      40.289  33.787  34.902  1.00  0.00    -0.203 F 
ATOM     72  F   UNL A   1      36.935  31.586  38.601  1.00  0.00    -0.200 F 
ATOM     73  C   UNL A   1      38.212  33.422  37.846  1.00  0.00     0.200 A 
ATOM     74  F   UNL A   1      39.497  35.235  37.046  1.00  0.00    -0.200 F 
ATOM     75  F   UNL A   1      37.806  34.154  38.893  1.00  0.00    -0.200 F 
ENDBRANCH  51  65
BRANCH  52  76
ATOM     76  C   UNL A   1      42.179  26.594  27.772  1.00  0.00     0.064 A 
ATOM     77  C   UNL A   1      41.759  25.276  27.547  1.00  0.00     0.173 A 
ATOM     78  C   UNL A   1      43.108  27.142  26.876  1.00  0.00     0.173 A 
ATOM     79  F   UNL A   1      40.887  24.698  28.386  1.00  0.00    -0.203 F 
ATOM     80  C   UNL A   1      42.276  24.523  26.493  1.00  0.00     0.198 A 
ATOM     81  C   UNL A   1      43.598  26.401  25.801  1.00  0.00     0.198 A 
ATOM     82  F   UNL A   1      43.540  28.401  27.041  1.00  0.00    -0.203 F 
ATOM     83  F   UNL A   1      41.905  23.245  26.341  1.00  0.00    -0.200 F 
ATOM     84  C   UNL A   1      43.192  25.088  25.618  1.00  0.00     0.200 A 
ATOM     85  F   UNL A   1      44.471  26.957  24.950  1.00  0.00    -0.200 F 
ATOM     86  F   UNL A   1      43.691  24.365  24.608  1.00  0.00    -0.200 F 
ENDBRANCH  52  76
BRANCH  64  87
ATOM     87  C   UNL A   1      44.674  27.610  34.194  1.00  0.00     0.064 A 
ATOM     88  C   UNL A   1      44.656  26.398  34.900  1.00  0.00     0.173 A 
ATOM     89  C   UNL A   1      45.886  28.317  34.135  1.00  0.00     0.173 A 
ATOM     90  F   UNL A   1      43.520  25.692  35.000  1.00  0.00    -0.203 F 
ATOM     91  C   UNL A   1      45.797  25.929  35.546  1.00  0.00     0.198 A 
ATOM     92  C   UNL A   1      47.033  27.826  34.752  1.00  0.00     0.198 A 
ATOM     93  F   UNL A   1      45.961  29.477  33.466  1.00  0.00    -0.203 F 
ATOM     94  F   UNL A   1      45.741  24.795  36.260  1.00  0.00    -0.200 F 
ATOM     95  C   UNL A   1      46.985  26.638  35.465  1.00  0.00     0.200 A 
ATOM     96  F   UNL A   1      48.185  28.505  34.657  1.00  0.00    -0.200 F 
ATOM     97  F   UNL A   1      48.084  26.180  36.080  1.00  0.00    -0.200 F 
ENDBRANCH  64  87
ENDBRANCH  38  39
ENDBRANCH  30  33
ENDBRANCH  28  29
ENDBRANCH  27  28
ENDBRANCH   1  27
TORSDOF 15
ENDMDL
MODEL 2
REMARK VINA RESULT:     -12.1      2.932      3.942
REMARK SMILES CC[C@@H](C)[C@@H](C(=O)NCCCNC(=O)c1ccc(-c2c3nc(c(-c4c(F)c(F)c(F)c(F)c4F)c4ccc([nH]4)c(-c4c(F)c(F)c(F)c(F)c4F)c4nc(c(-c5c(F)c(F)c(F)c(F)c5F)c5ccc2[nH]5)C=C4)C=C3)cc1)N1C(=O)/C(=C/c2ccc(O)cc2)SC1=S
REMARK SMILES IDX 9 1 8 2 6 3 7 4 5 6 3 7 4 8 2 9 1 10 78 11 79 12 91 13 80 14
REMARK SMILES IDX 81 15 90 16 92 17 82 18 83 19 84 20 89 21 85 22 88 23 86 24
REMARK SMILES IDX 87 25 10 27 11 28 12 29 13 30 14 32 15 33 16 34 77 35 17 36
REMARK SMILES IDX 76 37 18 38 19 39 20 40 70 41 21 42 75 43 69 44 71 45 22 46
REMARK SMILES IDX 74 47 68 48 67 49 23 51 55 52 35 53 54 54 36 55 39 56 53 57
REMARK SMILES IDX 72 58 37 59 38 60 52 62 73 63 40 64 24 65 25 66 33 67 26 68
REMARK SMILES IDX 27 69 31 70 34 71 28 72 29 73 32 74 30 75 56 76 57 77 65 78
REMARK SMILES IDX 58 79 59 80 63 81 66 82 60 83 61 84 64 85 62 86 41 87 42 88
REMARK SMILES IDX 50 89 43 90 44 91 48 92 51 93 45 94 46 95 49 96 47 97
REMARK H PARENT 8 5 87 26 12 31 71 50 39 61
REMARK Flexibility Score: inf
ROOT
ATOM      1  C   UNL A   1      32.207  28.035  25.547  1.00  0.00     0.117 C 
ENDROOT
BRANCH   1   2
ATOM      2  N   UNL A   1      31.828  26.859  26.325  1.00  0.00    -0.354 N 
ATOM      3  C   UNL A   1      31.781  25.526  26.021  1.00  0.00     0.243 C 
ATOM      4  O   UNL A   1      31.408  24.775  26.927  1.00  0.00    -0.273 OA
ATOM      5  H   UNL A   1      31.555  27.065  27.247  1.00  0.00     0.163 HD
BRANCH   3   6
ATOM      6  C   UNL A   1      32.208  24.978  24.630  1.00  0.00     0.184 C 
BRANCH   6   7
ATOM      7  C   UNL A   1      31.070  24.933  23.552  1.00  0.00     0.018 C 
ATOM      8  C   UNL A   1      31.552  25.552  22.233  1.00  0.00     0.010 C 
BRANCH   7   9
ATOM      9  C   UNL A   1      29.776  25.602  24.019  1.00  0.00     0.002 C 
ATOM     10  C   UNL A   1      29.494  26.981  23.444  1.00  0.00     0.004 C 
ENDBRANCH   7   9
ENDBRANCH   6   7
BRANCH   6  11
ATOM     11  N   UNL A   1      32.832  23.641  24.895  1.00  0.00    -0.280 N 
ATOM     12  C   UNL A   1      32.061  22.488  24.931  1.00  0.00     0.266 C 
ATOM     13  C   UNL A   1      34.155  23.469  25.265  1.00  0.00     0.149 C 
ATOM     14  O   UNL A   1      30.848  22.393  24.845  1.00  0.00    -0.268 OA
ATOM     15  C   UNL A   1      32.921  21.290  25.079  1.00  0.00     0.081 C 
ATOM     16  S   UNL A   1      34.507  21.754  25.508  1.00  0.00    -0.054 SA
ATOM     17  S   UNL A   1      35.330  24.639  25.467  1.00  0.00    -0.052 S 
ATOM     18  C   UNL A   1      32.418  20.074  24.833  1.00  0.00     0.029 C 
BRANCH  18  19
ATOM     19  C   UNL A   1      33.094  18.788  24.996  1.00  0.00    -0.024 A 
ATOM     20  C   UNL A   1      34.296  18.526  24.328  1.00  0.00     0.012 A 
ATOM     21  C   UNL A   1      32.480  17.771  25.737  1.00  0.00     0.012 A 
ATOM     22  C   UNL A   1      34.879  17.260  24.410  1.00  0.00     0.047 A 
ATOM     23  C   UNL A   1      33.059  16.506  25.816  1.00  0.00     0.047 A 
ATOM     24  C   UNL A   1      34.254  16.261  25.149  1.00  0.00     0.115 A 
BRANCH  24  25
ATOM     25  O   UNL A   1      34.846  15.033  25.188  1.00  0.00    -0.508 OA
ATOM     26  H   UNL A   1      35.719  14.923  24.867  1.00  0.00     0.293 HD
ENDBRANCH  24  25
ENDBRANCH  18  19
ENDBRANCH   6  11
ENDBRANCH   3   6
ENDBRANCH   1   2
BRANCH   1  27
ATOM     27  C   UNL A   1      33.657  28.465  25.812  1.00  0.00     0.042 C 
BRANCH  27  28
ATOM     28  C   UNL A   1      34.007  28.629  27.284  1.00  0.00     0.118 C 
BRANCH  28  29
ATOM     29  N   UNL A   1      33.904  30.013  27.707  1.00  0.00    -0.352 N 
ATOM     30  C   UNL A   1      34.756  30.763  28.480  1.00  0.00     0.251 C 
ATOM     31  H   UNL A   1      33.102  30.487  27.388  1.00  0.00     0.163 HD
ATOM     32  O   UNL A   1      34.355  31.827  28.947  1.00  0.00    -0.269 OA
BRANCH  30  33
ATOM     33  C   UNL A   1      36.140  30.313  28.776  1.00  0.00     0.039 A 
ATOM     34  C   UNL A   1      37.130  30.514  27.808  1.00  0.00     0.014 A 
ATOM     35  C   UNL A   1      36.465  29.636  29.954  1.00  0.00     0.014 A 
ATOM     36  C   UNL A   1      38.439  30.077  28.039  1.00  0.00     0.010 A 
ATOM     37  C   UNL A   1      37.788  29.284  30.223  1.00  0.00     0.010 A 
ATOM     38  C   UNL A   1      38.788  29.481  29.260  1.00  0.00    -0.014 A 
BRANCH  38  39
ATOM     39  C   UNL A   1      40.182  29.029  29.528  1.00  0.00     0.031 A 
ATOM     40  C   UNL A   1      41.118  29.891  30.336  1.00  0.00     0.074 A 
ATOM     41  C   UNL A   1      40.622  27.862  29.016  1.00  0.00     0.049 A 
ATOM     42  N   UNL A   1      42.380  29.698  30.629  1.00  0.00    -0.248 NA
ATOM     43  C   UNL A   1      40.570  31.149  30.868  1.00  0.00     0.031 C 
ATOM     44  C   UNL A   1      39.831  26.951  28.188  1.00  0.00     0.029 A 
ATOM     45  N   UNL A   1      41.845  27.243  29.112  1.00  0.00    -0.354 N 
ATOM     46  C   UNL A   1      42.774  30.809  31.365  1.00  0.00     0.074 A 
ATOM     47  C   UNL A   1      41.637  31.701  31.425  1.00  0.00     0.031 C 
ATOM     48  C   UNL A   1      40.578  25.880  27.872  1.00  0.00     0.029 A 
ATOM     49  C   UNL A   1      41.913  26.048  28.436  1.00  0.00     0.049 A 
ATOM     50  H   UNL A   1      42.601  27.621  29.616  1.00  0.00     0.167 HD
ATOM     51  C   UNL A   1      43.966  31.053  31.963  1.00  0.00     0.037 A 
ATOM     52  C   UNL A   1      42.940  25.189  28.281  1.00  0.00     0.037 A 
ATOM     53  C   UNL A   1      45.090  30.154  31.924  1.00  0.00     0.049 A 
ATOM     54  C   UNL A   1      44.262  25.499  28.934  1.00  0.00     0.074 A 
ATOM     55  C   UNL A   1      46.325  30.292  32.535  1.00  0.00     0.029 A 
ATOM     56  N   UNL A   1      45.117  28.951  31.235  1.00  0.00    -0.354 N 
ATOM     57  N   UNL A   1      44.599  26.523  29.680  1.00  0.00    -0.248 NA
ATOM     58  C   UNL A   1      45.346  24.528  28.728  1.00  0.00     0.031 C 
ATOM     59  C   UNL A   1      47.116  29.197  32.175  1.00  0.00     0.029 A 
ATOM     60  C   UNL A   1      46.354  28.346  31.390  1.00  0.00     0.049 A 
ATOM     61  H   UNL A   1      44.368  28.581  30.715  1.00  0.00     0.167 HD
ATOM     62  C   UNL A   1      45.918  26.302  30.058  1.00  0.00     0.074 A 
ATOM     63  C   UNL A   1      46.313  25.038  29.477  1.00  0.00     0.031 C 
ATOM     64  C   UNL A   1      46.729  27.078  30.818  1.00  0.00     0.037 A 
BRANCH  51  65
ATOM     65  C   UNL A   1      44.118  32.339  32.724  1.00  0.00     0.064 A 
ATOM     66  C   UNL A   1      43.797  32.429  34.087  1.00  0.00     0.173 A 
ATOM     67  C   UNL A   1      44.648  33.480  32.100  1.00  0.00     0.173 A 
ATOM     68  F   UNL A   1      43.280  31.372  34.729  1.00  0.00    -0.203 F 
ATOM     69  C   UNL A   1      43.980  33.617  34.790  1.00  0.00     0.198 A 
ATOM     70  C   UNL A   1      44.859  34.656  32.814  1.00  0.00     0.198 A 
ATOM     71  F   UNL A   1      44.979  33.448  30.800  1.00  0.00    -0.203 F 
ATOM     72  F   UNL A   1      43.626  33.690  36.081  1.00  0.00    -0.200 F 
ATOM     73  C   UNL A   1      44.519  34.726  34.157  1.00  0.00     0.200 A 
ATOM     74  F   UNL A   1      45.396  35.722  32.204  1.00  0.00    -0.200 F 
ATOM     75  F   UNL A   1      44.708  35.864  34.839  1.00  0.00    -0.200 F 
ENDBRANCH  51  65
BRANCH  52  76
ATOM     76  C   UNL A   1      42.767  23.946  27.482  1.00  0.00     0.064 A 
ATOM     77  C   UNL A   1      42.305  22.763  28.077  1.00  0.00     0.173 A 
ATOM     78  C   UNL A   1      43.094  23.903  26.119  1.00  0.00     0.173 A 
ATOM     79  F   UNL A   1      41.998  22.745  29.382  1.00  0.00    -0.203 F 
ATOM     80  C   UNL A   1      42.211  21.578  27.349  1.00  0.00     0.198 A 
ATOM     81  C   UNL A   1      42.966  22.726  25.383  1.00  0.00     0.198 A 
ATOM     82  F   UNL A   1      43.536  25.006  25.498  1.00  0.00    -0.203 F 
ATOM     83  F   UNL A   1      41.829  20.448  27.959  1.00  0.00    -0.200 F 
ATOM     84  C   UNL A   1      42.537  21.561  26.001  1.00  0.00     0.200 A 
ATOM     85  F   UNL A   1      43.267  22.718  24.077  1.00  0.00    -0.200 F 
ATOM     86  F   UNL A   1      42.451  20.422  25.302  1.00  0.00    -0.200 F 
ENDBRANCH  52  76
BRANCH  64  87
ATOM     87  C   UNL A   1      48.109  26.562  31.104  1.00  0.00     0.064 A 
ATOM     88  C   UNL A   1      48.381  25.753  32.216  1.00  0.00     0.173 A 
ATOM     89  C   UNL A   1      49.169  26.852  30.229  1.00  0.00     0.173 A 
ATOM     90  F   UNL A   1      47.408  25.458  33.091  1.00  0.00    -0.203 F 
ATOM     91  C   UNL A   1      49.668  25.279  32.460  1.00  0.00     0.198 A 
ATOM     92  C   UNL A   1      50.446  26.347  30.456  1.00  0.00     0.198 A 
ATOM     93  F   UNL A   1      48.962  27.614  29.145  1.00  0.00    -0.203 F 
ATOM     94  F   UNL A   1      49.915  24.552  33.560  1.00  0.00    -0.200 F 
ATOM     95  C   UNL A   1      50.696  25.568  31.577  1.00  0.00     0.200 A 
ATOM     96  F   UNL A   1      51.434  26.614  29.592  1.00  0.00    -0.200 F 
ATOM     97  F   UNL A   1      51.932  25.104  31.808  1.00  0.00    -0.200 F 
ENDBRANCH  64  87
ENDBRANCH  38  39
ENDBRANCH  30  33
ENDBRANCH  28  29
ENDBRANCH  27  28
ENDBRANCH   1  27
TORSDOF 15
ENDMDL
MODEL 3
REMARK VINA RESULT:     -12.0      1.871      2.717
REMARK SMILES CC[C@@H](C)[C@@H](C(=O)NCCCNC(=O)c1ccc(-c2c3nc(c(-c4c(F)c(F)c(F)c(F)c4F)c4ccc([nH]4)c(-c4c(F)c(F)c(F)c(F)c4F)c4nc(c(-c5c(F)c(F)c(F)c(F)c5F)c5ccc2[nH]5)C=C4)C=C3)cc1)N1C(=O)/C(=C/c2ccc(O)cc2)SC1=S
REMARK SMILES IDX 9 1 8 2 6 3 7 4 5 6 3 7 4 8 2 9 1 10 78 11 79 12 91 13 80 14
REMARK SMILES IDX 81 15 90 16 92 17 82 18 83 19 84 20 89 21 85 22 88 23 86 24
REMARK SMILES IDX 87 25 10 27 11 28 12 29 13 30 14 32 15 33 16 34 77 35 17 36
REMARK SMILES IDX 76 37 18 38 19 39 20 40 70 41 21 42 75 43 69 44 71 45 22 46
REMARK SMILES IDX 74 47 68 48 67 49 23 51 55 52 35 53 54 54 36 55 39 56 53 57
REMARK SMILES IDX 72 58 37 59 38 60 52 62 73 63 40 64 24 65 25 66 33 67 26 68
REMARK SMILES IDX 27 69 31 70 34 71 28 72 29 73 32 74 30 75 56 76 57 77 65 78
REMARK SMILES IDX 58 79 59 80 63 81 66 82 60 83 61 84 64 85 62 86 41 87 42 88
REMARK SMILES IDX 50 89 43 90 44 91 48 92 51 93 45 94 46 95 49 96 47 97
REMARK H PARENT 8 5 87 26 12 31 71 50 39 61
REMARK Flexibility Score: inf
ROOT
ATOM      1  C   UNL A   1      33.566  27.772  24.996  1.00  0.00     0.117 C 
ENDROOT
BRANCH   1   2
ATOM      2  N   UNL A   1      32.859  26.693  25.679  1.00  0.00    -0.354 N 
ATOM      3  C   UNL A   1      32.632  25.384  25.352  1.00  0.00     0.243 C 
ATOM      4  O   UNL A   1      31.983  24.724  26.169  1.00  0.00    -0.273 OA
ATOM      5  H   UNL A   1      32.472  26.959  26.544  1.00  0.00     0.163 HD
BRANCH   3   6
ATOM      6  C   UNL A   1      33.189  24.748  24.048  1.00  0.00     0.184 C 
BRANCH   6   7
ATOM      7  C   UNL A   1      32.273  24.905  22.784  1.00  0.00     0.018 C 
ATOM      8  C   UNL A   1      33.061  25.521  21.620  1.00  0.00     0.010 C 
BRANCH   7   9
ATOM      9  C   UNL A   1      31.004  25.713  23.061  1.00  0.00     0.002 C 
ATOM     10  C   UNL A   1      30.917  27.070  22.382  1.00  0.00     0.004 C 
ENDBRANCH   7   9
ENDBRANCH   6   7
BRANCH   6  11
ATOM     11  N   UNL A   1      33.494  23.321  24.390  1.00  0.00    -0.280 N 
ATOM     12  C   UNL A   1      32.532  22.331  24.244  1.00  0.00     0.266 C 
ATOM     13  C   UNL A   1      34.664  22.909  25.003  1.00  0.00     0.149 C 
ATOM     14  O   UNL A   1      31.363  22.462  23.923  1.00  0.00    -0.268 OA
ATOM     15  C   UNL A   1      33.112  20.996  24.521  1.00  0.00     0.081 C 
ATOM     16  S   UNL A   1      34.642  21.161  25.261  1.00  0.00    -0.054 SA
ATOM     17  S   UNL A   1      35.972  23.843  25.461  1.00  0.00    -0.052 S 
ATOM     18  C   UNL A   1      32.453  19.892  24.149  1.00  0.00     0.029 C 
BRANCH  18  19
ATOM     19  C   UNL A   1      32.837  18.504  24.402  1.00  0.00    -0.024 A 
ATOM     20  C   UNL A   1      32.524  17.891  25.622  1.00  0.00     0.012 A 
ATOM     21  C   UNL A   1      33.617  17.819  23.464  1.00  0.00     0.012 A 
ATOM     22  C   UNL A   1      32.985  16.601  25.893  1.00  0.00     0.047 A 
ATOM     23  C   UNL A   1      34.080  16.532  23.736  1.00  0.00     0.047 A 
ATOM     24  C   UNL A   1      33.761  15.935  24.950  1.00  0.00     0.115 A 
BRANCH  24  25
ATOM     25  O   UNL A   1      34.206  14.684  25.261  1.00  0.00    -0.508 OA
ATOM     26  H   UNL A   1      34.470  14.098  24.580  1.00  0.00     0.293 HD
ENDBRANCH  24  25
ENDBRANCH  18  19
ENDBRANCH   6  11
ENDBRANCH   3   6
ENDBRANCH   1   2
BRANCH   1  27
ATOM     27  C   UNL A   1      34.387  28.635  25.965  1.00  0.00     0.042 C 
BRANCH  27  28
ATOM     28  C   UNL A   1      33.671  28.977  27.264  1.00  0.00     0.118 C 
BRANCH  28  29
ATOM     29  N   UNL A   1      33.650  30.408  27.501  1.00  0.00    -0.352 N 
ATOM     30  C   UNL A   1      34.499  31.190  28.245  1.00  0.00     0.251 C 
ATOM     31  H   UNL A   1      32.915  30.892  27.060  1.00  0.00     0.163 HD
ATOM     32  O   UNL A   1      34.152  32.331  28.541  1.00  0.00    -0.269 OA
BRANCH  30  33
ATOM     33  C   UNL A   1      35.817  30.686  28.710  1.00  0.00     0.039 A 
ATOM     34  C   UNL A   1      35.853  29.830  29.816  1.00  0.00     0.014 A 
ATOM     35  C   UNL A   1      37.017  31.096  28.125  1.00  0.00     0.014 A 
ATOM     36  C   UNL A   1      37.077  29.357  30.301  1.00  0.00     0.010 A 
ATOM     37  C   UNL A   1      38.230  30.552  28.549  1.00  0.00     0.010 A 
ATOM     38  C   UNL A   1      38.278  29.693  29.657  1.00  0.00    -0.014 A 
BRANCH  38  39
ATOM     39  C   UNL A   1      39.587  29.182  30.150  1.00  0.00     0.031 A 
ATOM     40  C   UNL A   1      40.277  29.853  31.310  1.00  0.00     0.074 A 
ATOM     41  C   UNL A   1      40.177  28.137  29.534  1.00  0.00     0.049 A 
ATOM     42  N   UNL A   1      41.443  29.592  31.847  1.00  0.00    -0.248 NA
ATOM     43  C   UNL A   1      39.573  30.984  31.936  1.00  0.00     0.031 C 
ATOM     44  C   UNL A   1      39.635  27.420  28.379  1.00  0.00     0.029 A 
ATOM     45  N   UNL A   1      41.367  27.499  29.790  1.00  0.00    -0.354 N 
ATOM     46  C   UNL A   1      41.613  30.527  32.861  1.00  0.00     0.074 A 
ATOM     47  C   UNL A   1      40.460  31.401  32.828  1.00  0.00     0.031 C 
ATOM     48  C   UNL A   1      40.475  26.428  28.042  1.00  0.00     0.029 A 
ATOM     49  C   UNL A   1      41.635  26.464  28.926  1.00  0.00     0.049 A 
ATOM     50  H   UNL A   1      41.971  27.759  30.523  1.00  0.00     0.167 HD
ATOM     51  C   UNL A   1      42.623  30.632  33.758  1.00  0.00     0.037 A 
ATOM     52  C   UNL A   1      42.701  25.644  28.850  1.00  0.00     0.037 A 
ATOM     53  C   UNL A   1      43.758  29.748  33.807  1.00  0.00     0.049 A 
ATOM     54  C   UNL A   1      43.823  25.802  29.844  1.00  0.00     0.074 A 
ATOM     55  C   UNL A   1      44.812  29.747  34.707  1.00  0.00     0.029 A 
ATOM     56  N   UNL A   1      43.989  28.709  32.919  1.00  0.00    -0.354 N 
ATOM     57  N   UNL A   1      43.939  26.650  30.835  1.00  0.00    -0.248 NA
ATOM     58  C   UNL A   1      44.961  24.880  29.709  1.00  0.00     0.031 C 
ATOM     59  C   UNL A   1      45.704  28.739  34.333  1.00  0.00     0.029 A 
ATOM     60  C   UNL A   1      45.179  28.073  33.237  1.00  0.00     0.049 A 
ATOM     61  H   UNL A   1      43.396  28.459  32.175  1.00  0.00     0.167 HD
ATOM     62  C   UNL A   1      45.140  26.344  31.462  1.00  0.00     0.074 A 
ATOM     63  C   UNL A   1      45.708  25.219  30.750  1.00  0.00     0.031 C 
ATOM     64  C   UNL A   1      45.723  26.942  32.530  1.00  0.00     0.037 A 
BRANCH  51  65
ATOM     65  C   UNL A   1      42.546  31.737  34.773  1.00  0.00     0.064 A 
ATOM     66  C   UNL A   1      43.154  32.982  34.552  1.00  0.00     0.173 A 
ATOM     67  C   UNL A   1      41.805  31.572  35.954  1.00  0.00     0.173 A 
ATOM     68  F   UNL A   1      43.882  33.190  33.445  1.00  0.00    -0.203 F 
ATOM     69  C   UNL A   1      43.043  34.011  35.483  1.00  0.00     0.198 A 
ATOM     70  C   UNL A   1      41.668  32.614  36.868  1.00  0.00     0.198 A 
ATOM     71  F   UNL A   1      41.196  30.405  36.213  1.00  0.00    -0.203 F 
ATOM     72  F   UNL A   1      43.668  35.177  35.268  1.00  0.00    -0.200 F 
ATOM     73  C   UNL A   1      42.292  33.831  36.635  1.00  0.00     0.200 A 
ATOM     74  F   UNL A   1      40.929  32.443  37.973  1.00  0.00    -0.200 F 
ATOM     75  F   UNL A   1      42.173  34.827  37.523  1.00  0.00    -0.200 F 
ENDBRANCH  51  65
BRANCH  52  76
ATOM     76  C   UNL A   1      42.765  24.589  27.802  1.00  0.00     0.064 A 
ATOM     77  C   UNL A   1      42.331  23.282  28.064  1.00  0.00     0.173 A 
ATOM     78  C   UNL A   1      43.296  24.854  26.530  1.00  0.00     0.173 A 
ATOM     79  F   UNL A   1      41.835  22.971  29.271  1.00  0.00    -0.203 F 
ATOM     80  C   UNL A   1      42.457  22.274  27.110  1.00  0.00     0.198 A 
ATOM     81  C   UNL A   1      43.388  23.854  25.564  1.00  0.00     0.198 A 
ATOM     82  F   UNL A   1      43.721  26.088  26.224  1.00  0.00    -0.203 F 
ATOM     83  F   UNL A   1      42.093  21.020  27.411  1.00  0.00    -0.200 F 
ATOM     84  C   UNL A   1      42.982  22.562  25.859  1.00  0.00     0.200 A 
ATOM     85  F   UNL A   1      43.881  24.140  24.351  1.00  0.00    -0.200 F 
ATOM     86  F   UNL A   1      43.106  21.593  24.943  1.00  0.00    -0.200 F 
ENDBRANCH  52  76
BRANCH  64  87
ATOM     87  C   UNL A   1      47.018  26.364  33.024  1.00  0.00     0.064 A 
ATOM     88  C   UNL A   1      47.053  25.307  33.945  1.00  0.00     0.173 A 
ATOM     89  C   UNL A   1      48.242  26.852  32.539  1.00  0.00     0.173 A 
ATOM     90  F   UNL A   1      45.912  24.814  34.450  1.00  0.00    -0.203 F 
ATOM     91  C   UNL A   1      48.265  24.782  34.385  1.00  0.00     0.198 A 
ATOM     92  C   UNL A   1      49.450  26.300  32.954  1.00  0.00     0.198 A 
ATOM     93  F   UNL A   1      48.265  27.856  31.649  1.00  0.00    -0.203 F 
ATOM     94  F   UNL A   1      48.274  23.808  35.308  1.00  0.00    -0.200 F 
ATOM     95  C   UNL A   1      49.461  25.271  33.885  1.00  0.00     0.200 A 
ATOM     96  F   UNL A   1      50.604  26.764  32.456  1.00  0.00    -0.200 F 
ATOM     97  F   UNL A   1      50.625  24.758  34.304  1.00  0.00    -0.200 F 
ENDBRANCH  64  87
ENDBRANCH  38  39
ENDBRANCH  30  33
ENDBRANCH  28  29
ENDBRANCH  27  28
ENDBRANCH   1  27
TORSDOF 15
ENDMDL
