MODEL 1
REMARK VINA RESULT:     -11.9      0.000      0.000
REMARK SMILES O=C(CSc1nc2cccnc2n1CC(F)(F)F)NCCCNC(=O)c1ccc(-c2c3nc(c(-c4c(F)c(F)c(F)c(F)c4F)c4ccc([nH]4)c(-c4c(F)c(F)c(F)c(F)c4F)c4nc(c(-c5c(F)c(F)c(F)c(F)c5F)c5ccc2[nH]5)C=C4)C=C3)cc1
REMARK SMILES IDX 20 1 19 2 1 3 2 4 3 6 4 7 5 8 6 9 13 10 7 11 12 12 8 13
REMARK SMILES IDX 11 14 9 15 10 16 14 17 15 18 16 19 17 20 18 21 21 22 22 23
REMARK SMILES IDX 23 24 24 25 25 27 26 28 27 29 88 30 28 31 87 32 29 33 30 34
REMARK SMILES IDX 31 35 81 36 32 37 86 38 80 39 82 40 33 41 85 42 79 43 78 44
REMARK SMILES IDX 34 46 66 47 46 48 65 49 47 50 50 51 64 52 83 53 48 54 49 55
REMARK SMILES IDX 63 57 84 58 51 59 35 60 36 61 44 62 37 63 38 64 42 65 45 66
REMARK SMILES IDX 39 67 40 68 43 69 41 70 67 71 68 72 76 73 69 74 70 75 74 76
REMARK SMILES IDX 77 77 71 78 72 79 75 80 73 81 52 82 53 83 61 84 54 85 55 86
REMARK SMILES IDX 59 87 62 88 56 89 57 90 60 91 58 92
REMARK H PARENT 19 5 23 26 82 45 50 56
REMARK Flexibility Score: inf
ROOT
ATOM      1  C   UNL A   1      37.745  23.138  25.548  1.00  0.00     0.117 C 
ENDROOT
BRANCH   1   2
ATOM      2  N   UNL A   1      36.294  23.003  25.541  1.00  0.00    -0.355 N 
ATOM      3  O   UNL A   1      36.102  23.030  23.261  1.00  0.00    -0.274 OA
ATOM      4  C   UNL A   1      35.578  22.890  24.364  1.00  0.00     0.230 C 
ATOM      5  H   UNL A   1      35.813  22.992  26.398  1.00  0.00     0.163 HD
BRANCH   4   6
ATOM      6  C   UNL A   1      34.072  22.709  24.508  1.00  0.00     0.178 C 
BRANCH   6   7
ATOM      7  S   UNL A   1      33.097  23.843  23.481  1.00  0.00    -0.078 SA
BRANCH   7   8
ATOM      8  C   UNL A   1      32.927  25.207  24.534  1.00  0.00     0.171 A 
ATOM      9  N   UNL A   1      33.831  26.144  24.700  1.00  0.00    -0.221 NA
ATOM     10  N   UNL A   1      31.821  25.403  25.322  1.00  0.00    -0.294 N 
ATOM     11  C   UNL A   1      33.308  26.975  25.660  1.00  0.00     0.109 A 
ATOM     12  C   UNL A   1      32.054  26.532  26.063  1.00  0.00     0.160 A 
ATOM     13  C   UNL A   1      33.820  28.125  26.273  1.00  0.00     0.034 A 
ATOM     14  N   UNL A   1      31.245  27.077  26.993  1.00  0.00    -0.237 NA
ATOM     15  C   UNL A   1      33.027  28.735  27.251  1.00  0.00     0.022 A 
ATOM     16  C   UNL A   1      31.787  28.184  27.560  1.00  0.00     0.113 A 
BRANCH  10  17
ATOM     17  C   UNL A   1      30.640  24.578  25.444  1.00  0.00     0.241 C 
BRANCH  17  18
ATOM     18  C   UNL A   1      30.783  23.457  26.450  1.00  0.00     0.406 C 
ATOM     19  F   UNL A   1      29.699  23.333  27.251  1.00  0.00    -0.169 F 
ATOM     20  F   UNL A   1      30.920  22.273  25.807  1.00  0.00    -0.169 F 
ATOM     21  F   UNL A   1      31.858  23.610  27.250  1.00  0.00    -0.169 F 
ENDBRANCH  17  18
ENDBRANCH  10  17
ENDBRANCH   7   8
ENDBRANCH   6   7
ENDBRANCH   4   6
ENDBRANCH   1   2
BRANCH   1  22
ATOM     22  C   UNL A   1      38.482  21.813  25.751  1.00  0.00     0.042 C 
BRANCH  22  23
ATOM     23  C   UNL A   1      39.637  21.933  26.731  1.00  0.00     0.118 C 
BRANCH  23  24
ATOM     24  N   UNL A   1      40.947  21.778  26.102  1.00  0.00    -0.352 N 
ATOM     25  C   UNL A   1      41.924  22.735  25.903  1.00  0.00     0.251 C 
ATOM     26  H   UNL A   1      41.162  20.874  25.778  1.00  0.00     0.163 HD
ATOM     27  O   UNL A   1      42.842  22.540  25.126  1.00  0.00    -0.269 OA
BRANCH  25  28
ATOM     28  C   UNL A   1      41.854  24.001  26.661  1.00  0.00     0.039 A 
ATOM     29  C   UNL A   1      42.445  24.111  27.924  1.00  0.00     0.014 A 
ATOM     30  C   UNL A   1      41.144  25.068  26.113  1.00  0.00     0.014 A 
ATOM     31  C   UNL A   1      42.347  25.318  28.611  1.00  0.00     0.010 A 
ATOM     32  C   UNL A   1      41.156  26.292  26.726  1.00  0.00     0.010 A 
ATOM     33  C   UNL A   1      41.699  26.398  28.000  1.00  0.00    -0.014 A 
BRANCH  33  34
ATOM     34  C   UNL A   1      41.624  27.697  28.642  1.00  0.00     0.031 A 
ATOM     35  C   UNL A   1      42.713  28.637  28.269  1.00  0.00     0.074 A 
ATOM     36  C   UNL A   1      40.522  28.088  29.313  1.00  0.00     0.049 A 
ATOM     37  N   UNL A   1      43.610  29.152  29.042  1.00  0.00    -0.248 NA
ATOM     38  C   UNL A   1      42.904  28.954  26.843  1.00  0.00     0.031 C 
ATOM     39  C   UNL A   1      39.247  27.380  29.477  1.00  0.00     0.029 A 
ATOM     40  N   UNL A   1      40.280  29.277  29.922  1.00  0.00    -0.354 N 
ATOM     41  C   UNL A   1      44.376  29.995  28.240  1.00  0.00     0.074 A 
ATOM     42  C   UNL A   1      44.005  29.707  26.879  1.00  0.00     0.031 C 
ATOM     43  C   UNL A   1      38.310  28.235  29.946  1.00  0.00     0.029 A 
ATOM     44  C   UNL A   1      38.951  29.499  30.258  1.00  0.00     0.049 A 
ATOM     45  H   UNL A   1      40.992  29.931  30.111  1.00  0.00     0.167 HD
ATOM     46  C   UNL A   1      45.093  31.019  28.780  1.00  0.00     0.037 A 
ATOM     47  C   UNL A   1      38.427  30.662  30.721  1.00  0.00     0.037 A 
ATOM     48  C   UNL A   1      45.257  30.841  30.202  1.00  0.00     0.049 A 
ATOM     49  C   UNL A   1      39.560  31.469  31.249  1.00  0.00     0.074 A 
ATOM     50  C   UNL A   1      45.847  29.868  30.986  1.00  0.00     0.029 A 
ATOM     51  N   UNL A   1      44.421  31.537  31.043  1.00  0.00    -0.354 N 
ATOM     52  N   UNL A   1      40.251  31.128  32.305  1.00  0.00    -0.248 NA
ATOM     53  C   UNL A   1      40.236  32.363  30.319  1.00  0.00     0.031 C 
ATOM     54  C   UNL A   1      44.960  29.704  32.090  1.00  0.00     0.029 A 
ATOM     55  C   UNL A   1      43.933  30.640  31.958  1.00  0.00     0.049 A 
ATOM     56  H   UNL A   1      44.213  32.498  30.996  1.00  0.00     0.167 HD
ATOM     57  C   UNL A   1      41.569  31.410  31.971  1.00  0.00     0.074 A 
ATOM     58  C   UNL A   1      41.491  32.226  30.759  1.00  0.00     0.031 C 
ATOM     59  C   UNL A   1      42.605  30.714  32.523  1.00  0.00     0.037 A 
BRANCH  46  60
ATOM     60  C   UNL A   1      45.349  32.342  28.103  1.00  0.00     0.064 A 
ATOM     61  C   UNL A   1      44.261  33.194  27.828  1.00  0.00     0.173 A 
ATOM     62  C   UNL A   1      46.559  32.673  27.455  1.00  0.00     0.173 A 
ATOM     63  F   UNL A   1      43.057  32.966  28.374  1.00  0.00    -0.203 F 
ATOM     64  C   UNL A   1      44.359  34.248  26.914  1.00  0.00     0.198 A 
ATOM     65  C   UNL A   1      46.667  33.757  26.586  1.00  0.00     0.198 A 
ATOM     66  F   UNL A   1      47.648  31.902  27.541  1.00  0.00    -0.203 F 
ATOM     67  F   UNL A   1      43.266  34.950  26.589  1.00  0.00    -0.200 F 
ATOM     68  C   UNL A   1      45.561  34.525  26.290  1.00  0.00     0.200 A 
ATOM     69  F   UNL A   1      47.837  33.997  25.977  1.00  0.00    -0.200 F 
ATOM     70  F   UNL A   1      45.643  35.493  25.369  1.00  0.00    -0.200 F 
ENDBRANCH  46  60
BRANCH  47  71
ATOM     71  C   UNL A   1      37.090  31.237  30.437  1.00  0.00     0.064 A 
ATOM     72  C   UNL A   1      36.201  31.574  31.471  1.00  0.00     0.173 A 
ATOM     73  C   UNL A   1      36.762  31.715  29.153  1.00  0.00     0.173 A 
ATOM     74  F   UNL A   1      36.465  31.205  32.733  1.00  0.00    -0.203 F 
ATOM     75  C   UNL A   1      35.062  32.353  31.236  1.00  0.00     0.198 A 
ATOM     76  C   UNL A   1      35.624  32.488  28.918  1.00  0.00     0.198 A 
ATOM     77  F   UNL A   1      37.588  31.521  28.115  1.00  0.00    -0.203 F 
ATOM     78  F   UNL A   1      34.264  32.700  32.257  1.00  0.00    -0.200 F 
ATOM     79  C   UNL A   1      34.777  32.816  29.961  1.00  0.00     0.200 A 
ATOM     80  F   UNL A   1      35.385  32.962  27.687  1.00  0.00    -0.200 F 
ATOM     81  F   UNL A   1      33.719  33.609  29.745  1.00  0.00    -0.200 F 
ENDBRANCH  47  71
BRANCH  59  82
ATOM     82  C   UNL A   1      42.306  29.760  33.650  1.00  0.00     0.064 A 
ATOM     83  C   UNL A   1      42.027  28.394  33.466  1.00  0.00     0.173 A 
ATOM     84  C   UNL A   1      42.505  30.200  34.965  1.00  0.00     0.173 A 
ATOM     85  F   UNL A   1      41.919  27.871  32.240  1.00  0.00    -0.203 F 
ATOM     86  C   UNL A   1      41.926  27.518  34.547  1.00  0.00     0.198 A 
ATOM     87  C   UNL A   1      42.440  29.318  36.041  1.00  0.00     0.198 A 
ATOM     88  F   UNL A   1      42.830  31.480  35.201  1.00  0.00    -0.203 F 
ATOM     89  F   UNL A   1      41.665  26.219  34.338  1.00  0.00    -0.200 F 
ATOM     90  C   UNL A   1      42.145  27.980  35.832  1.00  0.00     0.200 A 
ATOM     91  F   UNL A   1      42.702  29.759  37.279  1.00  0.00    -0.200 F 
ATOM     92  F   UNL A   1      42.103  27.130  36.869  1.00  0.00    -0.200 F 
ENDBRANCH  59  82
ENDBRANCH  33  34
ENDBRANCH  25  28
ENDBRANCH  23  24
ENDBRANCH  22  23
ENDBRANCH   1  22
TORSDOF 14
ENDMDL
MODEL 2
REMARK VINA RESULT:     -11.9      4.652     10.336
REMARK SMILES O=C(CSc1nc2cccnc2n1CC(F)(F)F)NCCCNC(=O)c1ccc(-c2c3nc(c(-c4c(F)c(F)c(F)c(F)c4F)c4ccc([nH]4)c(-c4c(F)c(F)c(F)c(F)c4F)c4nc(c(-c5c(F)c(F)c(F)c(F)c5F)c5ccc2[nH]5)C=C4)C=C3)cc1
REMARK SMILES IDX 20 1 19 2 1 3 2 4 3 6 4 7 5 8 6 9 13 10 7 11 12 12 8 13
REMARK SMILES IDX 11 14 9 15 10 16 14 17 15 18 16 19 17 20 18 21 21 22 22 23
REMARK SMILES IDX 23 24 24 25 25 27 26 28 27 29 88 30 28 31 87 32 29 33 30 34
REMARK SMILES IDX 31 35 81 36 32 37 86 38 80 39 82 40 33 41 85 42 79 43 78 44
REMARK SMILES IDX 34 46 66 47 46 48 65 49 47 50 50 51 64 52 83 53 48 54 49 55
REMARK SMILES IDX 63 57 84 58 51 59 35 60 36 61 44 62 37 63 38 64 42 65 45 66
REMARK SMILES IDX 39 67 40 68 43 69 41 70 67 71 68 72 76 73 69 74 70 75 74 76
REMARK SMILES IDX 77 77 71 78 72 79 75 80 73 81 52 82 53 83 61 84 54 85 55 86
REMARK SMILES IDX 59 87 62 88 56 89 57 90 60 91 58 92
REMARK H PARENT 19 5 23 26 82 45 50 56
REMARK Flexibility Score: inf
ROOT
ATOM      1  C   UNL A   1      34.047  34.466  29.943  1.00  0.00     0.117 C 
ENDROOT
BRANCH   1   2
ATOM      2  N   UNL A   1      34.444  35.020  31.231  1.00  0.00    -0.355 N 
ATOM      3  O   UNL A   1      33.785  33.197  32.445  1.00  0.00    -0.274 OA
ATOM      4  C   UNL A   1      34.339  34.293  32.402  1.00  0.00     0.230 C 
ATOM      5  H   UNL A   1      34.797  35.938  31.266  1.00  0.00     0.163 HD
BRANCH   4   6
ATOM      6  C   UNL A   1      34.834  34.981  33.667  1.00  0.00     0.178 C 
BRANCH   6   7
ATOM      7  S   UNL A   1      36.211  34.123  34.477  1.00  0.00    -0.078 SA
BRANCH   7   8
ATOM      8  C   UNL A   1      37.420  34.160  33.239  1.00  0.00     0.171 A 
ATOM      9  N   UNL A   1      37.275  34.729  32.065  1.00  0.00    -0.221 NA
ATOM     10  N   UNL A   1      38.643  33.553  33.378  1.00  0.00    -0.294 N 
ATOM     11  C   UNL A   1      38.442  34.459  31.393  1.00  0.00     0.109 A 
ATOM     12  C   UNL A   1      39.311  33.727  32.193  1.00  0.00     0.160 A 
ATOM     13  C   UNL A   1      38.862  34.775  30.096  1.00  0.00     0.034 A 
ATOM     14  N   UNL A   1      40.537  33.267  31.875  1.00  0.00    -0.237 NA
ATOM     15  C   UNL A   1      40.126  34.321  29.705  1.00  0.00     0.022 A 
ATOM     16  C   UNL A   1      40.895  33.594  30.608  1.00  0.00     0.113 A 
BRANCH  10  17
ATOM     17  C   UNL A   1      39.158  32.803  34.501  1.00  0.00     0.241 C 
BRANCH  17  18
ATOM     18  C   UNL A   1      38.734  31.352  34.507  1.00  0.00     0.406 C 
ATOM     19  F   UNL A   1      38.368  30.909  33.281  1.00  0.00    -0.169 F 
ATOM     20  F   UNL A   1      39.767  30.569  34.901  1.00  0.00    -0.169 F 
ATOM     21  F   UNL A   1      37.703  31.113  35.344  1.00  0.00    -0.169 F 
ENDBRANCH  17  18
ENDBRANCH  10  17
ENDBRANCH   7   8
ENDBRANCH   6   7
ENDBRANCH   4   6
ENDBRANCH   1   2
BRANCH   1  22
ATOM     22  C   UNL A   1      34.969  34.871  28.792  1.00  0.00     0.042 C 
BRANCH  22  23
ATOM     23  C   UNL A   1      35.445  33.678  27.981  1.00  0.00     0.118 C 
BRANCH  23  24
ATOM     24  N   UNL A   1      34.526  32.542  28.029  1.00  0.00    -0.352 N 
ATOM     25  C   UNL A   1      34.825  31.192  28.014  1.00  0.00     0.251 C 
ATOM     26  H   UNL A   1      33.569  32.767  28.077  1.00  0.00     0.163 HD
ATOM     27  O   UNL A   1      33.965  30.363  27.778  1.00  0.00    -0.269 OA
BRANCH  25  28
ATOM     28  C   UNL A   1      36.207  30.761  28.306  1.00  0.00     0.039 A 
ATOM     29  C   UNL A   1      37.049  31.548  29.101  1.00  0.00     0.014 A 
ATOM     30  C   UNL A   1      36.672  29.577  27.736  1.00  0.00     0.014 A 
ATOM     31  C   UNL A   1      38.348  31.112  29.344  1.00  0.00     0.010 A 
ATOM     32  C   UNL A   1      37.902  29.082  28.079  1.00  0.00     0.010 A 
ATOM     33  C   UNL A   1      38.760  29.878  28.825  1.00  0.00    -0.014 A 
BRANCH  33  34
ATOM     34  C   UNL A   1      40.080  29.344  29.103  1.00  0.00     0.031 A 
ATOM     35  C   UNL A   1      40.331  29.020  30.530  1.00  0.00     0.074 A 
ATOM     36  C   UNL A   1      40.900  28.944  28.109  1.00  0.00     0.049 A 
ATOM     37  N   UNL A   1      41.211  29.546  31.316  1.00  0.00    -0.248 NA
ATOM     38  C   UNL A   1      39.417  28.082  31.205  1.00  0.00     0.031 C 
ATOM     39  C   UNL A   1      40.642  28.905  26.665  1.00  0.00     0.029 A 
ATOM     40  N   UNL A   1      42.133  28.385  28.205  1.00  0.00    -0.354 N 
ATOM     41  C   UNL A   1      41.085  28.887  32.537  1.00  0.00     0.074 A 
ATOM     42  C   UNL A   1      39.867  28.123  32.461  1.00  0.00     0.031 C 
ATOM     43  C   UNL A   1      41.590  28.158  26.055  1.00  0.00     0.029 A 
ATOM     44  C   UNL A   1      42.598  27.798  27.035  1.00  0.00     0.049 A 
ATOM     45  H   UNL A   1      42.657  28.395  29.039  1.00  0.00     0.167 HD
ATOM     46  C   UNL A   1      42.114  28.854  33.428  1.00  0.00     0.037 A 
ATOM     47  C   UNL A   1      43.715  27.038  26.911  1.00  0.00     0.037 A 
ATOM     48  C   UNL A   1      43.095  29.866  33.121  1.00  0.00     0.049 A 
ATOM     49  C   UNL A   1      44.578  27.341  28.084  1.00  0.00     0.074 A 
ATOM     50  C   UNL A   1      43.060  31.245  33.045  1.00  0.00     0.029 A 
ATOM     51  N   UNL A   1      44.226  29.487  32.438  1.00  0.00    -0.354 N 
ATOM     52  N   UNL A   1      45.147  28.502  28.274  1.00  0.00    -0.248 NA
ATOM     53  C   UNL A   1      44.389  26.532  29.281  1.00  0.00     0.031 C 
ATOM     54  C   UNL A   1      43.855  31.567  31.906  1.00  0.00     0.029 A 
ATOM     55  C   UNL A   1      44.392  30.379  31.409  1.00  0.00     0.049 A 
ATOM     56  H   UNL A   1      44.806  28.720  32.647  1.00  0.00     0.167 HD
ATOM     57  C   UNL A   1      45.003  28.749  29.633  1.00  0.00     0.074 A 
ATOM     58  C   UNL A   1      44.582  27.472  30.211  1.00  0.00     0.031 C 
ATOM     59  C   UNL A   1      44.941  30.022  30.121  1.00  0.00     0.037 A 
BRANCH  46  60
ATOM     60  C   UNL A   1      42.412  27.705  34.357  1.00  0.00     0.064 A 
ATOM     61  C   UNL A   1      42.976  26.525  33.832  1.00  0.00     0.173 A 
ATOM     62  C   UNL A   1      41.901  27.601  35.669  1.00  0.00     0.173 A 
ATOM     63  F   UNL A   1      43.476  26.501  32.587  1.00  0.00    -0.203 F 
ATOM     64  C   UNL A   1      42.958  25.318  34.537  1.00  0.00     0.198 A 
ATOM     65  C   UNL A   1      41.934  26.409  36.390  1.00  0.00     0.198 A 
ATOM     66  F   UNL A   1      41.249  28.607  36.262  1.00  0.00    -0.203 F 
ATOM     67  F   UNL A   1      43.389  24.197  33.946  1.00  0.00    -0.200 F 
ATOM     68  C   UNL A   1      42.431  25.261  35.814  1.00  0.00     0.200 A 
ATOM     69  F   UNL A   1      41.401  26.370  37.620  1.00  0.00    -0.200 F 
ATOM     70  F   UNL A   1      42.356  24.095  36.467  1.00  0.00    -0.200 F 
ENDBRANCH  46  60
BRANCH  47  71
ATOM     71  C   UNL A   1      43.923  25.857  26.040  1.00  0.00     0.064 A 
ATOM     72  C   UNL A   1      45.159  25.610  25.420  1.00  0.00     0.173 A 
ATOM     73  C   UNL A   1      42.990  24.801  26.012  1.00  0.00     0.173 A 
ATOM     74  F   UNL A   1      46.123  26.540  25.446  1.00  0.00    -0.203 F 
ATOM     75  C   UNL A   1      45.447  24.377  24.820  1.00  0.00     0.198 A 
ATOM     76  C   UNL A   1      43.276  23.574  25.411  1.00  0.00     0.198 A 
ATOM     77  F   UNL A   1      41.815  24.905  26.648  1.00  0.00    -0.203 F 
ATOM     78  F   UNL A   1      46.657  24.159  24.285  1.00  0.00    -0.200 F 
ATOM     79  C   UNL A   1      44.509  23.357  24.823  1.00  0.00     0.200 A 
ATOM     80  F   UNL A   1      42.372  22.584  25.457  1.00  0.00    -0.200 F 
ATOM     81  F   UNL A   1      44.803  22.160  24.300  1.00  0.00    -0.200 F 
ENDBRANCH  47  71
BRANCH  59  82
ATOM     82  C   UNL A   1      45.227  31.163  29.179  1.00  0.00     0.064 A 
ATOM     83  C   UNL A   1      44.232  31.860  28.470  1.00  0.00     0.173 A 
ATOM     84  C   UNL A   1      46.523  31.693  29.149  1.00  0.00     0.173 A 
ATOM     85  F   UNL A   1      42.951  31.480  28.524  1.00  0.00    -0.203 F 
ATOM     86  C   UNL A   1      44.527  33.015  27.746  1.00  0.00     0.198 A 
ATOM     87  C   UNL A   1      46.809  32.866  28.456  1.00  0.00     0.198 A 
ATOM     88  F   UNL A   1      47.503  31.105  29.852  1.00  0.00    -0.203 F 
ATOM     89  F   UNL A   1      43.555  33.661  27.084  1.00  0.00    -0.200 F 
ATOM     90  C   UNL A   1      45.814  33.523  27.750  1.00  0.00     0.200 A 
ATOM     91  F   UNL A   1      48.045  33.382  28.504  1.00  0.00    -0.200 F 
ATOM     92  F   UNL A   1      46.090  34.663  27.100  1.00  0.00    -0.200 F 
ENDBRANCH  59  82
ENDBRANCH  33  34
ENDBRANCH  25  28
ENDBRANCH  23  24
ENDBRANCH  22  23
ENDBRANCH   1  22
TORSDOF 14
ENDMDL
MODEL 3
REMARK VINA RESULT:     -11.8      3.220      8.620
REMARK SMILES O=C(CSc1nc2cccnc2n1CC(F)(F)F)NCCCNC(=O)c1ccc(-c2c3nc(c(-c4c(F)c(F)c(F)c(F)c4F)c4ccc([nH]4)c(-c4c(F)c(F)c(F)c(F)c4F)c4nc(c(-c5c(F)c(F)c(F)c(F)c5F)c5ccc2[nH]5)C=C4)C=C3)cc1
REMARK SMILES IDX 20 1 19 2 1 3 2 4 3 6 4 7 5 8 6 9 13 10 7 11 12 12 8 13
REMARK SMILES IDX 11 14 9 15 10 16 14 17 15 18 16 19 17 20 18 21 21 22 22 23
REMARK SMILES IDX 23 24 24 25 25 27 26 28 27 29 88 30 28 31 87 32 29 33 30 34
REMARK SMILES IDX 31 35 81 36 32 37 86 38 80 39 82 40 33 41 85 42 79 43 78 44
REMARK SMILES IDX 34 46 66 47 46 48 65 49 47 50 50 51 64 52 83 53 48 54 49 55
REMARK SMILES IDX 63 57 84 58 51 59 35 60 36 61 44 62 37 63 38 64 42 65 45 66
REMARK SMILES IDX 39 67 40 68 43 69 41 70 67 71 68 72 76 73 69 74 70 75 74 76
REMARK SMILES IDX 77 77 71 78 72 79 75 80 73 81 52 82 53 83 61 84 54 85 55 86
REMARK SMILES IDX 59 87 62 88 56 89 57 90 60 91 58 92
REMARK H PARENT 19 5 23 26 82 45 50 56
REMARK Flexibility Score: inf
ROOT
ATOM      1  C   UNL A   1      33.227  28.916  26.261  1.00  0.00     0.117 C 
ENDROOT
BRANCH   1   2
ATOM      2  N   UNL A   1      33.088  27.472  26.130  1.00  0.00    -0.355 N 
ATOM      3  O   UNL A   1      31.102  27.360  27.260  1.00  0.00    -0.274 OA
ATOM      4  C   UNL A   1      31.972  26.801  26.595  1.00  0.00     0.230 C 
ATOM      5  H   UNL A   1      33.808  26.960  25.697  1.00  0.00     0.163 HD
BRANCH   4   6
ATOM      6  C   UNL A   1      31.940  25.298  26.350  1.00  0.00     0.178 C 
BRANCH   6   7
ATOM      7  S   UNL A   1      32.497  24.813  24.693  1.00  0.00    -0.078 SA
BRANCH   7   8
ATOM      8  C   UNL A   1      34.044  24.117  25.037  1.00  0.00     0.171 A 
ATOM      9  N   UNL A   1      35.062  24.767  25.553  1.00  0.00    -0.221 NA
ATOM     10  N   UNL A   1      34.347  22.808  24.759  1.00  0.00    -0.294 N 
ATOM     11  C   UNL A   1      36.085  23.851  25.588  1.00  0.00     0.109 A 
ATOM     12  C   UNL A   1      35.662  22.622  25.098  1.00  0.00     0.160 A 
ATOM     13  C   UNL A   1      37.418  23.963  26.003  1.00  0.00     0.034 A 
ATOM     14  N   UNL A   1      36.385  21.493  24.964  1.00  0.00    -0.237 NA
ATOM     15  C   UNL A   1      38.221  22.824  25.884  1.00  0.00     0.022 A 
ATOM     16  C   UNL A   1      37.669  21.653  25.374  1.00  0.00     0.113 A 
BRANCH  10  17
ATOM     17  C   UNL A   1      33.508  21.793  24.162  1.00  0.00     0.241 C 
BRANCH  17  18
ATOM     18  C   UNL A   1      32.761  20.952  25.173  1.00  0.00     0.406 C 
ATOM     19  F   UNL A   1      31.840  20.141  24.600  1.00  0.00    -0.169 F 
ATOM     20  F   UNL A   1      33.625  20.141  25.829  1.00  0.00    -0.169 F 
ATOM     21  F   UNL A   1      32.120  21.695  26.099  1.00  0.00    -0.169 F 
ENDBRANCH  17  18
ENDBRANCH  10  17
ENDBRANCH   7   8
ENDBRANCH   6   7
ENDBRANCH   4   6
ENDBRANCH   1   2
BRANCH   1  22
ATOM     22  C   UNL A   1      33.968  29.346  27.528  1.00  0.00     0.042 C 
BRANCH  22  23
ATOM     23  C   UNL A   1      34.665  30.687  27.367  1.00  0.00     0.118 C 
BRANCH  23  24
ATOM     24  N   UNL A   1      34.526  31.555  28.536  1.00  0.00    -0.352 N 
ATOM     25  C   UNL A   1      35.268  31.554  29.702  1.00  0.00     0.251 C 
ATOM     26  H   UNL A   1      33.809  32.228  28.486  1.00  0.00     0.163 HD
ATOM     27  O   UNL A   1      34.873  32.135  30.696  1.00  0.00    -0.269 OA
BRANCH  25  28
ATOM     28  C   UNL A   1      36.566  30.849  29.724  1.00  0.00     0.039 A 
ATOM     29  C   UNL A   1      37.749  31.518  29.389  1.00  0.00     0.014 A 
ATOM     30  C   UNL A   1      36.584  29.491  30.040  1.00  0.00     0.014 A 
ATOM     31  C   UNL A   1      38.950  30.816  29.411  1.00  0.00     0.010 A 
ATOM     32  C   UNL A   1      37.774  28.833  30.189  1.00  0.00     0.010 A 
ATOM     33  C   UNL A   1      38.947  29.474  29.812  1.00  0.00    -0.014 A 
BRANCH  33  34
ATOM     34  C   UNL A   1      40.177  28.713  29.918  1.00  0.00     0.031 A 
ATOM     35  C   UNL A   1      40.689  28.550  31.303  1.00  0.00     0.074 A 
ATOM     36  C   UNL A   1      40.660  28.008  28.875  1.00  0.00     0.049 A 
ATOM     37  N   UNL A   1      41.807  28.981  31.787  1.00  0.00    -0.248 NA
ATOM     38  C   UNL A   1      39.803  27.937  32.308  1.00  0.00     0.031 C 
ATOM     39  C   UNL A   1      40.073  27.820  27.543  1.00  0.00     0.029 A 
ATOM     40  N   UNL A   1      41.761  27.216  28.827  1.00  0.00    -0.354 N 
ATOM     41  C   UNL A   1      41.850  28.546  33.110  1.00  0.00     0.074 A 
ATOM     42  C   UNL A   1      40.531  28.060  33.420  1.00  0.00     0.031 C 
ATOM     43  C   UNL A   1      40.706  26.806  26.908  1.00  0.00     0.029 A 
ATOM     44  C   UNL A   1      41.831  26.381  27.719  1.00  0.00     0.049 A 
ATOM     45  H   UNL A   1      42.457  27.232  29.524  1.00  0.00     0.167 HD
ATOM     46  C   UNL A   1      43.034  28.420  33.770  1.00  0.00     0.037 A 
ATOM     47  C   UNL A   1      42.734  25.389  27.522  1.00  0.00     0.037 A 
ATOM     48  C   UNL A   1      44.082  29.142  33.093  1.00  0.00     0.049 A 
ATOM     49  C   UNL A   1      43.885  25.663  28.423  1.00  0.00     0.074 A 
ATOM     50  C   UNL A   1      44.279  30.471  32.769  1.00  0.00     0.029 A 
ATOM     51  N   UNL A   1      44.938  28.434  32.282  1.00  0.00    -0.354 N 
ATOM     52  N   UNL A   1      44.681  26.689  28.277  1.00  0.00    -0.248 NA
ATOM     53  C   UNL A   1      43.836  25.093  29.763  1.00  0.00     0.031 C 
ATOM     54  C   UNL A   1      44.833  30.448  31.456  1.00  0.00     0.029 A 
ATOM     55  C   UNL A   1      45.020  29.113  31.093  1.00  0.00     0.049 A 
ATOM     56  H   UNL A   1      45.404  27.598  32.513  1.00  0.00     0.167 HD
ATOM     57  C   UNL A   1      44.901  27.153  29.567  1.00  0.00     0.074 A 
ATOM     58  C   UNL A   1      44.404  26.093  30.445  1.00  0.00     0.031 C 
ATOM     59  C   UNL A   1      45.182  28.466  29.811  1.00  0.00     0.037 A 
BRANCH  46  60
ATOM     60  C   UNL A   1      43.327  27.378  34.820  1.00  0.00     0.064 A 
ATOM     61  C   UNL A   1      43.575  27.790  36.145  1.00  0.00     0.173 A 
ATOM     62  C   UNL A   1      43.664  26.039  34.527  1.00  0.00     0.173 A 
ATOM     63  F   UNL A   1      43.312  29.047  36.533  1.00  0.00    -0.203 F 
ATOM     64  C   UNL A   1      44.185  26.947  37.080  1.00  0.00     0.198 A 
ATOM     65  C   UNL A   1      44.221  25.185  35.477  1.00  0.00     0.198 A 
ATOM     66  F   UNL A   1      43.577  25.536  33.291  1.00  0.00    -0.203 F 
ATOM     67  F   UNL A   1      44.516  27.422  38.287  1.00  0.00    -0.200 F 
ATOM     68  C   UNL A   1      44.512  25.647  36.742  1.00  0.00     0.200 A 
ATOM     69  F   UNL A   1      44.548  23.934  35.124  1.00  0.00    -0.200 F 
ATOM     70  F   UNL A   1      45.151  24.857  37.614  1.00  0.00    -0.200 F 
ENDBRANCH  46  60
BRANCH  47  71
ATOM     71  C   UNL A   1      42.520  24.078  26.862  1.00  0.00     0.064 A 
ATOM     72  C   UNL A   1      43.396  23.601  25.873  1.00  0.00     0.173 A 
ATOM     73  C   UNL A   1      41.599  23.146  27.379  1.00  0.00     0.173 A 
ATOM     74  F   UNL A   1      44.339  24.407  25.365  1.00  0.00    -0.203 F 
ATOM     75  C   UNL A   1      43.360  22.270  25.440  1.00  0.00     0.198 A 
ATOM     76  C   UNL A   1      41.560  21.820  26.944  1.00  0.00     0.198 A 
ATOM     77  F   UNL A   1      40.777  23.478  28.386  1.00  0.00    -0.203 F 
ATOM     78  F   UNL A   1      44.247  21.837  24.532  1.00  0.00    -0.200 F 
ATOM     79  C   UNL A   1      42.448  21.378  25.980  1.00  0.00     0.200 A 
ATOM     80  F   UNL A   1      40.698  20.961  27.506  1.00  0.00    -0.200 F 
ATOM     81  F   UNL A   1      42.450  20.092  25.608  1.00  0.00    -0.200 F 
ENDBRANCH  47  71
BRANCH  59  82
ATOM     82  C   UNL A   1      45.443  29.371  28.636  1.00  0.00     0.064 A 
ATOM     83  C   UNL A   1      44.441  30.106  27.976  1.00  0.00     0.173 A 
ATOM     84  C   UNL A   1      46.772  29.657  28.297  1.00  0.00     0.173 A 
ATOM     85  F   UNL A   1      43.153  29.966  28.308  1.00  0.00    -0.203 F 
ATOM     86  C   UNL A   1      44.753  31.059  27.008  1.00  0.00     0.198 A 
ATOM     87  C   UNL A   1      47.084  30.635  27.355  1.00  0.00     0.198 A 
ATOM     88  F   UNL A   1      47.775  29.031  28.931  1.00  0.00    -0.203 F 
ATOM     89  F   UNL A   1      43.775  31.747  26.401  1.00  0.00    -0.200 F 
ATOM     90  C   UNL A   1      46.076  31.330  26.707  1.00  0.00     0.200 A 
ATOM     91  F   UNL A   1      48.367  30.930  27.104  1.00  0.00    -0.200 F 
ATOM     92  F   UNL A   1      46.381  32.284  25.815  1.00  0.00    -0.200 F 
ENDBRANCH  59  82
ENDBRANCH  33  34
ENDBRANCH  25  28
ENDBRANCH  23  24
ENDBRANCH  22  23
ENDBRANCH   1  22
TORSDOF 14
ENDMDL
