MODEL 1
REMARK VINA RESULT:     -13.1      0.000      0.000
REMARK SMILES [NH3+][C@@H](CCC1=c2ccccc2=NC1)C(=O)NCCCNC(=O)c1ccc(-c2c3nc(c(-c4c(F)c(F)c(F)c(F)c4F)c4ccc([nH]4)c(-c4c(F)c(F)c(F)c(F)c4F)c4nc(c(-c5c(F)c(F)c(F)c(F)c5F)c5ccc2[nH]5)C=C4)C=C3)cc1
REMARK SMILES IDX 17 1 16 2 14 3 15 4 2 6 1 7 3 11 4 12 5 13 6 14 13 15 7 16
REMARK SMILES IDX 11 17 12 18 8 19 10 20 9 21 18 22 19 23 20 24 21 25 22 27
REMARK SMILES IDX 23 28 24 29 85 30 25 31 84 32 26 33 27 34 28 35 78 36 29 37
REMARK SMILES IDX 83 38 77 39 79 40 30 41 82 42 76 43 75 44 31 46 63 47 43 48
REMARK SMILES IDX 62 49 44 50 47 51 61 52 80 53 45 54 46 55 60 57 81 58 48 59
REMARK SMILES IDX 32 60 33 61 41 62 34 63 35 64 39 65 42 66 36 67 37 68 40 69
REMARK SMILES IDX 38 70 64 71 65 72 73 73 66 74 67 75 71 76 74 77 68 78 69 79
REMARK SMILES IDX 72 80 70 81 49 82 50 83 58 84 51 85 52 86 56 87 59 88 53 89
REMARK SMILES IDX 54 90 57 91 55 92
REMARK H PARENT 16 5 1 8 1 9 1 10 20 26 79 45 47 56
REMARK Flexibility Score: inf
ROOT
ATOM      1  C   UNL A   1      30.660  26.405  25.982  1.00  0.00     0.118 C 
ENDROOT
BRANCH   1   2
ATOM      2  N   UNL A   1      31.014  25.414  25.000  1.00  0.00    -0.351 N 
ATOM      3  C   UNL A   1      31.016  24.059  25.121  1.00  0.00     0.278 C 
ATOM      4  O   UNL A   1      31.143  23.398  24.088  1.00  0.00    -0.268 OA
ATOM      5  H   UNL A   1      31.291  25.764  24.122  1.00  0.00     0.163 HD
BRANCH   3   6
ATOM      6  C   UNL A   1      30.892  23.377  26.497  1.00  0.00     0.271 C 
BRANCH   6   7
ATOM      7  N   UNL A   1      29.856  22.324  26.532  1.00  0.00    -0.347 N 
ATOM      8  H   UNL A   1      29.161  22.507  25.808  1.00  0.00     0.345 HD
ATOM      9  H   UNL A   1      29.402  22.323  27.446  1.00  0.00     0.345 HD
ATOM     10  H   UNL A   1      30.288  21.415  26.366  1.00  0.00     0.345 HD
ENDBRANCH   6   7
BRANCH   6  11
ATOM     11  C   UNL A   1      32.214  23.005  27.198  1.00  0.00     0.080 C 
BRANCH  11  12
ATOM     12  C   UNL A   1      33.599  23.548  26.747  1.00  0.00     0.040 C 
BRANCH  12  13
ATOM     13  C   UNL A   1      34.485  22.699  25.864  1.00  0.00    -0.039 C 
ATOM     14  C   UNL A   1      35.783  22.874  25.580  1.00  0.00     0.001 A 
ATOM     15  C   UNL A   1      33.956  21.353  25.304  1.00  0.00     0.174 C 
ATOM     16  C   UNL A   1      37.227  23.902  26.108  1.00  0.00     0.010 A 
ATOM     17  C   UNL A   1      36.150  21.072  25.005  1.00  0.00     0.065 A 
ATOM     18  N   UNL A   1      35.055  20.413  24.825  1.00  0.00    -0.280 NA
ATOM     19  C   UNL A   1      38.719  23.267  26.215  1.00  0.00     0.001 A 
ATOM     20  C   UNL A   1      37.991  20.493  25.099  1.00  0.00     0.028 A 
ATOM     21  C   UNL A   1      39.084  21.451  25.752  1.00  0.00     0.002 A 
ENDBRANCH  12  13
ENDBRANCH  11  12
ENDBRANCH   6  11
ENDBRANCH   3   6
ENDBRANCH   1   2
BRANCH   1  22
ATOM     22  C   UNL A   1      31.837  27.297  26.338  1.00  0.00     0.042 C 
BRANCH  22  23
ATOM     23  C   UNL A   1      31.506  28.960  25.976  1.00  0.00     0.118 C 
BRANCH  23  24
ATOM     24  N   UNL A   1      32.149  30.747  26.852  1.00  0.00    -0.352 N 
ATOM     25  C   UNL A   1      33.242  31.615  27.383  1.00  0.00     0.251 C 
ATOM     26  H   UNL A   1      31.329  31.276  26.975  1.00  0.00     0.163 HD
ATOM     27  O   UNL A   1      32.882  32.715  27.819  1.00  0.00    -0.269 OA
BRANCH  25  28
ATOM     28  C   UNL A   1      34.719  31.289  27.554  1.00  0.00     0.039 A 
ATOM     29  C   UNL A   1      35.194  29.991  27.450  1.00  0.00     0.014 A 
ATOM     30  C   UNL A   1      35.631  32.265  27.976  1.00  0.00     0.014 A 
ATOM     31  C   UNL A   1      36.303  29.610  28.218  1.00  0.00     0.010 A 
ATOM     32  C   UNL A   1      36.884  31.889  28.526  1.00  0.00     0.010 A 
ATOM     33  C   UNL A   1      37.192  30.541  28.780  1.00  0.00    -0.014 A 
BRANCH  33  34
ATOM     34  C   UNL A   1      38.372  30.086  29.626  1.00  0.00     0.031 A 
ATOM     35  C   UNL A   1      39.462  29.168  29.073  1.00  0.00     0.074 A 
ATOM     36  C   UNL A   1      38.552  30.542  30.890  1.00  0.00     0.049 A 
ATOM     37  N   UNL A   1      40.458  28.578  29.701  1.00  0.00    -0.248 NA
ATOM     38  C   UNL A   1      39.440  28.880  27.631  1.00  0.00     0.031 C 
ATOM     39  C   UNL A   1      37.672  31.479  31.591  1.00  0.00     0.029 A 
ATOM     40  N   UNL A   1      39.553  30.306  31.814  1.00  0.00    -0.354 N 
ATOM     41  C   UNL A   1      41.136  27.817  28.750  1.00  0.00     0.074 A 
ATOM     42  C   UNL A   1      40.439  28.016  27.497  1.00  0.00     0.031 C 
ATOM     43  C   UNL A   1      38.212  31.814  32.768  1.00  0.00     0.029 A 
ATOM     44  C   UNL A   1      39.388  30.989  32.999  1.00  0.00     0.049 A 
ATOM     45  H   UNL A   1      40.313  29.706  31.641  1.00  0.00     0.167 HD
ATOM     46  C   UNL A   1      42.233  27.026  28.896  1.00  0.00     0.037 A 
ATOM     47  C   UNL A   1      40.041  30.929  34.178  1.00  0.00     0.037 A 
ATOM     48  C   UNL A   1      42.970  26.851  30.127  1.00  0.00     0.049 A 
ATOM     49  C   UNL A   1      41.180  29.967  34.351  1.00  0.00     0.074 A 
ATOM     50  C   UNL A   1      44.079  26.051  30.361  1.00  0.00     0.029 A 
ATOM     51  N   UNL A   1      42.690  27.493  31.323  1.00  0.00    -0.354 N 
ATOM     52  N   UNL A   1      41.741  29.185  33.464  1.00  0.00    -0.248 NA
ATOM     53  C   UNL A   1      41.759  29.861  35.698  1.00  0.00     0.031 C 
ATOM     54  C   UNL A   1      44.433  26.165  31.710  1.00  0.00     0.029 A 
ATOM     55  C   UNL A   1      43.589  27.088  32.301  1.00  0.00     0.049 A 
ATOM     56  H   UNL A   1      41.963  28.141  31.459  1.00  0.00     0.167 HD
ATOM     57  C   UNL A   1      42.746  28.506  34.138  1.00  0.00     0.074 A 
ATOM     58  C   UNL A   1      42.736  28.987  35.503  1.00  0.00     0.031 C 
ATOM     59  C   UNL A   1      43.594  27.564  33.661  1.00  0.00     0.037 A 
BRANCH  46  60
ATOM     60  C   UNL A   1      42.712  26.238  27.702  1.00  0.00     0.064 A 
ATOM     61  C   UNL A   1      43.737  26.700  26.864  1.00  0.00     0.173 A 
ATOM     62  C   UNL A   1      42.197  24.953  27.450  1.00  0.00     0.173 A 
ATOM     63  F   UNL A   1      44.265  27.919  27.052  1.00  0.00    -0.203 F 
ATOM     64  C   UNL A   1      44.214  25.918  25.811  1.00  0.00     0.198 A 
ATOM     65  C   UNL A   1      42.698  24.162  26.418  1.00  0.00     0.198 A 
ATOM     66  F   UNL A   1      41.229  24.449  28.230  1.00  0.00    -0.203 F 
ATOM     67  F   UNL A   1      45.169  26.398  25.002  1.00  0.00    -0.200 F 
ATOM     68  C   UNL A   1      43.702  24.647  25.595  1.00  0.00     0.200 A 
ATOM     69  F   UNL A   1      42.217  22.926  26.226  1.00  0.00    -0.200 F 
ATOM     70  F   UNL A   1      44.174  23.893  24.593  1.00  0.00    -0.200 F 
ENDBRANCH  46  60
BRANCH  47  71
ATOM     71  C   UNL A   1      39.581  31.770  35.321  1.00  0.00     0.064 A 
ATOM     72  C   UNL A   1      38.635  31.292  36.238  1.00  0.00     0.173 A 
ATOM     73  C   UNL A   1      40.090  33.063  35.529  1.00  0.00     0.173 A 
ATOM     74  F   UNL A   1      38.090  30.079  36.067  1.00  0.00    -0.203 F 
ATOM     75  C   UNL A   1      38.223  32.070  37.320  1.00  0.00     0.198 A 
ATOM     76  C   UNL A   1      39.710  33.822  36.633  1.00  0.00     0.198 A 
ATOM     77  F   UNL A   1      40.991  33.576  34.678  1.00  0.00    -0.203 F 
ATOM     78  F   UNL A   1      37.290  31.603  38.160  1.00  0.00    -0.200 F 
ATOM     79  C   UNL A   1      38.771  33.327  37.525  1.00  0.00     0.200 A 
ATOM     80  F   UNL A   1      40.261  35.026  36.837  1.00  0.00    -0.200 F 
ATOM     81  F   UNL A   1      38.394  34.063  38.579  1.00  0.00    -0.200 F 
ENDBRANCH  47  71
BRANCH  59  82
ATOM     82  C   UNL A   1      44.619  27.006  34.608  1.00  0.00     0.064 A 
ATOM     83  C   UNL A   1      45.865  27.623  34.794  1.00  0.00     0.173 A 
ATOM     84  C   UNL A   1      44.338  25.859  35.365  1.00  0.00     0.173 A 
ATOM     85  F   UNL A   1      46.192  28.713  34.082  1.00  0.00    -0.203 F 
ATOM     86  C   UNL A   1      46.800  27.100  35.684  1.00  0.00     0.198 A 
ATOM     87  C   UNL A   1      45.262  25.357  36.279  1.00  0.00     0.198 A 
ATOM     88  F   UNL A   1      43.160  25.230  35.231  1.00  0.00    -0.203 F 
ATOM     89  F   UNL A   1      48.003  27.678  35.807  1.00  0.00    -0.200 F 
ATOM     90  C   UNL A   1      46.494  25.973  36.432  1.00  0.00     0.200 A 
ATOM     91  F   UNL A   1      44.958  24.277  37.012  1.00  0.00    -0.200 F 
ATOM     92  F   UNL A   1      47.390  25.476  37.296  1.00  0.00    -0.200 F 
ENDBRANCH  59  82
ENDBRANCH  33  34
ENDBRANCH  25  28
ENDBRANCH  23  24
ENDBRANCH  22  23
ENDBRANCH   1  22
TORSDOF 14
ENDMDL
MODEL 2
REMARK VINA RESULT:     -13.1      1.694      7.806
REMARK SMILES [NH3+][C@@H](CCC1=c2ccccc2=NC1)C(=O)NCCCNC(=O)c1ccc(-c2c3nc(c(-c4c(F)c(F)c(F)c(F)c4F)c4ccc([nH]4)c(-c4c(F)c(F)c(F)c(F)c4F)c4nc(c(-c5c(F)c(F)c(F)c(F)c5F)c5ccc2[nH]5)C=C4)C=C3)cc1
REMARK SMILES IDX 17 1 16 2 14 3 15 4 2 6 1 7 3 11 4 12 5 13 6 14 13 15 7 16
REMARK SMILES IDX 11 17 12 18 8 19 10 20 9 21 18 22 19 23 20 24 21 25 22 27
REMARK SMILES IDX 23 28 24 29 85 30 25 31 84 32 26 33 27 34 28 35 78 36 29 37
REMARK SMILES IDX 83 38 77 39 79 40 30 41 82 42 76 43 75 44 31 46 63 47 43 48
REMARK SMILES IDX 62 49 44 50 47 51 61 52 80 53 45 54 46 55 60 57 81 58 48 59
REMARK SMILES IDX 32 60 33 61 41 62 34 63 35 64 39 65 42 66 36 67 37 68 40 69
REMARK SMILES IDX 38 70 64 71 65 72 73 73 66 74 67 75 71 76 74 77 68 78 69 79
REMARK SMILES IDX 72 80 70 81 49 82 50 83 58 84 51 85 52 86 56 87 59 88 53 89
REMARK SMILES IDX 54 90 57 91 55 92
REMARK H PARENT 16 5 1 8 1 9 1 10 20 26 79 45 47 56
REMARK Flexibility Score: inf
ROOT
ATOM      1  C   UNL A   1      32.789  29.919  25.934  1.00  0.00     0.118 C 
ENDROOT
BRANCH   1   2
ATOM      2  N   UNL A   1      33.588  29.528  24.803  1.00  0.00    -0.351 N 
ATOM      3  C   UNL A   1      33.604  28.337  24.144  1.00  0.00     0.278 C 
ATOM      4  O   UNL A   1      34.205  28.293  23.068  1.00  0.00    -0.268 OA
ATOM      5  H   UNL A   1      34.204  30.214  24.458  1.00  0.00     0.163 HD
BRANCH   3   6
ATOM      6  C   UNL A   1      32.923  27.087  24.732  1.00  0.00     0.271 C 
BRANCH   6   7
ATOM      7  N   UNL A   1      32.224  26.274  23.715  1.00  0.00    -0.347 N 
ATOM      8  H   UNL A   1      32.908  25.753  23.166  1.00  0.00     0.345 HD
ATOM      9  H   UNL A   1      31.689  26.887  23.098  1.00  0.00     0.345 HD
ATOM     10  H   UNL A   1      31.592  25.621  24.176  1.00  0.00     0.345 HD
ENDBRANCH   6   7
BRANCH   6  11
ATOM     11  C   UNL A   1      33.747  26.274  25.752  1.00  0.00     0.080 C 
BRANCH  11  12
ATOM     12  C   UNL A   1      34.466  24.942  25.396  1.00  0.00     0.040 C 
BRANCH  12  13
ATOM     13  C   UNL A   1      33.859  23.627  25.826  1.00  0.00    -0.039 C 
ATOM     14  C   UNL A   1      33.032  22.831  25.134  1.00  0.00     0.001 A 
ATOM     15  C   UNL A   1      34.317  22.958  27.149  1.00  0.00     0.174 C 
ATOM     16  C   UNL A   1      32.341  22.638  23.429  1.00  0.00     0.010 A 
ATOM     17  C   UNL A   1      33.347  21.219  26.142  1.00  0.00     0.065 A 
ATOM     18  N   UNL A   1      33.979  21.476  27.238  1.00  0.00    -0.280 NA
ATOM     19  C   UNL A   1      32.142  21.171  22.761  1.00  0.00     0.001 A 
ATOM     20  C   UNL A   1      32.969  19.550  25.244  1.00  0.00     0.028 A 
ATOM     21  C   UNL A   1      32.550  19.563  23.707  1.00  0.00     0.002 A 
ENDBRANCH  12  13
ENDBRANCH  11  12
ENDBRANCH   6  11
ENDBRANCH   3   6
ENDBRANCH   1   2
BRANCH   1  22
ATOM     22  C   UNL A   1      31.395  30.356  25.520  1.00  0.00     0.042 C 
BRANCH  22  23
ATOM     23  C   UNL A   1      31.021  31.940  26.119  1.00  0.00     0.118 C 
BRANCH  23  24
ATOM     24  N   UNL A   1      32.128  33.321  27.234  1.00  0.00    -0.352 N 
ATOM     25  C   UNL A   1      33.407  33.746  27.877  1.00  0.00     0.251 C 
ATOM     26  H   UNL A   1      31.495  34.047  27.434  1.00  0.00     0.163 HD
ATOM     27  O   UNL A   1      33.370  34.833  28.465  1.00  0.00    -0.269 OA
BRANCH  25  28
ATOM     28  C   UNL A   1      34.715  32.977  27.993  1.00  0.00     0.039 A 
ATOM     29  C   UNL A   1      34.740  31.596  28.108  1.00  0.00     0.014 A 
ATOM     30  C   UNL A   1      35.936  33.646  28.146  1.00  0.00     0.014 A 
ATOM     31  C   UNL A   1      35.767  30.994  28.848  1.00  0.00     0.010 A 
ATOM     32  C   UNL A   1      37.070  32.966  28.661  1.00  0.00     0.010 A 
ATOM     33  C   UNL A   1      36.971  31.651  29.148  1.00  0.00    -0.014 A 
BRANCH  33  34
ATOM     34  C   UNL A   1      38.052  30.968  29.972  1.00  0.00     0.031 A 
ATOM     35  C   UNL A   1      38.217  31.225  31.470  1.00  0.00     0.074 A 
ATOM     36  C   UNL A   1      38.871  30.034  29.427  1.00  0.00     0.049 A 
ATOM     37  N   UNL A   1      39.172  30.831  32.287  1.00  0.00    -0.248 NA
ATOM     38  C   UNL A   1      37.176  32.018  32.141  1.00  0.00     0.031 C 
ATOM     39  C   UNL A   1      38.842  29.584  28.034  1.00  0.00     0.029 A 
ATOM     40  N   UNL A   1      39.877  29.265  29.980  1.00  0.00    -0.354 N 
ATOM     41  C   UNL A   1      38.875  31.369  33.538  1.00  0.00     0.074 A 
ATOM     42  C   UNL A   1      37.649  32.123  33.377  1.00  0.00     0.031 C 
ATOM     43  C   UNL A   1      39.694  28.567  27.868  1.00  0.00     0.029 A 
ATOM     44  C   UNL A   1      40.468  28.397  29.089  1.00  0.00     0.049 A 
ATOM     45  H   UNL A   1      40.147  29.331  30.925  1.00  0.00     0.167 HD
ATOM     46  C   UNL A   1      39.551  31.253  34.713  1.00  0.00     0.037 A 
ATOM     47  C   UNL A   1      41.551  27.598  29.183  1.00  0.00     0.037 A 
ATOM     48  C   UNL A   1      40.749  30.469  34.906  1.00  0.00     0.049 A 
ATOM     49  C   UNL A   1      42.347  27.570  30.455  1.00  0.00     0.074 A 
ATOM     50  C   UNL A   1      41.504  30.317  36.059  1.00  0.00     0.029 A 
ATOM     51  N   UNL A   1      41.358  29.691  33.933  1.00  0.00    -0.354 N 
ATOM     52  N   UNL A   1      42.102  28.166  31.595  1.00  0.00    -0.248 NA
ATOM     53  C   UNL A   1      43.587  26.780  30.444  1.00  0.00     0.031 C 
ATOM     54  C   UNL A   1      42.600  29.497  35.770  1.00  0.00     0.029 A 
ATOM     55  C   UNL A   1      42.492  29.080  34.455  1.00  0.00     0.049 A 
ATOM     56  H   UNL A   1      41.035  29.587  33.010  1.00  0.00     0.167 HD
ATOM     57  C   UNL A   1      43.145  27.811  32.440  1.00  0.00     0.074 A 
ATOM     58  C   UNL A   1      44.013  26.928  31.691  1.00  0.00     0.031 C 
ATOM     59  C   UNL A   1      43.359  28.194  33.721  1.00  0.00     0.037 A 
BRANCH  46  60
ATOM     60  C   UNL A   1      39.044  32.021  35.909  1.00  0.00     0.064 A 
ATOM     61  C   UNL A   1      38.216  31.436  36.877  1.00  0.00     0.173 A 
ATOM     62  C   UNL A   1      39.476  33.341  36.136  1.00  0.00     0.173 A 
ATOM     63  F   UNL A   1      37.769  30.182  36.714  1.00  0.00    -0.203 F 
ATOM     64  C   UNL A   1      37.824  32.145  38.014  1.00  0.00     0.198 A 
ATOM     65  C   UNL A   1      39.110  34.035  37.288  1.00  0.00     0.198 A 
ATOM     66  F   UNL A   1      40.286  33.948  35.255  1.00  0.00    -0.203 F 
ATOM     67  F   UNL A   1      37.002  31.575  38.906  1.00  0.00    -0.200 F 
ATOM     68  C   UNL A   1      38.278  33.439  38.223  1.00  0.00     0.200 A 
ATOM     69  F   UNL A   1      39.568  35.276  37.497  1.00  0.00    -0.200 F 
ATOM     70  F   UNL A   1      37.913  34.110  39.323  1.00  0.00    -0.200 F 
ENDBRANCH  46  60
BRANCH  47  71
ATOM     71  C   UNL A   1      41.988  26.802  28.000  1.00  0.00     0.064 A 
ATOM     72  C   UNL A   1      41.517  25.498  27.790  1.00  0.00     0.173 A 
ATOM     73  C   UNL A   1      42.872  27.334  27.046  1.00  0.00     0.173 A 
ATOM     74  F   UNL A   1      40.699  24.929  28.687  1.00  0.00    -0.203 F 
ATOM     75  C   UNL A   1      41.908  24.763  26.671  1.00  0.00     0.198 A 
ATOM     76  C   UNL A   1      43.227  26.615  25.909  1.00  0.00     0.198 A 
ATOM     77  F   UNL A   1      43.362  28.573  27.201  1.00  0.00    -0.203 F 
ATOM     78  F   UNL A   1      41.472  23.507  26.514  1.00  0.00    -0.200 F 
ATOM     79  C   UNL A   1      42.750  25.327  25.724  1.00  0.00     0.200 A 
ATOM     80  F   UNL A   1      44.023  27.173  24.986  1.00  0.00    -0.200 F 
ATOM     81  F   UNL A   1      43.103  24.629  24.636  1.00  0.00    -0.200 F 
ENDBRANCH  47  71
BRANCH  59  82
ATOM     82  C   UNL A   1      44.563  27.633  34.424  1.00  0.00     0.064 A 
ATOM     83  C   UNL A   1      45.789  28.313  34.443  1.00  0.00     0.173 A 
ATOM     84  C   UNL A   1      44.479  26.416  35.117  1.00  0.00     0.173 A 
ATOM     85  F   UNL A   1      45.930  29.472  33.782  1.00  0.00    -0.203 F 
ATOM     86  C   UNL A   1      46.893  27.784  35.109  1.00  0.00     0.198 A 
ATOM     87  C   UNL A   1      45.574  25.906  35.810  1.00  0.00     0.198 A 
ATOM     88  F   UNL A   1      43.328  25.725  35.135  1.00  0.00    -0.203 F 
ATOM     89  F   UNL A   1      48.068  28.427  35.071  1.00  0.00    -0.200 F 
ATOM     90  C   UNL A   1      46.782  26.586  35.799  1.00  0.00     0.200 A 
ATOM     91  F   UNL A   1      45.460  24.756  36.489  1.00  0.00    -0.200 F 
ATOM     92  F   UNL A   1      47.841  26.083  36.449  1.00  0.00    -0.200 F 
ENDBRANCH  59  82
ENDBRANCH  33  34
ENDBRANCH  25  28
ENDBRANCH  23  24
ENDBRANCH  22  23
ENDBRANCH   1  22
TORSDOF 14
ENDMDL
MODEL 3
REMARK VINA RESULT:     -13.1      1.263      2.393
REMARK SMILES [NH3+][C@@H](CCC1=c2ccccc2=NC1)C(=O)NCCCNC(=O)c1ccc(-c2c3nc(c(-c4c(F)c(F)c(F)c(F)c4F)c4ccc([nH]4)c(-c4c(F)c(F)c(F)c(F)c4F)c4nc(c(-c5c(F)c(F)c(F)c(F)c5F)c5ccc2[nH]5)C=C4)C=C3)cc1
REMARK SMILES IDX 17 1 16 2 14 3 15 4 2 6 1 7 3 11 4 12 5 13 6 14 13 15 7 16
REMARK SMILES IDX 11 17 12 18 8 19 10 20 9 21 18 22 19 23 20 24 21 25 22 27
REMARK SMILES IDX 23 28 24 29 85 30 25 31 84 32 26 33 27 34 28 35 78 36 29 37
REMARK SMILES IDX 83 38 77 39 79 40 30 41 82 42 76 43 75 44 31 46 63 47 43 48
REMARK SMILES IDX 62 49 44 50 47 51 61 52 80 53 45 54 46 55 60 57 81 58 48 59
REMARK SMILES IDX 32 60 33 61 41 62 34 63 35 64 39 65 42 66 36 67 37 68 40 69
REMARK SMILES IDX 38 70 64 71 65 72 73 73 66 74 67 75 71 76 74 77 68 78 69 79
REMARK SMILES IDX 72 80 70 81 49 82 50 83 58 84 51 85 52 86 56 87 59 88 53 89
REMARK SMILES IDX 54 90 57 91 55 92
REMARK H PARENT 16 5 1 8 1 9 1 10 20 26 79 45 47 56
REMARK Flexibility Score: inf
ROOT
ATOM      1  C   UNL A   1      33.093  28.477  24.462  1.00  0.00     0.118 C 
ENDROOT
BRANCH   1   2
ATOM      2  N   UNL A   1      33.664  27.159  24.381  1.00  0.00    -0.351 N 
ATOM      3  C   UNL A   1      33.405  26.174  23.479  1.00  0.00     0.278 C 
ATOM      4  O   UNL A   1      34.167  25.204  23.464  1.00  0.00    -0.268 OA
ATOM      5  H   UNL A   1      34.333  26.941  25.071  1.00  0.00     0.163 HD
BRANCH   3   6
ATOM      6  C   UNL A   1      32.193  26.253  22.532  1.00  0.00     0.271 C 
BRANCH   6   7
ATOM      7  N   UNL A   1      32.499  25.802  21.158  1.00  0.00    -0.347 N 
ATOM      8  H   UNL A   1      31.867  25.044  20.901  1.00  0.00     0.345 HD
ATOM      9  H   UNL A   1      33.463  25.471  21.115  1.00  0.00     0.345 HD
ATOM     10  H   UNL A   1      32.377  26.579  20.510  1.00  0.00     0.345 HD
ENDBRANCH   6   7
BRANCH   6  11
ATOM     11  C   UNL A   1      30.851  25.742  23.095  1.00  0.00     0.080 C 
BRANCH  11  12
ATOM     12  C   UNL A   1      30.572  24.244  23.402  1.00  0.00     0.040 C 
BRANCH  12  13
ATOM     13  C   UNL A   1      31.026  23.653  24.717  1.00  0.00    -0.039 C 
ATOM     14  C   UNL A   1      31.939  22.693  24.922  1.00  0.00     0.001 A 
ATOM     15  C   UNL A   1      30.551  24.281  26.053  1.00  0.00     0.174 C 
ATOM     16  C   UNL A   1      33.226  21.737  24.002  1.00  0.00     0.010 A 
ATOM     17  C   UNL A   1      32.294  23.088  26.774  1.00  0.00     0.065 A 
ATOM     18  N   UNL A   1      31.406  23.895  27.252  1.00  0.00    -0.280 NA
ATOM     19  C   UNL A   1      34.654  21.370  24.686  1.00  0.00     0.001 A 
ATOM     20  C   UNL A   1      33.997  22.501  27.472  1.00  0.00     0.028 A 
ATOM     21  C   UNL A   1      35.066  21.848  26.488  1.00  0.00     0.002 A 
ENDBRANCH  12  13
ENDBRANCH  11  12
ENDBRANCH   6  11
ENDBRANCH   3   6
ENDBRANCH   1   2
BRANCH   1  22
ATOM     22  C   UNL A   1      31.879  28.514  25.376  1.00  0.00     0.042 C 
BRANCH  22  23
ATOM     23  C   UNL A   1      31.365  30.142  25.683  1.00  0.00     0.118 C 
BRANCH  23  24
ATOM     24  N   UNL A   1      32.154  31.666  26.878  1.00  0.00    -0.352 N 
ATOM     25  C   UNL A   1      33.310  32.306  27.573  1.00  0.00     0.251 C 
ATOM     26  H   UNL A   1      31.387  32.246  27.085  1.00  0.00     0.163 HD
ATOM     27  O   UNL A   1      33.048  33.342  28.197  1.00  0.00    -0.269 OA
BRANCH  25  28
ATOM     28  C   UNL A   1      34.741  31.804  27.701  1.00  0.00     0.039 A 
ATOM     29  C   UNL A   1      35.040  30.451  27.690  1.00  0.00     0.014 A 
ATOM     30  C   UNL A   1      35.792  32.682  27.992  1.00  0.00     0.014 A 
ATOM     31  C   UNL A   1      36.135  29.990  28.434  1.00  0.00     0.010 A 
ATOM     32  C   UNL A   1      37.018  32.191  28.513  1.00  0.00     0.010 A 
ATOM     33  C   UNL A   1      37.166  30.839  28.870  1.00  0.00    -0.014 A 
BRANCH  33  34
ATOM     34  C   UNL A   1      38.327  30.302  29.695  1.00  0.00     0.031 A 
ATOM     35  C   UNL A   1      39.378  29.363  29.105  1.00  0.00     0.074 A 
ATOM     36  C   UNL A   1      38.525  30.701  30.976  1.00  0.00     0.049 A 
ATOM     37  N   UNL A   1      40.348  28.707  29.708  1.00  0.00    -0.248 NA
ATOM     38  C   UNL A   1      39.344  29.132  27.653  1.00  0.00     0.031 C 
ATOM     39  C   UNL A   1      37.685  31.646  31.714  1.00  0.00     0.029 A 
ATOM     40  N   UNL A   1      39.515  30.388  31.888  1.00  0.00    -0.354 N 
ATOM     41  C   UNL A   1      40.994  27.956  28.727  1.00  0.00     0.074 A 
ATOM     42  C   UNL A   1      40.306  28.233  27.484  1.00  0.00     0.031 C 
ATOM     43  C   UNL A   1      38.238  31.912  32.903  1.00  0.00     0.029 A 
ATOM     44  C   UNL A   1      39.380  31.030  33.099  1.00  0.00     0.049 A 
ATOM     45  H   UNL A   1      40.250  29.763  31.690  1.00  0.00     0.167 HD
ATOM     46  C   UNL A   1      42.057  27.116  28.841  1.00  0.00     0.037 A 
ATOM     47  C   UNL A   1      40.029  30.897  34.274  1.00  0.00     0.037 A 
ATOM     48  C   UNL A   1      42.786  26.862  30.062  1.00  0.00     0.049 A 
ATOM     49  C   UNL A   1      41.127  29.883  34.407  1.00  0.00     0.074 A 
ATOM     50  C   UNL A   1      43.861  26.008  30.264  1.00  0.00     0.029 A 
ATOM     51  N   UNL A   1      42.533  27.468  31.283  1.00  0.00    -0.354 N 
ATOM     52  N   UNL A   1      41.655  29.112  33.490  1.00  0.00    -0.248 NA
ATOM     53  C   UNL A   1      41.701  29.699  35.749  1.00  0.00     0.031 C 
ATOM     54  C   UNL A   1      44.219  26.054  31.615  1.00  0.00     0.029 A 
ATOM     55  C   UNL A   1      43.414  26.988  32.244  1.00  0.00     0.049 A 
ATOM     56  H   UNL A   1      41.833  28.140  31.445  1.00  0.00     0.167 HD
ATOM     57  C   UNL A   1      42.631  28.367  34.135  1.00  0.00     0.074 A 
ATOM     58  C   UNL A   1      42.641  28.794  35.518  1.00  0.00     0.031 C 
ATOM     59  C   UNL A   1      43.438  27.410  33.621  1.00  0.00     0.037 A 
BRANCH  46  60
ATOM     60  C   UNL A   1      42.503  26.356  27.615  1.00  0.00     0.064 A 
ATOM     61  C   UNL A   1      43.507  26.836  26.763  1.00  0.00     0.173 A 
ATOM     62  C   UNL A   1      41.978  25.078  27.346  1.00  0.00     0.173 A 
ATOM     63  F   UNL A   1      44.043  28.048  26.967  1.00  0.00    -0.203 F 
ATOM     64  C   UNL A   1      43.955  26.078  25.679  1.00  0.00     0.198 A 
ATOM     65  C   UNL A   1      42.451  24.311  26.283  1.00  0.00     0.198 A 
ATOM     66  F   UNL A   1      41.030  24.557  28.139  1.00  0.00    -0.203 F 
ATOM     67  F   UNL A   1      44.890  26.575  24.858  1.00  0.00    -0.200 F 
ATOM     68  C   UNL A   1      43.434  24.814  25.446  1.00  0.00     0.200 A 
ATOM     69  F   UNL A   1      41.961  23.081  26.074  1.00  0.00    -0.200 F 
ATOM     70  F   UNL A   1      43.878  24.083  24.415  1.00  0.00    -0.200 F 
ENDBRANCH  46  60
BRANCH  47  71
ATOM     71  C   UNL A   1      39.604  31.711  35.450  1.00  0.00     0.064 A 
ATOM     72  C   UNL A   1      40.190  32.955  35.720  1.00  0.00     0.173 A 
ATOM     73  C   UNL A   1      38.592  31.268  36.319  1.00  0.00     0.173 A 
ATOM     74  F   UNL A   1      41.185  33.409  34.944  1.00  0.00    -0.203 F 
ATOM     75  C   UNL A   1      39.776  33.726  36.806  1.00  0.00     0.198 A 
ATOM     76  C   UNL A   1      38.151  32.058  37.377  1.00  0.00     0.198 A 
ATOM     77  F   UNL A   1      38.002  30.081  36.114  1.00  0.00    -0.203 F 
ATOM     78  F   UNL A   1      40.378  34.895  37.062  1.00  0.00    -0.200 F 
ATOM     79  C   UNL A   1      38.747  33.284  37.624  1.00  0.00     0.200 A 
ATOM     80  F   UNL A   1      37.141  31.635  38.150  1.00  0.00    -0.200 F 
ATOM     81  F   UNL A   1      38.332  34.038  38.652  1.00  0.00    -0.200 F 
ENDBRANCH  47  71
BRANCH  59  82
ATOM     82  C   UNL A   1      44.440  26.773  34.543  1.00  0.00     0.064 A 
ATOM     83  C   UNL A   1      45.701  27.343  34.769  1.00  0.00     0.173 A 
ATOM     84  C   UNL A   1      44.119  25.597  35.237  1.00  0.00     0.173 A 
ATOM     85  F   UNL A   1      46.065  28.458  34.118  1.00  0.00    -0.203 F 
ATOM     86  C   UNL A   1      46.613  26.746  35.637  1.00  0.00     0.198 A 
ATOM     87  C   UNL A   1      45.021  25.021  36.129  1.00  0.00     0.198 A 
ATOM     88  F   UNL A   1      42.925  25.011  35.062  1.00  0.00    -0.203 F 
ATOM     89  F   UNL A   1      47.832  27.281  35.798  1.00  0.00    -0.200 F 
ATOM     90  C   UNL A   1      46.269  25.591  36.323  1.00  0.00     0.200 A 
ATOM     91  F   UNL A   1      44.680  23.913  36.802  1.00  0.00    -0.200 F 
ATOM     92  F   UNL A   1      47.144  25.023  37.165  1.00  0.00    -0.200 F 
ENDBRANCH  59  82
ENDBRANCH  33  34
ENDBRANCH  25  28
ENDBRANCH  23  24
ENDBRANCH  22  23
ENDBRANCH   1  22
TORSDOF 14
ENDMDL
