MODEL 1
REMARK VINA RESULT:     -13.0      0.000      0.000
REMARK SMILES C[C@@H]1CN(C(=O)Nc2ccc(O)c(C(=O)NCCCNC(=O)c3ccc(-c4c5nc(c(-c6c(F)c(F)c(F)c(F)c6F)c6ccc([nH]6)c(-c6c(F)c(F)c(F)c(F)c6F)c6nc(c(-c7c(F)c(F)c(F)c(F)c7F)c7ccc4[nH]7)C=C6)C=C5)cc3)c2)C[C@@H]1C
REMARK SMILES IDX 18 1 17 2 16 3 14 4 15 5 13 7 8 8 9 9 86 10 10 11 11 12 7 13
REMARK SMILES IDX 5 14 6 15 4 17 1 18 2 19 3 20 88 21 87 22 89 23 12 24 19 26
REMARK SMILES IDX 20 27 21 28 22 30 23 31 24 32 85 33 25 34 84 35 26 36 27 37
REMARK SMILES IDX 28 38 78 39 29 40 83 41 77 42 79 43 30 44 82 45 76 46 75 47
REMARK SMILES IDX 31 49 63 50 43 51 62 52 44 53 47 54 61 55 80 56 45 57 46 58
REMARK SMILES IDX 60 60 81 61 48 62 32 63 33 64 41 65 34 66 35 67 39 68 42 69
REMARK SMILES IDX 36 70 37 71 40 72 38 73 64 74 65 75 73 76 66 77 67 78 71 79
REMARK SMILES IDX 74 80 68 81 69 82 72 83 70 84 49 85 50 86 58 87 51 88 52 89
REMARK SMILES IDX 56 90 59 91 53 92 54 93 57 94 55 95
REMARK H PARENT 16 6 7 16 12 25 20 29 79 48 47 59
REMARK Flexibility Score: inf
ROOT
ATOM      1  C   UNL A   1      31.358  32.241  26.507  1.00  0.00     0.042 C 
ENDROOT
BRANCH   1   2
ATOM      2  C   UNL A   1      31.379  30.727  26.298  1.00  0.00     0.118 C 
BRANCH   2   3
ATOM      3  N   UNL A   1      32.377  30.347  25.319  1.00  0.00    -0.352 N 
ATOM      4  C   UNL A   1      32.476  29.278  24.469  1.00  0.00     0.255 C 
ATOM      5  O   UNL A   1      33.469  29.245  23.737  1.00  0.00    -0.269 OA
ATOM      6  H   UNL A   1      33.128  30.978  25.252  1.00  0.00     0.163 HD
BRANCH   4   7
ATOM      7  C   UNL A   1      31.443  28.219  24.292  1.00  0.00     0.083 A 
ATOM      8  C   UNL A   1      30.379  26.317  25.385  1.00  0.00     0.043 A 
ATOM      9  C   UNL A   1      29.479  26.202  24.332  1.00  0.00     0.030 A 
ATOM     10  C   UNL A   1      31.297  27.366  25.403  1.00  0.00     0.044 A 
ATOM     11  C   UNL A   1      29.593  27.043  23.232  1.00  0.00     0.049 A 
ATOM     12  C   UNL A   1      30.587  28.028  23.200  1.00  0.00     0.128 A 
BRANCH   8  13
ATOM     13  N   UNL A   1      30.391  25.408  26.443  1.00  0.00    -0.308 N 
ATOM     14  C   UNL A   1      30.755  24.096  26.477  1.00  0.00     0.321 C 
ATOM     15  O   UNL A   1      30.269  23.390  27.363  1.00  0.00    -0.248 OA
ATOM     16  H   UNL A   1      30.088  25.774  27.304  1.00  0.00     0.171 HD
BRANCH  14  17
ATOM     17  N   UNL A   1      31.750  23.634  25.646  1.00  0.00    -0.324 N 
ATOM     18  C   UNL A   1      33.310  23.228  22.292  1.00  0.00     0.010 C 
ATOM     19  C   UNL A   1      33.128  23.061  23.790  1.00  0.00     0.010 C 
ATOM     20  C   UNL A   1      31.677  23.262  24.234  1.00  0.00     0.125 C 
ATOM     21  C   UNL A   1      33.895  24.020  24.711  1.00  0.00     0.010 C 
ATOM     22  C   UNL A   1      33.141  23.816  26.034  1.00  0.00     0.125 C 
ATOM     23  C   UNL A   1      33.857  25.481  24.257  1.00  0.00     0.010 C 
ENDBRANCH  14  17
ENDBRANCH   8  13
BRANCH  12  24
ATOM     24  O   UNL A   1      30.649  28.794  22.078  1.00  0.00    -0.507 OA
ATOM     25  H   UNL A   1      30.536  28.401  21.234  1.00  0.00     0.293 HD
ENDBRANCH  12  24
ENDBRANCH   4   7
ENDBRANCH   2   3
ENDBRANCH   1   2
BRANCH   1  26
ATOM     26  C   UNL A   1      32.617  32.806  27.150  1.00  0.00     0.118 C 
BRANCH  26  27
ATOM     27  N   UNL A   1      32.435  34.166  27.626  1.00  0.00    -0.352 N 
ATOM     28  C   UNL A   1      33.044  34.832  28.662  1.00  0.00     0.251 C 
ATOM     29  H   UNL A   1      31.770  34.694  27.128  1.00  0.00     0.163 HD
ATOM     30  O   UNL A   1      32.591  35.913  29.028  1.00  0.00    -0.269 OA
BRANCH  28  31
ATOM     31  C   UNL A   1      34.225  34.265  29.359  1.00  0.00     0.039 A 
ATOM     32  C   UNL A   1      34.015  33.501  30.512  1.00  0.00     0.014 A 
ATOM     33  C   UNL A   1      35.531  34.525  28.935  1.00  0.00     0.014 A 
ATOM     34  C   UNL A   1      35.102  32.957  31.204  1.00  0.00     0.010 A 
ATOM     35  C   UNL A   1      36.612  33.923  29.581  1.00  0.00     0.010 A 
ATOM     36  C   UNL A   1      36.410  33.140  30.728  1.00  0.00    -0.014 A 
BRANCH  36  37
ATOM     37  C   UNL A   1      37.574  32.527  31.419  1.00  0.00     0.031 A 
ATOM     38  C   UNL A   1      38.306  31.371  30.795  1.00  0.00     0.074 A 
ATOM     39  C   UNL A   1      37.931  32.968  32.641  1.00  0.00     0.049 A 
ATOM     40  N   UNL A   1      39.291  30.655  31.278  1.00  0.00    -0.248 NA
ATOM     41  C   UNL A   1      37.855  30.944  29.460  1.00  0.00     0.031 C 
ATOM     42  C   UNL A   1      37.269  34.047  33.377  1.00  0.00     0.029 A 
ATOM     43  N   UNL A   1      38.927  32.550  33.489  1.00  0.00    -0.354 N 
ATOM     44  C   UNL A   1      39.559  29.684  30.322  1.00  0.00     0.074 A 
ATOM     45  C   UNL A   1      38.612  29.878  29.245  1.00  0.00     0.031 C 
ATOM     46  C   UNL A   1      37.882  34.211  34.560  1.00  0.00     0.029 A 
ATOM     47  C   UNL A   1      38.956  33.230  34.682  1.00  0.00     0.049 A 
ATOM     48  H   UNL A   1      39.562  31.833  33.263  1.00  0.00     0.167 HD
ATOM     49  C   UNL A   1      40.520  28.729  30.333  1.00  0.00     0.037 A 
ATOM     50  C   UNL A   1      39.750  33.073  35.759  1.00  0.00     0.037 A 
ATOM     51  C   UNL A   1      41.489  28.565  31.385  1.00  0.00     0.049 A 
ATOM     52  C   UNL A   1      40.825  32.022  35.732  1.00  0.00     0.074 A 
ATOM     53  C   UNL A   1      42.555  27.684  31.446  1.00  0.00     0.029 A 
ATOM     54  N   UNL A   1      41.510  29.300  32.561  1.00  0.00    -0.354 N 
ATOM     55  N   UNL A   1      41.119  31.161  34.789  1.00  0.00    -0.248 NA
ATOM     56  C   UNL A   1      41.687  31.926  36.920  1.00  0.00     0.031 C 
ATOM     57  C   UNL A   1      43.197  27.857  32.676  1.00  0.00     0.029 A 
ATOM     58  C   UNL A   1      42.557  28.875  33.363  1.00  0.00     0.049 A 
ATOM     59  H   UNL A   1      40.875  30.016  32.791  1.00  0.00     0.167 HD
ATOM     60  C   UNL A   1      42.207  30.438  35.256  1.00  0.00     0.074 A 
ATOM     61  C   UNL A   1      42.535  30.972  36.561  1.00  0.00     0.031 C 
ATOM     62  C   UNL A   1      42.873  29.421  34.658  1.00  0.00     0.037 A 
BRANCH  49  63
ATOM     63  C   UNL A   1      40.581  27.783  29.170  1.00  0.00     0.064 A 
ATOM     64  C   UNL A   1      39.738  26.666  29.085  1.00  0.00     0.173 A 
ATOM     65  C   UNL A   1      41.452  28.033  28.098  1.00  0.00     0.173 A 
ATOM     66  F   UNL A   1      38.894  26.380  30.088  1.00  0.00    -0.203 F 
ATOM     67  C   UNL A   1      39.777  25.822  27.979  1.00  0.00     0.198 A 
ATOM     68  C   UNL A   1      41.471  27.201  26.981  1.00  0.00     0.198 A 
ATOM     69  F   UNL A   1      42.274  29.092  28.126  1.00  0.00    -0.203 F 
ATOM     70  F   UNL A   1      38.987  24.739  27.936  1.00  0.00    -0.200 F 
ATOM     71  C   UNL A   1      40.637  26.093  26.925  1.00  0.00     0.200 A 
ATOM     72  F   UNL A   1      42.292  27.471  25.959  1.00  0.00    -0.200 F 
ATOM     73  F   UNL A   1      40.665  25.286  25.856  1.00  0.00    -0.200 F 
ENDBRANCH  49  63
BRANCH  50  74
ATOM     74  C   UNL A   1      39.566  33.942  36.949  1.00  0.00     0.064 A 
ATOM     75  C   UNL A   1      38.810  33.510  38.047  1.00  0.00     0.173 A 
ATOM     76  C   UNL A   1      40.136  35.222  37.012  1.00  0.00     0.173 A 
ATOM     77  F   UNL A   1      38.227  32.302  38.025  1.00  0.00    -0.203 F 
ATOM     78  C   UNL A   1      38.613  34.333  39.154  1.00  0.00     0.198 A 
ATOM     79  C   UNL A   1      39.962  36.033  38.131  1.00  0.00     0.198 A 
ATOM     80  F   UNL A   1      40.874  35.679  35.990  1.00  0.00    -0.203 F 
ATOM     81  F   UNL A   1      37.849  33.912  40.171  1.00  0.00    -0.200 F 
ATOM     82  C   UNL A   1      39.194  35.591  39.197  1.00  0.00     0.200 A 
ATOM     83  F   UNL A   1      40.536  37.243  38.175  1.00  0.00    -0.200 F 
ATOM     84  F   UNL A   1      39.008  36.381  40.264  1.00  0.00    -0.200 F 
ENDBRANCH  50  74
BRANCH  62  85
ATOM     85  C   UNL A   1      44.039  28.835  35.397  1.00  0.00     0.064 A 
ATOM     86  C   UNL A   1      45.342  29.318  35.211  1.00  0.00     0.173 A 
ATOM     87  C   UNL A   1      43.844  27.805  36.330  1.00  0.00     0.173 A 
ATOM     88  F   UNL A   1      45.581  30.289  34.318  1.00  0.00    -0.203 F 
ATOM     89  C   UNL A   1      46.413  28.775  35.917  1.00  0.00     0.198 A 
ATOM     90  C   UNL A   1      44.912  27.284  37.054  1.00  0.00     0.198 A 
ATOM     91  F   UNL A   1      42.614  27.314  36.548  1.00  0.00    -0.203 F 
ATOM     92  F   UNL A   1      47.656  29.221  35.692  1.00  0.00    -0.200 F 
ATOM     93  C   UNL A   1      46.196  27.764  36.842  1.00  0.00     0.200 A 
ATOM     94  F   UNL A   1      44.700  26.315  37.955  1.00  0.00    -0.200 F 
ATOM     95  F   UNL A   1      47.227  27.248  37.525  1.00  0.00    -0.200 F 
ENDBRANCH  62  85
ENDBRANCH  36  37
ENDBRANCH  28  31
ENDBRANCH  26  27
ENDBRANCH   1  26
TORSDOF 13
ENDMDL
MODEL 2
REMARK VINA RESULT:     -13.0      5.380     10.335
REMARK SMILES C[C@@H]1CN(C(=O)Nc2ccc(O)c(C(=O)NCCCNC(=O)c3ccc(-c4c5nc(c(-c6c(F)c(F)c(F)c(F)c6F)c6ccc([nH]6)c(-c6c(F)c(F)c(F)c(F)c6F)c6nc(c(-c7c(F)c(F)c(F)c(F)c7F)c7ccc4[nH]7)C=C6)C=C5)cc3)c2)C[C@@H]1C
REMARK SMILES IDX 18 1 17 2 16 3 14 4 15 5 13 7 8 8 9 9 86 10 10 11 11 12 7 13
REMARK SMILES IDX 5 14 6 15 4 17 1 18 2 19 3 20 88 21 87 22 89 23 12 24 19 26
REMARK SMILES IDX 20 27 21 28 22 30 23 31 24 32 85 33 25 34 84 35 26 36 27 37
REMARK SMILES IDX 28 38 78 39 29 40 83 41 77 42 79 43 30 44 82 45 76 46 75 47
REMARK SMILES IDX 31 49 63 50 43 51 62 52 44 53 47 54 61 55 80 56 45 57 46 58
REMARK SMILES IDX 60 60 81 61 48 62 32 63 33 64 41 65 34 66 35 67 39 68 42 69
REMARK SMILES IDX 36 70 37 71 40 72 38 73 64 74 65 75 73 76 66 77 67 78 71 79
REMARK SMILES IDX 74 80 68 81 69 82 72 83 70 84 49 85 50 86 58 87 51 88 52 89
REMARK SMILES IDX 56 90 59 91 53 92 54 93 57 94 55 95
REMARK H PARENT 16 6 7 16 12 25 20 29 79 48 47 59
REMARK Flexibility Score: inf
ROOT
ATOM      1  C   UNL A   1      40.829  21.269  27.592  1.00  0.00     0.042 C 
ENDROOT
BRANCH   1   2
ATOM      2  C   UNL A   1      42.083  20.443  27.877  1.00  0.00     0.118 C 
BRANCH   2   3
ATOM      3  N   UNL A   1      42.084  19.211  27.117  1.00  0.00    -0.352 N 
ATOM      4  C   UNL A   1      42.885  18.750  26.106  1.00  0.00     0.255 C 
ATOM      5  O   UNL A   1      42.624  17.628  25.663  1.00  0.00    -0.269 OA
ATOM      6  H   UNL A   1      41.372  18.583  27.376  1.00  0.00     0.163 HD
BRANCH   4   7
ATOM      7  C   UNL A   1      44.091  19.447  25.576  1.00  0.00     0.083 A 
ATOM      8  C   UNL A   1      44.929  21.605  24.812  1.00  0.00     0.043 A 
ATOM      9  C   UNL A   1      46.212  21.080  24.702  1.00  0.00     0.030 A 
ATOM     10  C   UNL A   1      43.897  20.819  25.323  1.00  0.00     0.044 A 
ATOM     11  C   UNL A   1      46.429  19.733  24.961  1.00  0.00     0.049 A 
ATOM     12  C   UNL A   1      45.369  18.915  25.369  1.00  0.00     0.128 A 
BRANCH   8  13
ATOM     13  N   UNL A   1      44.637  22.915  24.429  1.00  0.00    -0.308 N 
ATOM     14  C   UNL A   1      44.650  24.070  25.150  1.00  0.00     0.321 C 
ATOM     15  O   UNL A   1      43.941  24.998  24.756  1.00  0.00    -0.248 OA
ATOM     16  H   UNL A   1      44.379  23.020  23.485  1.00  0.00     0.171 HD
BRANCH  14  17
ATOM     17  N   UNL A   1      45.548  24.230  26.180  1.00  0.00    -0.324 N 
ATOM     18  C   UNL A   1      48.791  25.422  27.562  1.00  0.00     0.010 C 
ATOM     19  C   UNL A   1      47.436  24.737  27.540  1.00  0.00     0.010 C 
ATOM     20  C   UNL A   1      47.006  24.325  26.130  1.00  0.00     0.125 C 
ATOM     21  C   UNL A   1      46.226  25.539  28.037  1.00  0.00     0.010 C 
ATOM     22  C   UNL A   1      45.069  24.701  27.472  1.00  0.00     0.125 C 
ATOM     23  C   UNL A   1      46.183  26.982  27.525  1.00  0.00     0.010 C 
ENDBRANCH  14  17
ENDBRANCH   8  13
BRANCH  12  24
ATOM     24  O   UNL A   1      45.659  17.603  25.579  1.00  0.00    -0.507 OA
ATOM     25  H   UNL A   1      46.241  17.356  26.272  1.00  0.00     0.293 HD
ENDBRANCH  12  24
ENDBRANCH   4   7
ENDBRANCH   2   3
ENDBRANCH   1   2
BRANCH   1  26
ATOM     26  C   UNL A   1      40.911  22.129  26.339  1.00  0.00     0.118 C 
BRANCH  26  27
ATOM     27  N   UNL A   1      39.602  22.447  25.797  1.00  0.00    -0.352 N 
ATOM     28  C   UNL A   1      38.757  23.493  26.076  1.00  0.00     0.251 C 
ATOM     29  H   UNL A   1      39.268  21.813  25.122  1.00  0.00     0.163 HD
ATOM     30  O   UNL A   1      37.603  23.459  25.658  1.00  0.00    -0.269 OA
BRANCH  28  31
ATOM     31  C   UNL A   1      39.203  24.653  26.887  1.00  0.00     0.039 A 
ATOM     32  C   UNL A   1      39.990  25.633  26.273  1.00  0.00     0.014 A 
ATOM     33  C   UNL A   1      38.912  24.759  28.250  1.00  0.00     0.014 A 
ATOM     34  C   UNL A   1      40.438  26.737  27.005  1.00  0.00     0.010 A 
ATOM     35  C   UNL A   1      39.296  25.895  28.964  1.00  0.00     0.010 A 
ATOM     36  C   UNL A   1      40.071  26.893  28.351  1.00  0.00    -0.014 A 
BRANCH  36  37
ATOM     37  C   UNL A   1      40.493  28.085  29.131  1.00  0.00     0.031 A 
ATOM     38  C   UNL A   1      41.867  28.147  29.741  1.00  0.00     0.074 A 
ATOM     39  C   UNL A   1      39.615  29.084  29.349  1.00  0.00     0.049 A 
ATOM     40  N   UNL A   1      42.388  29.064  30.517  1.00  0.00    -0.248 NA
ATOM     41  C   UNL A   1      42.768  27.017  29.462  1.00  0.00     0.031 C 
ATOM     42  C   UNL A   1      38.237  29.120  28.856  1.00  0.00     0.029 A 
ATOM     43  N   UNL A   1      39.746  30.254  30.056  1.00  0.00    -0.354 N 
ATOM     44  C   UNL A   1      43.662  28.611  30.838  1.00  0.00     0.074 A 
ATOM     45  C   UNL A   1      43.824  27.321  30.202  1.00  0.00     0.031 C 
ATOM     46  C   UNL A   1      37.653  30.256  29.269  1.00  0.00     0.029 A 
ATOM     47  C   UNL A   1      38.600  31.013  30.080  1.00  0.00     0.049 A 
ATOM     48  H   UNL A   1      40.581  30.524  30.501  1.00  0.00     0.167 HD
ATOM     49  C   UNL A   1      44.615  29.223  31.581  1.00  0.00     0.037 A 
ATOM     50  C   UNL A   1      38.340  32.181  30.698  1.00  0.00     0.037 A 
ATOM     51  C   UNL A   1      44.467  30.525  32.178  1.00  0.00     0.049 A 
ATOM     52  C   UNL A   1      39.426  32.851  31.495  1.00  0.00     0.074 A 
ATOM     53  C   UNL A   1      45.407  31.265  32.873  1.00  0.00     0.029 A 
ATOM     54  N   UNL A   1      43.305  31.280  32.148  1.00  0.00    -0.354 N 
ATOM     55  N   UNL A   1      40.652  32.448  31.724  1.00  0.00    -0.248 NA
ATOM     56  C   UNL A   1      39.094  34.143  32.111  1.00  0.00     0.031 C 
ATOM     57  C   UNL A   1      44.801  32.452  33.300  1.00  0.00     0.029 A 
ATOM     58  C   UNL A   1      43.497  32.469  32.833  1.00  0.00     0.049 A 
ATOM     59  H   UNL A   1      42.468  31.011  31.704  1.00  0.00     0.167 HD
ATOM     60  C   UNL A   1      41.243  33.442  32.491  1.00  0.00     0.074 A 
ATOM     61  C   UNL A   1      40.247  34.478  32.673  1.00  0.00     0.031 C 
ATOM     62  C   UNL A   1      42.497  33.492  33.000  1.00  0.00     0.037 A 
BRANCH  49  63
ATOM     63  C   UNL A   1      45.911  28.498  31.791  1.00  0.00     0.064 A 
ATOM     64  C   UNL A   1      46.119  27.670  32.903  1.00  0.00     0.173 A 
ATOM     65  C   UNL A   1      46.936  28.586  30.836  1.00  0.00     0.173 A 
ATOM     66  F   UNL A   1      45.174  27.559  33.848  1.00  0.00    -0.203 F 
ATOM     67  C   UNL A   1      47.312  26.970  33.062  1.00  0.00     0.198 A 
ATOM     68  C   UNL A   1      48.118  27.865  30.985  1.00  0.00     0.198 A 
ATOM     69  F   UNL A   1      46.785  29.359  29.750  1.00  0.00    -0.203 F 
ATOM     70  F   UNL A   1      47.503  26.212  34.151  1.00  0.00    -0.200 F 
ATOM     71  C   UNL A   1      48.308  27.062  32.100  1.00  0.00     0.200 A 
ATOM     72  F   UNL A   1      49.073  27.945  30.049  1.00  0.00    -0.200 F 
ATOM     73  F   UNL A   1      49.451  26.379  32.249  1.00  0.00    -0.200 F 
ENDBRANCH  49  63
BRANCH  50  74
ATOM     74  C   UNL A   1      36.995  32.799  30.578  1.00  0.00     0.064 A 
ATOM     75  C   UNL A   1      36.657  33.579  29.464  1.00  0.00     0.173 A 
ATOM     76  C   UNL A   1      36.023  32.628  31.574  1.00  0.00     0.173 A 
ATOM     77  F   UNL A   1      37.560  33.789  28.495  1.00  0.00    -0.203 F 
ATOM     78  C   UNL A   1      35.405  34.183  29.361  1.00  0.00     0.198 A 
ATOM     79  C   UNL A   1      34.763  33.209  31.458  1.00  0.00     0.198 A 
ATOM     80  F   UNL A   1      36.295  31.885  32.657  1.00  0.00    -0.203 F 
ATOM     81  F   UNL A   1      35.124  34.961  28.307  1.00  0.00    -0.200 F 
ATOM     82  C   UNL A   1      34.458  33.993  30.356  1.00  0.00     0.200 A 
ATOM     83  F   UNL A   1      33.844  33.011  32.414  1.00  0.00    -0.200 F 
ATOM     84  F   UNL A   1      33.252  34.570  30.255  1.00  0.00    -0.200 F 
ENDBRANCH  50  74
BRANCH  62  85
ATOM     85  C   UNL A   1      42.874  34.715  33.782  1.00  0.00     0.064 A 
ATOM     86  C   UNL A   1      43.309  35.886  33.146  1.00  0.00     0.173 A 
ATOM     87  C   UNL A   1      42.760  34.728  35.181  1.00  0.00     0.173 A 
ATOM     88  F   UNL A   1      43.450  35.918  31.812  1.00  0.00    -0.203 F 
ATOM     89  C   UNL A   1      43.639  37.020  33.883  1.00  0.00     0.198 A 
ATOM     90  C   UNL A   1      43.065  35.871  35.913  1.00  0.00     0.198 A 
ATOM     91  F   UNL A   1      42.342  33.633  35.835  1.00  0.00    -0.203 F 
ATOM     92  F   UNL A   1      44.095  38.114  33.259  1.00  0.00    -0.200 F 
ATOM     93  C   UNL A   1      43.510  37.013  35.265  1.00  0.00     0.200 A 
ATOM     94  F   UNL A   1      42.930  35.868  37.246  1.00  0.00    -0.200 F 
ATOM     95  F   UNL A   1      43.823  38.108  35.972  1.00  0.00    -0.200 F 
ENDBRANCH  62  85
ENDBRANCH  36  37
ENDBRANCH  28  31
ENDBRANCH  26  27
ENDBRANCH   1  26
TORSDOF 13
ENDMDL
MODEL 3
REMARK VINA RESULT:     -12.9      0.251      1.691
REMARK SMILES C[C@@H]1CN(C(=O)Nc2ccc(O)c(C(=O)NCCCNC(=O)c3ccc(-c4c5nc(c(-c6c(F)c(F)c(F)c(F)c6F)c6ccc([nH]6)c(-c6c(F)c(F)c(F)c(F)c6F)c6nc(c(-c7c(F)c(F)c(F)c(F)c7F)c7ccc4[nH]7)C=C6)C=C5)cc3)c2)C[C@@H]1C
REMARK SMILES IDX 18 1 17 2 16 3 14 4 15 5 13 7 8 8 9 9 86 10 10 11 11 12 7 13
REMARK SMILES IDX 5 14 6 15 4 17 1 18 2 19 3 20 88 21 87 22 89 23 12 24 19 26
REMARK SMILES IDX 20 27 21 28 22 30 23 31 24 32 85 33 25 34 84 35 26 36 27 37
REMARK SMILES IDX 28 38 78 39 29 40 83 41 77 42 79 43 30 44 82 45 76 46 75 47
REMARK SMILES IDX 31 49 63 50 43 51 62 52 44 53 47 54 61 55 80 56 45 57 46 58
REMARK SMILES IDX 60 60 81 61 48 62 32 63 33 64 41 65 34 66 35 67 39 68 42 69
REMARK SMILES IDX 36 70 37 71 40 72 38 73 64 74 65 75 73 76 66 77 67 78 71 79
REMARK SMILES IDX 74 80 68 81 69 82 72 83 70 84 49 85 50 86 58 87 51 88 52 89
REMARK SMILES IDX 56 90 59 91 53 92 54 93 57 94 55 95
REMARK H PARENT 16 6 7 16 12 25 20 29 79 48 47 59
REMARK Flexibility Score: inf
ROOT
ATOM      1  C   UNL A   1      31.367  32.154  26.549  1.00  0.00     0.042 C 
ENDROOT
BRANCH   1   2
ATOM      2  C   UNL A   1      31.395  30.642  26.323  1.00  0.00     0.118 C 
BRANCH   2   3
ATOM      3  N   UNL A   1      32.397  30.276  25.344  1.00  0.00    -0.352 N 
ATOM      4  C   UNL A   1      32.497  29.222  24.475  1.00  0.00     0.255 C 
ATOM      5  O   UNL A   1      33.494  29.200  23.748  1.00  0.00    -0.269 OA
ATOM      6  H   UNL A   1      33.150  30.907  25.291  1.00  0.00     0.163 HD
BRANCH   4   7
ATOM      7  C   UNL A   1      31.462  28.169  24.275  1.00  0.00     0.083 A 
ATOM      8  C   UNL A   1      30.350  26.285  25.350  1.00  0.00     0.043 A 
ATOM      9  C   UNL A   1      29.483  26.166  24.270  1.00  0.00     0.030 A 
ATOM     10  C   UNL A   1      31.275  27.327  25.388  1.00  0.00     0.044 A 
ATOM     11  C   UNL A   1      29.639  26.996  23.167  1.00  0.00     0.049 A 
ATOM     12  C   UNL A   1      30.641  27.973  23.157  1.00  0.00     0.128 A 
BRANCH   8  13
ATOM     13  N   UNL A   1      30.321  25.385  26.416  1.00  0.00    -0.308 N 
ATOM     14  C   UNL A   1      30.664  24.069  26.471  1.00  0.00     0.321 C 
ATOM     15  O   UNL A   1      30.144  23.379  27.350  1.00  0.00    -0.248 OA
ATOM     16  H   UNL A   1      30.001  25.764  27.266  1.00  0.00     0.171 HD
BRANCH  14  17
ATOM     17  N   UNL A   1      31.673  23.585  25.670  1.00  0.00    -0.324 N 
ATOM     18  C   UNL A   1      33.312  23.124  22.362  1.00  0.00     0.010 C 
ATOM     19  C   UNL A   1      33.089  22.974  23.856  1.00  0.00     0.010 C 
ATOM     20  C   UNL A   1      31.630  23.200  24.260  1.00  0.00     0.125 C 
ATOM     21  C   UNL A   1      33.847  23.929  24.788  1.00  0.00     0.010 C 
ATOM     22  C   UNL A   1      33.056  23.749  26.093  1.00  0.00     0.125 C 
ATOM     23  C   UNL A   1      33.844  25.387  24.321  1.00  0.00     0.010 C 
ENDBRANCH  14  17
ENDBRANCH   8  13
BRANCH  12  24
ATOM     24  O   UNL A   1      30.745  28.729  22.031  1.00  0.00    -0.507 OA
ATOM     25  H   UNL A   1      31.516  28.679  21.501  1.00  0.00     0.293 HD
ENDBRANCH  12  24
ENDBRANCH   4   7
ENDBRANCH   2   3
ENDBRANCH   1   2
BRANCH   1  26
ATOM     26  C   UNL A   1      32.681  32.741  27.045  1.00  0.00     0.118 C 
BRANCH  26  27
ATOM     27  N   UNL A   1      32.521  34.077  27.591  1.00  0.00    -0.352 N 
ATOM     28  C   UNL A   1      33.126  34.673  28.670  1.00  0.00     0.251 C 
ATOM     29  H   UNL A   1      31.877  34.646  27.111  1.00  0.00     0.163 HD
ATOM     30  O   UNL A   1      32.691  35.742  29.087  1.00  0.00    -0.269 OA
BRANCH  28  31
ATOM     31  C   UNL A   1      34.283  34.043  29.355  1.00  0.00     0.039 A 
ATOM     32  C   UNL A   1      35.573  34.379  28.931  1.00  0.00     0.014 A 
ATOM     33  C   UNL A   1      34.117  33.084  30.359  1.00  0.00     0.014 A 
ATOM     34  C   UNL A   1      36.688  33.800  29.544  1.00  0.00     0.010 A 
ATOM     35  C   UNL A   1      35.229  32.561  31.020  1.00  0.00     0.010 A 
ATOM     36  C   UNL A   1      36.527  32.906  30.614  1.00  0.00    -0.014 A 
BRANCH  36  37
ATOM     37  C   UNL A   1      37.701  32.321  31.312  1.00  0.00     0.031 A 
ATOM     38  C   UNL A   1      38.460  31.178  30.696  1.00  0.00     0.074 A 
ATOM     39  C   UNL A   1      38.044  32.775  32.534  1.00  0.00     0.049 A 
ATOM     40  N   UNL A   1      39.458  30.486  31.187  1.00  0.00    -0.248 NA
ATOM     41  C   UNL A   1      38.024  30.735  29.362  1.00  0.00     0.031 C 
ATOM     42  C   UNL A   1      37.356  33.843  33.261  1.00  0.00     0.029 A 
ATOM     43  N   UNL A   1      39.045  32.382  33.388  1.00  0.00    -0.354 N 
ATOM     44  C   UNL A   1      39.750  29.516  30.236  1.00  0.00     0.074 A 
ATOM     45  C   UNL A   1      38.803  29.684  29.155  1.00  0.00     0.031 C 
ATOM     46  C   UNL A   1      37.960  34.026  34.447  1.00  0.00     0.029 A 
ATOM     47  C   UNL A   1      39.054  33.069  34.578  1.00  0.00     0.049 A 
ATOM     48  H   UNL A   1      39.695  31.677  33.167  1.00  0.00     0.167 HD
ATOM     49  C   UNL A   1      40.731  28.581  30.257  1.00  0.00     0.037 A 
ATOM     50  C   UNL A   1      39.847  32.934  35.658  1.00  0.00     0.037 A 
ATOM     51  C   UNL A   1      41.699  28.442  31.313  1.00  0.00     0.049 A 
ATOM     52  C   UNL A   1      40.945  31.905  35.641  1.00  0.00     0.074 A 
ATOM     53  C   UNL A   1      42.782  27.584  31.382  1.00  0.00     0.029 A 
ATOM     54  N   UNL A   1      41.699  29.183  32.486  1.00  0.00    -0.354 N 
ATOM     55  N   UNL A   1      41.260  31.046  34.703  1.00  0.00    -0.248 NA
ATOM     56  C   UNL A   1      41.803  31.832  36.833  1.00  0.00     0.031 C 
ATOM     57  C   UNL A   1      43.415  27.776  32.614  1.00  0.00     0.029 A 
ATOM     58  C   UNL A   1      42.752  28.784  33.294  1.00  0.00     0.049 A 
ATOM     59  H   UNL A   1      41.049  29.887  32.709  1.00  0.00     0.167 HD
ATOM     60  C   UNL A   1      42.361  30.348  35.178  1.00  0.00     0.074 A 
ATOM     61  C   UNL A   1      42.672  30.895  36.482  1.00  0.00     0.031 C 
ATOM     62  C   UNL A   1      43.051  29.343  34.588  1.00  0.00     0.037 A 
BRANCH  49  63
ATOM     63  C   UNL A   1      40.816  27.632  29.098  1.00  0.00     0.064 A 
ATOM     64  C   UNL A   1      41.778  27.786  28.089  1.00  0.00     0.173 A 
ATOM     65  C   UNL A   1      39.964  26.519  29.029  1.00  0.00     0.173 A 
ATOM     66  F   UNL A   1      42.611  28.838  28.106  1.00  0.00    -0.203 F 
ATOM     67  C   UNL A   1      41.872  26.872  27.043  1.00  0.00     0.198 A 
ATOM     68  C   UNL A   1      40.077  25.593  27.995  1.00  0.00     0.198 A 
ATOM     69  F   UNL A   1      39.031  26.321  29.972  1.00  0.00    -0.203 F 
ATOM     70  F   UNL A   1      42.776  27.059  26.071  1.00  0.00    -0.200 F 
ATOM     71  C   UNL A   1      41.027  25.772  27.001  1.00  0.00     0.200 A 
ATOM     72  F   UNL A   1      39.269  24.525  27.962  1.00  0.00    -0.200 F 
ATOM     73  F   UNL A   1      41.126  24.888  25.999  1.00  0.00    -0.200 F 
ENDBRANCH  49  63
BRANCH  50  74
ATOM     74  C   UNL A   1      39.640  33.804  36.844  1.00  0.00     0.064 A 
ATOM     75  C   UNL A   1      38.851  33.378  37.921  1.00  0.00     0.173 A 
ATOM     76  C   UNL A   1      40.221  35.078  36.923  1.00  0.00     0.173 A 
ATOM     77  F   UNL A   1      38.257  32.177  37.882  1.00  0.00    -0.203 F 
ATOM     78  C   UNL A   1      38.632  34.203  39.023  1.00  0.00     0.198 A 
ATOM     79  C   UNL A   1      40.025  35.890  38.036  1.00  0.00     0.198 A 
ATOM     80  F   UNL A   1      40.990  35.528  35.920  1.00  0.00    -0.203 F 
ATOM     81  F   UNL A   1      37.838  33.790  40.019  1.00  0.00    -0.200 F 
ATOM     82  C   UNL A   1      39.224  35.456  39.082  1.00  0.00     0.200 A 
ATOM     83  F   UNL A   1      40.609  37.095  38.096  1.00  0.00    -0.200 F 
ATOM     84  F   UNL A   1      39.018  36.247  40.143  1.00  0.00    -0.200 F 
ENDBRANCH  50  74
BRANCH  62  85
ATOM     85  C   UNL A   1      44.226  28.785  35.334  1.00  0.00     0.064 A 
ATOM     86  C   UNL A   1      44.083  27.714  36.228  1.00  0.00     0.173 A 
ATOM     87  C   UNL A   1      45.513  29.302  35.124  1.00  0.00     0.173 A 
ATOM     88  F   UNL A   1      42.871  27.196  36.475  1.00  0.00    -0.203 F 
ATOM     89  C   UNL A   1      45.186  27.195  36.902  1.00  0.00     0.198 A 
ATOM     90  C   UNL A   1      46.616  28.763  35.779  1.00  0.00     0.198 A 
ATOM     91  F   UNL A   1      45.701  30.323  34.274  1.00  0.00    -0.203 F 
ATOM     92  F   UNL A   1      45.022  26.200  37.784  1.00  0.00    -0.200 F 
ATOM     93  C   UNL A   1      46.451  27.715  36.671  1.00  0.00     0.200 A 
ATOM     94  F   UNL A   1      47.840  29.259  35.547  1.00  0.00    -0.200 F 
ATOM     95  F   UNL A   1      47.511  27.210  37.317  1.00  0.00    -0.200 F 
ENDBRANCH  62  85
ENDBRANCH  36  37
ENDBRANCH  28  31
ENDBRANCH  26  27
ENDBRANCH   1  26
TORSDOF 13
ENDMDL
