MODEL 1
REMARK VINA RESULT:     -12.4      0.000      0.000
REMARK SMILES O=C(NCCCNC(=O)c1cc(SCC(=O)N2CCOCC2)ccn1)c1ccc(-c2c3nc(c(-c4c(F)c(F)c(F)c(F)c4F)c4ccc([nH]4)c(-c4c(F)c(F)c(F)c(F)c4F)c4nc(c(-c5c(F)c(F)c(F)c(F)c5F)c5ccc2[nH]5)C=C4)C=C3)cc1
REMARK SMILES IDX 5 1 4 2 3 3 1 4 2 5 26 7 27 8 88 9 28 10 87 11 29 12 30 13
REMARK SMILES IDX 31 14 81 15 32 16 86 17 80 18 82 19 33 20 85 21 79 22 78 23
REMARK SMILES IDX 34 25 66 26 46 27 65 28 47 29 50 30 64 31 83 32 48 33 49 34
REMARK SMILES IDX 63 36 84 37 51 38 35 39 36 40 44 41 37 42 38 43 42 44 45 45
REMARK SMILES IDX 39 46 40 47 43 48 41 49 67 50 68 51 76 52 69 53 70 54 74 55
REMARK SMILES IDX 77 56 71 57 72 58 75 59 73 60 52 61 53 62 61 63 54 64 55 65
REMARK SMILES IDX 59 66 62 67 56 68 57 69 60 70 58 71 6 72 7 73 8 74 9 76
REMARK SMILES IDX 10 77 11 78 25 79 12 80 24 81 23 82 13 83 14 84 15 85 16 86
REMARK SMILES IDX 17 87 18 88 22 89 19 90 21 91 20 92
REMARK H PARENT 3 6 82 24 50 35 7 75
REMARK Flexibility Score: inf
ROOT
ATOM      1  C   UNL A   1      33.069  28.981  23.793  1.00  0.00     0.042 C 
ENDROOT
BRANCH   1   2
ATOM      2  C   UNL A   1      33.253  29.144  25.291  1.00  0.00     0.118 C 
BRANCH   2   3
ATOM      3  N   UNL A   1      32.756  30.422  25.787  1.00  0.00    -0.352 N 
ATOM      4  O   UNL A   1      32.511  32.166  27.192  1.00  0.00    -0.269 OA
ATOM      5  C   UNL A   1      33.179  31.199  26.836  1.00  0.00     0.251 C 
ATOM      6  H   UNL A   1      31.992  30.789  25.285  1.00  0.00     0.163 HD
BRANCH   5   7
ATOM      7  C   UNL A   1      34.420  30.861  27.566  1.00  0.00     0.039 A 
ATOM      8  C   UNL A   1      34.629  29.580  28.074  1.00  0.00     0.014 A 
ATOM      9  C   UNL A   1      35.405  31.843  27.723  1.00  0.00     0.014 A 
ATOM     10  C   UNL A   1      35.730  29.327  28.882  1.00  0.00     0.010 A 
ATOM     11  C   UNL A   1      36.567  31.554  28.442  1.00  0.00     0.010 A 
ATOM     12  C   UNL A   1      36.723  30.303  29.056  1.00  0.00    -0.014 A 
BRANCH  12  13
ATOM     13  C   UNL A   1      37.947  29.958  29.819  1.00  0.00     0.031 A 
ATOM     14  C   UNL A   1      38.160  30.460  31.218  1.00  0.00     0.074 A 
ATOM     15  C   UNL A   1      38.857  29.151  29.239  1.00  0.00     0.049 A 
ATOM     16  N   UNL A   1      39.170  30.246  32.025  1.00  0.00    -0.248 NA
ATOM     17  C   UNL A   1      37.113  31.321  31.786  1.00  0.00     0.031 C 
ATOM     18  C   UNL A   1      38.755  28.610  27.881  1.00  0.00     0.029 A 
ATOM     19  N   UNL A   1      40.029  28.628  29.716  1.00  0.00    -0.354 N 
ATOM     20  C   UNL A   1      38.890  30.955  33.183  1.00  0.00     0.074 A 
ATOM     21  C   UNL A   1      37.627  31.631  32.969  1.00  0.00     0.031 C 
ATOM     22  C   UNL A   1      39.790  27.792  27.654  1.00  0.00     0.029 A 
ATOM     23  C   UNL A   1      40.665  27.805  28.819  1.00  0.00     0.049 A 
ATOM     24  H   UNL A   1      40.382  28.824  30.614  1.00  0.00     0.167 HD
ATOM     25  C   UNL A   1      39.618  31.027  34.324  1.00  0.00     0.037 A 
ATOM     26  C   UNL A   1      41.834  27.148  28.916  1.00  0.00     0.037 A 
ATOM     27  C   UNL A   1      40.867  30.338  34.533  1.00  0.00     0.049 A 
ATOM     28  C   UNL A   1      42.633  27.271  30.180  1.00  0.00     0.074 A 
ATOM     29  C   UNL A   1      41.667  30.324  35.662  1.00  0.00     0.029 A 
ATOM     30  N   UNL A   1      41.498  29.543  33.587  1.00  0.00    -0.354 N 
ATOM     31  N   UNL A   1      42.347  27.928  31.277  1.00  0.00    -0.248 NA
ATOM     32  C   UNL A   1      43.922  26.569  30.216  1.00  0.00     0.031 C 
ATOM     33  C   UNL A   1      42.804  29.557  35.385  1.00  0.00     0.029 A 
ATOM     34  C   UNL A   1      42.690  29.052  34.100  1.00  0.00     0.049 A 
ATOM     35  H   UNL A   1      41.153  29.354  32.685  1.00  0.00     0.167 HD
ATOM     36  C   UNL A   1      43.409  27.709  32.140  1.00  0.00     0.074 A 
ATOM     37  C   UNL A   1      44.337  26.840  31.445  1.00  0.00     0.031 C 
ATOM     38  C   UNL A   1      43.601  28.189  33.392  1.00  0.00     0.037 A 
BRANCH  25  39
ATOM     39  C   UNL A   1      39.095  31.892  35.435  1.00  0.00     0.064 A 
ATOM     40  C   UNL A   1      38.299  31.369  36.464  1.00  0.00     0.173 A 
ATOM     41  C   UNL A   1      39.438  33.251  35.497  1.00  0.00     0.173 A 
ATOM     42  F   UNL A   1      37.933  30.078  36.446  1.00  0.00    -0.203 F 
ATOM     43  C   UNL A   1      37.847  32.179  37.504  1.00  0.00     0.198 A 
ATOM     44  C   UNL A   1      39.007  34.052  36.553  1.00  0.00     0.198 A 
ATOM     45  F   UNL A   1      40.202  33.801  34.543  1.00  0.00    -0.203 F 
ATOM     46  F   UNL A   1      37.054  31.666  38.455  1.00  0.00    -0.200 F 
ATOM     47  C   UNL A   1      38.207  33.517  37.551  1.00  0.00     0.200 A 
ATOM     48  F   UNL A   1      39.366  35.342  36.603  1.00  0.00    -0.200 F 
ATOM     49  F   UNL A   1      37.779  34.293  38.557  1.00  0.00    -0.200 F 
ENDBRANCH  25  39
BRANCH  26  50
ATOM     50  C   UNL A   1      42.310  26.323  27.776  1.00  0.00     0.064 A 
ATOM     51  C   UNL A   1      43.278  26.812  26.888  1.00  0.00     0.173 A 
ATOM     52  C   UNL A   1      41.828  25.023  27.568  1.00  0.00     0.173 A 
ATOM     53  F   UNL A   1      43.756  28.057  27.037  1.00  0.00    -0.203 F 
ATOM     54  C   UNL A   1      43.735  26.034  25.827  1.00  0.00     0.198 A 
ATOM     55  C   UNL A   1      42.308  24.236  26.525  1.00  0.00     0.198 A 
ATOM     56  F   UNL A   1      40.906  24.508  28.395  1.00  0.00    -0.203 F 
ATOM     57  F   UNL A   1      44.633  26.538  24.969  1.00  0.00    -0.200 F 
ATOM     58  C   UNL A   1      43.256  24.745  25.651  1.00  0.00     0.200 A 
ATOM     59  F   UNL A   1      41.856  22.984  26.370  1.00  0.00    -0.200 F 
ATOM     60  F   UNL A   1      43.705  23.993  24.636  1.00  0.00    -0.200 F 
ENDBRANCH  26  50
BRANCH  38  61
ATOM     61  C   UNL A   1      44.854  27.762  34.098  1.00  0.00     0.064 A 
ATOM     62  C   UNL A   1      46.032  28.520  34.024  1.00  0.00     0.173 A 
ATOM     63  C   UNL A   1      44.868  26.595  34.876  1.00  0.00     0.173 A 
ATOM     64  F   UNL A   1      46.072  29.633  33.276  1.00  0.00    -0.203 F 
ATOM     65  C   UNL A   1      47.186  28.111  34.685  1.00  0.00     0.198 A 
ATOM     66  C   UNL A   1      46.016  26.205  35.559  1.00  0.00     0.198 A 
ATOM     67  F   UNL A   1      43.765  25.838  34.982  1.00  0.00    -0.203 F 
ATOM     68  F   UNL A   1      48.315  28.824  34.561  1.00  0.00    -0.200 F 
ATOM     69  C   UNL A   1      47.176  26.958  35.456  1.00  0.00     0.200 A 
ATOM     70  F   UNL A   1      46.001  25.096  36.312  1.00  0.00    -0.200 F 
ATOM     71  F   UNL A   1      48.287  26.568  36.095  1.00  0.00    -0.200 F 
ENDBRANCH  38  61
ENDBRANCH  12  13
ENDBRANCH   5   7
ENDBRANCH   2   3
ENDBRANCH   1   2
BRANCH   1  72
ATOM     72  C   UNL A   1      32.093  27.880  23.422  1.00  0.00     0.118 C 
BRANCH  72  73
ATOM     73  N   UNL A   1      32.437  27.198  22.186  1.00  0.00    -0.351 N 
ATOM     74  C   UNL A   1      33.021  25.963  22.008  1.00  0.00     0.269 C 
ATOM     75  H   UNL A   1      32.224  27.688  21.360  1.00  0.00     0.163 HD
ATOM     76  O   UNL A   1      33.278  25.577  20.870  1.00  0.00    -0.268 OA
BRANCH  74  77
ATOM     77  C   UNL A   1      33.339  25.119  23.193  1.00  0.00     0.129 A 
ATOM     78  C   UNL A   1      32.540  24.020  23.506  1.00  0.00     0.049 A 
ATOM     79  N   UNL A   1      34.387  25.535  23.944  1.00  0.00    -0.251 NA
ATOM     80  C   UNL A   1      32.767  23.376  24.712  1.00  0.00     0.012 A 
ATOM     81  C   UNL A   1      34.639  24.838  25.064  1.00  0.00     0.113 A 
ATOM     82  C   UNL A   1      33.858  23.778  25.490  1.00  0.00     0.035 A 
BRANCH  80  83
ATOM     83  S   UNL A   1      31.778  22.056  25.377  1.00  0.00    -0.116 SA
BRANCH  83  84
ATOM     84  C   UNL A   1      32.712  20.529  25.114  1.00  0.00     0.175 C 
BRANCH  84  85
ATOM     85  C   UNL A   1      32.386  19.613  23.946  1.00  0.00     0.233 C 
ATOM     86  O   UNL A   1      32.174  20.142  22.846  1.00  0.00    -0.274 OA
ATOM     87  N   UNL A   1      32.529  18.245  24.031  1.00  0.00    -0.337 N 
ATOM     88  C   UNL A   1      32.394  17.392  25.212  1.00  0.00     0.148 C 
ATOM     89  C   UNL A   1      32.903  17.483  22.831  1.00  0.00     0.148 C 
ATOM     90  C   UNL A   1      33.674  16.588  25.437  1.00  0.00     0.181 C 
ATOM     91  C   UNL A   1      34.186  16.687  23.122  1.00  0.00     0.181 C 
ATOM     92  O   UNL A   1      34.015  15.830  24.265  1.00  0.00    -0.378 OA
ENDBRANCH  84  85
ENDBRANCH  83  84
ENDBRANCH  80  83
ENDBRANCH  74  77
ENDBRANCH  72  73
ENDBRANCH   1  72
TORSDOF 13
ENDMDL
MODEL 2
REMARK VINA RESULT:     -12.3      0.559      2.087
REMARK SMILES O=C(NCCCNC(=O)c1cc(SCC(=O)N2CCOCC2)ccn1)c1ccc(-c2c3nc(c(-c4c(F)c(F)c(F)c(F)c4F)c4ccc([nH]4)c(-c4c(F)c(F)c(F)c(F)c4F)c4nc(c(-c5c(F)c(F)c(F)c(F)c5F)c5ccc2[nH]5)C=C4)C=C3)cc1
REMARK SMILES IDX 5 1 4 2 3 3 1 4 2 5 26 7 27 8 88 9 28 10 87 11 29 12 30 13
REMARK SMILES IDX 31 14 81 15 32 16 86 17 80 18 82 19 33 20 85 21 79 22 78 23
REMARK SMILES IDX 34 25 66 26 46 27 65 28 47 29 50 30 64 31 83 32 48 33 49 34
REMARK SMILES IDX 63 36 84 37 51 38 35 39 36 40 44 41 37 42 38 43 42 44 45 45
REMARK SMILES IDX 39 46 40 47 43 48 41 49 67 50 68 51 76 52 69 53 70 54 74 55
REMARK SMILES IDX 77 56 71 57 72 58 75 59 73 60 52 61 53 62 61 63 54 64 55 65
REMARK SMILES IDX 59 66 62 67 56 68 57 69 60 70 58 71 6 72 7 73 8 74 9 76
REMARK SMILES IDX 10 77 11 78 25 79 12 80 24 81 23 82 13 83 14 84 15 85 16 86
REMARK SMILES IDX 17 87 18 88 22 89 19 90 21 91 20 92
REMARK H PARENT 3 6 82 24 50 35 7 75
REMARK Flexibility Score: inf
ROOT
ATOM      1  C   UNL A   1      33.398  28.996  23.910  1.00  0.00     0.042 C 
ENDROOT
BRANCH   1   2
ATOM      2  C   UNL A   1      33.275  29.096  25.419  1.00  0.00     0.118 C 
BRANCH   2   3
ATOM      3  N   UNL A   1      32.832  30.413  25.865  1.00  0.00    -0.352 N 
ATOM      4  O   UNL A   1      32.672  32.225  27.194  1.00  0.00    -0.269 OA
ATOM      5  C   UNL A   1      33.300  31.220  26.872  1.00  0.00     0.251 C 
ATOM      6  H   UNL A   1      32.072  30.784  25.360  1.00  0.00     0.163 HD
BRANCH   5   7
ATOM      7  C   UNL A   1      34.541  30.871  27.595  1.00  0.00     0.039 A 
ATOM      8  C   UNL A   1      34.782  29.565  28.022  1.00  0.00     0.014 A 
ATOM      9  C   UNL A   1      35.493  31.868  27.831  1.00  0.00     0.014 A 
ATOM     10  C   UNL A   1      35.879  29.291  28.828  1.00  0.00     0.010 A 
ATOM     11  C   UNL A   1      36.654  31.567  28.548  1.00  0.00     0.010 A 
ATOM     12  C   UNL A   1      36.840  30.282  29.080  1.00  0.00    -0.014 A 
BRANCH  12  13
ATOM     13  C   UNL A   1      38.063  29.924  29.837  1.00  0.00     0.031 A 
ATOM     14  C   UNL A   1      38.297  30.435  31.229  1.00  0.00     0.074 A 
ATOM     15  C   UNL A   1      38.955  29.096  29.258  1.00  0.00     0.049 A 
ATOM     16  N   UNL A   1      39.309  30.211  32.030  1.00  0.00    -0.248 NA
ATOM     17  C   UNL A   1      37.268  31.320  31.797  1.00  0.00     0.031 C 
ATOM     18  C   UNL A   1      38.833  28.543  27.906  1.00  0.00     0.029 A 
ATOM     19  N   UNL A   1      40.122  28.557  29.731  1.00  0.00    -0.354 N 
ATOM     20  C   UNL A   1      39.050  30.937  33.184  1.00  0.00     0.074 A 
ATOM     21  C   UNL A   1      37.797  31.632  32.973  1.00  0.00     0.031 C 
ATOM     22  C   UNL A   1      39.852  27.705  27.679  1.00  0.00     0.029 A 
ATOM     23  C   UNL A   1      40.736  27.715  28.837  1.00  0.00     0.049 A 
ATOM     24  H   UNL A   1      40.485  28.755  30.624  1.00  0.00     0.167 HD
ATOM     25  C   UNL A   1      39.788  31.006  34.319  1.00  0.00     0.037 A 
ATOM     26  C   UNL A   1      41.895  27.038  28.932  1.00  0.00     0.037 A 
ATOM     27  C   UNL A   1      41.027  30.298  34.525  1.00  0.00     0.049 A 
ATOM     28  C   UNL A   1      42.706  27.160  30.188  1.00  0.00     0.074 A 
ATOM     29  C   UNL A   1      41.835  30.281  35.648  1.00  0.00     0.029 A 
ATOM     30  N   UNL A   1      41.637  29.483  33.581  1.00  0.00    -0.354 N 
ATOM     31  N   UNL A   1      42.439  27.832  31.280  1.00  0.00    -0.248 NA
ATOM     32  C   UNL A   1      43.982  26.436  30.221  1.00  0.00     0.031 C 
ATOM     33  C   UNL A   1      42.956  29.492  35.369  1.00  0.00     0.029 A 
ATOM     34  C   UNL A   1      42.824  28.977  34.090  1.00  0.00     0.049 A 
ATOM     35  H   UNL A   1      41.281  29.292  32.684  1.00  0.00     0.167 HD
ATOM     36  C   UNL A   1      43.504  27.603  32.138  1.00  0.00     0.074 A 
ATOM     37  C   UNL A   1      44.411  26.711  31.444  1.00  0.00     0.031 C 
ATOM     38  C   UNL A   1      43.714  28.091  33.384  1.00  0.00     0.037 A 
BRANCH  25  39
ATOM     39  C   UNL A   1      39.289  31.891  35.425  1.00  0.00     0.064 A 
ATOM     40  C   UNL A   1      39.605  33.257  35.477  1.00  0.00     0.173 A 
ATOM     41  C   UNL A   1      38.441  31.376  36.417  1.00  0.00     0.173 A 
ATOM     42  F   UNL A   1      40.421  33.796  34.559  1.00  0.00    -0.203 F 
ATOM     43  C   UNL A   1      39.108  34.069  36.494  1.00  0.00     0.198 A 
ATOM     44  C   UNL A   1      37.924  32.198  37.417  1.00  0.00     0.198 A 
ATOM     45  F   UNL A   1      38.102  30.079  36.411  1.00  0.00    -0.203 F 
ATOM     46  F   UNL A   1      39.456  35.363  36.545  1.00  0.00    -0.200 F 
ATOM     47  C   UNL A   1      38.262  33.541  37.458  1.00  0.00     0.200 A 
ATOM     48  F   UNL A   1      37.097  31.688  38.340  1.00  0.00    -0.200 F 
ATOM     49  F   UNL A   1      37.778  34.327  38.429  1.00  0.00    -0.200 F 
ENDBRANCH  25  39
BRANCH  26  50
ATOM     50  C   UNL A   1      42.348  26.195  27.796  1.00  0.00     0.064 A 
ATOM     51  C   UNL A   1      41.891  24.878  27.650  1.00  0.00     0.173 A 
ATOM     52  C   UNL A   1      43.224  26.696  26.822  1.00  0.00     0.173 A 
ATOM     53  F   UNL A   1      41.066  24.350  28.565  1.00  0.00    -0.203 F 
ATOM     54  C   UNL A   1      42.304  24.092  26.577  1.00  0.00     0.198 A 
ATOM     55  C   UNL A   1      43.612  25.919  25.735  1.00  0.00     0.198 A 
ATOM     56  F   UNL A   1      43.683  27.953  26.916  1.00  0.00    -0.203 F 
ATOM     57  F   UNL A   1      41.883  22.823  26.479  1.00  0.00    -0.200 F 
ATOM     58  C   UNL A   1      43.158  24.614  25.617  1.00  0.00     0.200 A 
ATOM     59  F   UNL A   1      44.422  26.435  24.800  1.00  0.00    -0.200 F 
ATOM     60  F   UNL A   1      43.546  23.860  24.580  1.00  0.00    -0.200 F 
ENDBRANCH  26  50
BRANCH  38  61
ATOM     61  C   UNL A   1      44.965  27.649  34.084  1.00  0.00     0.064 A 
ATOM     62  C   UNL A   1      44.998  26.481  34.859  1.00  0.00     0.173 A 
ATOM     63  C   UNL A   1      46.149  28.391  33.957  1.00  0.00     0.173 A 
ATOM     64  F   UNL A   1      43.886  25.750  35.025  1.00  0.00    -0.203 F 
ATOM     65  C   UNL A   1      46.167  26.084  35.502  1.00  0.00     0.198 A 
ATOM     66  C   UNL A   1      47.323  27.975  34.579  1.00  0.00     0.198 A 
ATOM     67  F   UNL A   1      46.169  29.514  33.223  1.00  0.00    -0.203 F 
ATOM     68  F   UNL A   1      46.164  24.990  36.277  1.00  0.00    -0.200 F 
ATOM     69  C   UNL A   1      47.329  26.827  35.357  1.00  0.00     0.200 A 
ATOM     70  F   UNL A   1      48.447  28.689  34.428  1.00  0.00    -0.200 F 
ATOM     71  F   UNL A   1      48.454  26.441  35.973  1.00  0.00    -0.200 F 
ENDBRANCH  38  61
ENDBRANCH  12  13
ENDBRANCH   5   7
ENDBRANCH   2   3
ENDBRANCH   1   2
BRANCH   1  72
ATOM     72  C   UNL A   1      32.314  28.147  23.273  1.00  0.00     0.118 C 
BRANCH  72  73
ATOM     73  N   UNL A   1      32.738  27.500  22.042  1.00  0.00    -0.351 N 
ATOM     74  C   UNL A   1      32.848  26.156  21.760  1.00  0.00     0.269 C 
ATOM     75  H   UNL A   1      32.982  28.108  21.308  1.00  0.00     0.163 HD
ATOM     76  O   UNL A   1      33.276  25.805  20.663  1.00  0.00    -0.268 OA
BRANCH  74  77
ATOM     77  C   UNL A   1      32.457  25.151  22.787  1.00  0.00     0.129 A 
ATOM     78  C   UNL A   1      33.417  24.309  23.345  1.00  0.00     0.049 A 
ATOM     79  N   UNL A   1      31.132  25.087  23.068  1.00  0.00    -0.251 NA
ATOM     80  C   UNL A   1      32.979  23.276  24.160  1.00  0.00     0.012 A 
ATOM     81  C   UNL A   1      30.747  24.130  23.929  1.00  0.00     0.113 A 
ATOM     82  C   UNL A   1      31.618  23.206  24.478  1.00  0.00     0.035 A 
BRANCH  80  83
ATOM     83  S   UNL A   1      34.009  22.002  24.851  1.00  0.00    -0.116 SA
BRANCH  83  84
ATOM     84  C   UNL A   1      32.936  20.576  25.148  1.00  0.00     0.175 C 
BRANCH  84  85
ATOM     85  C   UNL A   1      32.521  19.667  24.003  1.00  0.00     0.233 C 
ATOM     86  O   UNL A   1      32.277  20.197  22.910  1.00  0.00    -0.274 OA
ATOM     87  N   UNL A   1      32.616  18.295  24.092  1.00  0.00    -0.337 N 
ATOM     88  C   UNL A   1      32.505  17.454  25.283  1.00  0.00     0.148 C 
ATOM     89  C   UNL A   1      32.904  17.512  22.881  1.00  0.00     0.148 C 
ATOM     90  C   UNL A   1      33.764  16.603  25.454  1.00  0.00     0.181 C 
ATOM     91  C   UNL A   1      34.168  16.670  23.117  1.00  0.00     0.181 C 
ATOM     92  O   UNL A   1      34.020  15.826  24.273  1.00  0.00    -0.378 OA
ENDBRANCH  84  85
ENDBRANCH  83  84
ENDBRANCH  80  83
ENDBRANCH  74  77
ENDBRANCH  72  73
ENDBRANCH   1  72
TORSDOF 13
ENDMDL
MODEL 3
REMARK VINA RESULT:     -12.3      5.216      8.655
REMARK SMILES O=C(NCCCNC(=O)c1cc(SCC(=O)N2CCOCC2)ccn1)c1ccc(-c2c3nc(c(-c4c(F)c(F)c(F)c(F)c4F)c4ccc([nH]4)c(-c4c(F)c(F)c(F)c(F)c4F)c4nc(c(-c5c(F)c(F)c(F)c(F)c5F)c5ccc2[nH]5)C=C4)C=C3)cc1
REMARK SMILES IDX 5 1 4 2 3 3 1 4 2 5 26 7 27 8 88 9 28 10 87 11 29 12 30 13
REMARK SMILES IDX 31 14 81 15 32 16 86 17 80 18 82 19 33 20 85 21 79 22 78 23
REMARK SMILES IDX 34 25 66 26 46 27 65 28 47 29 50 30 64 31 83 32 48 33 49 34
REMARK SMILES IDX 63 36 84 37 51 38 35 39 36 40 44 41 37 42 38 43 42 44 45 45
REMARK SMILES IDX 39 46 40 47 43 48 41 49 67 50 68 51 76 52 69 53 70 54 74 55
REMARK SMILES IDX 77 56 71 57 72 58 75 59 73 60 52 61 53 62 61 63 54 64 55 65
REMARK SMILES IDX 59 66 62 67 56 68 57 69 60 70 58 71 6 72 7 73 8 74 9 76
REMARK SMILES IDX 10 77 11 78 25 79 12 80 24 81 23 82 13 83 14 84 15 85 16 86
REMARK SMILES IDX 17 87 18 88 22 89 19 90 21 91 20 92
REMARK H PARENT 3 6 82 24 50 35 7 75
REMARK Flexibility Score: inf
ROOT
ATOM      1  C   UNL A   1      35.292  33.348  28.002  1.00  0.00     0.042 C 
ENDROOT
BRANCH   1   2
ATOM      2  C   UNL A   1      34.573  32.440  28.981  1.00  0.00     0.118 C 
BRANCH   2   3
ATOM      3  N   UNL A   1      34.007  31.255  28.345  1.00  0.00    -0.352 N 
ATOM      4  O   UNL A   1      33.972  29.281  27.260  1.00  0.00    -0.269 OA
ATOM      5  C   UNL A   1      34.605  30.091  27.933  1.00  0.00     0.251 C 
ATOM      6  H   UNL A   1      33.036  31.299  28.185  1.00  0.00     0.163 HD
BRANCH   5   7
ATOM      7  C   UNL A   1      36.019  29.816  28.265  1.00  0.00     0.039 A 
ATOM      8  C   UNL A   1      37.038  30.080  27.350  1.00  0.00     0.014 A 
ATOM      9  C   UNL A   1      36.333  29.306  29.530  1.00  0.00     0.014 A 
ATOM     10  C   UNL A   1      38.337  29.676  27.625  1.00  0.00     0.010 A 
ATOM     11  C   UNL A   1      37.660  29.003  29.848  1.00  0.00     0.010 A 
ATOM     12  C   UNL A   1      38.668  29.156  28.886  1.00  0.00    -0.014 A 
BRANCH  12  13
ATOM     13  C   UNL A   1      40.087  28.854  29.192  1.00  0.00     0.031 A 
ATOM     14  C   UNL A   1      40.919  29.783  30.028  1.00  0.00     0.074 A 
ATOM     15  C   UNL A   1      40.611  27.703  28.727  1.00  0.00     0.049 A 
ATOM     16  N   UNL A   1      42.172  29.663  30.393  1.00  0.00    -0.248 NA
ATOM     17  C   UNL A   1      40.269  31.010  30.512  1.00  0.00     0.031 C 
ATOM     18  C   UNL A   1      39.895  26.729  27.899  1.00  0.00     0.029 A 
ATOM     19  N   UNL A   1      41.850  27.145  28.898  1.00  0.00    -0.354 N 
ATOM     20  C   UNL A   1      42.464  30.801  31.131  1.00  0.00     0.074 A 
ATOM     21  C   UNL A   1      41.267  31.616  31.142  1.00  0.00     0.031 C 
ATOM     22  C   UNL A   1      40.687  25.671  27.678  1.00  0.00     0.029 A 
ATOM     23  C   UNL A   1      41.987  25.922  28.287  1.00  0.00     0.049 A 
ATOM     24  H   UNL A   1      42.572  27.578  29.408  1.00  0.00     0.167 HD
ATOM     25  C   UNL A   1      43.625  31.128  31.750  1.00  0.00     0.037 A 
ATOM     26  C   UNL A   1      43.049  25.101  28.209  1.00  0.00     0.037 A 
ATOM     27  C   UNL A   1      44.806  30.303  31.746  1.00  0.00     0.049 A 
ATOM     28  C   UNL A   1      44.329  25.504  28.878  1.00  0.00     0.074 A 
ATOM     29  C   UNL A   1      46.022  30.532  32.366  1.00  0.00     0.029 A 
ATOM     30  N   UNL A   1      44.918  29.088  31.085  1.00  0.00    -0.354 N 
ATOM     31  N   UNL A   1      44.586  26.573  29.591  1.00  0.00    -0.248 NA
ATOM     32  C   UNL A   1      45.469  24.593  28.724  1.00  0.00     0.031 C 
ATOM     33  C   UNL A   1      46.884  29.479  32.044  1.00  0.00     0.029 A 
ATOM     34  C   UNL A   1      46.192  28.568  31.263  1.00  0.00     0.049 A 
ATOM     35  H   UNL A   1      44.201  28.658  30.566  1.00  0.00     0.167 HD
ATOM     36  C   UNL A   1      45.911  26.459  29.984  1.00  0.00     0.074 A 
ATOM     37  C   UNL A   1      46.397  25.204  29.447  1.00  0.00     0.031 C 
ATOM     38  C   UNL A   1      46.657  27.318  30.719  1.00  0.00     0.037 A 
BRANCH  25  39
ATOM     39  C   UNL A   1      43.685  32.443  32.473  1.00  0.00     0.064 A 
ATOM     40  C   UNL A   1      43.338  32.556  33.828  1.00  0.00     0.173 A 
ATOM     41  C   UNL A   1      44.145  33.594  31.816  1.00  0.00     0.173 A 
ATOM     42  F   UNL A   1      42.881  31.488  34.500  1.00  0.00    -0.203 F 
ATOM     43  C   UNL A   1      43.429  33.778  34.492  1.00  0.00     0.198 A 
ATOM     44  C   UNL A   1      44.260  34.808  32.491  1.00  0.00     0.198 A 
ATOM     45  F   UNL A   1      44.496  33.541  30.524  1.00  0.00    -0.203 F 
ATOM     46  F   UNL A   1      43.054  33.870  35.775  1.00  0.00    -0.200 F 
ATOM     47  C   UNL A   1      43.897  34.900  33.825  1.00  0.00     0.200 A 
ATOM     48  F   UNL A   1      44.724  35.888  31.848  1.00  0.00    -0.200 F 
ATOM     49  F   UNL A   1      43.992  36.072  34.468  1.00  0.00    -0.200 F 
ENDBRANCH  25  39
BRANCH  26  50
ATOM     50  C   UNL A   1      42.935  23.822  27.462  1.00  0.00     0.064 A 
ATOM     51  C   UNL A   1      42.445  22.666  28.083  1.00  0.00     0.173 A 
ATOM     52  C   UNL A   1      43.290  23.737  26.107  1.00  0.00     0.173 A 
ATOM     53  F   UNL A   1      42.109  22.694  29.381  1.00  0.00    -0.203 F 
ATOM     54  C   UNL A   1      42.324  21.470  27.378  1.00  0.00     0.198 A 
ATOM     55  C   UNL A   1      43.141  22.550  25.397  1.00  0.00     0.198 A 
ATOM     56  F   UNL A   1      43.759  24.819  25.467  1.00  0.00    -0.203 F 
ATOM     57  F   UNL A   1      41.888  20.368  28.005  1.00  0.00    -0.200 F 
ATOM     58  C   UNL A   1      42.665  21.415  26.035  1.00  0.00     0.200 A 
ATOM     59  F   UNL A   1      43.454  22.506  24.095  1.00  0.00    -0.200 F 
ATOM     60  F   UNL A   1      42.539  20.266  25.356  1.00  0.00    -0.200 F 
ENDBRANCH  26  50
BRANCH  38  61
ATOM     61  C   UNL A   1      48.074  26.913  31.003  1.00  0.00     0.064 A 
ATOM     62  C   UNL A   1      49.139  27.367  30.211  1.00  0.00     0.173 A 
ATOM     63  C   UNL A   1      48.370  26.083  32.094  1.00  0.00     0.173 A 
ATOM     64  F   UNL A   1      48.903  28.146  29.145  1.00  0.00    -0.203 F 
ATOM     65  C   UNL A   1      50.448  26.983  30.487  1.00  0.00     0.198 A 
ATOM     66  C   UNL A   1      49.684  25.725  32.384  1.00  0.00     0.198 A 
ATOM     67  F   UNL A   1      47.386  25.627  32.885  1.00  0.00    -0.203 F 
ATOM     68  F   UNL A   1      51.446  27.388  29.689  1.00  0.00    -0.200 F 
ATOM     69  C   UNL A   1      50.720  26.168  31.576  1.00  0.00     0.200 A 
ATOM     70  F   UNL A   1      49.945  24.946  33.444  1.00  0.00    -0.200 F 
ATOM     71  F   UNL A   1      51.981  25.803  31.843  1.00  0.00    -0.200 F 
ENDBRANCH  38  61
ENDBRANCH  12  13
ENDBRANCH   5   7
ENDBRANCH   2   3
ENDBRANCH   1   2
BRANCH   1  72
ATOM     72  C   UNL A   1      35.275  34.809  28.411  1.00  0.00     0.118 C 
BRANCH  72  73
ATOM     73  N   UNL A   1      33.984  35.447  28.216  1.00  0.00    -0.351 N 
ATOM     74  C   UNL A   1      33.136  35.997  29.151  1.00  0.00     0.269 C 
ATOM     75  H   UNL A   1      33.672  35.491  27.283  1.00  0.00     0.163 HD
ATOM     76  O   UNL A   1      32.053  36.452  28.788  1.00  0.00    -0.268 OA
BRANCH  74  77
ATOM     77  C   UNL A   1      33.537  36.026  30.586  1.00  0.00     0.129 A 
ATOM     78  C   UNL A   1      33.956  34.857  31.219  1.00  0.00     0.049 A 
ATOM     79  N   UNL A   1      33.399  37.222  31.208  1.00  0.00    -0.251 NA
ATOM     80  C   UNL A   1      34.146  34.896  32.592  1.00  0.00     0.012 A 
ATOM     81  C   UNL A   1      33.674  37.250  32.523  1.00  0.00     0.113 A 
ATOM     82  C   UNL A   1      34.029  36.126  33.248  1.00  0.00     0.035 A 
BRANCH  80  83
ATOM     83  S   UNL A   1      34.531  33.497  33.619  1.00  0.00    -0.116 SA
BRANCH  83  84
ATOM     84  C   UNL A   1      35.895  34.004  34.692  1.00  0.00     0.175 C 
BRANCH  84  85
ATOM     85  C   UNL A   1      37.333  33.934  34.203  1.00  0.00     0.233 C 
ATOM     86  O   UNL A   1      37.813  34.953  33.689  1.00  0.00    -0.274 OA
ATOM     87  N   UNL A   1      38.153  32.867  34.503  1.00  0.00    -0.337 N 
ATOM     88  C   UNL A   1      37.778  31.473  34.734  1.00  0.00     0.148 C 
ATOM     89  C   UNL A   1      39.597  33.092  34.668  1.00  0.00     0.148 C 
ATOM     90  C   UNL A   1      38.262  31.011  36.109  1.00  0.00     0.181 C 
ATOM     91  C   UNL A   1      40.025  32.598  36.059  1.00  0.00     0.181 C 
ATOM     92  O   UNL A   1      39.677  31.215  36.247  1.00  0.00    -0.378 OA
ENDBRANCH  84  85
ENDBRANCH  83  84
ENDBRANCH  80  83
ENDBRANCH  74  77
ENDBRANCH  72  73
ENDBRANCH   1  72
TORSDOF 13
ENDMDL
