MODEL 1
REMARK VINA RESULT:     -11.3      0.000      0.000
REMARK SMILES O=C(NCCCNC(=O)[C@@H]1C=C[C@@H](NS(=O)(=O)c2ccc(F)c(F)c2F)C1)c1ccc(-c2c3nc(c(-c4c(F)c(F)c(F)c(F)c4F)c4ccc([nH]4)c(-c4c(F)c(F)c(F)c(F)c4F)c4nc(c(-c5c(F)c(F)c(F)c(F)c5F)c5ccc2[nH]5)C=C4)C=C3)cc1
REMARK SMILES IDX 5 1 4 2 3 3 1 4 2 5 28 7 29 8 90 9 30 10 89 11 31 12 32 13
REMARK SMILES IDX 33 14 83 15 34 16 88 17 82 18 84 19 35 20 87 21 81 22 80 23
REMARK SMILES IDX 36 25 68 26 48 27 67 28 49 29 52 30 66 31 85 32 50 33 51 34
REMARK SMILES IDX 65 36 86 37 53 38 37 39 38 40 46 41 39 42 40 43 44 44 47 45
REMARK SMILES IDX 41 46 42 47 45 48 43 49 69 50 70 51 78 52 71 53 72 54 76 55
REMARK SMILES IDX 79 56 73 57 74 58 77 59 75 60 54 61 55 62 63 63 56 64 57 65
REMARK SMILES IDX 61 66 64 67 58 68 59 69 62 70 60 71 6 72 7 73 8 74 9 76
REMARK SMILES IDX 10 77 11 78 27 79 12 80 13 81 14 82 15 84 16 85 17 86 18 87
REMARK SMILES IDX 19 88 25 89 20 90 23 91 26 92 21 93 24 94 22 95
REMARK H PARENT 3 6 84 24 52 35 7 75 14 83
REMARK Flexibility Score: inf
ROOT
ATOM      1  C   UNL A   1      37.857  19.630  25.017  1.00  0.00     0.042 C 
ENDROOT
BRANCH   1   2
ATOM      2  C   UNL A   1      39.061  20.163  25.779  1.00  0.00     0.118 C 
BRANCH   2   3
ATOM      3  N   UNL A   1      40.158  19.208  25.802  1.00  0.00    -0.352 N 
ATOM      4  O   UNL A   1      42.290  18.486  25.830  1.00  0.00    -0.269 OA
ATOM      5  C   UNL A   1      41.500  19.406  26.026  1.00  0.00     0.251 C 
ATOM      6  H   UNL A   1      39.900  18.274  25.629  1.00  0.00     0.163 HD
BRANCH   5   7
ATOM      7  C   UNL A   1      42.008  20.716  26.499  1.00  0.00     0.039 A 
ATOM      8  C   UNL A   1      42.282  21.749  25.603  1.00  0.00     0.014 A 
ATOM      9  C   UNL A   1      42.151  20.937  27.875  1.00  0.00     0.014 A 
ATOM     10  C   UNL A   1      42.819  22.945  26.063  1.00  0.00     0.010 A 
ATOM     11  C   UNL A   1      42.602  22.176  28.345  1.00  0.00     0.010 A 
ATOM     12  C   UNL A   1      42.960  23.185  27.441  1.00  0.00    -0.014 A 
BRANCH  12  13
ATOM     13  C   UNL A   1      43.400  24.534  27.884  1.00  0.00     0.031 A 
ATOM     14  C   UNL A   1      44.844  24.944  27.836  1.00  0.00     0.074 A 
ATOM     15  C   UNL A   1      42.457  25.422  28.257  1.00  0.00     0.049 A 
ATOM     16  N   UNL A   1      45.371  26.120  28.076  1.00  0.00    -0.248 NA
ATOM     17  C   UNL A   1      45.828  23.910  27.481  1.00  0.00     0.031 C 
ATOM     18  C   UNL A   1      41.024  25.127  28.357  1.00  0.00     0.029 A 
ATOM     19  N   UNL A   1      42.542  26.754  28.568  1.00  0.00    -0.354 N 
ATOM     20  C   UNL A   1      46.741  25.965  27.913  1.00  0.00     0.074 A 
ATOM     21  C   UNL A   1      46.972  24.577  27.574  1.00  0.00     0.031 C 
ATOM     22  C   UNL A   1      40.359  26.262  28.614  1.00  0.00     0.029 A 
ATOM     23  C   UNL A   1      41.318  27.351  28.757  1.00  0.00     0.049 A 
ATOM     24  H   UNL A   1      43.397  27.238  28.648  1.00  0.00     0.167 HD
ATOM     25  C   UNL A   1      47.711  26.903  28.027  1.00  0.00     0.037 A 
ATOM     26  C   UNL A   1      41.001  28.635  29.007  1.00  0.00     0.037 A 
ATOM     27  C   UNL A   1      47.474  28.289  28.341  1.00  0.00     0.049 A 
ATOM     28  C   UNL A   1      42.101  29.648  29.128  1.00  0.00     0.074 A 
ATOM     29  C   UNL A   1      48.396  29.316  28.452  1.00  0.00     0.029 A 
ATOM     30  N   UNL A   1      46.227  28.842  28.587  1.00  0.00    -0.354 N 
ATOM     31  N   UNL A   1      43.390  29.490  28.954  1.00  0.00    -0.248 NA
ATOM     32  C   UNL A   1      41.705  31.014  29.495  1.00  0.00     0.031 C 
ATOM     33  C   UNL A   1      47.710  30.484  28.802  1.00  0.00     0.029 A 
ATOM     34  C   UNL A   1      46.358  30.193  28.869  1.00  0.00     0.049 A 
ATOM     35  H   UNL A   1      45.376  28.349  28.567  1.00  0.00     0.167 HD
ATOM     36  C   UNL A   1      43.959  30.732  29.189  1.00  0.00     0.074 A 
ATOM     37  C   UNL A   1      42.872  31.642  29.489  1.00  0.00     0.031 C 
ATOM     38  C   UNL A   1      45.267  31.083  29.170  1.00  0.00     0.037 A 
BRANCH  25  39
ATOM     39  C   UNL A   1      49.134  26.478  27.812  1.00  0.00     0.064 A 
ATOM     40  C   UNL A   1      49.991  26.288  28.907  1.00  0.00     0.173 A 
ATOM     41  C   UNL A   1      49.675  26.365  26.524  1.00  0.00     0.173 A 
ATOM     42  F   UNL A   1      49.522  26.393  30.159  1.00  0.00    -0.203 F 
ATOM     43  C   UNL A   1      51.344  26.022  28.718  1.00  0.00     0.198 A 
ATOM     44  C   UNL A   1      51.026  26.078  26.339  1.00  0.00     0.198 A 
ATOM     45  F   UNL A   1      48.894  26.527  25.446  1.00  0.00    -0.203 F 
ATOM     46  F   UNL A   1      52.152  25.879  29.778  1.00  0.00    -0.200 F 
ATOM     47  C   UNL A   1      51.860  25.918  27.436  1.00  0.00     0.200 A 
ATOM     48  F   UNL A   1      51.520  25.960  25.099  1.00  0.00    -0.200 F 
ATOM     49  F   UNL A   1      53.164  25.663  27.255  1.00  0.00    -0.200 F 
ENDBRANCH  25  39
BRANCH  26  50
ATOM     50  C   UNL A   1      39.575  29.031  29.132  1.00  0.00     0.064 A 
ATOM     51  C   UNL A   1      38.919  29.026  30.372  1.00  0.00     0.173 A 
ATOM     52  C   UNL A   1      38.830  29.396  28.001  1.00  0.00     0.173 A 
ATOM     53  F   UNL A   1      39.588  28.682  31.482  1.00  0.00    -0.203 F 
ATOM     54  C   UNL A   1      37.568  29.349  30.472  1.00  0.00     0.198 A 
ATOM     55  C   UNL A   1      37.486  29.745  28.107  1.00  0.00     0.198 A 
ATOM     56  F   UNL A   1      39.419  29.435  26.796  1.00  0.00    -0.203 F 
ATOM     57  F   UNL A   1      36.958  29.300  31.664  1.00  0.00    -0.200 F 
ATOM     58  C   UNL A   1      36.854  29.712  29.341  1.00  0.00     0.200 A 
ATOM     59  F   UNL A   1      36.805  30.119  27.016  1.00  0.00    -0.200 F 
ATOM     60  F   UNL A   1      35.557  30.035  29.441  1.00  0.00    -0.200 F 
ENDBRANCH  26  50
BRANCH  38  61
ATOM     61  C   UNL A   1      45.597  32.509  29.485  1.00  0.00     0.064 A 
ATOM     62  C   UNL A   1      45.659  33.470  28.465  1.00  0.00     0.173 A 
ATOM     63  C   UNL A   1      45.904  32.913  30.792  1.00  0.00     0.173 A 
ATOM     64  F   UNL A   1      45.382  33.129  27.198  1.00  0.00    -0.203 F 
ATOM     65  C   UNL A   1      46.024  34.784  28.744  1.00  0.00     0.198 A 
ATOM     66  C   UNL A   1      46.244  34.233  31.071  1.00  0.00     0.198 A 
ATOM     67  F   UNL A   1      45.843  32.031  31.802  1.00  0.00    -0.203 F 
ATOM     68  F   UNL A   1      46.099  35.682  27.751  1.00  0.00    -0.200 F 
ATOM     69  C   UNL A   1      46.311  35.166  30.046  1.00  0.00     0.200 A 
ATOM     70  F   UNL A   1      46.498  34.605  32.333  1.00  0.00    -0.200 F 
ATOM     71  F   UNL A   1      46.647  36.435  30.314  1.00  0.00    -0.200 F 
ENDBRANCH  38  61
ENDBRANCH  12  13
ENDBRANCH   5   7
ENDBRANCH   2   3
ENDBRANCH   1   2
BRANCH   1  72
ATOM     72  C   UNL A   1      36.672  20.592  25.005  1.00  0.00     0.117 C 
BRANCH  72  73
ATOM     73  N   UNL A   1      36.892  21.700  24.095  1.00  0.00    -0.356 N 
ATOM     74  C   UNL A   1      36.069  22.653  23.586  1.00  0.00     0.226 C 
ATOM     75  H   UNL A   1      37.823  21.776  23.784  1.00  0.00     0.163 HD
ATOM     76  O   UNL A   1      36.603  23.484  22.842  1.00  0.00    -0.274 OA
BRANCH  74  77
ATOM     77  C   UNL A   1      34.560  22.758  23.869  1.00  0.00     0.103 C 
ATOM     78  C   UNL A   1      33.704  22.980  22.666  1.00  0.00    -0.016 C 
ATOM     79  C   UNL A   1      34.097  23.861  24.832  1.00  0.00     0.042 C 
ATOM     80  C   UNL A   1      33.031  24.134  22.745  1.00  0.00    -0.011 C 
ATOM     81  C   UNL A   1      33.395  24.916  23.960  1.00  0.00     0.093 C 
BRANCH  81  82
ATOM     82  N   UNL A   1      32.259  25.523  24.628  1.00  0.00    -0.204 NA
ATOM     83  H   UNL A   1      32.547  25.673  25.594  1.00  0.00     0.142 HD
BRANCH  82  84
ATOM     84  S   UNL A   1      31.569  26.968  24.118  1.00  0.00     0.244 S 
ATOM     85  O   UNL A   1      32.036  27.312  22.794  1.00  0.00    -0.207 OA
ATOM     86  O   UNL A   1      30.156  26.797  24.373  1.00  0.00    -0.207 OA
BRANCH  84  87
ATOM     87  C   UNL A   1      32.138  28.220  25.229  1.00  0.00     0.121 A 
ATOM     88  C   UNL A   1      33.130  27.925  26.175  1.00  0.00     0.028 A 
ATOM     89  C   UNL A   1      31.511  29.462  25.251  1.00  0.00     0.181 A 
ATOM     90  C   UNL A   1      33.516  28.897  27.104  1.00  0.00     0.044 A 
ATOM     91  C   UNL A   1      31.930  30.440  26.145  1.00  0.00     0.195 A 
ATOM     92  F   UNL A   1      30.498  29.751  24.426  1.00  0.00    -0.202 F 
ATOM     93  C   UNL A   1      32.926  30.157  27.069  1.00  0.00     0.161 A 
ATOM     94  F   UNL A   1      31.369  31.657  26.109  1.00  0.00    -0.200 F 
ATOM     95  F   UNL A   1      33.320  31.093  27.943  1.00  0.00    -0.204 F 
ENDBRANCH  84  87
ENDBRANCH  82  84
ENDBRANCH  81  82
ENDBRANCH  74  77
ENDBRANCH  72  73
ENDBRANCH   1  72
TORSDOF 13
ENDMDL
MODEL 2
REMARK VINA RESULT:     -11.3      4.820     10.141
REMARK SMILES O=C(NCCCNC(=O)[C@@H]1C=C[C@@H](NS(=O)(=O)c2ccc(F)c(F)c2F)C1)c1ccc(-c2c3nc(c(-c4c(F)c(F)c(F)c(F)c4F)c4ccc([nH]4)c(-c4c(F)c(F)c(F)c(F)c4F)c4nc(c(-c5c(F)c(F)c(F)c(F)c5F)c5ccc2[nH]5)C=C4)C=C3)cc1
REMARK SMILES IDX 5 1 4 2 3 3 1 4 2 5 28 7 29 8 90 9 30 10 89 11 31 12 32 13
REMARK SMILES IDX 33 14 83 15 34 16 88 17 82 18 84 19 35 20 87 21 81 22 80 23
REMARK SMILES IDX 36 25 68 26 48 27 67 28 49 29 52 30 66 31 85 32 50 33 51 34
REMARK SMILES IDX 65 36 86 37 53 38 37 39 38 40 46 41 39 42 40 43 44 44 47 45
REMARK SMILES IDX 41 46 42 47 45 48 43 49 69 50 70 51 78 52 71 53 72 54 76 55
REMARK SMILES IDX 79 56 73 57 74 58 77 59 75 60 54 61 55 62 63 63 56 64 57 65
REMARK SMILES IDX 61 66 64 67 58 68 59 69 62 70 60 71 6 72 7 73 8 74 9 76
REMARK SMILES IDX 10 77 11 78 27 79 12 80 13 81 14 82 15 84 16 85 17 86 18 87
REMARK SMILES IDX 19 88 25 89 20 90 23 91 26 92 21 93 24 94 22 95
REMARK H PARENT 3 6 84 24 52 35 7 75 14 83
REMARK Flexibility Score: inf
ROOT
ATOM      1  C   UNL A   1      34.450  33.684  28.063  1.00  0.00     0.042 C 
ENDROOT
BRANCH   1   2
ATOM      2  C   UNL A   1      34.687  32.451  28.921  1.00  0.00     0.118 C 
BRANCH   2   3
ATOM      3  N   UNL A   1      34.031  31.273  28.375  1.00  0.00    -0.352 N 
ATOM      4  O   UNL A   1      33.849  29.280  27.346  1.00  0.00    -0.269 OA
ATOM      5  C   UNL A   1      34.565  30.085  27.934  1.00  0.00     0.251 C 
ATOM      6  H   UNL A   1      33.050  31.336  28.310  1.00  0.00     0.163 HD
BRANCH   5   7
ATOM      7  C   UNL A   1      35.995  29.765  28.156  1.00  0.00     0.039 A 
ATOM      8  C   UNL A   1      36.960  30.073  27.197  1.00  0.00     0.014 A 
ATOM      9  C   UNL A   1      36.388  29.204  29.377  1.00  0.00     0.014 A 
ATOM     10  C   UNL A   1      38.285  29.705  27.400  1.00  0.00     0.010 A 
ATOM     11  C   UNL A   1      37.738  28.919  29.620  1.00  0.00     0.010 A 
ATOM     12  C   UNL A   1      38.696  29.148  28.623  1.00  0.00    -0.014 A 
BRANCH  12  13
ATOM     13  C   UNL A   1      40.146  28.908  28.842  1.00  0.00     0.031 A 
ATOM     14  C   UNL A   1      40.978  29.831  29.685  1.00  0.00     0.074 A 
ATOM     15  C   UNL A   1      40.690  27.785  28.330  1.00  0.00     0.049 A 
ATOM     16  N   UNL A   1      42.224  29.694  30.066  1.00  0.00    -0.248 NA
ATOM     17  C   UNL A   1      40.340  31.068  30.161  1.00  0.00     0.031 C 
ATOM     18  C   UNL A   1      39.980  26.824  27.480  1.00  0.00     0.029 A 
ATOM     19  N   UNL A   1      41.935  27.231  28.484  1.00  0.00    -0.354 N 
ATOM     20  C   UNL A   1      42.522  30.826  30.812  1.00  0.00     0.074 A 
ATOM     21  C   UNL A   1      41.335  31.654  30.816  1.00  0.00     0.031 C 
ATOM     22  C   UNL A   1      40.767  25.761  27.267  1.00  0.00     0.029 A 
ATOM     23  C   UNL A   1      42.055  25.989  27.910  1.00  0.00     0.049 A 
ATOM     24  H   UNL A   1      42.671  27.681  28.961  1.00  0.00     0.167 HD
ATOM     25  C   UNL A   1      43.680  31.135  31.442  1.00  0.00     0.037 A 
ATOM     26  C   UNL A   1      43.086  25.122  27.910  1.00  0.00     0.037 A 
ATOM     27  C   UNL A   1      44.851  30.297  31.456  1.00  0.00     0.049 A 
ATOM     28  C   UNL A   1      44.355  25.498  28.618  1.00  0.00     0.074 A 
ATOM     29  C   UNL A   1      46.062  30.519  32.090  1.00  0.00     0.029 A 
ATOM     30  N   UNL A   1      44.957  29.075  30.811  1.00  0.00    -0.354 N 
ATOM     31  N   UNL A   1      44.615  26.564  29.333  1.00  0.00    -0.248 NA
ATOM     32  C   UNL A   1      45.477  24.557  28.505  1.00  0.00     0.031 C 
ATOM     33  C   UNL A   1      46.913  29.448  31.799  1.00  0.00     0.029 A 
ATOM     34  C   UNL A   1      46.219  28.540  31.017  1.00  0.00     0.049 A 
ATOM     35  H   UNL A   1      44.242  28.650  30.283  1.00  0.00     0.167 HD
ATOM     36  C   UNL A   1      45.928  26.425  29.757  1.00  0.00     0.074 A 
ATOM     37  C   UNL A   1      46.402  25.155  29.244  1.00  0.00     0.031 C 
ATOM     38  C   UNL A   1      46.676  27.278  30.494  1.00  0.00     0.037 A 
BRANCH  25  39
ATOM     39  C   UNL A   1      43.757  32.439  32.181  1.00  0.00     0.064 A 
ATOM     40  C   UNL A   1      43.306  32.532  33.507  1.00  0.00     0.173 A 
ATOM     41  C   UNL A   1      44.175  33.616  31.544  1.00  0.00     0.173 A 
ATOM     42  F   UNL A   1      42.888  31.435  34.157  1.00  0.00    -0.203 F 
ATOM     43  C   UNL A   1      43.250  33.760  34.159  1.00  0.00     0.198 A 
ATOM     44  C   UNL A   1      44.137  34.840  32.207  1.00  0.00     0.198 A 
ATOM     45  F   UNL A   1      44.625  33.576  30.281  1.00  0.00    -0.203 F 
ATOM     46  F   UNL A   1      42.783  33.831  35.413  1.00  0.00    -0.200 F 
ATOM     47  C   UNL A   1      43.665  34.912  33.509  1.00  0.00     0.200 A 
ATOM     48  F   UNL A   1      44.555  35.951  31.583  1.00  0.00    -0.200 F 
ATOM     49  F   UNL A   1      43.609  36.096  34.138  1.00  0.00    -0.200 F 
ENDBRANCH  25  39
BRANCH  26  50
ATOM     50  C   UNL A   1      42.942  23.806  27.237  1.00  0.00     0.064 A 
ATOM     51  C   UNL A   1      42.362  22.709  27.892  1.00  0.00     0.173 A 
ATOM     52  C   UNL A   1      43.409  23.614  25.930  1.00  0.00     0.173 A 
ATOM     53  F   UNL A   1      41.903  22.842  29.144  1.00  0.00    -0.203 F 
ATOM     54  C   UNL A   1      42.278  21.465  27.272  1.00  0.00     0.198 A 
ATOM     55  C   UNL A   1      43.299  22.376  25.301  1.00  0.00     0.198 A 
ATOM     56  F   UNL A   1      43.952  24.639  25.256  1.00  0.00    -0.203 F 
ATOM     57  F   UNL A   1      41.755  20.424  27.933  1.00  0.00    -0.200 F 
ATOM     58  C   UNL A   1      42.742  21.300  25.976  1.00  0.00     0.200 A 
ATOM     59  F   UNL A   1      43.726  22.227  24.040  1.00  0.00    -0.200 F 
ATOM     60  F   UNL A   1      42.649  20.106  25.376  1.00  0.00    -0.200 F 
ENDBRANCH  26  50
BRANCH  38  61
ATOM     61  C   UNL A   1      48.087  26.872  30.790  1.00  0.00     0.064 A 
ATOM     62  C   UNL A   1      49.136  27.268  29.947  1.00  0.00     0.173 A 
ATOM     63  C   UNL A   1      48.392  26.046  31.881  1.00  0.00     0.173 A 
ATOM     64  F   UNL A   1      48.892  28.052  28.886  1.00  0.00    -0.203 F 
ATOM     65  C   UNL A   1      50.440  26.844  30.184  1.00  0.00     0.198 A 
ATOM     66  C   UNL A   1      49.701  25.645  32.130  1.00  0.00     0.198 A 
ATOM     67  F   UNL A   1      47.422  25.655  32.723  1.00  0.00    -0.203 F 
ATOM     68  F   UNL A   1      51.425  27.215  29.355  1.00  0.00    -0.200 F 
ATOM     69  C   UNL A   1      50.723  26.038  31.277  1.00  0.00     0.200 A 
ATOM     70  F   UNL A   1      49.975  24.885  33.199  1.00  0.00    -0.200 F 
ATOM     71  F   UNL A   1      51.982  25.643  31.512  1.00  0.00    -0.200 F 
ENDBRANCH  38  61
ENDBRANCH  12  13
ENDBRANCH   5   7
ENDBRANCH   2   3
ENDBRANCH   1   2
BRANCH   1  72
ATOM     72  C   UNL A   1      33.051  34.273  28.222  1.00  0.00     0.117 C 
BRANCH  72  73
ATOM     73  N   UNL A   1      33.099  35.651  28.673  1.00  0.00    -0.356 N 
ATOM     74  C   UNL A   1      33.211  36.214  29.904  1.00  0.00     0.226 C 
ATOM     75  H   UNL A   1      33.039  36.308  27.943  1.00  0.00     0.163 HD
ATOM     76  O   UNL A   1      33.251  37.451  29.928  1.00  0.00    -0.274 OA
BRANCH  74  77
ATOM     77  C   UNL A   1      33.286  35.435  31.228  1.00  0.00     0.103 C 
ATOM     78  C   UNL A   1      33.026  36.243  32.456  1.00  0.00    -0.016 C 
ATOM     79  C   UNL A   1      34.608  34.724  31.554  1.00  0.00     0.042 C 
ATOM     80  C   UNL A   1      34.085  36.251  33.275  1.00  0.00    -0.011 C 
ATOM     81  C   UNL A   1      35.253  35.534  32.692  1.00  0.00     0.093 C 
BRANCH  81  82
ATOM     82  N   UNL A   1      35.959  34.693  33.642  1.00  0.00    -0.204 NA
ATOM     83  H   UNL A   1      35.471  33.798  33.644  1.00  0.00     0.142 HD
BRANCH  82  84
ATOM     84  S   UNL A   1      37.594  34.332  33.500  1.00  0.00     0.244 S 
ATOM     85  O   UNL A   1      38.150  34.964  32.325  1.00  0.00    -0.207 OA
ATOM     86  O   UNL A   1      38.136  34.616  34.809  1.00  0.00    -0.207 OA
BRANCH  84  87
ATOM     87  C   UNL A   1      37.707  32.583  33.271  1.00  0.00     0.121 A 
ATOM     88  C   UNL A   1      36.574  31.846  32.895  1.00  0.00     0.028 A 
ATOM     89  C   UNL A   1      38.887  31.918  33.590  1.00  0.00     0.181 A 
ATOM     90  C   UNL A   1      36.653  30.453  32.796  1.00  0.00     0.044 A 
ATOM     91  C   UNL A   1      38.973  30.539  33.446  1.00  0.00     0.195 A 
ATOM     92  F   UNL A   1      39.962  32.576  34.041  1.00  0.00    -0.202 F 
ATOM     93  C   UNL A   1      37.860  29.809  33.054  1.00  0.00     0.161 A 
ATOM     94  F   UNL A   1      40.136  29.917  33.686  1.00  0.00    -0.200 F 
ATOM     95  F   UNL A   1      37.936  28.478  32.930  1.00  0.00    -0.204 F 
ENDBRANCH  84  87
ENDBRANCH  82  84
ENDBRANCH  81  82
ENDBRANCH  74  77
ENDBRANCH  72  73
ENDBRANCH   1  72
TORSDOF 13
ENDMDL
MODEL 3
REMARK VINA RESULT:     -11.3      5.298     10.457
REMARK SMILES O=C(NCCCNC(=O)[C@@H]1C=C[C@@H](NS(=O)(=O)c2ccc(F)c(F)c2F)C1)c1ccc(-c2c3nc(c(-c4c(F)c(F)c(F)c(F)c4F)c4ccc([nH]4)c(-c4c(F)c(F)c(F)c(F)c4F)c4nc(c(-c5c(F)c(F)c(F)c(F)c5F)c5ccc2[nH]5)C=C4)C=C3)cc1
REMARK SMILES IDX 5 1 4 2 3 3 1 4 2 5 28 7 29 8 90 9 30 10 89 11 31 12 32 13
REMARK SMILES IDX 33 14 83 15 34 16 88 17 82 18 84 19 35 20 87 21 81 22 80 23
REMARK SMILES IDX 36 25 68 26 48 27 67 28 49 29 52 30 66 31 85 32 50 33 51 34
REMARK SMILES IDX 65 36 86 37 53 38 37 39 38 40 46 41 39 42 40 43 44 44 47 45
REMARK SMILES IDX 41 46 42 47 45 48 43 49 69 50 70 51 78 52 71 53 72 54 76 55
REMARK SMILES IDX 79 56 73 57 74 58 77 59 75 60 54 61 55 62 63 63 56 64 57 65
REMARK SMILES IDX 61 66 64 67 58 68 59 69 62 70 60 71 6 72 7 73 8 74 9 76
REMARK SMILES IDX 10 77 11 78 27 79 12 80 13 81 14 82 15 84 16 85 17 86 18 87
REMARK SMILES IDX 19 88 25 89 20 90 23 91 26 92 21 93 24 94 22 95
REMARK H PARENT 3 6 84 24 52 35 7 75 14 83
REMARK Flexibility Score: inf
ROOT
ATOM      1  C   UNL A   1      30.870  31.532  26.397  1.00  0.00     0.042 C 
ENDROOT
BRANCH   1   2
ATOM      2  C   UNL A   1      32.244  32.126  26.670  1.00  0.00     0.118 C 
BRANCH   2   3
ATOM      3  N   UNL A   1      32.162  33.514  27.101  1.00  0.00    -0.352 N 
ATOM      4  O   UNL A   1      32.559  35.325  28.376  1.00  0.00    -0.269 OA
ATOM      5  C   UNL A   1      32.904  34.197  28.036  1.00  0.00     0.251 C 
ATOM      6  H   UNL A   1      31.467  34.047  26.653  1.00  0.00     0.163 HD
BRANCH   5   7
ATOM      7  C   UNL A   1      34.112  33.588  28.641  1.00  0.00     0.039 A 
ATOM      8  C   UNL A   1      35.311  34.295  28.725  1.00  0.00     0.014 A 
ATOM      9  C   UNL A   1      34.026  32.304  29.195  1.00  0.00     0.014 A 
ATOM     10  C   UNL A   1      36.447  33.680  29.237  1.00  0.00     0.010 A 
ATOM     11  C   UNL A   1      35.147  31.720  29.797  1.00  0.00     0.010 A 
ATOM     12  C   UNL A   1      36.374  32.396  29.804  1.00  0.00    -0.014 A 
BRANCH  12  13
ATOM     13  C   UNL A   1      37.584  31.844  30.468  1.00  0.00     0.031 A 
ATOM     14  C   UNL A   1      37.900  32.146  31.904  1.00  0.00     0.074 A 
ATOM     15  C   UNL A   1      38.359  30.988  29.771  1.00  0.00     0.049 A 
ATOM     16  N   UNL A   1      38.849  31.649  32.658  1.00  0.00    -0.248 NA
ATOM     17  C   UNL A   1      37.051  33.135  32.588  1.00  0.00     0.031 C 
ATOM     18  C   UNL A   1      38.156  30.634  28.363  1.00  0.00     0.029 A 
ATOM     19  N   UNL A   1      39.430  30.223  30.153  1.00  0.00    -0.354 N 
ATOM     20  C   UNL A   1      38.721  32.268  33.894  1.00  0.00     0.074 A 
ATOM     21  C   UNL A   1      37.615  33.196  33.788  1.00  0.00     0.031 C 
ATOM     22  C   UNL A   1      39.012  29.659  28.028  1.00  0.00     0.029 A 
ATOM     23  C   UNL A   1      39.862  29.360  29.175  1.00  0.00     0.049 A 
ATOM     24  H   UNL A   1      39.851  30.285  31.042  1.00  0.00     0.167 HD
ATOM     25  C   UNL A   1      39.456  32.069  35.013  1.00  0.00     0.037 A 
ATOM     26  C   UNL A   1      40.828  28.422  29.199  1.00  0.00     0.037 A 
ATOM     27  C   UNL A   1      40.540  31.127  35.121  1.00  0.00     0.049 A 
ATOM     28  C   UNL A   1      41.624  28.228  30.457  1.00  0.00     0.074 A 
ATOM     29  C   UNL A   1      41.325  30.840  36.225  1.00  0.00     0.029 A 
ATOM     30  N   UNL A   1      40.989  30.315  34.091  1.00  0.00    -0.354 N 
ATOM     31  N   UNL A   1      41.479  28.809  31.622  1.00  0.00    -0.248 NA
ATOM     32  C   UNL A   1      42.727  27.259  30.398  1.00  0.00     0.031 C 
ATOM     33  C   UNL A   1      42.272  29.881  35.852  1.00  0.00     0.029 A 
ATOM     34  C   UNL A   1      42.051  29.541  34.528  1.00  0.00     0.049 A 
ATOM     35  H   UNL A   1      40.610  30.294  33.182  1.00  0.00     0.167 HD
ATOM     36  C   UNL A   1      42.468  28.280  32.435  1.00  0.00     0.074 A 
ATOM     37  C   UNL A   1      43.190  27.306  31.640  1.00  0.00     0.031 C 
ATOM     38  C   UNL A   1      42.761  28.582  33.722  1.00  0.00     0.037 A 
BRANCH  25  39
ATOM     39  C   UNL A   1      39.124  32.880  36.231  1.00  0.00     0.064 A 
ATOM     40  C   UNL A   1      39.691  34.151  36.414  1.00  0.00     0.173 A 
ATOM     41  C   UNL A   1      38.334  32.357  37.264  1.00  0.00     0.173 A 
ATOM     42  F   UNL A   1      40.461  34.692  35.458  1.00  0.00    -0.203 F 
ATOM     43  C   UNL A   1      39.496  34.858  37.597  1.00  0.00     0.198 A 
ATOM     44  C   UNL A   1      38.124  33.077  38.438  1.00  0.00     0.198 A 
ATOM     45  F   UNL A   1      37.762  31.151  37.132  1.00  0.00    -0.203 F 
ATOM     46  F   UNL A   1      40.075  36.055  37.764  1.00  0.00    -0.200 F 
ATOM     47  C   UNL A   1      38.713  34.321  38.607  1.00  0.00     0.200 A 
ATOM     48  F   UNL A   1      37.353  32.563  39.408  1.00  0.00    -0.200 F 
ATOM     49  F   UNL A   1      38.528  35.002  39.747  1.00  0.00    -0.200 F 
ENDBRANCH  25  39
BRANCH  26  50
ATOM     50  C   UNL A   1      41.071  27.582  27.999  1.00  0.00     0.064 A 
ATOM     51  C   UNL A   1      40.484  26.316  27.860  1.00  0.00     0.173 A 
ATOM     52  C   UNL A   1      41.922  28.022  26.976  1.00  0.00     0.173 A 
ATOM     53  F   UNL A   1      39.664  25.849  28.813  1.00  0.00    -0.203 F 
ATOM     54  C   UNL A   1      40.758  25.513  26.756  1.00  0.00     0.198 A 
ATOM     55  C   UNL A   1      42.173  27.230  25.858  1.00  0.00     0.198 A 
ATOM     56  F   UNL A   1      42.491  29.235  27.054  1.00  0.00    -0.203 F 
ATOM     57  F   UNL A   1      40.213  24.292  26.667  1.00  0.00    -0.200 F 
ATOM     58  C   UNL A   1      41.598  25.972  25.753  1.00  0.00     0.200 A 
ATOM     59  F   UNL A   1      42.967  27.686  24.881  1.00  0.00    -0.200 F 
ATOM     60  F   UNL A   1      41.851  25.204  24.685  1.00  0.00    -0.200 F 
ENDBRANCH  26  50
BRANCH  38  61
ATOM     61  C   UNL A   1      43.910  27.857  34.351  1.00  0.00     0.064 A 
ATOM     62  C   UNL A   1      43.711  26.631  35.004  1.00  0.00     0.173 A 
ATOM     63  C   UNL A   1      45.202  28.403  34.352  1.00  0.00     0.173 A 
ATOM     64  F   UNL A   1      42.492  26.073  35.036  1.00  0.00    -0.203 F 
ATOM     65  C   UNL A   1      44.764  25.983  35.642  1.00  0.00     0.198 A 
ATOM     66  C   UNL A   1      46.258  27.740  34.969  1.00  0.00     0.198 A 
ATOM     67  F   UNL A   1      45.442  29.566  33.727  1.00  0.00    -0.203 F 
ATOM     68  F   UNL A   1      44.548  24.824  36.279  1.00  0.00    -0.200 F 
ATOM     69  C   UNL A   1      46.037  26.534  35.620  1.00  0.00     0.200 A 
ATOM     70  F   UNL A   1      47.491  28.263  34.928  1.00  0.00    -0.200 F 
ATOM     71  F   UNL A   1      47.053  25.901  36.222  1.00  0.00    -0.200 F 
ENDBRANCH  38  61
ENDBRANCH  12  13
ENDBRANCH   5   7
ENDBRANCH   2   3
ENDBRANCH   1   2
BRANCH   1  72
ATOM     72  C   UNL A   1      30.632  31.210  24.924  1.00  0.00     0.117 C 
BRANCH  72  73
ATOM     73  N   UNL A   1      29.665  32.114  24.329  1.00  0.00    -0.356 N 
ATOM     74  C   UNL A   1      28.833  32.001  23.261  1.00  0.00     0.226 C 
ATOM     75  H   UNL A   1      29.597  32.980  24.791  1.00  0.00     0.163 HD
ATOM     76  O   UNL A   1      28.101  32.974  23.044  1.00  0.00    -0.274 OA
BRANCH  74  77
ATOM     77  C   UNL A   1      28.749  30.777  22.333  1.00  0.00     0.103 C 
ATOM     78  C   UNL A   1      27.885  29.664  22.828  1.00  0.00    -0.016 C 
ATOM     79  C   UNL A   1      30.064  30.065  21.983  1.00  0.00     0.042 C 
ATOM     80  C   UNL A   1      28.584  28.537  23.003  1.00  0.00    -0.011 C 
ATOM     81  C   UNL A   1      30.039  28.732  22.749  1.00  0.00     0.093 C 
BRANCH  81  82
ATOM     82  N   UNL A   1      30.653  27.649  22.001  1.00  0.00    -0.204 NA
ATOM     83  H   UNL A   1      31.108  28.083  21.199  1.00  0.00     0.142 HD
BRANCH  82  84
ATOM     84  S   UNL A   1      31.788  26.608  22.673  1.00  0.00     0.244 S 
ATOM     85  O   UNL A   1      31.181  25.334  22.988  1.00  0.00    -0.207 OA
ATOM     86  O   UNL A   1      32.913  26.678  21.769  1.00  0.00    -0.207 OA
BRANCH  84  87
ATOM     87  C   UNL A   1      32.310  27.343  24.194  1.00  0.00     0.121 A 
ATOM     88  C   UNL A   1      33.604  27.872  24.314  1.00  0.00     0.028 A 
ATOM     89  C   UNL A   1      31.484  27.281  25.311  1.00  0.00     0.181 A 
ATOM     90  C   UNL A   1      34.036  28.377  25.544  1.00  0.00     0.044 A 
ATOM     91  C   UNL A   1      31.901  27.826  26.520  1.00  0.00     0.195 A 
ATOM     92  F   UNL A   1      30.278  26.702  25.260  1.00  0.00    -0.202 F 
ATOM     93  C   UNL A   1      33.173  28.368  26.636  1.00  0.00     0.161 A 
ATOM     94  F   UNL A   1      31.069  27.827  27.571  1.00  0.00    -0.200 F 
ATOM     95  F   UNL A   1      33.583  28.879  27.804  1.00  0.00    -0.204 F 
ENDBRANCH  84  87
ENDBRANCH  82  84
ENDBRANCH  81  82
ENDBRANCH  74  77
ENDBRANCH  72  73
ENDBRANCH   1  72
TORSDOF 13
ENDMDL
