MODEL 1
REMARK VINA RESULT:     -12.9      0.000      0.000
REMARK SMILES Cc1cc(NC(=O)c2ccc3ncsc3c2)sc1C(=O)NCCCNC(=O)c1ccc(-c2c3nc(c(-c4c(F)c(F)c(F)c(F)c4F)c4ccc([nH]4)c(-c4c(F)c(F)c(F)c(F)c4F)c4nc(c(-c5c(F)c(F)c(F)c(F)c5F)c5ccc2[nH]5)C=C4)C=C3)cc1
REMARK SMILES IDX 23 1 22 2 21 3 19 4 20 5 18 7 1 8 2 9 3 10 4 11 17 12 5 13
REMARK SMILES IDX 6 14 7 16 8 17 9 18 16 19 10 20 15 21 11 22 14 23 12 24
REMARK SMILES IDX 13 25 24 26 25 27 26 28 27 30 28 31 29 32 90 33 30 34 89 35
REMARK SMILES IDX 31 36 32 37 33 38 83 39 34 40 88 41 82 42 84 43 35 44 87 45
REMARK SMILES IDX 81 46 80 47 36 49 68 50 48 51 67 52 49 53 52 54 66 55 85 56
REMARK SMILES IDX 50 57 51 58 65 60 86 61 53 62 37 63 38 64 46 65 39 66 40 67
REMARK SMILES IDX 44 68 47 69 41 70 42 71 45 72 43 73 69 74 70 75 78 76 71 77
REMARK SMILES IDX 72 78 76 79 79 80 73 81 74 82 77 83 75 84 54 85 55 86 63 87
REMARK SMILES IDX 56 88 57 89 61 90 64 91 58 92 59 93 62 94 60 95
REMARK H PARENT 21 6 5 15 25 29 84 48 52 59
REMARK Flexibility Score: inf
ROOT
ATOM      1  C   UNL A   1      31.028  31.953  26.501  1.00  0.00     0.042 C 
ENDROOT
BRANCH   1   2
ATOM      2  C   UNL A   1      31.041  30.872  25.424  1.00  0.00     0.118 C 
BRANCH   2   3
ATOM      3  N   UNL A   1      32.278  30.131  25.428  1.00  0.00    -0.351 N 
ATOM      4  C   UNL A   1      32.600  28.823  25.166  1.00  0.00     0.261 C 
ATOM      5  O   UNL A   1      33.824  28.643  25.116  1.00  0.00    -0.268 OA
ATOM      6  H   UNL A   1      33.058  30.680  25.670  1.00  0.00     0.163 HD
BRANCH   4   7
ATOM      7  C   UNL A   1      31.641  27.727  24.978  1.00  0.00     0.097 A 
ATOM      8  C   UNL A   1      30.220  27.918  22.751  1.00  0.00     0.046 C 
ATOM      9  C   UNL A   1      30.625  27.383  24.079  1.00  0.00    -0.025 A 
ATOM     10  C   UNL A   1      29.817  26.329  24.614  1.00  0.00     0.042 A 
ATOM     11  C   UNL A   1      30.476  25.598  25.555  1.00  0.00     0.096 A 
ATOM     12  S   UNL A   1      31.741  26.480  26.225  1.00  0.00    -0.112 S 
BRANCH  11  13
ATOM     13  N   UNL A   1      30.276  24.323  26.027  1.00  0.00    -0.314 N 
ATOM     14  C   UNL A   1      30.972  23.192  25.629  1.00  0.00     0.256 C 
ATOM     15  H   UNL A   1      29.575  24.201  26.709  1.00  0.00     0.171 HD
ATOM     16  O   UNL A   1      30.613  22.067  25.956  1.00  0.00    -0.269 OA
BRANCH  14  17
ATOM     17  C   UNL A   1      32.223  23.335  24.835  1.00  0.00     0.041 A 
ATOM     18  C   UNL A   1      32.171  23.299  23.438  1.00  0.00     0.016 A 
ATOM     19  C   UNL A   1      33.446  23.374  25.518  1.00  0.00     0.035 A 
ATOM     20  C   UNL A   1      33.352  23.196  22.694  1.00  0.00     0.030 A 
ATOM     21  C   UNL A   1      34.621  23.247  24.753  1.00  0.00     0.055 A 
ATOM     22  C   UNL A   1      34.594  23.138  23.358  1.00  0.00     0.081 A 
ATOM     23  S   UNL A   1      36.258  23.147  25.287  1.00  0.00    -0.122 S 
ATOM     24  N   UNL A   1      35.825  22.953  22.751  1.00  0.00    -0.245 NA
ATOM     25  C   UNL A   1      36.767  22.942  23.664  1.00  0.00     0.176 A 
ENDBRANCH  14  17
ENDBRANCH  11  13
ENDBRANCH   4   7
ENDBRANCH   2   3
ENDBRANCH   1   2
BRANCH   1  26
ATOM     26  C   UNL A   1      32.406  32.444  26.917  1.00  0.00     0.118 C 
BRANCH  26  27
ATOM     27  N   UNL A   1      32.376  33.836  27.341  1.00  0.00    -0.352 N 
ATOM     28  C   UNL A   1      33.038  34.477  28.359  1.00  0.00     0.251 C 
ATOM     29  H   UNL A   1      31.781  34.413  26.811  1.00  0.00     0.163 HD
ATOM     30  O   UNL A   1      32.664  35.595  28.697  1.00  0.00    -0.269 OA
BRANCH  28  31
ATOM     31  C   UNL A   1      34.187  33.850  29.054  1.00  0.00     0.039 A 
ATOM     32  C   UNL A   1      35.474  34.338  28.796  1.00  0.00     0.014 A 
ATOM     33  C   UNL A   1      34.028  32.746  29.896  1.00  0.00     0.014 A 
ATOM     34  C   UNL A   1      36.584  33.750  29.409  1.00  0.00     0.010 A 
ATOM     35  C   UNL A   1      35.123  32.220  30.579  1.00  0.00     0.010 A 
ATOM     36  C   UNL A   1      36.415  32.703  30.328  1.00  0.00    -0.014 A 
BRANCH  36  37
ATOM     37  C   UNL A   1      37.575  32.078  31.013  1.00  0.00     0.031 A 
ATOM     38  C   UNL A   1      38.378  31.013  30.317  1.00  0.00     0.074 A 
ATOM     39  C   UNL A   1      37.865  32.424  32.282  1.00  0.00     0.049 A 
ATOM     40  N   UNL A   1      39.369  30.289  30.773  1.00  0.00    -0.248 NA
ATOM     41  C   UNL A   1      37.995  30.696  28.932  1.00  0.00     0.031 C 
ATOM     42  C   UNL A   1      37.132  33.407  33.079  1.00  0.00     0.029 A 
ATOM     43  N   UNL A   1      38.847  31.975  33.129  1.00  0.00    -0.354 N 
ATOM     44  C   UNL A   1      39.712  29.423  29.743  1.00  0.00     0.074 A 
ATOM     45  C   UNL A   1      38.788  29.672  28.657  1.00  0.00     0.031 C 
ATOM     46  C   UNL A   1      37.702  33.505  34.290  1.00  0.00     0.029 A 
ATOM     47  C   UNL A   1      38.815  32.564  34.370  1.00  0.00     0.049 A 
ATOM     48  H   UNL A   1      39.512  31.296  32.873  1.00  0.00     0.167 HD
ATOM     49  C   UNL A   1      40.722  28.521  29.696  1.00  0.00     0.037 A 
ATOM     50  C   UNL A   1      39.590  32.361  35.451  1.00  0.00     0.037 A 
ATOM     51  C   UNL A   1      41.656  28.301  30.767  1.00  0.00     0.049 A 
ATOM     52  C   UNL A   1      40.710  31.359  35.371  1.00  0.00     0.074 A 
ATOM     53  C   UNL A   1      42.749  27.453  30.800  1.00  0.00     0.029 A 
ATOM     54  N   UNL A   1      41.608  28.938  31.998  1.00  0.00    -0.354 N 
ATOM     55  N   UNL A   1      41.062  30.590  34.370  1.00  0.00    -0.248 NA
ATOM     56  C   UNL A   1      41.546  31.204  36.570  1.00  0.00     0.031 C 
ATOM     57  C   UNL A   1      43.336  27.545  32.066  1.00  0.00     0.029 A 
ATOM     58  C   UNL A   1      42.641  28.487  32.805  1.00  0.00     0.049 A 
ATOM     59  H   UNL A   1      40.938  29.610  32.261  1.00  0.00     0.167 HD
ATOM     60  C   UNL A   1      42.172  29.881  34.805  1.00  0.00     0.074 A 
ATOM     61  C   UNL A   1      42.446  30.323  36.157  1.00  0.00     0.031 C 
ATOM     62  C   UNL A   1      42.901  28.945  34.146  1.00  0.00     0.037 A 
BRANCH  49  63
ATOM     63  C   UNL A   1      40.870  27.709  28.441  1.00  0.00     0.064 A 
ATOM     64  C   UNL A   1      41.675  28.141  27.375  1.00  0.00     0.173 A 
ATOM     65  C   UNL A   1      40.225  26.469  28.312  1.00  0.00     0.173 A 
ATOM     66  F   UNL A   1      42.304  29.325  27.440  1.00  0.00    -0.203 F 
ATOM     67  C   UNL A   1      41.803  27.379  26.216  1.00  0.00     0.198 A 
ATOM     68  C   UNL A   1      40.381  25.694  27.164  1.00  0.00     0.198 A 
ATOM     69  F   UNL A   1      39.449  26.004  29.302  1.00  0.00    -0.203 F 
ATOM     70  F   UNL A   1      42.533  27.839  25.191  1.00  0.00    -0.200 F 
ATOM     71  C   UNL A   1      41.161  26.154  26.114  1.00  0.00     0.200 A 
ATOM     72  F   UNL A   1      39.771  24.504  27.073  1.00  0.00    -0.200 F 
ATOM     73  F   UNL A   1      41.289  25.418  25.001  1.00  0.00    -0.200 F 
ENDBRANCH  49  63
BRANCH  50  74
ATOM     74  C   UNL A   1      39.352  33.146  36.691  1.00  0.00     0.064 A 
ATOM     75  C   UNL A   1      40.015  34.360  36.913  1.00  0.00     0.173 A 
ATOM     76  C   UNL A   1      38.453  32.704  37.673  1.00  0.00     0.173 A 
ATOM     77  F   UNL A   1      40.899  34.814  36.010  1.00  0.00    -0.203 F 
ATOM     78  C   UNL A   1      39.805  35.094  38.078  1.00  0.00     0.198 A 
ATOM     79  C   UNL A   1      38.221  33.453  38.825  1.00  0.00     0.198 A 
ATOM     80  F   UNL A   1      37.786  31.553  37.506  1.00  0.00    -0.203 F 
ATOM     81  F   UNL A   1      40.484  36.230  38.284  1.00  0.00    -0.200 F 
ATOM     82  C   UNL A   1      38.903  34.643  39.030  1.00  0.00     0.200 A 
ATOM     83  F   UNL A   1      37.336  33.023  39.734  1.00  0.00    -0.200 F 
ATOM     84  F   UNL A   1      38.695  35.353  40.148  1.00  0.00    -0.200 F 
ENDBRANCH  50  74
BRANCH  62  85
ATOM     85  C   UNL A   1      44.081  28.363  34.866  1.00  0.00     0.064 A 
ATOM     86  C   UNL A   1      43.979  27.182  35.614  1.00  0.00     0.173 A 
ATOM     87  C   UNL A   1      45.340  28.977  34.774  1.00  0.00     0.173 A 
ATOM     88  F   UNL A   1      42.793  26.566  35.746  1.00  0.00    -0.203 F 
ATOM     89  C   UNL A   1      45.087  26.650  36.266  1.00  0.00     0.198 A 
ATOM     90  C   UNL A   1      46.453  28.425  35.401  1.00  0.00     0.198 A 
ATOM     91  F   UNL A   1      45.493  30.105  34.063  1.00  0.00    -0.203 F 
ATOM     92  F   UNL A   1      44.956  25.547  37.016  1.00  0.00    -0.200 F 
ATOM     93  C   UNL A   1      46.325  27.267  36.154  1.00  0.00     0.200 A 
ATOM     94  F   UNL A   1      47.650  29.015  35.280  1.00  0.00    -0.200 F 
ATOM     95  F   UNL A   1      47.392  26.750  36.776  1.00  0.00    -0.200 F 
ENDBRANCH  62  85
ENDBRANCH  36  37
ENDBRANCH  28  31
ENDBRANCH  26  27
ENDBRANCH   1  26
TORSDOF 12
ENDMDL
MODEL 2
REMARK VINA RESULT:     -12.8      1.819      2.955
REMARK SMILES Cc1cc(NC(=O)c2ccc3ncsc3c2)sc1C(=O)NCCCNC(=O)c1ccc(-c2c3nc(c(-c4c(F)c(F)c(F)c(F)c4F)c4ccc([nH]4)c(-c4c(F)c(F)c(F)c(F)c4F)c4nc(c(-c5c(F)c(F)c(F)c(F)c5F)c5ccc2[nH]5)C=C4)C=C3)cc1
REMARK SMILES IDX 23 1 22 2 21 3 19 4 20 5 18 7 1 8 2 9 3 10 4 11 17 12 5 13
REMARK SMILES IDX 6 14 7 16 8 17 9 18 16 19 10 20 15 21 11 22 14 23 12 24
REMARK SMILES IDX 13 25 24 26 25 27 26 28 27 30 28 31 29 32 90 33 30 34 89 35
REMARK SMILES IDX 31 36 32 37 33 38 83 39 34 40 88 41 82 42 84 43 35 44 87 45
REMARK SMILES IDX 81 46 80 47 36 49 68 50 48 51 67 52 49 53 52 54 66 55 85 56
REMARK SMILES IDX 50 57 51 58 65 60 86 61 53 62 37 63 38 64 46 65 39 66 40 67
REMARK SMILES IDX 44 68 47 69 41 70 42 71 45 72 43 73 69 74 70 75 78 76 71 77
REMARK SMILES IDX 72 78 76 79 79 80 73 81 74 82 77 83 75 84 54 85 55 86 63 87
REMARK SMILES IDX 56 88 57 89 61 90 64 91 58 92 59 93 62 94 60 95
REMARK H PARENT 21 6 5 15 25 29 84 48 52 59
REMARK Flexibility Score: inf
ROOT
ATOM      1  C   UNL A   1      34.172  29.207  23.583  1.00  0.00     0.042 C 
ENDROOT
BRANCH   1   2
ATOM      2  C   UNL A   1      33.743  28.389  22.367  1.00  0.00     0.118 C 
BRANCH   2   3
ATOM      3  N   UNL A   1      32.356  28.609  22.040  1.00  0.00    -0.351 N 
ATOM      4  C   UNL A   1      31.197  27.929  22.317  1.00  0.00     0.261 C 
ATOM      5  O   UNL A   1      30.189  28.568  21.986  1.00  0.00    -0.268 OA
ATOM      6  H   UNL A   1      32.209  29.421  21.503  1.00  0.00     0.163 HD
BRANCH   4   7
ATOM      7  C   UNL A   1      31.112  26.591  22.917  1.00  0.00     0.097 A 
ATOM      8  C   UNL A   1      32.504  24.747  21.623  1.00  0.00     0.046 C 
ATOM      9  C   UNL A   1      31.545  25.295  22.620  1.00  0.00    -0.025 A 
ATOM     10  C   UNL A   1      30.866  24.338  23.441  1.00  0.00     0.042 A 
ATOM     11  C   UNL A   1      30.386  24.889  24.590  1.00  0.00     0.096 A 
ATOM     12  S   UNL A   1      30.192  26.552  24.424  1.00  0.00    -0.112 S 
BRANCH  11  13
ATOM     13  N   UNL A   1      30.044  24.332  25.798  1.00  0.00    -0.314 N 
ATOM     14  C   UNL A   1      30.903  23.657  26.652  1.00  0.00     0.256 C 
ATOM     15  H   UNL A   1      29.105  24.418  26.083  1.00  0.00     0.171 HD
ATOM     16  O   UNL A   1      30.487  23.028  27.619  1.00  0.00    -0.269 OA
BRANCH  14  17
ATOM     17  C   UNL A   1      32.373  23.738  26.438  1.00  0.00     0.041 A 
ATOM     18  C   UNL A   1      32.986  24.985  26.268  1.00  0.00     0.016 A 
ATOM     19  C   UNL A   1      33.093  22.546  26.282  1.00  0.00     0.035 A 
ATOM     20  C   UNL A   1      34.314  25.061  25.835  1.00  0.00     0.030 A 
ATOM     21  C   UNL A   1      34.420  22.644  25.825  1.00  0.00     0.055 A 
ATOM     22  C   UNL A   1      35.036  23.877  25.581  1.00  0.00     0.081 A 
ATOM     23  S   UNL A   1      35.528  21.382  25.430  1.00  0.00    -0.122 S 
ATOM     24  N   UNL A   1      36.322  23.810  25.071  1.00  0.00    -0.245 NA
ATOM     25  C   UNL A   1      36.682  22.554  24.952  1.00  0.00     0.176 A 
ENDBRANCH  14  17
ENDBRANCH  11  13
ENDBRANCH   4   7
ENDBRANCH   2   3
ENDBRANCH   1   2
BRANCH   1  26
ATOM     26  C   UNL A   1      33.379  28.917  24.848  1.00  0.00     0.118 C 
BRANCH  26  27
ATOM     27  N   UNL A   1      32.789  30.125  25.402  1.00  0.00    -0.352 N 
ATOM     28  C   UNL A   1      33.063  30.806  26.562  1.00  0.00     0.251 C 
ATOM     29  H   UNL A   1      32.073  30.520  24.854  1.00  0.00     0.163 HD
ATOM     30  O   UNL A   1      32.266  31.652  26.956  1.00  0.00    -0.269 OA
BRANCH  28  31
ATOM     31  C   UNL A   1      34.293  30.541  27.346  1.00  0.00     0.039 A 
ATOM     32  C   UNL A   1      35.139  31.616  27.648  1.00  0.00     0.014 A 
ATOM     33  C   UNL A   1      34.665  29.249  27.723  1.00  0.00     0.014 A 
ATOM     34  C   UNL A   1      36.324  31.400  28.357  1.00  0.00     0.010 A 
ATOM     35  C   UNL A   1      35.797  29.046  28.510  1.00  0.00     0.010 A 
ATOM     36  C   UNL A   1      36.649  30.115  28.819  1.00  0.00    -0.014 A 
BRANCH  36  37
ATOM     37  C   UNL A   1      37.889  29.862  29.597  1.00  0.00     0.031 A 
ATOM     38  C   UNL A   1      38.935  28.921  29.064  1.00  0.00     0.074 A 
ATOM     39  C   UNL A   1      38.042  30.429  30.809  1.00  0.00     0.049 A 
ATOM     40  N   UNL A   1      40.041  28.504  29.627  1.00  0.00    -0.248 NA
ATOM     41  C   UNL A   1      38.690  28.345  27.732  1.00  0.00     0.031 C 
ATOM     42  C   UNL A   1      37.078  31.320  31.453  1.00  0.00     0.029 A 
ATOM     43  N   UNL A   1      39.062  30.327  31.721  1.00  0.00    -0.354 N 
ATOM     44  C   UNL A   1      40.609  27.609  28.731  1.00  0.00     0.074 A 
ATOM     45  C   UNL A   1      39.699  27.498  27.611  1.00  0.00     0.031 C 
ATOM     46  C   UNL A   1      37.560  31.702  32.645  1.00  0.00     0.029 A 
ATOM     47  C   UNL A   1      38.848  31.053  32.868  1.00  0.00     0.049 A 
ATOM     48  H   UNL A   1      39.870  29.787  31.568  1.00  0.00     0.167 HD
ATOM     49  C   UNL A   1      41.794  26.957  28.821  1.00  0.00     0.037 A 
ATOM     50  C   UNL A   1      39.604  31.174  33.975  1.00  0.00     0.037 A 
ATOM     51  C   UNL A   1      42.708  27.095  29.923  1.00  0.00     0.049 A 
ATOM     52  C   UNL A   1      40.919  30.446  34.048  1.00  0.00     0.074 A 
ATOM     53  C   UNL A   1      43.958  26.526  30.085  1.00  0.00     0.029 A 
ATOM     54  N   UNL A   1      42.468  27.863  31.053  1.00  0.00    -0.354 N 
ATOM     55  N   UNL A   1      41.473  29.650  33.166  1.00  0.00    -0.248 NA
ATOM     56  C   UNL A   1      41.717  30.643  35.266  1.00  0.00     0.031 C 
ATOM     57  C   UNL A   1      44.457  26.914  31.333  1.00  0.00     0.029 A 
ATOM     58  C   UNL A   1      43.541  27.766  31.927  1.00  0.00     0.049 A 
ATOM     59  H   UNL A   1      41.657  28.397  31.213  1.00  0.00     0.167 HD
ATOM     60  C   UNL A   1      42.693  29.271  33.709  1.00  0.00     0.074 A 
ATOM     61  C   UNL A   1      42.805  29.939  34.989  1.00  0.00     0.031 C 
ATOM     62  C   UNL A   1      43.637  28.444  33.194  1.00  0.00     0.037 A 
BRANCH  49  63
ATOM     63  C   UNL A   1      42.170  26.040  27.692  1.00  0.00     0.064 A 
ATOM     64  C   UNL A   1      43.081  26.431  26.698  1.00  0.00     0.173 A 
ATOM     65  C   UNL A   1      41.638  24.743  27.618  1.00  0.00     0.173 A 
ATOM     66  F   UNL A   1      43.610  27.663  26.714  1.00  0.00    -0.203 F 
ATOM     67  C   UNL A   1      43.420  25.571  25.656  1.00  0.00     0.198 A 
ATOM     68  C   UNL A   1      42.004  23.874  26.592  1.00  0.00     0.198 A 
ATOM     69  F   UNL A   1      40.767  24.315  28.544  1.00  0.00    -0.203 F 
ATOM     70  F   UNL A   1      44.250  25.987  24.690  1.00  0.00    -0.200 F 
ATOM     71  C   UNL A   1      42.886  24.292  25.607  1.00  0.00     0.200 A 
ATOM     72  F   UNL A   1      41.498  22.634  26.554  1.00  0.00    -0.200 F 
ATOM     73  F   UNL A   1      43.218  23.463  24.608  1.00  0.00    -0.200 F 
ENDBRANCH  49  63
BRANCH  50  74
ATOM     74  C   UNL A   1      39.146  32.042  35.092  1.00  0.00     0.064 A 
ATOM     75  C   UNL A   1      38.444  31.505  36.179  1.00  0.00     0.173 A 
ATOM     76  C   UNL A   1      39.406  33.421  35.099  1.00  0.00     0.173 A 
ATOM     77  F   UNL A   1      38.156  30.195  36.208  1.00  0.00    -0.203 F 
ATOM     78  C   UNL A   1      38.003  32.315  37.223  1.00  0.00     0.198 A 
ATOM     79  C   UNL A   1      38.989  34.226  36.158  1.00  0.00     0.198 A 
ATOM     80  F   UNL A   1      40.081  33.983  34.086  1.00  0.00    -0.203 F 
ATOM     81  F   UNL A   1      37.297  31.782  38.230  1.00  0.00    -0.200 F 
ATOM     82  C   UNL A   1      38.281  33.673  37.215  1.00  0.00     0.200 A 
ATOM     83  F   UNL A   1      39.276  35.534  36.155  1.00  0.00    -0.200 F 
ATOM     84  F   UNL A   1      37.863  34.451  38.223  1.00  0.00    -0.200 F 
ENDBRANCH  50  74
BRANCH  62  85
ATOM     85  C   UNL A   1      44.885  28.241  34.001  1.00  0.00     0.064 A 
ATOM     86  C   UNL A   1      45.990  29.095  33.876  1.00  0.00     0.173 A 
ATOM     87  C   UNL A   1      44.961  27.198  34.936  1.00  0.00     0.173 A 
ATOM     88  F   UNL A   1      45.972  30.097  32.984  1.00  0.00    -0.203 F 
ATOM     89  C   UNL A   1      47.136  28.898  34.641  1.00  0.00     0.198 A 
ATOM     90  C   UNL A   1      46.097  27.023  35.722  1.00  0.00     0.198 A 
ATOM     91  F   UNL A   1      43.928  26.357  35.098  1.00  0.00    -0.203 F 
ATOM     92  F   UNL A   1      48.198  29.696  34.472  1.00  0.00    -0.200 F 
ATOM     93  C   UNL A   1      47.186  27.867  35.568  1.00  0.00     0.200 A 
ATOM     94  F   UNL A   1      46.138  26.034  36.627  1.00  0.00    -0.200 F 
ATOM     95  F   UNL A   1      48.288  27.682  36.308  1.00  0.00    -0.200 F 
ENDBRANCH  62  85
ENDBRANCH  36  37
ENDBRANCH  28  31
ENDBRANCH  26  27
ENDBRANCH   1  26
TORSDOF 12
ENDMDL
MODEL 3
REMARK VINA RESULT:     -12.8      0.086      1.941
REMARK SMILES Cc1cc(NC(=O)c2ccc3ncsc3c2)sc1C(=O)NCCCNC(=O)c1ccc(-c2c3nc(c(-c4c(F)c(F)c(F)c(F)c4F)c4ccc([nH]4)c(-c4c(F)c(F)c(F)c(F)c4F)c4nc(c(-c5c(F)c(F)c(F)c(F)c5F)c5ccc2[nH]5)C=C4)C=C3)cc1
REMARK SMILES IDX 23 1 22 2 21 3 19 4 20 5 18 7 1 8 2 9 3 10 4 11 17 12 5 13
REMARK SMILES IDX 6 14 7 16 8 17 9 18 16 19 10 20 15 21 11 22 14 23 12 24
REMARK SMILES IDX 13 25 24 26 25 27 26 28 27 30 28 31 29 32 90 33 30 34 89 35
REMARK SMILES IDX 31 36 32 37 33 38 83 39 34 40 88 41 82 42 84 43 35 44 87 45
REMARK SMILES IDX 81 46 80 47 36 49 68 50 48 51 67 52 49 53 52 54 66 55 85 56
REMARK SMILES IDX 50 57 51 58 65 60 86 61 53 62 37 63 38 64 46 65 39 66 40 67
REMARK SMILES IDX 44 68 47 69 41 70 42 71 45 72 43 73 69 74 70 75 78 76 71 77
REMARK SMILES IDX 72 78 76 79 79 80 73 81 74 82 77 83 75 84 54 85 55 86 63 87
REMARK SMILES IDX 56 88 57 89 61 90 64 91 58 92 59 93 62 94 60 95
REMARK H PARENT 21 6 5 15 25 29 84 48 52 59
REMARK Flexibility Score: inf
ROOT
ATOM      1  C   UNL A   1      31.090  31.953  26.629  1.00  0.00     0.042 C 
ENDROOT
BRANCH   1   2
ATOM      2  C   UNL A   1      31.030  30.882  25.542  1.00  0.00     0.118 C 
BRANCH   2   3
ATOM      3  N   UNL A   1      32.274  30.163  25.434  1.00  0.00    -0.351 N 
ATOM      4  C   UNL A   1      32.598  28.875  25.088  1.00  0.00     0.261 C 
ATOM      5  O   UNL A   1      33.818  28.719  24.954  1.00  0.00    -0.268 OA
ATOM      6  H   UNL A   1      33.060  30.713  25.654  1.00  0.00     0.163 HD
BRANCH   4   7
ATOM      7  C   UNL A   1      31.645  27.773  24.905  1.00  0.00     0.097 A 
ATOM      8  C   UNL A   1      30.256  27.920  22.655  1.00  0.00     0.046 C 
ATOM      9  C   UNL A   1      30.643  27.411  23.998  1.00  0.00    -0.025 A 
ATOM     10  C   UNL A   1      29.830  26.363  24.540  1.00  0.00     0.042 A 
ATOM     11  C   UNL A   1      30.477  25.651  25.503  1.00  0.00     0.096 A 
ATOM     12  S   UNL A   1      31.730  26.548  26.175  1.00  0.00    -0.112 S 
BRANCH  11  13
ATOM     13  N   UNL A   1      30.273  24.384  25.994  1.00  0.00    -0.314 N 
ATOM     14  C   UNL A   1      30.971  23.247  25.618  1.00  0.00     0.256 C 
ATOM     15  H   UNL A   1      29.569  24.274  26.674  1.00  0.00     0.171 HD
ATOM     16  O   UNL A   1      30.610  22.127  25.961  1.00  0.00    -0.269 OA
BRANCH  14  17
ATOM     17  C   UNL A   1      32.226  23.376  24.829  1.00  0.00     0.041 A 
ATOM     18  C   UNL A   1      32.177  23.352  23.431  1.00  0.00     0.016 A 
ATOM     19  C   UNL A   1      33.448  23.389  25.515  1.00  0.00     0.035 A 
ATOM     20  C   UNL A   1      33.358  23.236  22.689  1.00  0.00     0.030 A 
ATOM     21  C   UNL A   1      34.622  23.249  24.753  1.00  0.00     0.055 A 
ATOM     22  C   UNL A   1      34.598  23.153  23.357  1.00  0.00     0.081 A 
ATOM     23  S   UNL A   1      36.256  23.119  25.289  1.00  0.00    -0.122 S 
ATOM     24  N   UNL A   1      35.827  22.953  22.751  1.00  0.00    -0.245 NA
ATOM     25  C   UNL A   1      36.767  22.920  23.667  1.00  0.00     0.176 A 
ENDBRANCH  14  17
ENDBRANCH  11  13
ENDBRANCH   4   7
ENDBRANCH   2   3
ENDBRANCH   1   2
BRANCH   1  26
ATOM     26  C   UNL A   1      32.480  32.518  26.878  1.00  0.00     0.118 C 
BRANCH  26  27
ATOM     27  N   UNL A   1      32.425  33.898  27.337  1.00  0.00    -0.352 N 
ATOM     28  C   UNL A   1      33.062  34.520  28.382  1.00  0.00     0.251 C 
ATOM     29  H   UNL A   1      31.833  34.481  26.812  1.00  0.00     0.163 HD
ATOM     30  O   UNL A   1      32.668  35.625  28.742  1.00  0.00    -0.269 OA
BRANCH  28  31
ATOM     31  C   UNL A   1      34.206  33.889  29.082  1.00  0.00     0.039 A 
ATOM     32  C   UNL A   1      35.498  34.355  28.808  1.00  0.00     0.014 A 
ATOM     33  C   UNL A   1      34.037  32.802  29.942  1.00  0.00     0.014 A 
ATOM     34  C   UNL A   1      36.604  33.763  29.424  1.00  0.00     0.010 A 
ATOM     35  C   UNL A   1      35.129  32.273  30.628  1.00  0.00     0.010 A 
ATOM     36  C   UNL A   1      36.426  32.734  30.362  1.00  0.00    -0.014 A 
BRANCH  36  37
ATOM     37  C   UNL A   1      37.582  32.105  31.050  1.00  0.00     0.031 A 
ATOM     38  C   UNL A   1      38.380  31.034  30.358  1.00  0.00     0.074 A 
ATOM     39  C   UNL A   1      37.871  32.452  32.319  1.00  0.00     0.049 A 
ATOM     40  N   UNL A   1      39.368  30.306  30.817  1.00  0.00    -0.248 NA
ATOM     41  C   UNL A   1      37.999  30.715  28.973  1.00  0.00     0.031 C 
ATOM     42  C   UNL A   1      37.142  33.441  33.112  1.00  0.00     0.029 A 
ATOM     43  N   UNL A   1      38.850  32.000  33.169  1.00  0.00    -0.354 N 
ATOM     44  C   UNL A   1      39.708  29.436  29.790  1.00  0.00     0.074 A 
ATOM     45  C   UNL A   1      38.787  29.686  28.702  1.00  0.00     0.031 C 
ATOM     46  C   UNL A   1      37.710  33.539  34.324  1.00  0.00     0.029 A 
ATOM     47  C   UNL A   1      38.818  32.592  34.408  1.00  0.00     0.049 A 
ATOM     48  H   UNL A   1      39.512  31.317  32.915  1.00  0.00     0.167 HD
ATOM     49  C   UNL A   1      40.713  28.529  29.747  1.00  0.00     0.037 A 
ATOM     50  C   UNL A   1      39.590  32.388  35.491  1.00  0.00     0.037 A 
ATOM     51  C   UNL A   1      41.645  28.306  30.821  1.00  0.00     0.049 A 
ATOM     52  C   UNL A   1      40.705  31.380  35.416  1.00  0.00     0.074 A 
ATOM     53  C   UNL A   1      42.733  27.453  30.857  1.00  0.00     0.029 A 
ATOM     54  N   UNL A   1      41.597  28.946  32.050  1.00  0.00    -0.354 N 
ATOM     55  N   UNL A   1      41.055  30.607  34.417  1.00  0.00    -0.248 NA
ATOM     56  C   UNL A   1      41.537  31.224  36.616  1.00  0.00     0.031 C 
ATOM     57  C   UNL A   1      43.318  27.545  32.124  1.00  0.00     0.029 A 
ATOM     58  C   UNL A   1      42.626  28.493  32.860  1.00  0.00     0.049 A 
ATOM     59  H   UNL A   1      40.930  29.623  32.310  1.00  0.00     0.167 HD
ATOM     60  C   UNL A   1      42.161  29.893  34.856  1.00  0.00     0.074 A 
ATOM     61  C   UNL A   1      42.434  30.337  36.207  1.00  0.00     0.031 C 
ATOM     62  C   UNL A   1      42.886  28.953  34.200  1.00  0.00     0.037 A 
BRANCH  49  63
ATOM     63  C   UNL A   1      40.859  27.713  28.494  1.00  0.00     0.064 A 
ATOM     64  C   UNL A   1      40.167  26.504  28.319  1.00  0.00     0.173 A 
ATOM     65  C   UNL A   1      41.676  28.157  27.443  1.00  0.00     0.173 A 
ATOM     66  F   UNL A   1      39.382  26.027  29.297  1.00  0.00    -0.203 F 
ATOM     67  C   UNL A   1      40.313  25.755  27.153  1.00  0.00     0.198 A 
ATOM     68  C   UNL A   1      41.794  27.422  26.266  1.00  0.00     0.198 A 
ATOM     69  F   UNL A   1      42.356  29.308  27.555  1.00  0.00    -0.203 F 
ATOM     70  F   UNL A   1      39.684  24.578  27.032  1.00  0.00    -0.200 F 
ATOM     71  C   UNL A   1      41.121  26.218  26.125  1.00  0.00     0.200 A 
ATOM     72  F   UNL A   1      42.565  27.877  25.268  1.00  0.00    -0.200 F 
ATOM     73  F   UNL A   1      41.256  25.500  25.001  1.00  0.00    -0.200 F 
ENDBRANCH  49  63
BRANCH  50  74
ATOM     74  C   UNL A   1      39.353  33.177  36.729  1.00  0.00     0.064 A 
ATOM     75  C   UNL A   1      38.476  32.714  37.719  1.00  0.00     0.173 A 
ATOM     76  C   UNL A   1      40.002  34.400  36.951  1.00  0.00     0.173 A 
ATOM     77  F   UNL A   1      37.818  31.558  37.543  1.00  0.00    -0.203 F 
ATOM     78  C   UNL A   1      38.240  33.454  38.876  1.00  0.00     0.198 A 
ATOM     79  C   UNL A   1      39.788  35.125  38.121  1.00  0.00     0.198 A 
ATOM     80  F   UNL A   1      40.858  34.883  36.039  1.00  0.00    -0.203 F 
ATOM     81  F   UNL A   1      37.364  33.009  39.786  1.00  0.00    -0.200 F 
ATOM     82  C   UNL A   1      38.902  34.655  39.079  1.00  0.00     0.200 A 
ATOM     83  F   UNL A   1      40.442  36.277  38.322  1.00  0.00    -0.200 F 
ATOM     84  F   UNL A   1      38.681  35.363  40.196  1.00  0.00    -0.200 F 
ENDBRANCH  50  74
BRANCH  62  85
ATOM     85  C   UNL A   1      44.062  28.366  34.924  1.00  0.00     0.064 A 
ATOM     86  C   UNL A   1      45.328  28.966  34.881  1.00  0.00     0.173 A 
ATOM     87  C   UNL A   1      43.909  27.205  35.698  1.00  0.00     0.173 A 
ATOM     88  F   UNL A   1      45.528  30.069  34.142  1.00  0.00    -0.203 F 
ATOM     89  C   UNL A   1      46.405  28.414  35.568  1.00  0.00     0.198 A 
ATOM     90  C   UNL A   1      44.982  26.673  36.408  1.00  0.00     0.198 A 
ATOM     91  F   UNL A   1      42.717  26.596  35.777  1.00  0.00    -0.203 F 
ATOM     92  F   UNL A   1      47.617  28.977  35.474  1.00  0.00    -0.200 F 
ATOM     93  C   UNL A   1      46.230  27.272  36.336  1.00  0.00     0.200 A 
ATOM     94  F   UNL A   1      44.807  25.577  37.161  1.00  0.00    -0.200 F 
ATOM     95  F   UNL A   1      47.267  26.745  37.001  1.00  0.00    -0.200 F 
ENDBRANCH  62  85
ENDBRANCH  36  37
ENDBRANCH  28  31
ENDBRANCH  26  27
ENDBRANCH   1  26
TORSDOF 12
ENDMDL
