MODEL 1
REMARK VINA RESULT:     -11.9      0.000      0.000
REMARK SMILES C[C@@H](O)[C@@H](NC(=O)Nc1ccc(F)cc1F)C(=O)NCCCNC(=O)c1ccc(-c2c3nc(c(-c4c(F)c(F)c(F)c(F)c4F)c4ccc([nH]4)c(-c4c(F)c(F)c(F)c(F)c4F)c4nc(c(-c5c(F)c(F)c(F)c(F)c5F)c5ccc2[nH]5)C=C4)C=C3)cc1
REMARK SMILES IDX 21 1 20 2 19 3 17 4 18 5 4 7 2 8 1 9 3 10 5 12 6 13 7 15
REMARK SMILES IDX 8 16 9 18 10 19 15 20 11 21 14 22 16 23 12 24 13 25 22 26
REMARK SMILES IDX 23 27 24 28 25 30 26 31 27 32 88 33 28 34 87 35 29 36 30 37
REMARK SMILES IDX 31 38 81 39 32 40 86 41 80 42 82 43 33 44 85 45 79 46 78 47
REMARK SMILES IDX 34 49 66 50 46 51 65 52 47 53 50 54 64 55 83 56 48 57 49 58
REMARK SMILES IDX 63 60 84 61 51 62 35 63 36 64 44 65 37 66 38 67 42 68 45 69
REMARK SMILES IDX 39 70 40 71 43 72 41 73 67 74 68 75 76 76 69 77 70 78 74 79
REMARK SMILES IDX 77 80 71 81 72 82 75 83 73 84 52 85 53 86 61 87 54 88 55 89
REMARK SMILES IDX 59 90 62 91 56 92 57 93 60 94 58 95
REMARK H PARENT 19 6 3 11 5 14 8 17 23 29 82 48 50 59
REMARK Flexibility Score: inf
ROOT
ATOM      1  C   UNL A   1      36.413  23.295  24.027  1.00  0.00     0.042 C 
ENDROOT
BRANCH   1   2
ATOM      2  C   UNL A   1      34.961  22.927  24.313  1.00  0.00     0.117 C 
BRANCH   2   3
ATOM      3  N   UNL A   1      34.839  22.451  25.675  1.00  0.00    -0.354 N 
ATOM      4  C   UNL A   1      33.728  22.181  26.403  1.00  0.00     0.245 C 
ATOM      5  O   UNL A   1      33.819  22.309  27.629  1.00  0.00    -0.273 OA
ATOM      6  H   UNL A   1      35.692  22.300  26.144  1.00  0.00     0.163 HD
BRANCH   4   7
ATOM      7  C   UNL A   1      32.367  21.892  25.748  1.00  0.00     0.201 C 
BRANCH   7   8
ATOM      8  C   UNL A   1      32.469  20.413  25.270  1.00  0.00     0.143 C 
ATOM      9  C   UNL A   1      32.530  20.246  23.758  1.00  0.00     0.041 C 
BRANCH   8  10
ATOM     10  O   UNL A   1      33.671  19.807  25.775  1.00  0.00    -0.391 OA
ATOM     11  H   UNL A   1      33.545  18.848  25.844  1.00  0.00     0.211 HD
ENDBRANCH   8  10
ENDBRANCH   7   8
BRANCH   7  12
ATOM     12  N   UNL A   1      31.202  22.184  26.598  1.00  0.00    -0.323 N 
ATOM     13  C   UNL A   1      30.420  23.265  26.791  1.00  0.00     0.320 C 
ATOM     14  H   UNL A   1      30.934  21.417  27.153  1.00  0.00     0.166 HD
ATOM     15  O   UNL A   1      29.514  23.150  27.620  1.00  0.00    -0.248 OA
ATOM     16  N   UNL A   1      30.703  24.488  26.304  1.00  0.00    -0.305 N 
ATOM     17  H   UNL A   1      30.382  25.222  26.876  1.00  0.00     0.171 HD
BRANCH  16  18
ATOM     18  C   UNL A   1      31.361  24.927  25.150  1.00  0.00     0.079 A 
ATOM     19  C   UNL A   1      30.892  24.657  23.866  1.00  0.00     0.032 A 
ATOM     20  C   UNL A   1      32.545  25.662  25.309  1.00  0.00     0.149 A 
ATOM     21  C   UNL A   1      31.661  25.027  22.759  1.00  0.00     0.041 A 
ATOM     22  C   UNL A   1      33.323  26.018  24.216  1.00  0.00     0.080 A 
ATOM     23  F   UNL A   1      32.997  25.937  26.543  1.00  0.00    -0.205 F 
ATOM     24  C   UNL A   1      32.878  25.680  22.947  1.00  0.00     0.126 A 
ATOM     25  F   UNL A   1      33.632  25.985  21.882  1.00  0.00    -0.207 F 
ENDBRANCH  16  18
ENDBRANCH   7  12
ENDBRANCH   4   7
ENDBRANCH   2   3
ENDBRANCH   1   2
BRANCH   1  26
ATOM     26  C   UNL A   1      37.215  23.639  25.277  1.00  0.00     0.118 C 
BRANCH  26  27
ATOM     27  N   UNL A   1      38.296  22.700  25.541  1.00  0.00    -0.352 N 
ATOM     28  C   UNL A   1      39.467  22.957  26.211  1.00  0.00     0.251 C 
ATOM     29  H   UNL A   1      38.174  21.784  25.203  1.00  0.00     0.163 HD
ATOM     30  O   UNL A   1      40.367  22.128  26.275  1.00  0.00    -0.269 OA
BRANCH  28  31
ATOM     31  C   UNL A   1      39.621  24.284  26.831  1.00  0.00     0.039 A 
ATOM     32  C   UNL A   1      39.203  24.468  28.148  1.00  0.00     0.014 A 
ATOM     33  C   UNL A   1      40.289  25.295  26.132  1.00  0.00     0.014 A 
ATOM     34  C   UNL A   1      39.506  25.666  28.794  1.00  0.00     0.010 A 
ATOM     35  C   UNL A   1      40.643  26.460  26.799  1.00  0.00     0.010 A 
ATOM     36  C   UNL A   1      40.255  26.655  28.134  1.00  0.00    -0.014 A 
BRANCH  36  37
ATOM     37  C   UNL A   1      40.639  27.908  28.823  1.00  0.00     0.031 A 
ATOM     38  C   UNL A   1      42.042  28.080  29.328  1.00  0.00     0.074 A 
ATOM     39  C   UNL A   1      39.712  28.859  29.047  1.00  0.00     0.049 A 
ATOM     40  N   UNL A   1      42.560  29.069  30.009  1.00  0.00    -0.248 NA
ATOM     41  C   UNL A   1      42.980  26.978  29.057  1.00  0.00     0.031 C 
ATOM     42  C   UNL A   1      38.306  28.778  28.648  1.00  0.00     0.029 A 
ATOM     43  N   UNL A   1      39.811  30.076  29.672  1.00  0.00    -0.354 N 
ATOM     44  C   UNL A   1      43.875  28.702  30.259  1.00  0.00     0.074 A 
ATOM     45  C   UNL A   1      44.062  27.380  29.706  1.00  0.00     0.031 C 
ATOM     46  C   UNL A   1      37.681  29.909  29.013  1.00  0.00     0.029 A 
ATOM     47  C   UNL A   1      38.633  30.780  29.698  1.00  0.00     0.049 A 
ATOM     48  H   UNL A   1      40.649  30.413  30.065  1.00  0.00     0.167 HD
ATOM     49  C   UNL A   1      44.845  29.420  30.872  1.00  0.00     0.037 A 
ATOM     50  C   UNL A   1      38.355  31.993  30.213  1.00  0.00     0.037 A 
ATOM     51  C   UNL A   1      44.661  30.748  31.388  1.00  0.00     0.049 A 
ATOM     52  C   UNL A   1      39.454  32.777  30.876  1.00  0.00     0.074 A 
ATOM     53  C   UNL A   1      45.597  31.585  31.969  1.00  0.00     0.029 A 
ATOM     54  N   UNL A   1      43.457  31.437  31.378  1.00  0.00    -0.354 N 
ATOM     55  N   UNL A   1      40.710  32.445  31.056  1.00  0.00    -0.248 NA
ATOM     56  C   UNL A   1      39.101  34.101  31.405  1.00  0.00     0.031 C 
ATOM     57  C   UNL A   1      44.952  32.767  32.343  1.00  0.00     0.029 A 
ATOM     58  C   UNL A   1      43.624  32.684  31.958  1.00  0.00     0.049 A 
ATOM     59  H   UNL A   1      42.610  31.092  31.013  1.00  0.00     0.167 HD
ATOM     60  C   UNL A   1      41.302  33.524  31.697  1.00  0.00     0.074 A 
ATOM     61  C   UNL A   1      40.270  34.527  31.866  1.00  0.00     0.031 C 
ATOM     62  C   UNL A   1      42.584  33.670  32.109  1.00  0.00     0.037 A 
BRANCH  49  63
ATOM     63  C   UNL A   1      46.197  28.785  31.005  1.00  0.00     0.064 A 
ATOM     64  C   UNL A   1      47.146  28.907  29.980  1.00  0.00     0.173 A 
ATOM     65  C   UNL A   1      46.538  28.019  32.130  1.00  0.00     0.173 A 
ATOM     66  F   UNL A   1      46.869  29.625  28.882  1.00  0.00    -0.203 F 
ATOM     67  C   UNL A   1      48.385  28.280  30.075  1.00  0.00     0.198 A 
ATOM     68  C   UNL A   1      47.788  27.417  32.234  1.00  0.00     0.198 A 
ATOM     69  F   UNL A   1      45.669  27.885  33.143  1.00  0.00    -0.203 F 
ATOM     70  F   UNL A   1      49.270  28.391  29.074  1.00  0.00    -0.200 F 
ATOM     71  C   UNL A   1      48.708  27.541  31.203  1.00  0.00     0.200 A 
ATOM     72  F   UNL A   1      48.107  26.726  33.337  1.00  0.00    -0.200 F 
ATOM     73  F   UNL A   1      49.907  26.952  31.300  1.00  0.00    -0.200 F 
ENDBRANCH  49  63
BRANCH  50  74
ATOM     74  C   UNL A   1      36.987  32.553  30.075  1.00  0.00     0.064 A 
ATOM     75  C   UNL A   1      36.604  33.282  28.940  1.00  0.00     0.173 A 
ATOM     76  C   UNL A   1      36.046  32.398  31.101  1.00  0.00     0.173 A 
ATOM     77  F   UNL A   1      37.472  33.464  27.934  1.00  0.00    -0.203 F 
ATOM     78  C   UNL A   1      35.334  33.847  28.844  1.00  0.00     0.198 A 
ATOM     79  C   UNL A   1      34.768  32.945  30.995  1.00  0.00     0.198 A 
ATOM     80  F   UNL A   1      36.362  31.694  32.197  1.00  0.00    -0.203 F 
ATOM     81  F   UNL A   1      35.002  34.565  27.762  1.00  0.00    -0.200 F 
ATOM     82  C   UNL A   1      34.416  33.675  29.870  1.00  0.00     0.200 A 
ATOM     83  F   UNL A   1      33.879  32.760  31.980  1.00  0.00    -0.200 F 
ATOM     84  F   UNL A   1      33.193  34.214  29.774  1.00  0.00    -0.200 F 
ENDBRANCH  50  74
BRANCH  62  85
ATOM     85  C   UNL A   1      42.958  34.964  32.769  1.00  0.00     0.064 A 
ATOM     86  C   UNL A   1      42.726  35.153  34.140  1.00  0.00     0.173 A 
ATOM     87  C   UNL A   1      43.462  36.042  32.029  1.00  0.00     0.173 A 
ATOM     88  F   UNL A   1      42.237  34.152  34.887  1.00  0.00    -0.203 F 
ATOM     89  C   UNL A   1      42.972  36.383  34.743  1.00  0.00     0.198 A 
ATOM     90  C   UNL A   1      43.731  37.263  32.641  1.00  0.00     0.198 A 
ATOM     91  F   UNL A   1      43.710  35.904  30.718  1.00  0.00    -0.203 F 
ATOM     92  F   UNL A   1      42.713  36.553  36.047  1.00  0.00    -0.200 F 
ATOM     93  C   UNL A   1      43.476  37.436  33.994  1.00  0.00     0.200 A 
ATOM     94  F   UNL A   1      44.237  38.274  31.921  1.00  0.00    -0.200 F 
ATOM     95  F   UNL A   1      43.718  38.618  34.576  1.00  0.00    -0.200 F 
ENDBRANCH  62  85
ENDBRANCH  36  37
ENDBRANCH  28  31
ENDBRANCH  26  27
ENDBRANCH   1  26
TORSDOF 14
ENDMDL
MODEL 2
REMARK VINA RESULT:     -11.9      3.619      8.794
REMARK SMILES C[C@@H](O)[C@@H](NC(=O)Nc1ccc(F)cc1F)C(=O)NCCCNC(=O)c1ccc(-c2c3nc(c(-c4c(F)c(F)c(F)c(F)c4F)c4ccc([nH]4)c(-c4c(F)c(F)c(F)c(F)c4F)c4nc(c(-c5c(F)c(F)c(F)c(F)c5F)c5ccc2[nH]5)C=C4)C=C3)cc1
REMARK SMILES IDX 21 1 20 2 19 3 17 4 18 5 4 7 2 8 1 9 3 10 5 12 6 13 7 15
REMARK SMILES IDX 8 16 9 18 10 19 15 20 11 21 14 22 16 23 12 24 13 25 22 26
REMARK SMILES IDX 23 27 24 28 25 30 26 31 27 32 88 33 28 34 87 35 29 36 30 37
REMARK SMILES IDX 31 38 81 39 32 40 86 41 80 42 82 43 33 44 85 45 79 46 78 47
REMARK SMILES IDX 34 49 66 50 46 51 65 52 47 53 50 54 64 55 83 56 48 57 49 58
REMARK SMILES IDX 63 60 84 61 51 62 35 63 36 64 44 65 37 66 38 67 42 68 45 69
REMARK SMILES IDX 39 70 40 71 43 72 41 73 67 74 68 75 76 76 69 77 70 78 74 79
REMARK SMILES IDX 77 80 71 81 72 82 75 83 73 84 52 85 53 86 61 87 54 88 55 89
REMARK SMILES IDX 59 90 62 91 56 92 57 93 60 94 58 95
REMARK H PARENT 19 6 3 11 5 14 8 17 23 29 82 48 50 59
REMARK Flexibility Score: inf
ROOT
ATOM      1  C   UNL A   1      32.479  27.857  27.139  1.00  0.00     0.042 C 
ENDROOT
BRANCH   1   2
ATOM      2  C   UNL A   1      31.909  27.614  25.746  1.00  0.00     0.117 C 
BRANCH   2   3
ATOM      3  N   UNL A   1      32.684  28.351  24.769  1.00  0.00    -0.354 N 
ATOM      4  C   UNL A   1      32.773  28.183  23.427  1.00  0.00     0.245 C 
ATOM      5  O   UNL A   1      33.831  28.528  22.890  1.00  0.00    -0.273 OA
ATOM      6  H   UNL A   1      33.228  29.086  25.135  1.00  0.00     0.163 HD
BRANCH   4   7
ATOM      7  C   UNL A   1      31.691  27.449  22.618  1.00  0.00     0.201 C 
BRANCH   7   8
ATOM      8  C   UNL A   1      30.567  28.507  22.417  1.00  0.00     0.143 C 
ATOM      9  C   UNL A   1      29.289  28.218  23.193  1.00  0.00     0.041 C 
BRANCH   8  10
ATOM     10  O   UNL A   1      31.009  29.798  22.869  1.00  0.00    -0.391 OA
ATOM     11  H   UNL A   1      31.229  29.753  23.812  1.00  0.00     0.211 HD
ENDBRANCH   8  10
ENDBRANCH   7   8
BRANCH   7  12
ATOM     12  N   UNL A   1      32.174  26.822  21.377  1.00  0.00    -0.323 N 
ATOM     13  C   UNL A   1      32.693  25.617  21.066  1.00  0.00     0.320 C 
ATOM     14  H   UNL A   1      32.101  27.417  20.596  1.00  0.00     0.166 HD
ATOM     15  O   UNL A   1      33.009  25.439  19.887  1.00  0.00    -0.248 OA
ATOM     16  N   UNL A   1      33.076  24.710  21.985  1.00  0.00    -0.305 N 
ATOM     17  H   UNL A   1      33.834  24.153  21.695  1.00  0.00     0.171 HD
BRANCH  16  18
ATOM     18  C   UNL A   1      32.613  24.398  23.268  1.00  0.00     0.079 A 
ATOM     19  C   UNL A   1      31.306  23.987  23.520  1.00  0.00     0.032 A 
ATOM     20  C   UNL A   1      33.515  24.517  24.337  1.00  0.00     0.149 A 
ATOM     21  C   UNL A   1      30.883  23.803  24.839  1.00  0.00     0.041 A 
ATOM     22  C   UNL A   1      33.098  24.354  25.651  1.00  0.00     0.080 A 
ATOM     23  F   UNL A   1      34.780  24.900  24.101  1.00  0.00    -0.205 F 
ATOM     24  C   UNL A   1      31.775  24.013  25.889  1.00  0.00     0.126 A 
ATOM     25  F   UNL A   1      31.346  23.884  27.152  1.00  0.00    -0.207 F 
ENDBRANCH  16  18
ENDBRANCH   7  12
ENDBRANCH   4   7
ENDBRANCH   2   3
ENDBRANCH   1   2
BRANCH   1  26
ATOM     26  C   UNL A   1      33.799  28.619  27.138  1.00  0.00     0.118 C 
BRANCH  26  27
ATOM     27  N   UNL A   1      33.670  29.990  27.607  1.00  0.00    -0.352 N 
ATOM     28  C   UNL A   1      34.611  30.722  28.288  1.00  0.00     0.251 C 
ATOM     29  H   UNL A   1      32.817  30.442  27.414  1.00  0.00     0.163 HD
ATOM     30  O   UNL A   1      34.359  31.830  28.744  1.00  0.00    -0.269 OA
BRANCH  28  31
ATOM     31  C   UNL A   1      35.938  30.114  28.482  1.00  0.00     0.039 A 
ATOM     32  C   UNL A   1      36.891  30.232  27.470  1.00  0.00     0.014 A 
ATOM     33  C   UNL A   1      36.256  29.536  29.715  1.00  0.00     0.014 A 
ATOM     34  C   UNL A   1      38.198  29.813  27.719  1.00  0.00     0.010 A 
ATOM     35  C   UNL A   1      37.572  29.180  29.980  1.00  0.00     0.010 A 
ATOM     36  C   UNL A   1      38.553  29.315  28.984  1.00  0.00    -0.014 A 
BRANCH  36  37
ATOM     37  C   UNL A   1      39.948  28.923  29.286  1.00  0.00     0.031 A 
ATOM     38  C   UNL A   1      40.823  29.842  30.086  1.00  0.00     0.074 A 
ATOM     39  C   UNL A   1      40.441  27.772  28.788  1.00  0.00     0.049 A 
ATOM     40  N   UNL A   1      42.086  29.714  30.403  1.00  0.00    -0.248 NA
ATOM     41  C   UNL A   1      40.204  31.087  30.568  1.00  0.00     0.031 C 
ATOM     42  C   UNL A   1      39.699  26.825  27.955  1.00  0.00     0.029 A 
ATOM     43  N   UNL A   1      41.686  27.208  28.905  1.00  0.00    -0.354 N 
ATOM     44  C   UNL A   1      42.413  30.865  31.107  1.00  0.00     0.074 A 
ATOM     45  C   UNL A   1      41.236  31.704  31.124  1.00  0.00     0.031 C 
ATOM     46  C   UNL A   1      40.495  25.785  27.659  1.00  0.00     0.029 A 
ATOM     47  C   UNL A   1      41.809  26.005  28.255  1.00  0.00     0.049 A 
ATOM     48  H   UNL A   1      42.422  27.627  29.408  1.00  0.00     0.167 HD
ATOM     49  C   UNL A   1      43.585  31.178  31.706  1.00  0.00     0.037 A 
ATOM     50  C   UNL A   1      42.864  25.174  28.156  1.00  0.00     0.037 A 
ATOM     51  C   UNL A   1      44.740  30.323  31.715  1.00  0.00     0.049 A 
ATOM     52  C   UNL A   1      44.151  25.537  28.844  1.00  0.00     0.074 A 
ATOM     53  C   UNL A   1      45.954  30.519  32.348  1.00  0.00     0.029 A 
ATOM     54  N   UNL A   1      44.821  29.101  31.061  1.00  0.00    -0.354 N 
ATOM     55  N   UNL A   1      44.433  26.601  29.557  1.00  0.00    -0.248 NA
ATOM     56  C   UNL A   1      45.264  24.587  28.718  1.00  0.00     0.031 C 
ATOM     57  C   UNL A   1      46.782  29.433  32.050  1.00  0.00     0.029 A 
ATOM     58  C   UNL A   1      46.071  28.541  31.264  1.00  0.00     0.049 A 
ATOM     59  H   UNL A   1      44.097  28.694  30.532  1.00  0.00     0.167 HD
ATOM     60  C   UNL A   1      45.744  26.440  29.982  1.00  0.00     0.074 A 
ATOM     61  C   UNL A   1      46.201  25.169  29.456  1.00  0.00     0.031 C 
ATOM     62  C   UNL A   1      46.501  27.271  30.738  1.00  0.00     0.037 A 
BRANCH  49  63
ATOM     63  C   UNL A   1      43.670  32.496  32.416  1.00  0.00     0.064 A 
ATOM     64  C   UNL A   1      43.295  32.607  33.762  1.00  0.00     0.173 A 
ATOM     65  C   UNL A   1      44.082  33.660  31.749  1.00  0.00     0.173 A 
ATOM     66  F   UNL A   1      42.890  31.525  34.444  1.00  0.00    -0.203 F 
ATOM     67  C   UNL A   1      43.325  33.837  34.414  1.00  0.00     0.198 A 
ATOM     68  C   UNL A   1      44.138  34.882  32.412  1.00  0.00     0.198 A 
ATOM     69  F   UNL A   1      44.465  33.602  30.465  1.00  0.00    -0.203 F 
ATOM     70  F   UNL A   1      42.941  33.925  35.695  1.00  0.00    -0.200 F 
ATOM     71  C   UNL A   1      43.752  34.972  33.741  1.00  0.00     0.200 A 
ATOM     72  F   UNL A   1      44.576  35.972  31.767  1.00  0.00    -0.200 F 
ATOM     73  F   UNL A   1      43.795  36.152  34.374  1.00  0.00    -0.200 F 
ENDBRANCH  49  63
BRANCH  50  74
ATOM     74  C   UNL A   1      42.724  23.896  27.412  1.00  0.00     0.064 A 
ATOM     75  C   UNL A   1      42.300  22.720  28.048  1.00  0.00     0.173 A 
ATOM     76  C   UNL A   1      43.050  23.823  26.052  1.00  0.00     0.173 A 
ATOM     77  F   UNL A   1      41.983  22.738  29.351  1.00  0.00    -0.203 F 
ATOM     78  C   UNL A   1      42.222  21.516  27.353  1.00  0.00     0.198 A 
ATOM     79  C   UNL A   1      42.951  22.622  25.351  1.00  0.00     0.198 A 
ATOM     80  F   UNL A   1      43.444  24.925  25.398  1.00  0.00    -0.203 F 
ATOM     81  F   UNL A   1      41.843  20.399  27.990  1.00  0.00    -0.200 F 
ATOM     82  C   UNL A   1      42.544  21.468  26.004  1.00  0.00     0.200 A 
ATOM     83  F   UNL A   1      43.245  22.585  24.045  1.00  0.00    -0.200 F 
ATOM     84  F   UNL A   1      42.462  20.310  25.334  1.00  0.00    -0.200 F 
ENDBRANCH  50  74
BRANCH  62  85
ATOM     85  C   UNL A   1      47.899  26.832  31.063  1.00  0.00     0.064 A 
ATOM     86  C   UNL A   1      48.973  27.232  30.254  1.00  0.00     0.173 A 
ATOM     87  C   UNL A   1      48.159  25.949  32.119  1.00  0.00     0.173 A 
ATOM     88  F   UNL A   1      48.770  28.071  29.227  1.00  0.00    -0.203 F 
ATOM     89  C   UNL A   1      50.258  26.751  30.483  1.00  0.00     0.198 A 
ATOM     90  C   UNL A   1      49.451  25.488  32.361  1.00  0.00     0.198 A 
ATOM     91  F   UNL A   1      47.165  25.548  32.925  1.00  0.00    -0.203 F 
ATOM     92  F   UNL A   1      51.265  27.119  29.679  1.00  0.00    -0.200 F 
ATOM     93  C   UNL A   1      50.496  25.880  31.537  1.00  0.00     0.200 A 
ATOM     94  F   UNL A   1      49.684  24.664  33.391  1.00  0.00    -0.200 F 
ATOM     95  F   UNL A   1      51.734  25.421  31.760  1.00  0.00    -0.200 F 
ENDBRANCH  62  85
ENDBRANCH  36  37
ENDBRANCH  28  31
ENDBRANCH  26  27
ENDBRANCH   1  26
TORSDOF 14
ENDMDL
MODEL 3
REMARK VINA RESULT:     -11.9      0.143      1.142
REMARK SMILES C[C@@H](O)[C@@H](NC(=O)Nc1ccc(F)cc1F)C(=O)NCCCNC(=O)c1ccc(-c2c3nc(c(-c4c(F)c(F)c(F)c(F)c4F)c4ccc([nH]4)c(-c4c(F)c(F)c(F)c(F)c4F)c4nc(c(-c5c(F)c(F)c(F)c(F)c5F)c5ccc2[nH]5)C=C4)C=C3)cc1
REMARK SMILES IDX 21 1 20 2 19 3 17 4 18 5 4 7 2 8 1 9 3 10 5 12 6 13 7 15
REMARK SMILES IDX 8 16 9 18 10 19 15 20 11 21 14 22 16 23 12 24 13 25 22 26
REMARK SMILES IDX 23 27 24 28 25 30 26 31 27 32 88 33 28 34 87 35 29 36 30 37
REMARK SMILES IDX 31 38 81 39 32 40 86 41 80 42 82 43 33 44 85 45 79 46 78 47
REMARK SMILES IDX 34 49 66 50 46 51 65 52 47 53 50 54 64 55 83 56 48 57 49 58
REMARK SMILES IDX 63 60 84 61 51 62 35 63 36 64 44 65 37 66 38 67 42 68 45 69
REMARK SMILES IDX 39 70 40 71 43 72 41 73 67 74 68 75 76 76 69 77 70 78 74 79
REMARK SMILES IDX 77 80 71 81 72 82 75 83 73 84 52 85 53 86 61 87 54 88 55 89
REMARK SMILES IDX 59 90 62 91 56 92 57 93 60 94 58 95
REMARK H PARENT 19 6 3 11 5 14 8 17 23 29 82 48 50 59
REMARK Flexibility Score: inf
ROOT
ATOM      1  C   UNL A   1      36.324  23.297  23.906  1.00  0.00     0.042 C 
ENDROOT
BRANCH   1   2
ATOM      2  C   UNL A   1      34.894  22.871  24.222  1.00  0.00     0.117 C 
BRANCH   2   3
ATOM      3  N   UNL A   1      34.792  22.513  25.622  1.00  0.00    -0.354 N 
ATOM      4  C   UNL A   1      33.692  22.279  26.379  1.00  0.00     0.245 C 
ATOM      5  O   UNL A   1      33.786  22.515  27.588  1.00  0.00    -0.273 OA
ATOM      6  H   UNL A   1      35.651  22.426  26.095  1.00  0.00     0.163 HD
BRANCH   4   7
ATOM      7  C   UNL A   1      32.336  21.900  25.762  1.00  0.00     0.201 C 
BRANCH   7   8
ATOM      8  C   UNL A   1      32.487  20.397  25.380  1.00  0.00     0.143 C 
ATOM      9  C   UNL A   1      32.554  20.136  23.881  1.00  0.00     0.041 C 
BRANCH   8  10
ATOM     10  O   UNL A   1      33.707  19.864  25.920  1.00  0.00    -0.391 OA
ATOM     11  H   UNL A   1      34.047  19.173  25.332  1.00  0.00     0.211 HD
ENDBRANCH   8  10
ENDBRANCH   7   8
BRANCH   7  12
ATOM     12  N   UNL A   1      31.170  22.205  26.607  1.00  0.00    -0.323 N 
ATOM     13  C   UNL A   1      30.396  23.293  26.792  1.00  0.00     0.320 C 
ATOM     14  H   UNL A   1      30.894  21.442  27.164  1.00  0.00     0.166 HD
ATOM     15  O   UNL A   1      29.486  23.189  27.618  1.00  0.00    -0.248 OA
ATOM     16  N   UNL A   1      30.690  24.511  26.300  1.00  0.00    -0.305 N 
ATOM     17  H   UNL A   1      30.373  25.251  26.868  1.00  0.00     0.171 HD
BRANCH  16  18
ATOM     18  C   UNL A   1      31.356  24.939  25.146  1.00  0.00     0.079 A 
ATOM     19  C   UNL A   1      30.892  24.663  23.862  1.00  0.00     0.032 A 
ATOM     20  C   UNL A   1      32.542  25.671  25.306  1.00  0.00     0.149 A 
ATOM     21  C   UNL A   1      31.668  25.022  22.756  1.00  0.00     0.041 A 
ATOM     22  C   UNL A   1      33.327  26.016  24.215  1.00  0.00     0.080 A 
ATOM     23  F   UNL A   1      32.988  25.953  26.541  1.00  0.00    -0.205 F 
ATOM     24  C   UNL A   1      32.886  25.671  22.946  1.00  0.00     0.126 A 
ATOM     25  F   UNL A   1      33.647  25.966  21.883  1.00  0.00    -0.207 F 
ENDBRANCH  16  18
ENDBRANCH   7  12
ENDBRANCH   4   7
ENDBRANCH   2   3
ENDBRANCH   1   2
BRANCH   1  26
ATOM     26  C   UNL A   1      37.138  23.672  25.139  1.00  0.00     0.118 C 
BRANCH  26  27
ATOM     27  N   UNL A   1      38.168  22.696  25.464  1.00  0.00    -0.352 N 
ATOM     28  C   UNL A   1      39.317  22.917  26.183  1.00  0.00     0.251 C 
ATOM     29  H   UNL A   1      38.024  21.780  25.135  1.00  0.00     0.163 HD
ATOM     30  O   UNL A   1      40.180  22.055  26.299  1.00  0.00    -0.269 OA
BRANCH  28  31
ATOM     31  C   UNL A   1      39.497  24.247  26.790  1.00  0.00     0.039 A 
ATOM     32  C   UNL A   1      39.079  24.452  28.105  1.00  0.00     0.014 A 
ATOM     33  C   UNL A   1      40.186  25.237  26.084  1.00  0.00     0.014 A 
ATOM     34  C   UNL A   1      39.405  25.650  28.739  1.00  0.00     0.010 A 
ATOM     35  C   UNL A   1      40.563  26.402  26.740  1.00  0.00     0.010 A 
ATOM     36  C   UNL A   1      40.175  26.617  28.072  1.00  0.00    -0.014 A 
BRANCH  36  37
ATOM     37  C   UNL A   1      40.583  27.869  28.749  1.00  0.00     0.031 A 
ATOM     38  C   UNL A   1      41.998  28.034  29.219  1.00  0.00     0.074 A 
ATOM     39  C   UNL A   1      39.666  28.825  28.996  1.00  0.00     0.049 A 
ATOM     40  N   UNL A   1      42.539  29.022  29.886  1.00  0.00    -0.248 NA
ATOM     41  C   UNL A   1      42.924  26.928  28.926  1.00  0.00     0.031 C 
ATOM     42  C   UNL A   1      38.250  28.751  28.632  1.00  0.00     0.029 A 
ATOM     43  N   UNL A   1      39.788  30.043  29.616  1.00  0.00    -0.354 N 
ATOM     44  C   UNL A   1      43.858  28.648  30.103  1.00  0.00     0.074 A 
ATOM     45  C   UNL A   1      44.024  27.324  29.547  1.00  0.00     0.031 C 
ATOM     46  C   UNL A   1      37.641  29.885  29.012  1.00  0.00     0.029 A 
ATOM     47  C   UNL A   1      38.614  30.752  29.671  1.00  0.00     0.049 A 
ATOM     48  H   UNL A   1      40.637  30.375  29.988  1.00  0.00     0.167 HD
ATOM     49  C   UNL A   1      44.846  29.361  30.691  1.00  0.00     0.037 A 
ATOM     50  C   UNL A   1      38.355  31.968  30.191  1.00  0.00     0.037 A 
ATOM     51  C   UNL A   1      44.683  30.691  31.210  1.00  0.00     0.049 A 
ATOM     52  C   UNL A   1      39.475  32.746  30.826  1.00  0.00     0.074 A 
ATOM     53  C   UNL A   1      45.637  31.524  31.766  1.00  0.00     0.029 A 
ATOM     54  N   UNL A   1      43.482  31.387  31.229  1.00  0.00    -0.354 N 
ATOM     55  N   UNL A   1      40.733  32.408  30.975  1.00  0.00    -0.248 NA
ATOM     56  C   UNL A   1      39.142  34.073  31.362  1.00  0.00     0.031 C 
ATOM     57  C   UNL A   1      45.008  32.710  32.155  1.00  0.00     0.029 A 
ATOM     58  C   UNL A   1      43.670  32.633  31.803  1.00  0.00     0.049 A 
ATOM     59  H   UNL A   1      42.624  31.045  30.886  1.00  0.00     0.167 HD
ATOM     60  C   UNL A   1      41.346  33.485  31.600  1.00  0.00     0.074 A 
ATOM     61  C   UNL A   1      40.324  34.494  31.793  1.00  0.00     0.031 C 
ATOM     62  C   UNL A   1      42.639  33.624  31.979  1.00  0.00     0.037 A 
BRANCH  49  63
ATOM     63  C   UNL A   1      46.198  28.720  30.790  1.00  0.00     0.064 A 
ATOM     64  C   UNL A   1      46.559  27.986  31.929  1.00  0.00     0.173 A 
ATOM     65  C   UNL A   1      47.154  28.870  29.774  1.00  0.00     0.173 A 
ATOM     66  F   UNL A   1      45.683  27.817  32.930  1.00  0.00    -0.203 F 
ATOM     67  C   UNL A   1      47.829  27.430  32.049  1.00  0.00     0.198 A 
ATOM     68  C   UNL A   1      48.413  28.287  29.884  1.00  0.00     0.198 A 
ATOM     69  F   UNL A   1      46.852  29.550  28.658  1.00  0.00    -0.203 F 
ATOM     70  F   UNL A   1      48.160  26.751  33.156  1.00  0.00    -0.200 F 
ATOM     71  C   UNL A   1      48.753  27.575  31.025  1.00  0.00     0.200 A 
ATOM     72  F   UNL A   1      49.295  28.407  28.882  1.00  0.00    -0.200 F 
ATOM     73  F   UNL A   1      49.969  27.025  31.135  1.00  0.00    -0.200 F 
ENDBRANCH  49  63
BRANCH  50  74
ATOM     74  C   UNL A   1      36.987  32.534  30.088  1.00  0.00     0.064 A 
ATOM     75  C   UNL A   1      36.583  33.273  28.966  1.00  0.00     0.173 A 
ATOM     76  C   UNL A   1      36.067  32.375  31.132  1.00  0.00     0.173 A 
ATOM     77  F   UNL A   1      37.430  33.458  27.943  1.00  0.00    -0.203 F 
ATOM     78  C   UNL A   1      35.314  33.844  28.902  1.00  0.00     0.198 A 
ATOM     79  C   UNL A   1      34.791  32.929  31.058  1.00  0.00     0.198 A 
ATOM     80  F   UNL A   1      36.404  31.662  32.217  1.00  0.00    -0.203 F 
ATOM     81  F   UNL A   1      34.961  34.572  27.833  1.00  0.00    -0.200 F 
ATOM     82  C   UNL A   1      34.417  33.669  29.947  1.00  0.00     0.200 A 
ATOM     83  F   UNL A   1      33.922  32.741  32.061  1.00  0.00    -0.200 F 
ATOM     84  F   UNL A   1      33.195  34.213  29.881  1.00  0.00    -0.200 F 
ENDBRANCH  50  74
BRANCH  62  85
ATOM     85  C   UNL A   1      43.036  34.917  32.628  1.00  0.00     0.064 A 
ATOM     86  C   UNL A   1      42.886  35.091  34.013  1.00  0.00     0.173 A 
ATOM     87  C   UNL A   1      43.479  36.009  31.870  1.00  0.00     0.173 A 
ATOM     88  F   UNL A   1      42.457  34.076  34.778  1.00  0.00    -0.203 F 
ATOM     89  C   UNL A   1      43.153  36.318  34.612  1.00  0.00     0.198 A 
ATOM     90  C   UNL A   1      43.770  37.228  32.476  1.00  0.00     0.198 A 
ATOM     91  F   UNL A   1      43.648  35.886  30.545  1.00  0.00    -0.203 F 
ATOM     92  F   UNL A   1      42.972  36.472  35.931  1.00  0.00    -0.200 F 
ATOM     93  C   UNL A   1      43.596  37.385  33.844  1.00  0.00     0.200 A 
ATOM     94  F   UNL A   1      44.217  38.252  31.737  1.00  0.00    -0.200 F 
ATOM     95  F   UNL A   1      43.858  38.564  34.422  1.00  0.00    -0.200 F 
ENDBRANCH  62  85
ENDBRANCH  36  37
ENDBRANCH  28  31
ENDBRANCH  26  27
ENDBRANCH   1  26
TORSDOF 14
ENDMDL
