MODEL 1
REMARK VINA RESULT:     -12.3      0.000      0.000
REMARK SMILES Nc1cc(F)c([C@H]([NH3+])C(=O)NCCCNC(=O)c2ccc(-c3c4nc(c(-c5c(F)c(F)c(F)c(F)c5F)c5ccc([nH]5)c(-c5c(F)c(F)c(F)c(F)c5F)c5nc(c(-c6c(F)c(F)c(F)c(F)c6F)c6ccc3[nH]6)C=C5)C=C4)cc2)cc1F
REMARK SMILES IDX 13 1 12 2 11 3 9 4 10 5 7 7 6 8 2 9 3 10 82 11 4 12 81 13
REMARK SMILES IDX 83 14 5 15 1 16 8 19 14 23 15 24 16 25 17 27 18 28 19 29
REMARK SMILES IDX 80 30 20 31 79 32 21 33 22 34 23 35 73 36 24 37 78 38 72 39
REMARK SMILES IDX 74 40 25 41 77 42 71 43 70 44 26 46 58 47 38 48 57 49 39 50
REMARK SMILES IDX 42 51 56 52 75 53 40 54 41 55 55 57 76 58 43 59 27 60 28 61
REMARK SMILES IDX 36 62 29 63 30 64 34 65 37 66 31 67 32 68 35 69 33 70 59 71
REMARK SMILES IDX 60 72 68 73 61 74 62 75 66 76 69 77 63 78 64 79 67 80 65 81
REMARK SMILES IDX 44 82 45 83 53 84 46 85 47 86 51 87 54 88 48 89 49 90 52 91
REMARK SMILES IDX 50 92
REMARK H PARENT 11 6 1 17 1 18 8 20 8 21 8 22 15 26 74 45 42 56
REMARK Flexibility Score: inf
ROOT
ATOM      1  C   UNL A   1      31.759  29.026  26.847  1.00  0.00     0.042 C 
ENDROOT
BRANCH   1   2
ATOM      2  C   UNL A   1      32.080  27.569  26.566  1.00  0.00     0.118 C 
BRANCH   2   3
ATOM      3  N   UNL A   1      30.948  26.701  26.829  1.00  0.00    -0.351 N 
ATOM      4  C   UNL A   1      30.269  25.869  25.983  1.00  0.00     0.283 C 
ATOM      5  O   UNL A   1      29.467  25.082  26.497  1.00  0.00    -0.268 OA
ATOM      6  H   UNL A   1      30.619  26.712  27.757  1.00  0.00     0.163 HD
BRANCH   4   7
ATOM      7  C   UNL A   1      30.423  25.969  24.448  1.00  0.00     0.305 C 
BRANCH   7   8
ATOM      8  C   UNL A   1      29.705  27.113  23.753  1.00  0.00     0.058 A 
ATOM      9  C   UNL A   1      28.446  29.249  22.355  1.00  0.00     0.071 A 
ATOM     10  C   UNL A   1      27.689  28.306  23.044  1.00  0.00     0.068 A 
ATOM     11  C   UNL A   1      29.839  29.119  22.382  1.00  0.00     0.146 A 
ATOM     12  C   UNL A   1      28.314  27.280  23.757  1.00  0.00     0.135 A 
ATOM     13  C   UNL A   1      30.463  28.084  23.075  1.00  0.00     0.055 A 
ATOM     14  F   UNL A   1      30.599  30.004  21.720  1.00  0.00    -0.205 F 
ATOM     15  F   UNL A   1      27.521  26.429  24.422  1.00  0.00    -0.206 F 
BRANCH   9  16
ATOM     16  N   UNL A   1      27.827  30.213  21.570  1.00  0.00    -0.396 N 
ATOM     17  H   UNL A   1      28.308  30.610  20.808  1.00  0.00     0.156 HD
ATOM     18  H   UNL A   1      26.908  30.500  21.776  1.00  0.00     0.156 HD
ENDBRANCH   9  16
ENDBRANCH   7   8
BRANCH   7  19
ATOM     19  N   UNL A   1      30.101  24.656  23.828  1.00  0.00    -0.343 N 
ATOM     20  H   UNL A   1      30.933  24.282  23.372  1.00  0.00     0.345 HD
ATOM     21  H   UNL A   1      29.361  24.779  23.136  1.00  0.00     0.345 HD
ATOM     22  H   UNL A   1      29.789  24.007  24.550  1.00  0.00     0.345 HD
ENDBRANCH   7  19
ENDBRANCH   4   7
ENDBRANCH   2   3
ENDBRANCH   1   2
BRANCH   1  23
ATOM     23  C   UNL A   1      32.668  30.006  26.117  1.00  0.00     0.118 C 
BRANCH  23  24
ATOM     24  N   UNL A   1      32.474  31.391  26.530  1.00  0.00    -0.352 N 
ATOM     25  C   UNL A   1      33.265  32.184  27.329  1.00  0.00     0.251 C 
ATOM     26  H   UNL A   1      31.657  31.821  26.188  1.00  0.00     0.163 HD
ATOM     27  O   UNL A   1      32.882  33.294  27.685  1.00  0.00    -0.269 OA
BRANCH  25  28
ATOM     28  C   UNL A   1      34.566  31.666  27.797  1.00  0.00     0.039 A 
ATOM     29  C   UNL A   1      34.706  30.320  28.141  1.00  0.00     0.014 A 
ATOM     30  C   UNL A   1      35.634  32.550  27.960  1.00  0.00     0.014 A 
ATOM     31  C   UNL A   1      35.833  29.906  28.837  1.00  0.00     0.010 A 
ATOM     32  C   UNL A   1      36.809  32.107  28.572  1.00  0.00     0.010 A 
ATOM     33  C   UNL A   1      36.895  30.797  29.070  1.00  0.00    -0.014 A 
BRANCH  33  34
ATOM     34  C   UNL A   1      38.076  30.342  29.846  1.00  0.00     0.031 A 
ATOM     35  C   UNL A   1      38.255  30.750  31.284  1.00  0.00     0.074 A 
ATOM     36  C   UNL A   1      38.969  29.520  29.263  1.00  0.00     0.049 A 
ATOM     37  N   UNL A   1      39.253  30.498  32.096  1.00  0.00    -0.248 NA
ATOM     38  C   UNL A   1      37.179  31.549  31.893  1.00  0.00     0.031 C 
ATOM     39  C   UNL A   1      38.895  29.039  27.882  1.00  0.00     0.029 A 
ATOM     40  N   UNL A   1      40.104  28.930  29.759  1.00  0.00    -0.354 N 
ATOM     41  C   UNL A   1      38.943  31.134  33.291  1.00  0.00     0.074 A 
ATOM     42  C   UNL A   1      37.668  31.791  33.103  1.00  0.00     0.031 C 
ATOM     43  C   UNL A   1      39.911  28.197  27.654  1.00  0.00     0.029 A 
ATOM     44  C   UNL A   1      40.750  28.135  28.846  1.00  0.00     0.049 A 
ATOM     45  H   UNL A   1      40.424  29.065  30.680  1.00  0.00     0.167 HD
ATOM     46  C   UNL A   1      39.660  31.162  34.440  1.00  0.00     0.037 A 
ATOM     47  C   UNL A   1      41.906  27.452  28.944  1.00  0.00     0.037 A 
ATOM     48  C   UNL A   1      40.906  30.469  34.638  1.00  0.00     0.049 A 
ATOM     49  C   UNL A   1      42.680  27.505  30.229  1.00  0.00     0.074 A 
ATOM     50  C   UNL A   1      41.695  30.422  35.774  1.00  0.00     0.029 A 
ATOM     51  N   UNL A   1      41.540  29.692  33.679  1.00  0.00    -0.354 N 
ATOM     52  N   UNL A   1      42.389  28.134  31.341  1.00  0.00    -0.248 NA
ATOM     53  C   UNL A   1      43.948  26.765  30.269  1.00  0.00     0.031 C 
ATOM     54  C   UNL A   1      42.821  29.643  35.494  1.00  0.00     0.029 A 
ATOM     55  C   UNL A   1      42.714  29.171  34.196  1.00  0.00     0.049 A 
ATOM     56  H   UNL A   1      41.204  29.536  32.767  1.00  0.00     0.167 HD
ATOM     57  C   UNL A   1      43.433  27.866  32.214  1.00  0.00     0.074 A 
ATOM     58  C   UNL A   1      44.352  26.993  31.511  1.00  0.00     0.031 C 
ATOM     59  C   UNL A   1      43.617  28.308  33.480  1.00  0.00     0.037 A 
BRANCH  46  60
ATOM     60  C   UNL A   1      39.130  31.974  35.584  1.00  0.00     0.064 A 
ATOM     61  C   UNL A   1      38.336  31.402  36.587  1.00  0.00     0.173 A 
ATOM     62  C   UNL A   1      39.502  33.320  35.727  1.00  0.00     0.173 A 
ATOM     63  F   UNL A   1      37.943  30.123  36.491  1.00  0.00    -0.203 F 
ATOM     64  C   UNL A   1      37.931  32.149  37.692  1.00  0.00     0.198 A 
ATOM     65  C   UNL A   1      39.114  34.058  36.841  1.00  0.00     0.198 A 
ATOM     66  F   UNL A   1      40.265  33.911  34.795  1.00  0.00    -0.203 F 
ATOM     67  F   UNL A   1      37.157  31.588  38.631  1.00  0.00    -0.200 F 
ATOM     68  C   UNL A   1      38.329  33.472  37.823  1.00  0.00     0.200 A 
ATOM     69  F   UNL A   1      39.509  35.332  36.972  1.00  0.00    -0.200 F 
ATOM     70  F   UNL A   1      37.956  34.183  38.897  1.00  0.00    -0.200 F 
ENDBRANCH  46  60
BRANCH  47  71
ATOM     71  C   UNL A   1      42.401  26.683  27.776  1.00  0.00     0.064 A 
ATOM     72  C   UNL A   1      43.317  27.245  26.877  1.00  0.00     0.173 A 
ATOM     73  C   UNL A   1      41.994  25.358  27.556  1.00  0.00     0.173 A 
ATOM     74  F   UNL A   1      43.718  28.515  27.037  1.00  0.00    -0.203 F 
ATOM     75  C   UNL A   1      43.804  26.511  25.797  1.00  0.00     0.198 A 
ATOM     76  C   UNL A   1      42.503  24.618  26.493  1.00  0.00     0.198 A 
ATOM     77  F   UNL A   1      41.123  24.775  28.392  1.00  0.00    -0.203 F 
ATOM     78  F   UNL A   1      44.656  27.081  24.934  1.00  0.00    -0.200 F 
ATOM     79  C   UNL A   1      43.404  25.197  25.611  1.00  0.00     0.200 A 
ATOM     80  F   UNL A   1      42.129  23.343  26.328  1.00  0.00    -0.200 F 
ATOM     81  F   UNL A   1      43.885  24.487  24.582  1.00  0.00    -0.200 F 
ENDBRANCH  47  71
BRANCH  59  82
ATOM     82  C   UNL A   1      44.853  27.849  34.191  1.00  0.00     0.064 A 
ATOM     83  C   UNL A   1      44.872  26.652  34.922  1.00  0.00     0.173 A 
ATOM     84  C   UNL A   1      46.040  28.591  34.108  1.00  0.00     0.173 A 
ATOM     85  F   UNL A   1      43.756  25.917  35.042  1.00  0.00    -0.203 F 
ATOM     86  C   UNL A   1      46.032  26.224  35.560  1.00  0.00     0.198 A 
ATOM     87  C   UNL A   1      47.205  28.148  34.727  1.00  0.00     0.198 A 
ATOM     88  F   UNL A   1      46.072  29.739  33.414  1.00  0.00    -0.203 F 
ATOM     89  F   UNL A   1      46.018  25.098  36.286  1.00  0.00    -0.200 F 
ATOM     90  C   UNL A   1      47.198  26.968  35.457  1.00  0.00     0.200 A 
ATOM     91  F   UNL A   1      48.333  28.862  34.618  1.00  0.00    -0.200 F 
ATOM     92  F   UNL A   1      48.316  26.552  36.068  1.00  0.00    -0.200 F 
ENDBRANCH  59  82
ENDBRANCH  33  34
ENDBRANCH  25  28
ENDBRANCH  23  24
ENDBRANCH   1  23
TORSDOF 13
ENDMDL
MODEL 2
REMARK VINA RESULT:     -12.2      0.361      7.752
REMARK SMILES Nc1cc(F)c([C@H]([NH3+])C(=O)NCCCNC(=O)c2ccc(-c3c4nc(c(-c5c(F)c(F)c(F)c(F)c5F)c5ccc([nH]5)c(-c5c(F)c(F)c(F)c(F)c5F)c5nc(c(-c6c(F)c(F)c(F)c(F)c6F)c6ccc3[nH]6)C=C5)C=C4)cc2)cc1F
REMARK SMILES IDX 13 1 12 2 11 3 9 4 10 5 7 7 6 8 2 9 3 10 82 11 4 12 81 13
REMARK SMILES IDX 83 14 5 15 1 16 8 19 14 23 15 24 16 25 17 27 18 28 19 29
REMARK SMILES IDX 80 30 20 31 79 32 21 33 22 34 23 35 73 36 24 37 78 38 72 39
REMARK SMILES IDX 74 40 25 41 77 42 71 43 70 44 26 46 58 47 38 48 57 49 39 50
REMARK SMILES IDX 42 51 56 52 75 53 40 54 41 55 55 57 76 58 43 59 27 60 28 61
REMARK SMILES IDX 36 62 29 63 30 64 34 65 37 66 31 67 32 68 35 69 33 70 59 71
REMARK SMILES IDX 60 72 68 73 61 74 62 75 66 76 69 77 63 78 64 79 67 80 65 81
REMARK SMILES IDX 44 82 45 83 53 84 46 85 47 86 51 87 54 88 48 89 49 90 52 91
REMARK SMILES IDX 50 92
REMARK H PARENT 11 6 1 17 1 18 8 20 8 21 8 22 15 26 74 45 42 56
REMARK Flexibility Score: inf
ROOT
ATOM      1  C   UNL A   1      31.777  29.051  26.818  1.00  0.00     0.042 C 
ENDROOT
BRANCH   1   2
ATOM      2  C   UNL A   1      32.141  27.598  26.565  1.00  0.00     0.118 C 
BRANCH   2   3
ATOM      3  N   UNL A   1      31.032  26.703  26.838  1.00  0.00    -0.351 N 
ATOM      4  C   UNL A   1      30.357  25.866  25.996  1.00  0.00     0.283 C 
ATOM      5  O   UNL A   1      29.580  25.057  26.514  1.00  0.00    -0.268 OA
ATOM      6  H   UNL A   1      30.719  26.699  27.771  1.00  0.00     0.163 HD
BRANCH   4   7
ATOM      7  C   UNL A   1      30.482  25.985  24.459  1.00  0.00     0.305 C 
BRANCH   7   8
ATOM      8  C   UNL A   1      29.703  27.101  23.785  1.00  0.00     0.058 A 
ATOM      9  C   UNL A   1      28.328  29.188  22.423  1.00  0.00     0.071 A 
ATOM     10  C   UNL A   1      27.626  28.214  23.126  1.00  0.00     0.068 A 
ATOM     11  C   UNL A   1      29.726  29.114  22.418  1.00  0.00     0.146 A 
ATOM     12  C   UNL A   1      28.308  27.211  23.820  1.00  0.00     0.135 A 
ATOM     13  C   UNL A   1      30.407  28.103  23.094  1.00  0.00     0.055 A 
ATOM     14  F   UNL A   1      30.435  30.031  21.742  1.00  0.00    -0.205 F 
ATOM     15  F   UNL A   1      27.564  26.328  24.500  1.00  0.00    -0.206 F 
BRANCH   9  16
ATOM     16  N   UNL A   1      27.654  30.128  21.656  1.00  0.00    -0.396 N 
ATOM     17  H   UNL A   1      28.101  30.547  20.885  1.00  0.00     0.156 HD
ATOM     18  H   UNL A   1      26.729  30.378  21.883  1.00  0.00     0.156 HD
ENDBRANCH   9  16
ENDBRANCH   7   8
BRANCH   7  19
ATOM     19  N   UNL A   1      30.209  24.663  23.834  1.00  0.00    -0.343 N 
ATOM     20  H   UNL A   1      31.050  24.330  23.362  1.00  0.00     0.345 HD
ATOM     21  H   UNL A   1      29.453  24.758  23.154  1.00  0.00     0.345 HD
ATOM     22  H   UNL A   1      29.937  23.995  24.554  1.00  0.00     0.345 HD
ENDBRANCH   7  19
ENDBRANCH   4   7
ENDBRANCH   2   3
ENDBRANCH   1   2
BRANCH   1  23
ATOM     23  C   UNL A   1      32.649  30.042  26.057  1.00  0.00     0.118 C 
BRANCH  23  24
ATOM     24  N   UNL A   1      32.439  31.426  26.464  1.00  0.00    -0.352 N 
ATOM     25  C   UNL A   1      33.207  32.223  27.281  1.00  0.00     0.251 C 
ATOM     26  H   UNL A   1      31.628  31.852  26.103  1.00  0.00     0.163 HD
ATOM     27  O   UNL A   1      32.811  33.331  27.627  1.00  0.00    -0.269 OA
BRANCH  25  28
ATOM     28  C   UNL A   1      34.500  31.711  27.780  1.00  0.00     0.039 A 
ATOM     29  C   UNL A   1      34.648  30.359  28.094  1.00  0.00     0.014 A 
ATOM     30  C   UNL A   1      35.549  32.606  28.001  1.00  0.00     0.014 A 
ATOM     31  C   UNL A   1      35.757  29.943  28.818  1.00  0.00     0.010 A 
ATOM     32  C   UNL A   1      36.709  32.163  28.641  1.00  0.00     0.010 A 
ATOM     33  C   UNL A   1      36.797  30.842  29.108  1.00  0.00    -0.014 A 
BRANCH  33  34
ATOM     34  C   UNL A   1      37.958  30.384  29.913  1.00  0.00     0.031 A 
ATOM     35  C   UNL A   1      39.012  29.495  29.307  1.00  0.00     0.074 A 
ATOM     36  C   UNL A   1      38.085  30.809  31.184  1.00  0.00     0.049 A 
ATOM     37  N   UNL A   1      40.059  28.951  29.876  1.00  0.00    -0.248 NA
ATOM     38  C   UNL A   1      38.873  29.169  27.878  1.00  0.00     0.031 C 
ATOM     39  C   UNL A   1      37.141  31.688  31.877  1.00  0.00     0.029 A 
ATOM     40  N   UNL A   1      39.065  30.576  32.115  1.00  0.00    -0.354 N 
ATOM     41  C   UNL A   1      40.678  28.193  28.890  1.00  0.00     0.074 A 
ATOM     42  C   UNL A   1      39.891  28.340  27.686  1.00  0.00     0.031 C 
ATOM     43  C   UNL A   1      37.606  31.953  33.105  1.00  0.00     0.029 A 
ATOM     44  C   UNL A   1      38.842  31.207  33.313  1.00  0.00     0.049 A 
ATOM     45  H   UNL A   1      39.851  30.009  31.942  1.00  0.00     0.167 HD
ATOM     46  C   UNL A   1      41.805  27.447  28.986  1.00  0.00     0.037 A 
ATOM     47  C   UNL A   1      39.537  31.168  34.465  1.00  0.00     0.037 A 
ATOM     48  C   UNL A   1      42.611  27.340  30.174  1.00  0.00     0.049 A 
ATOM     49  C   UNL A   1      40.779  30.329  34.542  1.00  0.00     0.074 A 
ATOM     50  C   UNL A   1      43.782  26.624  30.360  1.00  0.00     0.029 A 
ATOM     51  N   UNL A   1      42.337  27.978  31.375  1.00  0.00    -0.354 N 
ATOM     52  N   UNL A   1      41.337  29.596  33.610  1.00  0.00    -0.248 NA
ATOM     53  C   UNL A   1      41.482  30.302  35.831  1.00  0.00     0.031 C 
ATOM     54  C   UNL A   1      44.199  26.802  31.682  1.00  0.00     0.029 A 
ATOM     55  C   UNL A   1      43.312  27.662  32.308  1.00  0.00     0.049 A 
ATOM     56  H   UNL A   1      41.565  28.566  31.539  1.00  0.00     0.167 HD
ATOM     57  C   UNL A   1      42.455  29.022  34.197  1.00  0.00     0.074 A 
ATOM     58  C   UNL A   1      42.512  29.514  35.559  1.00  0.00     0.031 C 
ATOM     59  C   UNL A   1      43.349  28.159  33.659  1.00  0.00     0.037 A 
BRANCH  46  60
ATOM     60  C   UNL A   1      42.243  26.670  27.780  1.00  0.00     0.064 A 
ATOM     61  C   UNL A   1      43.210  27.167  26.895  1.00  0.00     0.173 A 
ATOM     62  C   UNL A   1      41.756  25.371  27.561  1.00  0.00     0.173 A 
ATOM     63  F   UNL A   1      43.696  28.407  27.053  1.00  0.00    -0.203 F 
ATOM     64  C   UNL A   1      43.673  26.392  25.834  1.00  0.00     0.198 A 
ATOM     65  C   UNL A   1      42.236  24.592  26.513  1.00  0.00     0.198 A 
ATOM     66  F   UNL A   1      40.833  24.850  28.384  1.00  0.00    -0.203 F 
ATOM     67  F   UNL A   1      44.584  26.892  24.989  1.00  0.00    -0.200 F 
ATOM     68  C   UNL A   1      43.194  25.103  25.650  1.00  0.00     0.200 A 
ATOM     69  F   UNL A   1      41.781  23.343  26.344  1.00  0.00    -0.200 F 
ATOM     70  F   UNL A   1      43.656  24.352  24.640  1.00  0.00    -0.200 F 
ENDBRANCH  46  60
BRANCH  47  71
ATOM     71  C   UNL A   1      39.050  31.935  35.638  1.00  0.00     0.064 A 
ATOM     72  C   UNL A   1      38.212  31.342  36.591  1.00  0.00     0.173 A 
ATOM     73  C   UNL A   1      39.443  33.266  35.848  1.00  0.00     0.173 A 
ATOM     74  F   UNL A   1      37.795  30.078  36.421  1.00  0.00    -0.203 F 
ATOM     75  C   UNL A   1      37.778  32.054  37.707  1.00  0.00     0.198 A 
ATOM     76  C   UNL A   1      39.032  33.966  36.978  1.00  0.00     0.198 A 
ATOM     77  F   UNL A   1      40.250  33.875  34.967  1.00  0.00    -0.203 F 
ATOM     78  F   UNL A   1      36.952  31.474  38.589  1.00  0.00    -0.200 F 
ATOM     79  C   UNL A   1      38.196  33.361  37.905  1.00  0.00     0.200 A 
ATOM     80  F   UNL A   1      39.453  35.222  37.175  1.00  0.00    -0.200 F 
ATOM     81  F   UNL A   1      37.792  34.040  38.987  1.00  0.00    -0.200 F 
ENDBRANCH  47  71
BRANCH  59  82
ATOM     82  C   UNL A   1      44.471  27.699  34.539  1.00  0.00     0.064 A 
ATOM     83  C   UNL A   1      45.669  28.422  34.630  1.00  0.00     0.173 A 
ATOM     84  C   UNL A   1      44.330  26.550  35.330  1.00  0.00     0.173 A 
ATOM     85  F   UNL A   1      45.854  29.520  33.881  1.00  0.00    -0.203 F 
ATOM     86  C   UNL A   1      46.696  27.998  35.468  1.00  0.00     0.198 A 
ATOM     87  C   UNL A   1      45.350  26.142  36.185  1.00  0.00     0.198 A 
ATOM     88  F   UNL A   1      43.199  25.830  35.282  1.00  0.00    -0.203 F 
ATOM     89  F   UNL A   1      47.848  28.681  35.511  1.00  0.00    -0.200 F 
ATOM     90  C   UNL A   1      46.534  26.863  36.249  1.00  0.00     0.200 A 
ATOM     91  F   UNL A   1      45.187  25.052  36.946  1.00  0.00    -0.200 F 
ATOM     92  F   UNL A   1      47.521  26.459  37.060  1.00  0.00    -0.200 F 
ENDBRANCH  59  82
ENDBRANCH  33  34
ENDBRANCH  25  28
ENDBRANCH  23  24
ENDBRANCH   1  23
TORSDOF 13
ENDMDL
MODEL 3
REMARK VINA RESULT:     -12.2      0.376      2.051
REMARK SMILES Nc1cc(F)c([C@H]([NH3+])C(=O)NCCCNC(=O)c2ccc(-c3c4nc(c(-c5c(F)c(F)c(F)c(F)c5F)c5ccc([nH]5)c(-c5c(F)c(F)c(F)c(F)c5F)c5nc(c(-c6c(F)c(F)c(F)c(F)c6F)c6ccc3[nH]6)C=C5)C=C4)cc2)cc1F
REMARK SMILES IDX 13 1 12 2 11 3 9 4 10 5 7 7 6 8 2 9 3 10 82 11 4 12 81 13
REMARK SMILES IDX 83 14 5 15 1 16 8 19 14 23 15 24 16 25 17 27 18 28 19 29
REMARK SMILES IDX 80 30 20 31 79 32 21 33 22 34 23 35 73 36 24 37 78 38 72 39
REMARK SMILES IDX 74 40 25 41 77 42 71 43 70 44 26 46 58 47 38 48 57 49 39 50
REMARK SMILES IDX 42 51 56 52 75 53 40 54 41 55 55 57 76 58 43 59 27 60 28 61
REMARK SMILES IDX 36 62 29 63 30 64 34 65 37 66 31 67 32 68 35 69 33 70 59 71
REMARK SMILES IDX 60 72 68 73 61 74 62 75 66 76 69 77 63 78 64 79 67 80 65 81
REMARK SMILES IDX 44 82 45 83 53 84 46 85 47 86 51 87 54 88 48 89 49 90 52 91
REMARK SMILES IDX 50 92
REMARK H PARENT 11 6 1 17 1 18 8 20 8 21 8 22 15 26 74 45 42 56
REMARK Flexibility Score: inf
ROOT
ATOM      1  C   UNL A   1      31.818  29.071  26.807  1.00  0.00     0.042 C 
ENDROOT
BRANCH   1   2
ATOM      2  C   UNL A   1      32.099  27.607  26.518  1.00  0.00     0.118 C 
BRANCH   2   3
ATOM      3  N   UNL A   1      30.949  26.766  26.793  1.00  0.00    -0.351 N 
ATOM      4  C   UNL A   1      30.245  25.947  25.956  1.00  0.00     0.283 C 
ATOM      5  O   UNL A   1      29.428  25.182  26.478  1.00  0.00    -0.268 OA
ATOM      6  H   UNL A   1      30.628  26.789  27.723  1.00  0.00     0.163 HD
BRANCH   4   7
ATOM      7  C   UNL A   1      30.390  26.038  24.419  1.00  0.00     0.305 C 
BRANCH   7   8
ATOM      8  C   UNL A   1      29.664  27.175  23.721  1.00  0.00     0.058 A 
ATOM      9  C   UNL A   1      28.393  29.301  22.317  1.00  0.00     0.071 A 
ATOM     10  C   UNL A   1      27.642  28.348  23.000  1.00  0.00     0.068 A 
ATOM     11  C   UNL A   1      29.787  29.186  22.355  1.00  0.00     0.146 A 
ATOM     12  C   UNL A   1      28.272  27.327  23.714  1.00  0.00     0.135 A 
ATOM     13  C   UNL A   1      30.418  28.156  23.051  1.00  0.00     0.055 A 
ATOM     14  F   UNL A   1      30.543  30.080  21.701  1.00  0.00    -0.205 F 
ATOM     15  F   UNL A   1      27.483  26.467  24.372  1.00  0.00    -0.206 F 
BRANCH   9  16
ATOM     16  N   UNL A   1      27.770  30.259  21.530  1.00  0.00    -0.396 N 
ATOM     17  H   UNL A   1      26.898  30.628  21.800  1.00  0.00     0.156 HD
ATOM     18  H   UNL A   1      28.201  30.570  20.700  1.00  0.00     0.156 HD
ENDBRANCH   9  16
ENDBRANCH   7   8
BRANCH   7  19
ATOM     19  N   UNL A   1      30.067  24.720  23.810  1.00  0.00    -0.343 N 
ATOM     20  H   UNL A   1      30.582  23.986  24.296  1.00  0.00     0.345 HD
ATOM     21  H   UNL A   1      30.335  24.726  22.825  1.00  0.00     0.345 HD
ATOM     22  H   UNL A   1      29.067  24.543  23.890  1.00  0.00     0.345 HD
ENDBRANCH   7  19
ENDBRANCH   4   7
ENDBRANCH   2   3
ENDBRANCH   1   2
BRANCH   1  23
ATOM     23  C   UNL A   1      32.833  30.023  26.189  1.00  0.00     0.118 C 
BRANCH  23  24
ATOM     24  N   UNL A   1      32.680  31.402  26.640  1.00  0.00    -0.352 N 
ATOM     25  C   UNL A   1      33.496  32.149  27.456  1.00  0.00     0.251 C 
ATOM     26  H   UNL A   1      31.874  31.864  26.313  1.00  0.00     0.163 HD
ATOM     27  O   UNL A   1      33.147  33.260  27.843  1.00  0.00    -0.269 OA
BRANCH  25  28
ATOM     28  C   UNL A   1      34.784  31.582  27.903  1.00  0.00     0.039 A 
ATOM     29  C   UNL A   1      34.859  30.254  28.327  1.00  0.00     0.014 A 
ATOM     30  C   UNL A   1      35.909  32.407  27.966  1.00  0.00     0.014 A 
ATOM     31  C   UNL A   1      35.990  29.815  29.003  1.00  0.00     0.010 A 
ATOM     32  C   UNL A   1      37.082  31.931  28.557  1.00  0.00     0.010 A 
ATOM     33  C   UNL A   1      37.112  30.651  29.134  1.00  0.00    -0.014 A 
BRANCH  33  34
ATOM     34  C   UNL A   1      38.297  30.173  29.890  1.00  0.00     0.031 A 
ATOM     35  C   UNL A   1      38.542  30.628  31.304  1.00  0.00     0.074 A 
ATOM     36  C   UNL A   1      39.132  29.289  29.313  1.00  0.00     0.049 A 
ATOM     37  N   UNL A   1      39.555  30.362  32.093  1.00  0.00    -0.248 NA
ATOM     38  C   UNL A   1      37.524  31.499  31.915  1.00  0.00     0.031 C 
ATOM     39  C   UNL A   1      38.990  28.758  27.956  1.00  0.00     0.029 A 
ATOM     40  N   UNL A   1      40.255  28.667  29.795  1.00  0.00    -0.354 N 
ATOM     41  C   UNL A   1      39.314  31.058  33.270  1.00  0.00     0.074 A 
ATOM     42  C   UNL A   1      38.064  31.765  33.097  1.00  0.00     0.031 C 
ATOM     43  C   UNL A   1      39.959  27.862  27.729  1.00  0.00     0.029 A 
ATOM     44  C   UNL A   1      40.834  27.808  28.895  1.00  0.00     0.049 A 
ATOM     45  H   UNL A   1      40.613  28.823  30.700  1.00  0.00     0.167 HD
ATOM     46  C   UNL A   1      40.070  31.097  34.394  1.00  0.00     0.037 A 
ATOM     47  C   UNL A   1      41.961  27.077  28.984  1.00  0.00     0.037 A 
ATOM     48  C   UNL A   1      41.291  30.357  34.580  1.00  0.00     0.049 A 
ATOM     49  C   UNL A   1      42.780  27.145  30.240  1.00  0.00     0.074 A 
ATOM     50  C   UNL A   1      42.115  30.317  35.691  1.00  0.00     0.029 A 
ATOM     51  N   UNL A   1      41.856  29.515  33.633  1.00  0.00    -0.354 N 
ATOM     52  N   UNL A   1      42.555  27.829  31.334  1.00  0.00    -0.248 NA
ATOM     53  C   UNL A   1      44.014  26.349  30.269  1.00  0.00     0.031 C 
ATOM     54  C   UNL A   1      43.195  29.477  35.407  1.00  0.00     0.029 A 
ATOM     55  C   UNL A   1      43.023  28.960  34.133  1.00  0.00     0.049 A 
ATOM     56  H   UNL A   1      41.483  29.338  32.739  1.00  0.00     0.167 HD
ATOM     57  C   UNL A   1      43.615  27.547  32.183  1.00  0.00     0.074 A 
ATOM     58  C   UNL A   1      44.470  26.607  31.487  1.00  0.00     0.031 C 
ATOM     59  C   UNL A   1      43.861  28.029  33.424  1.00  0.00     0.037 A 
BRANCH  46  60
ATOM     60  C   UNL A   1      39.616  31.977  35.521  1.00  0.00     0.064 A 
ATOM     61  C   UNL A   1      40.040  33.308  35.633  1.00  0.00     0.173 A 
ATOM     62  C   UNL A   1      38.671  31.507  36.447  1.00  0.00     0.173 A 
ATOM     63  F   UNL A   1      40.951  33.800  34.781  1.00  0.00    -0.203 F 
ATOM     64  C   UNL A   1      39.534  34.138  36.632  1.00  0.00     0.198 A 
ATOM     65  C   UNL A   1      38.153  32.344  37.431  1.00  0.00     0.198 A 
ATOM     66  F   UNL A   1      38.232  30.241  36.379  1.00  0.00    -0.203 F 
ATOM     67  F   UNL A   1      39.966  35.402  36.732  1.00  0.00    -0.200 F 
ATOM     68  C   UNL A   1      38.585  33.659  37.523  1.00  0.00     0.200 A 
ATOM     69  F   UNL A   1      37.227  31.882  38.284  1.00  0.00    -0.200 F 
ATOM     70  F   UNL A   1      38.085  34.465  38.470  1.00  0.00    -0.200 F 
ENDBRANCH  46  60
BRANCH  47  71
ATOM     71  C   UNL A   1      42.381  26.241  27.832  1.00  0.00     0.064 A 
ATOM     72  C   UNL A   1      41.847  24.961  27.637  1.00  0.00     0.173 A 
ATOM     73  C   UNL A   1      43.299  26.720  26.886  1.00  0.00     0.173 A 
ATOM     74  F   UNL A   1      40.981  24.454  28.527  1.00  0.00    -0.203 F 
ATOM     75  C   UNL A   1      42.221  24.188  26.539  1.00  0.00     0.198 A 
ATOM     76  C   UNL A   1      43.650  25.958  25.775  1.00  0.00     0.198 A 
ATOM     77  F   UNL A   1      43.834  27.942  27.027  1.00  0.00    -0.203 F 
ATOM     78  F   UNL A   1      41.719  22.954  26.390  1.00  0.00    -0.200 F 
ATOM     79  C   UNL A   1      43.114  24.691  25.605  1.00  0.00     0.200 A 
ATOM     80  F   UNL A   1      44.498  26.455  24.865  1.00  0.00    -0.200 F 
ATOM     81  F   UNL A   1      43.460  23.953  24.541  1.00  0.00    -0.200 F 
ENDBRANCH  47  71
BRANCH  59  82
ATOM     82  C   UNL A   1      45.099  27.542  34.113  1.00  0.00     0.064 A 
ATOM     83  C   UNL A   1      46.314  28.236  34.007  1.00  0.00     0.173 A 
ATOM     84  C   UNL A   1      45.062  26.395  34.920  1.00  0.00     0.173 A 
ATOM     85  F   UNL A   1      46.401  29.330  33.234  1.00  0.00    -0.203 F 
ATOM     86  C   UNL A   1      47.452  27.787  34.669  1.00  0.00     0.198 A 
ATOM     87  C   UNL A   1      46.196  25.963  35.600  1.00  0.00     0.198 A 
ATOM     88  F   UNL A   1      43.921  25.703  35.057  1.00  0.00    -0.203 F 
ATOM     89  F   UNL A   1      48.612  28.442  34.523  1.00  0.00    -0.200 F 
ATOM     90  C   UNL A   1      47.391  26.656  35.469  1.00  0.00     0.200 A 
ATOM     91  F   UNL A   1      46.133  24.877  36.380  1.00  0.00    -0.200 F 
ATOM     92  F   UNL A   1      48.487  26.227  36.110  1.00  0.00    -0.200 F 
ENDBRANCH  59  82
ENDBRANCH  33  34
ENDBRANCH  25  28
ENDBRANCH  23  24
ENDBRANCH   1  23
TORSDOF 13
ENDMDL
