MODEL 1
REMARK VINA RESULT:     -13.2      0.000      0.000
REMARK SMILES O=C(NCCCNC(=O)c1cc(NC(=O)c2cccnc2Cl)ccc1O)c1ccc(-c2c3nc(c(-c4c(F)c(F)c(F)c(F)c4F)c4ccc([nH]4)c(-c4c(F)c(F)c(F)c(F)c4F)c4nc(c(-c5c(F)c(F)c(F)c(F)c5F)c5ccc2[nH]5)C=C4)C=C3)cc1
REMARK SMILES IDX 5 1 4 2 3 3 1 4 2 5 27 7 28 8 89 9 29 10 88 11 30 12 31 13
REMARK SMILES IDX 32 14 82 15 33 16 87 17 81 18 83 19 34 20 86 21 80 22 79 23
REMARK SMILES IDX 35 25 67 26 47 27 66 28 48 29 51 30 65 31 84 32 49 33 50 34
REMARK SMILES IDX 64 36 85 37 52 38 36 39 37 40 45 41 38 42 39 43 43 44 46 45
REMARK SMILES IDX 40 46 41 47 44 48 42 49 68 50 69 51 77 52 70 53 71 54 75 55
REMARK SMILES IDX 78 56 72 57 73 58 76 59 74 60 53 61 54 62 62 63 55 64 56 65
REMARK SMILES IDX 60 66 63 67 57 68 58 69 61 70 59 71 6 72 7 73 8 74 9 76
REMARK SMILES IDX 10 77 11 78 25 79 12 80 24 81 23 82 26 83 13 85 14 86 15 88
REMARK SMILES IDX 16 89 17 90 21 91 18 92 20 93 22 94 19 95
REMARK H PARENT 3 6 83 24 51 35 7 75 26 84 13 87
REMARK Flexibility Score: inf
ROOT
ATOM      1  C   UNL A   1      31.390  32.426  26.501  1.00  0.00     0.042 C 
ENDROOT
BRANCH   1   2
ATOM      2  C   UNL A   1      32.641  32.992  27.154  1.00  0.00     0.118 C 
BRANCH   2   3
ATOM      3  N   UNL A   1      32.434  34.305  27.748  1.00  0.00    -0.352 N 
ATOM      4  O   UNL A   1      32.615  35.978  29.243  1.00  0.00    -0.269 OA
ATOM      5  C   UNL A   1      33.063  34.921  28.800  1.00  0.00     0.251 C 
ATOM      6  H   UNL A   1      31.723  34.840  27.326  1.00  0.00     0.163 HD
BRANCH   5   7
ATOM      7  C   UNL A   1      34.257  34.319  29.431  1.00  0.00     0.039 A 
ATOM      8  C   UNL A   1      35.545  34.581  28.954  1.00  0.00     0.014 A 
ATOM      9  C   UNL A   1      34.085  33.508  30.557  1.00  0.00     0.014 A 
ATOM     10  C   UNL A   1      36.640  33.920  29.504  1.00  0.00     0.010 A 
ATOM     11  C   UNL A   1      35.194  32.917  31.166  1.00  0.00     0.010 A 
ATOM     12  C   UNL A   1      36.477  33.094  30.625  1.00  0.00    -0.014 A 
BRANCH  12  13
ATOM     13  C   UNL A   1      37.656  32.457  31.265  1.00  0.00     0.031 A 
ATOM     14  C   UNL A   1      38.358  31.306  30.607  1.00  0.00     0.074 A 
ATOM     15  C   UNL A   1      38.064  32.899  32.470  1.00  0.00     0.049 A 
ATOM     16  N   UNL A   1      39.330  30.558  31.064  1.00  0.00    -0.248 NA
ATOM     17  C   UNL A   1      37.896  30.937  29.261  1.00  0.00     0.031 C 
ATOM     18  C   UNL A   1      37.459  34.009  33.207  1.00  0.00     0.029 A 
ATOM     19  N   UNL A   1      39.068  32.457  33.294  1.00  0.00    -0.354 N 
ATOM     20  C   UNL A   1      39.580  29.615  30.076  1.00  0.00     0.074 A 
ATOM     21  C   UNL A   1      38.637  29.870  29.006  1.00  0.00     0.031 C 
ATOM     22  C   UNL A   1      38.104  34.164  34.373  1.00  0.00     0.029 A 
ATOM     23  C   UNL A   1      39.119  33.123  34.493  1.00  0.00     0.049 A 
ATOM     24  H   UNL A   1      39.691  31.735  33.049  1.00  0.00     0.167 HD
ATOM     25  C   UNL A   1      40.512  28.631  30.065  1.00  0.00     0.037 A 
ATOM     26  C   UNL A   1      39.866  32.895  35.589  1.00  0.00     0.037 A 
ATOM     27  C   UNL A   1      41.445  28.393  31.138  1.00  0.00     0.049 A 
ATOM     28  C   UNL A   1      40.862  31.772  35.577  1.00  0.00     0.074 A 
ATOM     29  C   UNL A   1      42.459  27.453  31.207  1.00  0.00     0.029 A 
ATOM     30  N   UNL A   1      41.466  29.091  32.339  1.00  0.00    -0.354 N 
ATOM     31  N   UNL A   1      41.120  30.909  34.623  1.00  0.00    -0.248 NA
ATOM     32  C   UNL A   1      41.670  31.586  36.789  1.00  0.00     0.031 C 
ATOM     33  C   UNL A   1      43.047  27.536  32.473  1.00  0.00     0.029 A 
ATOM     34  C   UNL A   1      42.451  28.578  33.167  1.00  0.00     0.049 A 
ATOM     35  H   UNL A   1      40.868  29.839  32.567  1.00  0.00     0.167 HD
ATOM     36  C   UNL A   1      42.138  30.099  35.106  1.00  0.00     0.074 A 
ATOM     37  C   UNL A   1      42.451  30.572  36.439  1.00  0.00     0.031 C 
ATOM     38  C   UNL A   1      42.760  29.064  34.491  1.00  0.00     0.037 A 
BRANCH  25  39
ATOM     39  C   UNL A   1      40.537  27.712  28.876  1.00  0.00     0.064 A 
ATOM     40  C   UNL A   1      41.372  27.942  27.773  1.00  0.00     0.173 A 
ATOM     41  C   UNL A   1      39.715  26.574  28.845  1.00  0.00     0.173 A 
ATOM     42  F   UNL A   1      42.176  29.017  27.746  1.00  0.00    -0.203 F 
ATOM     43  C   UNL A   1      41.349  27.099  26.664  1.00  0.00     0.198 A 
ATOM     44  C   UNL A   1      39.720  25.712  27.751  1.00  0.00     0.198 A 
ATOM     45  F   UNL A   1      38.905  26.295  29.876  1.00  0.00    -0.203 F 
ATOM     46  F   UNL A   1      42.104  27.380  25.593  1.00  0.00    -0.200 F 
ATOM     47  C   UNL A   1      40.526  25.983  26.656  1.00  0.00     0.200 A 
ATOM     48  F   UNL A   1      38.937  24.625  27.752  1.00  0.00    -0.200 F 
ATOM     49  F   UNL A   1      40.500  25.175  25.587  1.00  0.00    -0.200 F 
ENDBRANCH  25  39
BRANCH  26  50
ATOM     50  C   UNL A   1      39.672  33.754  36.784  1.00  0.00     0.064 A 
ATOM     51  C   UNL A   1      40.283  35.010  36.880  1.00  0.00     0.173 A 
ATOM     52  C   UNL A   1      38.815  33.360  37.825  1.00  0.00     0.173 A 
ATOM     53  F   UNL A   1      41.120  35.422  35.918  1.00  0.00    -0.203 F 
ATOM     54  C   UNL A   1      40.046  35.841  37.974  1.00  0.00     0.198 A 
ATOM     55  C   UNL A   1      38.556  34.204  38.902  1.00  0.00     0.198 A 
ATOM     56  F   UNL A   1      38.198  32.171  37.773  1.00  0.00    -0.203 F 
ATOM     57  F   UNL A   1      40.661  37.029  38.055  1.00  0.00    -0.200 F 
ATOM     58  C   UNL A   1      39.175  35.442  38.977  1.00  0.00     0.200 A 
ATOM     59  F   UNL A   1      37.697  33.823  39.857  1.00  0.00    -0.200 F 
ATOM     60  F   UNL A   1      38.931  36.252  40.016  1.00  0.00    -0.200 F 
ENDBRANCH  26  50
BRANCH  38  61
ATOM     61  C   UNL A   1      43.883  28.390  35.227  1.00  0.00     0.064 A 
ATOM     62  C   UNL A   1      45.212  28.812  35.098  1.00  0.00     0.173 A 
ATOM     63  C   UNL A   1      43.605  27.359  36.139  1.00  0.00     0.173 A 
ATOM     64  F   UNL A   1      45.532  29.780  34.226  1.00  0.00    -0.203 F 
ATOM     65  C   UNL A   1      46.226  28.223  35.851  1.00  0.00     0.198 A 
ATOM     66  C   UNL A   1      44.614  26.795  36.912  1.00  0.00     0.198 A 
ATOM     67  F   UNL A   1      42.346  26.922  36.302  1.00  0.00    -0.203 F 
ATOM     68  F   UNL A   1      47.495  28.621  35.691  1.00  0.00    -0.200 F 
ATOM     69  C   UNL A   1      45.924  27.225  36.766  1.00  0.00     0.200 A 
ATOM     70  F   UNL A   1      44.318  25.842  37.806  1.00  0.00    -0.200 F 
ATOM     71  F   UNL A   1      46.896  26.677  37.507  1.00  0.00    -0.200 F 
ENDBRANCH  38  61
ENDBRANCH  12  13
ENDBRANCH   5   7
ENDBRANCH   2   3
ENDBRANCH   1   2
BRANCH   1  72
ATOM     72  C   UNL A   1      31.403  30.922  26.279  1.00  0.00     0.118 C 
BRANCH  72  73
ATOM     73  N   UNL A   1      31.028  30.525  24.932  1.00  0.00    -0.352 N 
ATOM     74  C   UNL A   1      31.197  29.314  24.307  1.00  0.00     0.255 C 
ATOM     75  H   UNL A   1      30.591  31.223  24.392  1.00  0.00     0.163 HD
ATOM     76  O   UNL A   1      30.817  29.169  23.146  1.00  0.00    -0.269 OA
BRANCH  74  77
ATOM     77  C   UNL A   1      31.951  28.227  24.966  1.00  0.00     0.083 A 
ATOM     78  C   UNL A   1      31.185  27.327  25.720  1.00  0.00     0.043 A 
ATOM     79  C   UNL A   1      33.328  28.041  24.849  1.00  0.00     0.128 A 
ATOM     80  C   UNL A   1      31.748  26.163  26.235  1.00  0.00     0.042 A 
ATOM     81  C   UNL A   1      33.921  26.917  25.418  1.00  0.00     0.049 A 
ATOM     82  C   UNL A   1      33.130  25.979  26.095  1.00  0.00     0.030 A 
BRANCH  79  83
ATOM     83  O   UNL A   1      34.098  28.948  24.177  1.00  0.00    -0.507 OA
ATOM     84  H   UNL A   1      35.027  28.951  24.295  1.00  0.00     0.293 HD
ENDBRANCH  79  83
BRANCH  80  85
ATOM     85  N   UNL A   1      31.028  25.137  26.876  1.00  0.00    -0.322 N 
ATOM     86  C   UNL A   1      30.840  23.801  26.589  1.00  0.00     0.258 C 
ATOM     87  H   UNL A   1      30.566  25.432  27.694  1.00  0.00     0.170 HD
ATOM     88  O   UNL A   1      30.057  23.134  27.263  1.00  0.00    -0.269 OA
BRANCH  86  89
ATOM     89  C   UNL A   1      31.536  23.130  25.491  1.00  0.00     0.077 A 
ATOM     90  C   UNL A   1      31.065  23.328  24.189  1.00  0.00     0.018 A 
ATOM     91  C   UNL A   1      32.651  22.326  25.674  1.00  0.00     0.141 A 
ATOM     92  C   UNL A   1      31.778  22.787  23.123  1.00  0.00     0.021 A 
ATOM     93  N   UNL A   1      33.366  21.794  24.652  1.00  0.00    -0.244 NA
ATOM     94  Cl  UNL A   1      33.303  21.932  27.217  1.00  0.00    -0.061 Cl
ATOM     95  C   UNL A   1      32.921  22.051  23.402  1.00  0.00     0.113 A 
ENDBRANCH  86  89
ENDBRANCH  80  85
ENDBRANCH  74  77
ENDBRANCH  72  73
ENDBRANCH   1  72
TORSDOF 13
ENDMDL
MODEL 2
REMARK VINA RESULT:     -13.2      0.216      1.146
REMARK SMILES O=C(NCCCNC(=O)c1cc(NC(=O)c2cccnc2Cl)ccc1O)c1ccc(-c2c3nc(c(-c4c(F)c(F)c(F)c(F)c4F)c4ccc([nH]4)c(-c4c(F)c(F)c(F)c(F)c4F)c4nc(c(-c5c(F)c(F)c(F)c(F)c5F)c5ccc2[nH]5)C=C4)C=C3)cc1
REMARK SMILES IDX 5 1 4 2 3 3 1 4 2 5 27 7 28 8 89 9 29 10 88 11 30 12 31 13
REMARK SMILES IDX 32 14 82 15 33 16 87 17 81 18 83 19 34 20 86 21 80 22 79 23
REMARK SMILES IDX 35 25 67 26 47 27 66 28 48 29 51 30 65 31 84 32 49 33 50 34
REMARK SMILES IDX 64 36 85 37 52 38 36 39 37 40 45 41 38 42 39 43 43 44 46 45
REMARK SMILES IDX 40 46 41 47 44 48 42 49 68 50 69 51 77 52 70 53 71 54 75 55
REMARK SMILES IDX 78 56 72 57 73 58 76 59 74 60 53 61 54 62 62 63 55 64 56 65
REMARK SMILES IDX 60 66 63 67 57 68 58 69 61 70 59 71 6 72 7 73 8 74 9 76
REMARK SMILES IDX 10 77 11 78 25 79 12 80 24 81 23 82 26 83 13 85 14 86 15 88
REMARK SMILES IDX 16 89 17 90 21 91 18 92 20 93 22 94 19 95
REMARK H PARENT 3 6 83 24 51 35 7 75 26 84 13 87
REMARK Flexibility Score: inf
ROOT
ATOM      1  C   UNL A   1      31.340  32.326  26.520  1.00  0.00     0.042 C 
ENDROOT
BRANCH   1   2
ATOM      2  C   UNL A   1      32.601  32.940  27.109  1.00  0.00     0.118 C 
BRANCH   2   3
ATOM      3  N   UNL A   1      32.389  34.274  27.652  1.00  0.00    -0.352 N 
ATOM      4  O   UNL A   1      32.567  36.005  29.078  1.00  0.00    -0.269 OA
ATOM      5  C   UNL A   1      33.019  34.934  28.676  1.00  0.00     0.251 C 
ATOM      6  H   UNL A   1      31.674  34.789  27.211  1.00  0.00     0.163 HD
BRANCH   5   7
ATOM      7  C   UNL A   1      34.219  34.364  29.326  1.00  0.00     0.039 A 
ATOM      8  C   UNL A   1      35.505  34.644  28.857  1.00  0.00     0.014 A 
ATOM      9  C   UNL A   1      34.051  33.566  30.461  1.00  0.00     0.014 A 
ATOM     10  C   UNL A   1      36.607  34.011  29.425  1.00  0.00     0.010 A 
ATOM     11  C   UNL A   1      35.166  33.004  31.088  1.00  0.00     0.010 A 
ATOM     12  C   UNL A   1      36.450  33.197  30.556  1.00  0.00    -0.014 A 
BRANCH  12  13
ATOM     13  C   UNL A   1      37.635  32.592  31.216  1.00  0.00     0.031 A 
ATOM     14  C   UNL A   1      38.364  31.446  30.579  1.00  0.00     0.074 A 
ATOM     15  C   UNL A   1      38.023  33.058  32.417  1.00  0.00     0.049 A 
ATOM     16  N   UNL A   1      39.346  30.722  31.056  1.00  0.00    -0.248 NA
ATOM     17  C   UNL A   1      37.922  31.050  29.234  1.00  0.00     0.031 C 
ATOM     18  C   UNL A   1      37.391  34.166  33.134  1.00  0.00     0.029 A 
ATOM     19  N   UNL A   1      39.028  32.646  33.256  1.00  0.00    -0.354 N 
ATOM     20  C   UNL A   1      39.623  29.771  30.082  1.00  0.00     0.074 A 
ATOM     21  C   UNL A   1      38.686  29.993  29.000  1.00  0.00     0.031 C 
ATOM     22  C   UNL A   1      38.022  34.349  34.303  1.00  0.00     0.029 A 
ATOM     23  C   UNL A   1      39.056  33.329  34.447  1.00  0.00     0.049 A 
ATOM     24  H   UNL A   1      39.667  31.933  33.026  1.00  0.00     0.167 HD
ATOM     25  C   UNL A   1      40.574  28.805  30.094  1.00  0.00     0.037 A 
ATOM     26  C   UNL A   1      39.797  33.131  35.552  1.00  0.00     0.037 A 
ATOM     27  C   UNL A   1      41.501  28.599  31.178  1.00  0.00     0.049 A 
ATOM     28  C   UNL A   1      40.813  32.026  35.565  1.00  0.00     0.074 A 
ATOM     29  C   UNL A   1      42.532  27.680  31.268  1.00  0.00     0.029 A 
ATOM     30  N   UNL A   1      41.498  29.313  32.369  1.00  0.00    -0.354 N 
ATOM     31  N   UNL A   1      41.097  31.156  34.625  1.00  0.00    -0.248 NA
ATOM     32  C   UNL A   1      41.614  31.873  36.786  1.00  0.00     0.031 C 
ATOM     33  C   UNL A   1      43.106  27.791  32.538  1.00  0.00     0.029 A 
ATOM     34  C   UNL A   1      42.485  28.831  33.213  1.00  0.00     0.049 A 
ATOM     35  H   UNL A   1      40.884  30.053  32.582  1.00  0.00     0.167 HD
ATOM     36  C   UNL A   1      42.125  30.372  35.128  1.00  0.00     0.074 A 
ATOM     37  C   UNL A   1      42.417  30.869  36.457  1.00  0.00     0.031 C 
ATOM     38  C   UNL A   1      42.773  29.340  34.533  1.00  0.00     0.037 A 
BRANCH  25  39
ATOM     39  C   UNL A   1      40.627  27.870  28.917  1.00  0.00     0.064 A 
ATOM     40  C   UNL A   1      41.457  28.109  27.812  1.00  0.00     0.173 A 
ATOM     41  C   UNL A   1      39.838  26.709  28.901  1.00  0.00     0.173 A 
ATOM     42  F   UNL A   1      42.230  29.206  27.771  1.00  0.00    -0.203 F 
ATOM     43  C   UNL A   1      41.459  27.250  26.715  1.00  0.00     0.198 A 
ATOM     44  C   UNL A   1      39.869  25.832  27.819  1.00  0.00     0.198 A 
ATOM     45  F   UNL A   1      39.034  26.422  29.935  1.00  0.00    -0.203 F 
ATOM     46  F   UNL A   1      42.208  27.538  25.642  1.00  0.00    -0.200 F 
ATOM     47  C   UNL A   1      40.669  26.111  26.722  1.00  0.00     0.200 A 
ATOM     48  F   UNL A   1      39.117  24.723  27.835  1.00  0.00    -0.200 F 
ATOM     49  F   UNL A   1      40.668  25.288  25.664  1.00  0.00    -0.200 F 
ENDBRANCH  25  39
BRANCH  26  50
ATOM     50  C   UNL A   1      39.576  34.001  36.734  1.00  0.00     0.064 A 
ATOM     51  C   UNL A   1      38.777  33.580  37.803  1.00  0.00     0.173 A 
ATOM     52  C   UNL A   1      40.216  35.246  36.845  1.00  0.00     0.173 A 
ATOM     53  F   UNL A   1      38.133  32.405  37.736  1.00  0.00    -0.203 F 
ATOM     54  C   UNL A   1      38.623  34.372  38.940  1.00  0.00     0.198 A 
ATOM     55  C   UNL A   1      40.086  36.022  37.994  1.00  0.00     0.198 A 
ATOM     56  F   UNL A   1      41.002  35.688  35.852  1.00  0.00    -0.203 F 
ATOM     57  F   UNL A   1      37.834  33.957  39.941  1.00  0.00    -0.200 F 
ATOM     58  C   UNL A   1      39.287  35.586  39.039  1.00  0.00     0.200 A 
ATOM     59  F   UNL A   1      40.747  37.184  38.094  1.00  0.00    -0.200 F 
ATOM     60  F   UNL A   1      39.157  36.335  40.143  1.00  0.00    -0.200 F 
ENDBRANCH  26  50
BRANCH  38  61
ATOM     61  C   UNL A   1      43.901  28.698  35.287  1.00  0.00     0.064 A 
ATOM     62  C   UNL A   1      45.226  29.131  35.149  1.00  0.00     0.173 A 
ATOM     63  C   UNL A   1      43.632  27.689  36.226  1.00  0.00     0.173 A 
ATOM     64  F   UNL A   1      45.538  30.079  34.252  1.00  0.00    -0.203 F 
ATOM     65  C   UNL A   1      46.244  28.572  35.919  1.00  0.00     0.198 A 
ATOM     66  C   UNL A   1      44.647  27.156  37.015  1.00  0.00     0.198 A 
ATOM     67  F   UNL A   1      42.378  27.243  36.399  1.00  0.00    -0.203 F 
ATOM     68  F   UNL A   1      47.510  28.980  35.750  1.00  0.00    -0.200 F 
ATOM     69  C   UNL A   1      45.952  27.596  36.860  1.00  0.00     0.200 A 
ATOM     70  F   UNL A   1      44.359  26.224  37.934  1.00  0.00    -0.200 F 
ATOM     71  F   UNL A   1      46.929  27.078  37.616  1.00  0.00    -0.200 F 
ENDBRANCH  38  61
ENDBRANCH  12  13
ENDBRANCH   5   7
ENDBRANCH   2   3
ENDBRANCH   1   2
BRANCH   1  72
ATOM     72  C   UNL A   1      31.413  30.829  26.260  1.00  0.00     0.118 C 
BRANCH  72  73
ATOM     73  N   UNL A   1      31.071  30.454  24.899  1.00  0.00    -0.352 N 
ATOM     74  C   UNL A   1      31.273  29.258  24.254  1.00  0.00     0.255 C 
ATOM     75  H   UNL A   1      30.632  31.155  24.364  1.00  0.00     0.163 HD
ATOM     76  O   UNL A   1      30.917  29.130  23.083  1.00  0.00    -0.269 OA
BRANCH  74  77
ATOM     77  C   UNL A   1      32.033  28.171  24.906  1.00  0.00     0.083 A 
ATOM     78  C   UNL A   1      31.282  27.301  25.707  1.00  0.00     0.043 A 
ATOM     79  C   UNL A   1      33.401  27.957  24.739  1.00  0.00     0.128 A 
ATOM     80  C   UNL A   1      31.845  26.138  26.225  1.00  0.00     0.042 A 
ATOM     81  C   UNL A   1      33.996  26.834  25.307  1.00  0.00     0.049 A 
ATOM     82  C   UNL A   1      33.216  25.925  26.035  1.00  0.00     0.030 A 
BRANCH  79  83
ATOM     83  O   UNL A   1      34.159  28.836  24.018  1.00  0.00    -0.507 OA
ATOM     84  H   UNL A   1      34.426  29.648  24.402  1.00  0.00     0.293 HD
ENDBRANCH  79  83
BRANCH  80  85
ATOM     85  N   UNL A   1      31.132  25.138  26.915  1.00  0.00    -0.322 N 
ATOM     86  C   UNL A   1      30.928  23.795  26.676  1.00  0.00     0.258 C 
ATOM     87  H   UNL A   1      30.692  25.463  27.734  1.00  0.00     0.170 HD
ATOM     88  O   UNL A   1      30.156  23.156  27.389  1.00  0.00    -0.269 OA
BRANCH  86  89
ATOM     89  C   UNL A   1      31.592  23.084  25.583  1.00  0.00     0.077 A 
ATOM     90  C   UNL A   1      31.099  23.253  24.286  1.00  0.00     0.018 A 
ATOM     91  C   UNL A   1      32.699  22.269  25.768  1.00  0.00     0.141 A 
ATOM     92  C   UNL A   1      31.782  22.672  23.222  1.00  0.00     0.021 A 
ATOM     93  N   UNL A   1      33.386  21.699  24.747  1.00  0.00    -0.244 NA
ATOM     94  Cl  UNL A   1      33.377  21.910  27.308  1.00  0.00    -0.061 Cl
ATOM     95  C   UNL A   1      32.920  21.928  23.499  1.00  0.00     0.113 A 
ENDBRANCH  86  89
ENDBRANCH  80  85
ENDBRANCH  74  77
ENDBRANCH  72  73
ENDBRANCH   1  72
TORSDOF 13
ENDMDL
MODEL 3
REMARK VINA RESULT:     -13.2      0.719      1.402
REMARK SMILES O=C(NCCCNC(=O)c1cc(NC(=O)c2cccnc2Cl)ccc1O)c1ccc(-c2c3nc(c(-c4c(F)c(F)c(F)c(F)c4F)c4ccc([nH]4)c(-c4c(F)c(F)c(F)c(F)c4F)c4nc(c(-c5c(F)c(F)c(F)c(F)c5F)c5ccc2[nH]5)C=C4)C=C3)cc1
REMARK SMILES IDX 5 1 4 2 3 3 1 4 2 5 27 7 28 8 89 9 29 10 88 11 30 12 31 13
REMARK SMILES IDX 32 14 82 15 33 16 87 17 81 18 83 19 34 20 86 21 80 22 79 23
REMARK SMILES IDX 35 25 67 26 47 27 66 28 48 29 51 30 65 31 84 32 49 33 50 34
REMARK SMILES IDX 64 36 85 37 52 38 36 39 37 40 45 41 38 42 39 43 43 44 46 45
REMARK SMILES IDX 40 46 41 47 44 48 42 49 68 50 69 51 77 52 70 53 71 54 75 55
REMARK SMILES IDX 78 56 72 57 73 58 76 59 74 60 53 61 54 62 62 63 55 64 56 65
REMARK SMILES IDX 60 66 63 67 57 68 58 69 61 70 59 71 6 72 7 73 8 74 9 76
REMARK SMILES IDX 10 77 11 78 25 79 12 80 24 81 23 82 26 83 13 85 14 86 15 88
REMARK SMILES IDX 16 89 17 90 21 91 18 92 20 93 22 94 19 95
REMARK H PARENT 3 6 83 24 51 35 7 75 26 84 13 87
REMARK Flexibility Score: inf
ROOT
ATOM      1  C   UNL A   1      31.343  32.347  26.509  1.00  0.00     0.042 C 
ENDROOT
BRANCH   1   2
ATOM      2  C   UNL A   1      32.606  32.982  27.068  1.00  0.00     0.118 C 
BRANCH   2   3
ATOM      3  N   UNL A   1      32.372  34.284  27.677  1.00  0.00    -0.352 N 
ATOM      4  O   UNL A   1      32.529  35.949  29.182  1.00  0.00    -0.269 OA
ATOM      5  C   UNL A   1      32.999  34.909  28.725  1.00  0.00     0.251 C 
ATOM      6  H   UNL A   1      31.641  34.803  27.268  1.00  0.00     0.163 HD
BRANCH   5   7
ATOM      7  C   UNL A   1      34.218  34.334  29.333  1.00  0.00     0.039 A 
ATOM      8  C   UNL A   1      35.493  34.666  28.868  1.00  0.00     0.014 A 
ATOM      9  C   UNL A   1      34.081  33.477  30.430  1.00  0.00     0.014 A 
ATOM     10  C   UNL A   1      36.615  34.031  29.393  1.00  0.00     0.010 A 
ATOM     11  C   UNL A   1      35.214  32.911  31.017  1.00  0.00     0.010 A 
ATOM     12  C   UNL A   1      36.488  33.159  30.484  1.00  0.00    -0.014 A 
BRANCH  12  13
ATOM     13  C   UNL A   1      37.693  32.549  31.101  1.00  0.00     0.031 A 
ATOM     14  C   UNL A   1      38.426  31.435  30.414  1.00  0.00     0.074 A 
ATOM     15  C   UNL A   1      38.097  32.980  32.311  1.00  0.00     0.049 A 
ATOM     16  N   UNL A   1      39.426  30.710  30.848  1.00  0.00    -0.248 NA
ATOM     17  C   UNL A   1      37.964  31.078  29.065  1.00  0.00     0.031 C 
ATOM     18  C   UNL A   1      37.463  34.055  33.075  1.00  0.00     0.029 A 
ATOM     19  N   UNL A   1      39.122  32.556  33.117  1.00  0.00    -0.354 N 
ATOM     20  C   UNL A   1      39.698  29.796  29.839  1.00  0.00     0.074 A 
ATOM     21  C   UNL A   1      38.738  30.041  28.782  1.00  0.00     0.031 C 
ATOM     22  C   UNL A   1      38.112  34.208  34.239  1.00  0.00     0.029 A 
ATOM     23  C   UNL A   1      39.162  33.198  34.330  1.00  0.00     0.049 A 
ATOM     24  H   UNL A   1      39.766  31.859  32.853  1.00  0.00     0.167 HD
ATOM     25  C   UNL A   1      40.661  28.844  29.801  1.00  0.00     0.037 A 
ATOM     26  C   UNL A   1      39.927  32.974  35.414  1.00  0.00     0.037 A 
ATOM     27  C   UNL A   1      41.611  28.615  30.861  1.00  0.00     0.049 A 
ATOM     28  C   UNL A   1      40.958  31.884  35.372  1.00  0.00     0.074 A 
ATOM     29  C   UNL A   1      42.656  27.708  30.902  1.00  0.00     0.029 A 
ATOM     30  N   UNL A   1      41.620  29.289  32.075  1.00  0.00    -0.354 N 
ATOM     31  N   UNL A   1      41.235  31.050  34.398  1.00  0.00    -0.248 NA
ATOM     32  C   UNL A   1      41.783  31.702  36.573  1.00  0.00     0.031 C 
ATOM     33  C   UNL A   1      43.252  27.785  32.165  1.00  0.00     0.029 A 
ATOM     34  C   UNL A   1      42.629  28.792  32.885  1.00  0.00     0.049 A 
ATOM     35  H   UNL A   1      41.001  30.012  32.324  1.00  0.00     0.167 HD
ATOM     36  C   UNL A   1      42.284  30.264  34.856  1.00  0.00     0.074 A 
ATOM     37  C   UNL A   1      42.593  30.721  36.196  1.00  0.00     0.031 C 
ATOM     38  C   UNL A   1      42.934  29.262  34.215  1.00  0.00     0.037 A 
BRANCH  25  39
ATOM     39  C   UNL A   1      40.706  27.949  28.593  1.00  0.00     0.064 A 
ATOM     40  C   UNL A   1      41.480  28.258  27.465  1.00  0.00     0.173 A 
ATOM     41  C   UNL A   1      39.965  26.757  28.569  1.00  0.00     0.173 A 
ATOM     42  F   UNL A   1      42.205  29.387  27.430  1.00  0.00    -0.203 F 
ATOM     43  C   UNL A   1      41.474  27.434  26.341  1.00  0.00     0.198 A 
ATOM     44  C   UNL A   1      39.989  25.916  27.459  1.00  0.00     0.198 A 
ATOM     45  F   UNL A   1      39.217  26.403  29.624  1.00  0.00    -0.203 F 
ATOM     46  F   UNL A   1      42.166  27.787  25.249  1.00  0.00    -0.200 F 
ATOM     47  C   UNL A   1      40.732  26.263  26.341  1.00  0.00     0.200 A 
ATOM     48  F   UNL A   1      39.285  24.777  27.467  1.00  0.00    -0.200 F 
ATOM     49  F   UNL A   1      40.722  25.474  25.257  1.00  0.00    -0.200 F 
ENDBRANCH  25  39
BRANCH  26  50
ATOM     50  C   UNL A   1      39.715  33.802  36.628  1.00  0.00     0.064 A 
ATOM     51  C   UNL A   1      40.293  35.072  36.748  1.00  0.00     0.173 A 
ATOM     52  C   UNL A   1      38.873  33.364  37.664  1.00  0.00     0.173 A 
ATOM     53  F   UNL A   1      41.115  35.526  35.791  1.00  0.00    -0.203 F 
ATOM     54  C   UNL A   1      40.039  35.873  37.860  1.00  0.00     0.198 A 
ATOM     55  C   UNL A   1      38.598  34.178  38.759  1.00  0.00     0.198 A 
ATOM     56  F   UNL A   1      38.288  32.160  37.589  1.00  0.00    -0.203 F 
ATOM     57  F   UNL A   1      40.622  37.075  37.964  1.00  0.00    -0.200 F 
ATOM     58  C   UNL A   1      39.183  35.430  38.858  1.00  0.00     0.200 A 
ATOM     59  F   UNL A   1      37.753  33.755  39.710  1.00  0.00    -0.200 F 
ATOM     60  F   UNL A   1      38.923  36.211  39.915  1.00  0.00    -0.200 F 
ENDBRANCH  26  50
BRANCH  38  61
ATOM     61  C   UNL A   1      44.084  28.611  34.928  1.00  0.00     0.064 A 
ATOM     62  C   UNL A   1      43.918  27.458  35.706  1.00  0.00     0.173 A 
ATOM     63  C   UNL A   1      45.387  29.107  34.755  1.00  0.00     0.173 A 
ATOM     64  F   UNL A   1      42.692  26.956  35.916  1.00  0.00    -0.203 F 
ATOM     65  C   UNL A   1      45.013  26.827  36.292  1.00  0.00     0.198 A 
ATOM     66  C   UNL A   1      46.482  28.457  35.317  1.00  0.00     0.198 A 
ATOM     67  F   UNL A   1      45.599  30.207  34.016  1.00  0.00    -0.203 F 
ATOM     68  F   UNL A   1      44.829  25.742  37.057  1.00  0.00    -0.200 F 
ATOM     69  C   UNL A   1      46.294  27.319  36.086  1.00  0.00     0.200 A 
ATOM     70  F   UNL A   1      47.719  28.925  35.103  1.00  0.00    -0.200 F 
ATOM     71  F   UNL A   1      47.348  26.696  36.630  1.00  0.00    -0.200 F 
ENDBRANCH  38  61
ENDBRANCH  12  13
ENDBRANCH   5   7
ENDBRANCH   2   3
ENDBRANCH   1   2
BRANCH   1  72
ATOM     72  C   UNL A   1      31.430  30.848  26.263  1.00  0.00     0.118 C 
BRANCH  72  73
ATOM     73  N   UNL A   1      31.060  30.454  24.914  1.00  0.00    -0.352 N 
ATOM     74  C   UNL A   1      31.226  29.242  24.290  1.00  0.00     0.255 C 
ATOM     75  H   UNL A   1      30.630  31.155  24.371  1.00  0.00     0.163 HD
ATOM     76  O   UNL A   1      30.851  29.100  23.127  1.00  0.00    -0.269 OA
BRANCH  74  77
ATOM     77  C   UNL A   1      31.970  28.150  24.953  1.00  0.00     0.083 A 
ATOM     78  C   UNL A   1      31.196  27.262  25.711  1.00  0.00     0.043 A 
ATOM     79  C   UNL A   1      33.345  27.950  24.835  1.00  0.00     0.128 A 
ATOM     80  C   UNL A   1      31.749  26.095  26.231  1.00  0.00     0.042 A 
ATOM     81  C   UNL A   1      33.927  26.823  25.407  1.00  0.00     0.049 A 
ATOM     82  C   UNL A   1      33.128  25.896  26.090  1.00  0.00     0.030 A 
BRANCH  79  83
ATOM     83  O   UNL A   1      34.123  28.846  24.157  1.00  0.00    -0.507 OA
ATOM     84  H   UNL A   1      33.875  29.125  23.298  1.00  0.00     0.293 HD
ENDBRANCH  79  83
BRANCH  80  85
ATOM     85  N   UNL A   1      31.019  25.078  26.878  1.00  0.00    -0.322 N 
ATOM     86  C   UNL A   1      30.844  23.736  26.616  1.00  0.00     0.258 C 
ATOM     87  H   UNL A   1      30.537  25.389  27.679  1.00  0.00     0.170 HD
ATOM     88  O   UNL A   1      30.049  23.079  27.287  1.00  0.00    -0.269 OA
BRANCH  86  89
ATOM     89  C   UNL A   1      31.567  23.045  25.548  1.00  0.00     0.077 A 
ATOM     90  C   UNL A   1      32.540  22.107  25.905  1.00  0.00     0.018 A 
ATOM     91  C   UNL A   1      31.320  23.260  24.200  1.00  0.00     0.141 A 
ATOM     92  C   UNL A   1      33.162  21.364  24.906  1.00  0.00     0.021 A 
ATOM     93  N   UNL A   1      31.906  22.544  23.209  1.00  0.00    -0.244 NA
ATOM     94  Cl  UNL A   1      30.207  24.429  23.606  1.00  0.00    -0.061 Cl
ATOM     95  C   UNL A   1      32.800  21.602  23.588  1.00  0.00     0.113 A 
ENDBRANCH  86  89
ENDBRANCH  80  85
ENDBRANCH  74  77
ENDBRANCH  72  73
ENDBRANCH   1  72
TORSDOF 13
ENDMDL
