MODEL 1
REMARK VINA RESULT:     -13.7      0.000      0.000
REMARK SMILES Cc1c(F)cccc1NCc1ccc(C(=O)NCCCNC(=O)c2ccc(-c3c4nc(c(-c5c(F)c(F)c(F)c(F)c5F)c5ccc([nH]5)c(-c5c(F)c(F)c(F)c(F)c5F)c5nc(c(-c6c(F)c(F)c(F)c(F)c6F)c6ccc3[nH]6)C=C5)C=C4)cc2)cn1
REMARK SMILES IDX 18 1 17 2 15 3 16 4 14 6 11 7 12 8 88 9 13 10 87 11 10 12
REMARK SMILES IDX 9 13 8 15 1 16 2 17 3 18 4 19 5 20 7 21 6 22 19 23 20 24
REMARK SMILES IDX 21 25 22 26 23 28 24 29 25 30 86 31 26 32 85 33 27 34 28 35
REMARK SMILES IDX 29 36 79 37 30 38 84 39 78 40 80 41 31 42 83 43 77 44 76 45
REMARK SMILES IDX 32 47 64 48 44 49 63 50 45 51 48 52 62 53 81 54 46 55 47 56
REMARK SMILES IDX 61 58 82 59 49 60 33 61 34 62 42 63 35 64 36 65 40 66 43 67
REMARK SMILES IDX 37 68 38 69 41 70 39 71 65 72 66 73 74 74 67 75 68 76 72 77
REMARK SMILES IDX 75 78 69 79 70 80 73 81 71 82 50 83 51 84 59 85 52 86 53 87
REMARK SMILES IDX 57 88 60 89 54 90 55 91 58 92 56 93
REMARK H PARENT 17 5 9 14 21 27 80 46 48 57
REMARK Flexibility Score: inf
ROOT
ATOM      1  C   UNL A   1      35.100  22.199  25.581  1.00  0.00     0.118 C 
ENDROOT
BRANCH   1   2
ATOM      2  N   UNL A   1      34.299  21.169  24.947  1.00  0.00    -0.352 N 
ATOM      3  C   UNL A   1      33.268  21.281  24.047  1.00  0.00     0.252 C 
ATOM      4  O   UNL A   1      32.747  20.247  23.634  1.00  0.00    -0.269 OA
ATOM      5  H   UNL A   1      34.530  20.248  25.203  1.00  0.00     0.163 HD
BRANCH   3   6
ATOM      6  C   UNL A   1      32.798  22.594  23.534  1.00  0.00     0.058 A 
ATOM      7  C   UNL A   1      32.125  25.049  22.451  1.00  0.00     0.059 A 
ATOM      8  C   UNL A   1      31.393  24.560  23.517  1.00  0.00     0.026 A 
ATOM      9  N   UNL A   1      33.156  24.356  21.902  1.00  0.00    -0.259 NA
ATOM     10  C   UNL A   1      31.721  23.320  24.028  1.00  0.00     0.017 A 
ATOM     11  C   UNL A   1      33.466  23.151  22.455  1.00  0.00     0.125 A 
BRANCH   7  12
ATOM     12  C   UNL A   1      31.691  26.356  21.825  1.00  0.00     0.169 C 
BRANCH  12  13
ATOM     13  N   UNL A   1      31.139  27.227  22.857  1.00  0.00    -0.379 N 
ATOM     14  H   UNL A   1      31.539  27.141  23.753  1.00  0.00     0.160 HD
BRANCH  13  15
ATOM     15  C   UNL A   1      30.125  28.158  22.734  1.00  0.00     0.040 A 
ATOM     16  C   UNL A   1      28.440  26.616  23.937  1.00  0.00     0.050 C 
ATOM     17  C   UNL A   1      28.821  27.871  23.196  1.00  0.00     0.008 A 
ATOM     18  C   UNL A   1      27.781  28.785  22.949  1.00  0.00     0.128 A 
ATOM     19  F   UNL A   1      26.533  28.493  23.352  1.00  0.00    -0.207 F 
ATOM     20  C   UNL A   1      27.994  29.988  22.294  1.00  0.00     0.039 A 
ATOM     21  C   UNL A   1      30.320  29.394  22.087  1.00  0.00     0.026 A 
ATOM     22  C   UNL A   1      29.277  30.303  21.874  1.00  0.00     0.005 A 
ENDBRANCH  13  15
ENDBRANCH  12  13
ENDBRANCH   7  12
ENDBRANCH   3   6
ENDBRANCH   1   2
BRANCH   1  23
ATOM     23  C   UNL A   1      36.372  22.472  24.765  1.00  0.00     0.042 C 
BRANCH  23  24
ATOM     24  C   UNL A   1      37.298  23.343  25.548  1.00  0.00     0.118 C 
BRANCH  24  25
ATOM     25  N   UNL A   1      38.359  22.550  26.160  1.00  0.00    -0.352 N 
ATOM     26  C   UNL A   1      39.572  22.985  26.643  1.00  0.00     0.251 C 
ATOM     27  H   UNL A   1      38.185  21.584  26.237  1.00  0.00     0.163 HD
ATOM     28  O   UNL A   1      40.507  22.217  26.768  1.00  0.00    -0.269 OA
BRANCH  26  29
ATOM     29  C   UNL A   1      39.689  24.394  27.053  1.00  0.00     0.039 A 
ATOM     30  C   UNL A   1      40.286  25.356  26.235  1.00  0.00     0.014 A 
ATOM     31  C   UNL A   1      39.291  24.720  28.343  1.00  0.00     0.014 A 
ATOM     32  C   UNL A   1      40.535  26.616  26.767  1.00  0.00     0.010 A 
ATOM     33  C   UNL A   1      39.253  26.001  28.750  1.00  0.00     0.010 A 
ATOM     34  C   UNL A   1      40.040  26.888  28.040  1.00  0.00    -0.014 A 
BRANCH  34  35
ATOM     35  C   UNL A   1      40.308  28.051  28.839  1.00  0.00     0.031 A 
ATOM     36  C   UNL A   1      39.337  29.125  28.790  1.00  0.00     0.074 A 
ATOM     37  C   UNL A   1      41.254  27.871  29.791  1.00  0.00     0.049 A 
ATOM     38  N   UNL A   1      39.596  30.333  29.111  1.00  0.00    -0.248 NA
ATOM     39  C   UNL A   1      37.970  28.922  28.327  1.00  0.00     0.031 C 
ATOM     40  C   UNL A   1      41.533  28.599  31.014  1.00  0.00     0.029 A 
ATOM     41  N   UNL A   1      42.268  26.893  29.753  1.00  0.00    -0.354 N 
ATOM     42  C   UNL A   1      38.382  30.949  29.298  1.00  0.00     0.074 A 
ATOM     43  C   UNL A   1      37.435  30.116  28.597  1.00  0.00     0.031 C 
ATOM     44  C   UNL A   1      42.794  28.313  31.398  1.00  0.00     0.029 A 
ATOM     45  C   UNL A   1      43.387  27.487  30.357  1.00  0.00     0.049 A 
ATOM     46  H   UNL A   1      42.205  25.984  29.381  1.00  0.00     0.167 HD
ATOM     47  C   UNL A   1      38.331  31.962  30.210  1.00  0.00     0.037 A 
ATOM     48  C   UNL A   1      44.405  27.851  29.524  1.00  0.00     0.037 A 
ATOM     49  C   UNL A   1      39.677  32.161  30.790  1.00  0.00     0.049 A 
ATOM     50  C   UNL A   1      44.499  29.351  29.377  1.00  0.00     0.074 A 
ATOM     51  C   UNL A   1      40.258  31.802  31.996  1.00  0.00     0.029 A 
ATOM     52  N   UNL A   1      40.743  32.442  29.936  1.00  0.00    -0.354 N 
ATOM     53  N   UNL A   1      43.562  30.204  29.701  1.00  0.00    -0.248 NA
ATOM     54  C   UNL A   1      45.703  30.000  28.901  1.00  0.00     0.031 C 
ATOM     55  C   UNL A   1      41.680  31.865  31.845  1.00  0.00     0.029 A 
ATOM     56  C   UNL A   1      41.970  32.276  30.554  1.00  0.00     0.049 A 
ATOM     57  H   UNL A   1      40.634  32.727  28.999  1.00  0.00     0.167 HD
ATOM     58  C   UNL A   1      44.007  31.494  29.529  1.00  0.00     0.074 A 
ATOM     59  C   UNL A   1      45.358  31.293  29.026  1.00  0.00     0.031 C 
ATOM     60  C   UNL A   1      43.207  32.581  29.818  1.00  0.00     0.037 A 
BRANCH  47  61
ATOM     61  C   UNL A   1      37.068  32.582  30.783  1.00  0.00     0.064 A 
ATOM     62  C   UNL A   1      36.294  33.467  29.998  1.00  0.00     0.173 A 
ATOM     63  C   UNL A   1      36.552  32.367  32.080  1.00  0.00     0.173 A 
ATOM     64  F   UNL A   1      36.612  33.728  28.724  1.00  0.00    -0.203 F 
ATOM     65  C   UNL A   1      35.151  34.112  30.485  1.00  0.00     0.198 A 
ATOM     66  C   UNL A   1      35.425  33.034  32.576  1.00  0.00     0.198 A 
ATOM     67  F   UNL A   1      37.068  31.467  32.916  1.00  0.00    -0.203 F 
ATOM     68  F   UNL A   1      34.464  34.937  29.684  1.00  0.00    -0.200 F 
ATOM     69  C   UNL A   1      34.723  33.907  31.779  1.00  0.00     0.200 A 
ATOM     70  F   UNL A   1      35.021  32.803  33.835  1.00  0.00    -0.200 F 
ATOM     71  F   UNL A   1      33.631  34.526  32.247  1.00  0.00    -0.200 F 
ENDBRANCH  47  61
BRANCH  48  72
ATOM     72  C   UNL A   1      44.644  26.802  28.473  1.00  0.00     0.064 A 
ATOM     73  C   UNL A   1      44.339  27.184  27.146  1.00  0.00     0.173 A 
ATOM     74  C   UNL A   1      45.603  25.791  28.639  1.00  0.00     0.173 A 
ATOM     75  F   UNL A   1      43.395  28.112  26.921  1.00  0.00    -0.203 F 
ATOM     76  C   UNL A   1      45.121  26.765  26.073  1.00  0.00     0.198 A 
ATOM     77  C   UNL A   1      46.348  25.330  27.545  1.00  0.00     0.198 A 
ATOM     78  F   UNL A   1      45.916  25.347  29.864  1.00  0.00    -0.203 F 
ATOM     79  F   UNL A   1      44.940  27.309  24.860  1.00  0.00    -0.200 F 
ATOM     80  C   UNL A   1      46.155  25.872  26.281  1.00  0.00     0.200 A 
ATOM     81  F   UNL A   1      47.319  24.423  27.732  1.00  0.00    -0.200 F 
ATOM     82  F   UNL A   1      46.989  25.573  25.274  1.00  0.00    -0.200 F 
ENDBRANCH  48  72
BRANCH  60  83
ATOM     83  C   UNL A   1      43.444  34.055  29.439  1.00  0.00     0.064 A 
ATOM     84  C   UNL A   1      43.519  34.574  28.139  1.00  0.00     0.173 A 
ATOM     85  C   UNL A   1      43.547  35.059  30.448  1.00  0.00     0.173 A 
ATOM     86  F   UNL A   1      43.575  33.799  27.060  1.00  0.00    -0.203 F 
ATOM     87  C   UNL A   1      43.582  35.946  27.867  1.00  0.00     0.198 A 
ATOM     88  C   UNL A   1      43.581  36.427  30.178  1.00  0.00     0.198 A 
ATOM     89  F   UNL A   1      43.632  34.774  31.753  1.00  0.00    -0.203 F 
ATOM     90  F   UNL A   1      43.637  36.357  26.593  1.00  0.00    -0.200 F 
ATOM     91  C   UNL A   1      43.585  36.874  28.882  1.00  0.00     0.200 A 
ATOM     92  F   UNL A   1      43.603  37.302  31.195  1.00  0.00    -0.200 F 
ATOM     93  F   UNL A   1      43.617  38.185  28.614  1.00  0.00    -0.200 F 
ENDBRANCH  60  83
ENDBRANCH  34  35
ENDBRANCH  26  29
ENDBRANCH  24  25
ENDBRANCH  23  24
ENDBRANCH   1  23
TORSDOF 13
ENDMDL
MODEL 2
REMARK VINA RESULT:     -13.6      3.479      9.562
REMARK SMILES Cc1c(F)cccc1NCc1ccc(C(=O)NCCCNC(=O)c2ccc(-c3c4nc(c(-c5c(F)c(F)c(F)c(F)c5F)c5ccc([nH]5)c(-c5c(F)c(F)c(F)c(F)c5F)c5nc(c(-c6c(F)c(F)c(F)c(F)c6F)c6ccc3[nH]6)C=C5)C=C4)cc2)cn1
REMARK SMILES IDX 18 1 17 2 15 3 16 4 14 6 11 7 12 8 88 9 13 10 87 11 10 12
REMARK SMILES IDX 9 13 8 15 1 16 2 17 3 18 4 19 5 20 7 21 6 22 19 23 20 24
REMARK SMILES IDX 21 25 22 26 23 28 24 29 25 30 86 31 26 32 85 33 27 34 28 35
REMARK SMILES IDX 29 36 79 37 30 38 84 39 78 40 80 41 31 42 83 43 77 44 76 45
REMARK SMILES IDX 32 47 64 48 44 49 63 50 45 51 48 52 62 53 81 54 46 55 47 56
REMARK SMILES IDX 61 58 82 59 49 60 33 61 34 62 42 63 35 64 36 65 40 66 43 67
REMARK SMILES IDX 37 68 38 69 41 70 39 71 65 72 66 73 74 74 67 75 68 76 72 77
REMARK SMILES IDX 75 78 69 79 70 80 73 81 71 82 50 83 51 84 59 85 52 86 53 87
REMARK SMILES IDX 57 88 60 89 54 90 55 91 58 92 56 93
REMARK H PARENT 17 5 9 14 21 27 80 46 48 57
REMARK Flexibility Score: inf
ROOT
ATOM      1  C   UNL A   1      31.796  28.995  25.258  1.00  0.00     0.118 C 
ENDROOT
BRANCH   1   2
ATOM      2  N   UNL A   1      31.126  29.243  23.996  1.00  0.00    -0.352 N 
ATOM      3  C   UNL A   1      30.861  28.390  22.954  1.00  0.00     0.252 C 
ATOM      4  O   UNL A   1      30.256  28.836  21.981  1.00  0.00    -0.269 OA
ATOM      5  H   UNL A   1      30.813  30.167  23.867  1.00  0.00     0.163 HD
BRANCH   3   6
ATOM      6  C   UNL A   1      31.244  26.954  22.983  1.00  0.00     0.058 A 
ATOM      7  C   UNL A   1      32.127  24.335  22.876  1.00  0.00     0.059 A 
ATOM      8  C   UNL A   1      30.926  24.615  23.501  1.00  0.00     0.026 A 
ATOM      9  N   UNL A   1      32.901  25.306  22.326  1.00  0.00    -0.259 NA
ATOM     10  C   UNL A   1      30.512  25.930  23.572  1.00  0.00     0.017 A 
ATOM     11  C   UNL A   1      32.442  26.586  22.392  1.00  0.00     0.125 A 
BRANCH   7  12
ATOM     12  C   UNL A   1      32.628  22.908  22.898  1.00  0.00     0.169 C 
BRANCH  12  13
ATOM     13  N   UNL A   1      33.048  22.564  24.252  1.00  0.00    -0.379 N 
ATOM     14  H   UNL A   1      32.332  22.512  24.926  1.00  0.00     0.160 HD
BRANCH  13  15
ATOM     15  C   UNL A   1      34.327  22.302  24.707  1.00  0.00     0.040 A 
ATOM     16  C   UNL A   1      34.685  24.765  25.393  1.00  0.00     0.050 C 
ATOM     17  C   UNL A   1      35.142  23.341  25.208  1.00  0.00     0.008 A 
ATOM     18  C   UNL A   1      36.479  23.071  25.551  1.00  0.00     0.128 A 
ATOM     19  F   UNL A   1      37.266  24.068  25.989  1.00  0.00    -0.207 F 
ATOM     20  C   UNL A   1      37.025  21.800  25.449  1.00  0.00     0.039 A 
ATOM     21  C   UNL A   1      34.899  21.017  24.630  1.00  0.00     0.026 A 
ATOM     22  C   UNL A   1      36.225  20.762  25.001  1.00  0.00     0.005 A 
ENDBRANCH  13  15
ENDBRANCH  12  13
ENDBRANCH   7  12
ENDBRANCH   3   6
ENDBRANCH   1   2
BRANCH   1  23
ATOM     23  C   UNL A   1      33.311  29.196  25.113  1.00  0.00     0.042 C 
BRANCH  23  24
ATOM     24  C   UNL A   1      33.948  29.236  26.463  1.00  0.00     0.118 C 
BRANCH  24  25
ATOM     25  N   UNL A   1      34.185  30.613  26.881  1.00  0.00    -0.352 N 
ATOM     26  C   UNL A   1      35.043  31.067  27.857  1.00  0.00     0.251 C 
ATOM     27  H   UNL A   1      33.667  31.302  26.407  1.00  0.00     0.163 HD
ATOM     28  O   UNL A   1      34.880  32.155  28.376  1.00  0.00    -0.269 OA
BRANCH  26  29
ATOM     29  C   UNL A   1      36.193  30.222  28.215  1.00  0.00     0.039 A 
ATOM     30  C   UNL A   1      36.278  29.572  29.449  1.00  0.00     0.014 A 
ATOM     31  C   UNL A   1      37.261  30.184  27.328  1.00  0.00     0.014 A 
ATOM     32  C   UNL A   1      37.475  28.954  29.792  1.00  0.00     0.010 A 
ATOM     33  C   UNL A   1      38.293  29.344  27.526  1.00  0.00     0.010 A 
ATOM     34  C   UNL A   1      38.472  28.896  28.821  1.00  0.00    -0.014 A 
BRANCH  34  35
ATOM     35  C   UNL A   1      39.826  28.452  29.001  1.00  0.00     0.031 A 
ATOM     36  C   UNL A   1      40.113  27.065  28.693  1.00  0.00     0.074 A 
ATOM     37  C   UNL A   1      40.733  29.450  29.114  1.00  0.00     0.049 A 
ATOM     38  N   UNL A   1      41.123  26.430  29.148  1.00  0.00    -0.248 NA
ATOM     39  C   UNL A   1      39.240  26.254  27.854  1.00  0.00     0.031 C 
ATOM     40  C   UNL A   1      42.169  29.468  28.908  1.00  0.00     0.029 A 
ATOM     41  N   UNL A   1      40.446  30.763  29.537  1.00  0.00    -0.354 N 
ATOM     42  C   UNL A   1      41.260  25.312  28.360  1.00  0.00     0.074 A 
ATOM     43  C   UNL A   1      39.970  25.140  27.739  1.00  0.00     0.031 C 
ATOM     44  C   UNL A   1      42.672  30.552  29.533  1.00  0.00     0.029 A 
ATOM     45  C   UNL A   1      41.577  31.183  30.254  1.00  0.00     0.049 A 
ATOM     46  H   UNL A   1      39.625  31.278  29.365  1.00  0.00     0.167 HD
ATOM     47  C   UNL A   1      42.521  24.825  28.184  1.00  0.00     0.037 A 
ATOM     48  C   UNL A   1      41.444  31.256  31.611  1.00  0.00     0.037 A 
ATOM     49  C   UNL A   1      43.476  25.664  28.942  1.00  0.00     0.049 A 
ATOM     50  C   UNL A   1      42.211  30.159  32.308  1.00  0.00     0.074 A 
ATOM     51  C   UNL A   1      44.370  26.658  28.575  1.00  0.00     0.029 A 
ATOM     52  N   UNL A   1      43.293  25.819  30.314  1.00  0.00    -0.354 N 
ATOM     53  N   UNL A   1      42.669  29.075  31.739  1.00  0.00    -0.248 NA
ATOM     54  C   UNL A   1      42.569  30.245  33.709  1.00  0.00     0.031 C 
ATOM     55  C   UNL A   1      44.707  27.410  29.744  1.00  0.00     0.029 A 
ATOM     56  C   UNL A   1      44.035  26.869  30.828  1.00  0.00     0.049 A 
ATOM     57  H   UNL A   1      42.703  25.247  30.857  1.00  0.00     0.167 HD
ATOM     58  C   UNL A   1      43.401  28.333  32.635  1.00  0.00     0.074 A 
ATOM     59  C   UNL A   1      43.298  29.126  33.852  1.00  0.00     0.031 C 
ATOM     60  C   UNL A   1      44.006  27.147  32.273  1.00  0.00     0.037 A 
BRANCH  47  61
ATOM     61  C   UNL A   1      42.943  23.797  27.147  1.00  0.00     0.064 A 
ATOM     62  C   UNL A   1      42.606  22.436  27.322  1.00  0.00     0.173 A 
ATOM     63  C   UNL A   1      43.673  24.059  25.968  1.00  0.00     0.173 A 
ATOM     64  F   UNL A   1      41.862  22.029  28.358  1.00  0.00    -0.203 F 
ATOM     65  C   UNL A   1      43.011  21.434  26.431  1.00  0.00     0.198 A 
ATOM     66  C   UNL A   1      44.102  23.054  25.092  1.00  0.00     0.198 A 
ATOM     67  F   UNL A   1      43.965  25.296  25.566  1.00  0.00    -0.203 F 
ATOM     68  F   UNL A   1      42.653  20.162  26.658  1.00  0.00    -0.200 F 
ATOM     69  C   UNL A   1      43.770  21.740  25.323  1.00  0.00     0.200 A 
ATOM     70  F   UNL A   1      44.826  23.382  24.012  1.00  0.00    -0.200 F 
ATOM     71  F   UNL A   1      44.160  20.782  24.472  1.00  0.00    -0.200 F 
ENDBRANCH  47  61
BRANCH  48  72
ATOM     72  C   UNL A   1      40.110  31.838  31.991  1.00  0.00     0.064 A 
ATOM     73  C   UNL A   1      39.218  30.953  32.641  1.00  0.00     0.173 A 
ATOM     74  C   UNL A   1      39.944  33.208  32.246  1.00  0.00     0.173 A 
ATOM     75  F   UNL A   1      39.296  29.634  32.399  1.00  0.00    -0.203 F 
ATOM     76  C   UNL A   1      38.386  31.388  33.670  1.00  0.00     0.198 A 
ATOM     77  C   UNL A   1      39.061  33.645  33.244  1.00  0.00     0.198 A 
ATOM     78  F   UNL A   1      40.724  34.111  31.637  1.00  0.00    -0.203 F 
ATOM     79  F   UNL A   1      37.711  30.493  34.407  1.00  0.00    -0.200 F 
ATOM     80  C   UNL A   1      38.342  32.729  34.000  1.00  0.00     0.200 A 
ATOM     81  F   UNL A   1      38.974  34.952  33.534  1.00  0.00    -0.200 F 
ATOM     82  F   UNL A   1      37.644  33.127  35.074  1.00  0.00    -0.200 F 
ENDBRANCH  48  72
BRANCH  60  83
ATOM     83  C   UNL A   1      44.623  26.080  33.197  1.00  0.00     0.064 A 
ATOM     84  C   UNL A   1      43.930  25.281  34.117  1.00  0.00     0.173 A 
ATOM     85  C   UNL A   1      46.015  25.773  33.128  1.00  0.00     0.173 A 
ATOM     86  F   UNL A   1      42.654  25.490  34.430  1.00  0.00    -0.203 F 
ATOM     87  C   UNL A   1      44.529  24.224  34.814  1.00  0.00     0.198 A 
ATOM     88  C   UNL A   1      46.606  24.703  33.800  1.00  0.00     0.198 A 
ATOM     89  F   UNL A   1      46.886  26.498  32.415  1.00  0.00    -0.203 F 
ATOM     90  F   UNL A   1      43.788  23.501  35.666  1.00  0.00    -0.200 F 
ATOM     91  C   UNL A   1      45.857  23.916  34.636  1.00  0.00     0.200 A 
ATOM     92  F   UNL A   1      47.909  24.445  33.617  1.00  0.00    -0.200 F 
ATOM     93  F   UNL A   1      46.416  22.887  35.284  1.00  0.00    -0.200 F 
ENDBRANCH  60  83
ENDBRANCH  34  35
ENDBRANCH  26  29
ENDBRANCH  24  25
ENDBRANCH  23  24
ENDBRANCH   1  23
TORSDOF 13
ENDMDL
MODEL 3
REMARK VINA RESULT:     -13.6      1.274      1.690
REMARK SMILES Cc1c(F)cccc1NCc1ccc(C(=O)NCCCNC(=O)c2ccc(-c3c4nc(c(-c5c(F)c(F)c(F)c(F)c5F)c5ccc([nH]5)c(-c5c(F)c(F)c(F)c(F)c5F)c5nc(c(-c6c(F)c(F)c(F)c(F)c6F)c6ccc3[nH]6)C=C5)C=C4)cc2)cn1
REMARK SMILES IDX 18 1 17 2 15 3 16 4 14 6 11 7 12 8 88 9 13 10 87 11 10 12
REMARK SMILES IDX 9 13 8 15 1 16 2 17 3 18 4 19 5 20 7 21 6 22 19 23 20 24
REMARK SMILES IDX 21 25 22 26 23 28 24 29 25 30 86 31 26 32 85 33 27 34 28 35
REMARK SMILES IDX 29 36 79 37 30 38 84 39 78 40 80 41 31 42 83 43 77 44 76 45
REMARK SMILES IDX 32 47 64 48 44 49 63 50 45 51 48 52 62 53 81 54 46 55 47 56
REMARK SMILES IDX 61 58 82 59 49 60 33 61 34 62 42 63 35 64 36 65 40 66 43 67
REMARK SMILES IDX 37 68 38 69 41 70 39 71 65 72 66 73 74 74 67 75 68 76 72 77
REMARK SMILES IDX 75 78 69 79 70 80 73 81 71 82 50 83 51 84 59 85 52 86 53 87
REMARK SMILES IDX 57 88 60 89 54 90 55 91 58 92 56 93
REMARK H PARENT 17 5 9 14 21 27 80 46 48 57
REMARK Flexibility Score: inf
ROOT
ATOM      1  C   UNL A   1      35.453  21.518  26.082  1.00  0.00     0.118 C 
ENDROOT
BRANCH   1   2
ATOM      2  N   UNL A   1      34.784  20.379  25.482  1.00  0.00    -0.352 N 
ATOM      3  C   UNL A   1      33.620  20.319  24.757  1.00  0.00     0.252 C 
ATOM      4  O   UNL A   1      33.259  19.223  24.334  1.00  0.00    -0.269 OA
ATOM      5  H   UNL A   1      35.235  19.515  25.618  1.00  0.00     0.163 HD
BRANCH   3   6
ATOM      6  C   UNL A   1      32.817  21.528  24.439  1.00  0.00     0.058 A 
ATOM      7  C   UNL A   1      31.175  23.716  24.027  1.00  0.00     0.059 A 
ATOM      8  C   UNL A   1      32.121  23.397  23.072  1.00  0.00     0.026 A 
ATOM      9  N   UNL A   1      31.033  23.003  25.174  1.00  0.00    -0.259 NA
ATOM     10  C   UNL A   1      32.954  22.319  23.304  1.00  0.00     0.017 A 
ATOM     11  C   UNL A   1      31.853  21.930  25.351  1.00  0.00     0.125 A 
BRANCH   7  12
ATOM     12  C   UNL A   1      30.341  24.961  23.819  1.00  0.00     0.169 C 
BRANCH  12  13
ATOM     13  N   UNL A   1      31.192  26.033  23.313  1.00  0.00    -0.379 N 
ATOM     14  H   UNL A   1      31.560  25.902  22.409  1.00  0.00     0.160 HD
BRANCH  13  15
ATOM     15  C   UNL A   1      31.546  27.210  23.945  1.00  0.00     0.040 A 
ATOM     16  C   UNL A   1      33.733  26.177  24.844  1.00  0.00     0.050 C 
ATOM     17  C   UNL A   1      32.725  27.289  24.719  1.00  0.00     0.008 A 
ATOM     18  C   UNL A   1      32.999  28.459  25.450  1.00  0.00     0.128 A 
ATOM     19  F   UNL A   1      34.099  28.517  26.219  1.00  0.00    -0.207 F 
ATOM     20  C   UNL A   1      32.166  29.567  25.411  1.00  0.00     0.039 A 
ATOM     21  C   UNL A   1      30.725  28.355  23.907  1.00  0.00     0.026 A 
ATOM     22  C   UNL A   1      31.029  29.520  24.621  1.00  0.00     0.005 A 
ENDBRANCH  13  15
ENDBRANCH  12  13
ENDBRANCH   7  12
ENDBRANCH   3   6
ENDBRANCH   1   2
BRANCH   1  23
ATOM     23  C   UNL A   1      36.291  22.265  25.034  1.00  0.00     0.042 C 
BRANCH  23  24
ATOM     24  C   UNL A   1      37.253  23.182  25.715  1.00  0.00     0.118 C 
BRANCH  24  25
ATOM     25  N   UNL A   1      38.418  22.445  26.193  1.00  0.00    -0.352 N 
ATOM     26  C   UNL A   1      39.654  22.944  26.537  1.00  0.00     0.251 C 
ATOM     27  H   UNL A   1      38.306  21.471  26.278  1.00  0.00     0.163 HD
ATOM     28  O   UNL A   1      40.637  22.228  26.546  1.00  0.00    -0.269 OA
BRANCH  26  29
ATOM     29  C   UNL A   1      39.740  24.355  26.947  1.00  0.00     0.039 A 
ATOM     30  C   UNL A   1      40.311  25.330  26.126  1.00  0.00     0.014 A 
ATOM     31  C   UNL A   1      39.343  24.672  28.240  1.00  0.00     0.014 A 
ATOM     32  C   UNL A   1      40.535  26.595  26.656  1.00  0.00     0.010 A 
ATOM     33  C   UNL A   1      39.279  25.952  28.647  1.00  0.00     0.010 A 
ATOM     34  C   UNL A   1      40.041  26.856  27.932  1.00  0.00    -0.014 A 
BRANCH  34  35
ATOM     35  C   UNL A   1      40.288  28.025  28.730  1.00  0.00     0.031 A 
ATOM     36  C   UNL A   1      39.307  29.089  28.664  1.00  0.00     0.074 A 
ATOM     37  C   UNL A   1      41.223  27.858  29.694  1.00  0.00     0.049 A 
ATOM     38  N   UNL A   1      39.549  30.301  28.983  1.00  0.00    -0.248 NA
ATOM     39  C   UNL A   1      37.947  28.871  28.184  1.00  0.00     0.031 C 
ATOM     40  C   UNL A   1      41.479  28.594  30.918  1.00  0.00     0.029 A 
ATOM     41  N   UNL A   1      42.247  26.890  29.674  1.00  0.00    -0.354 N 
ATOM     42  C   UNL A   1      38.327  30.906  29.152  1.00  0.00     0.074 A 
ATOM     43  C   UNL A   1      37.398  30.061  28.443  1.00  0.00     0.031 C 
ATOM     44  C   UNL A   1      42.737  28.321  31.320  1.00  0.00     0.029 A 
ATOM     45  C   UNL A   1      43.352  27.498  30.289  1.00  0.00     0.049 A 
ATOM     46  H   UNL A   1      42.197  25.979  29.305  1.00  0.00     0.167 HD
ATOM     47  C   UNL A   1      38.254  31.922  30.058  1.00  0.00     0.037 A 
ATOM     48  C   UNL A   1      44.377  27.869  29.468  1.00  0.00     0.037 A 
ATOM     49  C   UNL A   1      39.591  32.137  30.655  1.00  0.00     0.049 A 
ATOM     50  C   UNL A   1      44.459  29.368  29.317  1.00  0.00     0.074 A 
ATOM     51  C   UNL A   1      40.160  31.789  31.871  1.00  0.00     0.029 A 
ATOM     52  N   UNL A   1      40.665  32.425  29.814  1.00  0.00    -0.354 N 
ATOM     53  N   UNL A   1      43.509  30.213  29.624  1.00  0.00    -0.248 NA
ATOM     54  C   UNL A   1      45.662  30.028  28.853  1.00  0.00     0.031 C 
ATOM     55  C   UNL A   1      41.583  31.865  31.737  1.00  0.00     0.029 A 
ATOM     56  C   UNL A   1      41.886  32.273  30.448  1.00  0.00     0.049 A 
ATOM     57  H   UNL A   1      40.566  32.704  28.875  1.00  0.00     0.167 HD
ATOM     58  C   UNL A   1      43.943  31.507  29.453  1.00  0.00     0.074 A 
ATOM     59  C   UNL A   1      45.303  31.317  28.968  1.00  0.00     0.031 C 
ATOM     60  C   UNL A   1      43.129  32.587  29.727  1.00  0.00     0.037 A 
BRANCH  47  61
ATOM     61  C   UNL A   1      36.978  32.532  30.613  1.00  0.00     0.064 A 
ATOM     62  C   UNL A   1      36.217  33.423  29.822  1.00  0.00     0.173 A 
ATOM     63  C   UNL A   1      36.437  32.302  31.897  1.00  0.00     0.173 A 
ATOM     64  F   UNL A   1      36.560  33.699  28.557  1.00  0.00    -0.203 F 
ATOM     65  C   UNL A   1      35.062  34.059  30.293  1.00  0.00     0.198 A 
ATOM     66  C   UNL A   1      35.298  32.959  32.377  1.00  0.00     0.198 A 
ATOM     67  F   UNL A   1      36.939  31.394  32.733  1.00  0.00    -0.203 F 
ATOM     68  F   UNL A   1      34.389  34.891  29.487  1.00  0.00    -0.200 F 
ATOM     69  C   UNL A   1      34.610  33.839  31.576  1.00  0.00     0.200 A 
ATOM     70  F   UNL A   1      34.870  32.714  33.625  1.00  0.00    -0.200 F 
ATOM     71  F   UNL A   1      33.506  34.449  32.028  1.00  0.00    -0.200 F 
ENDBRANCH  47  61
BRANCH  48  72
ATOM     72  C   UNL A   1      44.640  26.817  28.425  1.00  0.00     0.064 A 
ATOM     73  C   UNL A   1      44.353  27.192  27.092  1.00  0.00     0.173 A 
ATOM     74  C   UNL A   1      45.603  25.814  28.609  1.00  0.00     0.173 A 
ATOM     75  F   UNL A   1      43.406  28.113  26.849  1.00  0.00    -0.203 F 
ATOM     76  C   UNL A   1      45.155  26.775  26.032  1.00  0.00     0.198 A 
ATOM     77  C   UNL A   1      46.369  25.354  27.529  1.00  0.00     0.198 A 
ATOM     78  F   UNL A   1      45.900  25.376  29.840  1.00  0.00    -0.203 F 
ATOM     79  F   UNL A   1      44.989  27.314  24.815  1.00  0.00    -0.200 F 
ATOM     80  C   UNL A   1      46.192  25.890  26.260  1.00  0.00     0.200 A 
ATOM     81  F   UNL A   1      47.342  24.455  27.734  1.00  0.00    -0.200 F 
ATOM     82  F   UNL A   1      47.043  25.594  25.267  1.00  0.00    -0.200 F 
ENDBRANCH  48  72
BRANCH  60  83
ATOM     83  C   UNL A   1      43.357  34.062  29.345  1.00  0.00     0.064 A 
ATOM     84  C   UNL A   1      43.388  34.585  28.045  1.00  0.00     0.173 A 
ATOM     85  C   UNL A   1      43.496  35.063  30.353  1.00  0.00     0.173 A 
ATOM     86  F   UNL A   1      43.405  33.814  26.962  1.00  0.00    -0.203 F 
ATOM     87  C   UNL A   1      43.445  35.958  27.775  1.00  0.00     0.198 A 
ATOM     88  C   UNL A   1      43.524  36.432  30.087  1.00  0.00     0.198 A 
ATOM     89  F   UNL A   1      43.625  34.773  31.654  1.00  0.00    -0.203 F 
ATOM     90  F   UNL A   1      43.458  36.373  26.501  1.00  0.00    -0.200 F 
ATOM     91  C   UNL A   1      43.485  36.883  28.793  1.00  0.00     0.200 A 
ATOM     92  F   UNL A   1      43.583  37.303  31.104  1.00  0.00    -0.200 F 
ATOM     93  F   UNL A   1      43.510  38.194  28.528  1.00  0.00    -0.200 F 
ENDBRANCH  60  83
ENDBRANCH  34  35
ENDBRANCH  26  29
ENDBRANCH  24  25
ENDBRANCH  23  24
ENDBRANCH   1  23
TORSDOF 13
ENDMDL
