MODEL 1
REMARK VINA RESULT:     -12.9      0.000      0.000
REMARK SMILES CC(C)(C)OC(=O)Nc1ccc(-c2cccc(Cl)c2C(=O)NCCCNC(=O)c2ccc(-c3c4nc(c(-c5c(F)c(F)c(F)c(F)c5F)c5ccc([nH]5)c(-c5c(F)c(F)c(F)c(F)c5F)c5nc(c(-c6c(F)c(F)c(F)c(F)c6F)c6ccc3[nH]6)C=C5)C=C4)cc2)cc1
REMARK SMILES IDX 23 1 22 2 20 3 21 4 19 6 13 7 14 8 15 9 17 10 16 11 18 12
REMARK SMILES IDX 12 13 9 14 10 15 93 16 11 17 92 18 8 19 6 20 7 21 5 23 2 24
REMARK SMILES IDX 1 25 3 26 4 27 24 28 25 29 26 30 27 31 28 33 29 34 30 35
REMARK SMILES IDX 91 36 31 37 90 38 32 39 33 40 34 41 84 42 35 43 89 44 83 45
REMARK SMILES IDX 85 46 36 47 88 48 82 49 81 50 37 52 69 53 49 54 68 55 50 56
REMARK SMILES IDX 53 57 67 58 86 59 51 60 52 61 66 63 87 64 54 65 38 66 39 67
REMARK SMILES IDX 47 68 40 69 41 70 45 71 48 72 42 73 43 74 46 75 44 76 70 77
REMARK SMILES IDX 71 78 79 79 72 80 73 81 77 82 80 83 74 84 75 85 78 86 76 87
REMARK SMILES IDX 55 88 56 89 64 90 57 91 58 92 62 93 65 94 59 95 60 96 63 97
REMARK SMILES IDX 61 98
REMARK H PARENT 22 5 8 22 26 32 85 51 53 62
REMARK Flexibility Score: inf
ROOT
ATOM      1  C   UNL A   1      35.399  21.295  25.977  1.00  0.00     0.118 C 
ENDROOT
BRANCH   1   2
ATOM      2  N   UNL A   1      34.248  22.122  26.152  1.00  0.00    -0.352 N 
ATOM      3  C   UNL A   1      32.959  21.729  25.822  1.00  0.00     0.253 C 
ATOM      4  O   UNL A   1      32.067  22.089  26.594  1.00  0.00    -0.269 OA
ATOM      5  H   UNL A   1      34.377  23.022  26.530  1.00  0.00     0.163 HD
BRANCH   3   6
ATOM      6  C   UNL A   1      32.561  20.997  24.557  1.00  0.00     0.066 A 
ATOM      7  C   UNL A   1      32.252  21.556  23.276  1.00  0.00    -0.004 A 
ATOM      8  C   UNL A   1      32.095  20.683  22.168  1.00  0.00     0.009 A 
ATOM      9  C   UNL A   1      32.224  19.306  22.281  1.00  0.00     0.002 A 
ATOM     10  C   UNL A   1      32.634  19.580  24.649  1.00  0.00     0.054 A 
ATOM     11  C   UNL A   1      32.479  18.755  23.524  1.00  0.00     0.021 A 
ATOM     12  Cl  UNL A   1      32.833  18.720  26.149  1.00  0.00    -0.083 Cl
BRANCH   7  13
ATOM     13  C   UNL A   1      31.987  22.972  22.962  1.00  0.00    -0.017 A 
ATOM     14  C   UNL A   1      31.587  25.775  22.797  1.00  0.00     0.044 A 
ATOM     15  C   UNL A   1      30.633  24.965  23.414  1.00  0.00     0.027 A 
ATOM     16  C   UNL A   1      32.684  25.160  22.179  1.00  0.00     0.027 A 
ATOM     17  C   UNL A   1      30.815  23.580  23.469  1.00  0.00     0.011 A 
ATOM     18  C   UNL A   1      32.882  23.770  22.253  1.00  0.00     0.011 A 
BRANCH  14  19
ATOM     19  N   UNL A   1      31.396  27.166  22.907  1.00  0.00    -0.291 N 
ATOM     20  C   UNL A   1      31.984  28.092  23.730  1.00  0.00     0.412 C 
ATOM     21  O   UNL A   1      31.638  29.264  23.689  1.00  0.00    -0.224 OA
ATOM     22  H   UNL A   1      30.726  27.536  22.287  1.00  0.00     0.173 HD
BRANCH  20  23
ATOM     23  O   UNL A   1      32.999  27.593  24.461  1.00  0.00    -0.444 OA
BRANCH  23  24
ATOM     24  C   UNL A   1      32.834  27.124  25.817  1.00  0.00     0.106 C 
ATOM     25  C   UNL A   1      33.739  28.065  26.627  1.00  0.00     0.056 C 
ATOM     26  C   UNL A   1      33.331  25.687  25.971  1.00  0.00     0.056 C 
ATOM     27  C   UNL A   1      31.389  27.291  26.293  1.00  0.00     0.056 C 
ENDBRANCH  23  24
ENDBRANCH  20  23
ENDBRANCH  14  19
ENDBRANCH   7  13
ENDBRANCH   3   6
ENDBRANCH   1   2
BRANCH   1  28
ATOM     28  C   UNL A   1      36.258  21.413  24.748  1.00  0.00     0.042 C 
BRANCH  28  29
ATOM     29  C   UNL A   1      37.686  21.880  24.944  1.00  0.00     0.118 C 
BRANCH  29  30
ATOM     30  N   UNL A   1      38.593  20.936  25.590  1.00  0.00    -0.352 N 
ATOM     31  C   UNL A   1      39.631  21.097  26.484  1.00  0.00     0.251 C 
ATOM     32  H   UNL A   1      38.431  19.998  25.340  1.00  0.00     0.163 HD
ATOM     33  O   UNL A   1      40.199  20.097  26.919  1.00  0.00    -0.269 OA
BRANCH  31  34
ATOM     34  C   UNL A   1      40.111  22.438  26.895  1.00  0.00     0.039 A 
ATOM     35  C   UNL A   1      41.123  22.542  27.857  1.00  0.00     0.014 A 
ATOM     36  C   UNL A   1      39.584  23.601  26.343  1.00  0.00     0.014 A 
ATOM     37  C   UNL A   1      41.657  23.794  28.178  1.00  0.00     0.010 A 
ATOM     38  C   UNL A   1      40.224  24.817  26.531  1.00  0.00     0.010 A 
ATOM     39  C   UNL A   1      41.243  24.938  27.481  1.00  0.00    -0.014 A 
BRANCH  39  40
ATOM     40  C   UNL A   1      41.798  26.282  27.775  1.00  0.00     0.031 A 
ATOM     41  C   UNL A   1      43.174  26.645  27.276  1.00  0.00     0.074 A 
ATOM     42  C   UNL A   1      41.094  27.149  28.528  1.00  0.00     0.049 A 
ATOM     43  N   UNL A   1      43.862  27.743  27.460  1.00  0.00    -0.248 NA
ATOM     44  C   UNL A   1      43.894  25.617  26.502  1.00  0.00     0.031 C 
ATOM     45  C   UNL A   1      39.782  26.885  29.121  1.00  0.00     0.029 A 
ATOM     46  N   UNL A   1      41.385  28.430  28.925  1.00  0.00    -0.354 N 
ATOM     47  C   UNL A   1      45.088  27.525  26.843  1.00  0.00     0.074 A 
ATOM     48  C   UNL A   1      45.089  26.166  26.360  1.00  0.00     0.031 C 
ATOM     49  C   UNL A   1      39.360  27.986  29.765  1.00  0.00     0.029 A 
ATOM     50  C   UNL A   1      40.387  29.017  29.663  1.00  0.00     0.049 A 
ATOM     51  H   UNL A   1      42.229  28.885  28.701  1.00  0.00     0.167 HD
ATOM     52  C   UNL A   1      46.108  28.396  26.654  1.00  0.00     0.037 A 
ATOM     53  C   UNL A   1      40.311  30.255  30.189  1.00  0.00     0.037 A 
ATOM     54  C   UNL A   1      46.084  29.760  27.110  1.00  0.00     0.049 A 
ATOM     55  C   UNL A   1      41.454  31.207  29.959  1.00  0.00     0.074 A 
ATOM     56  C   UNL A   1      47.034  30.748  26.930  1.00  0.00     0.029 A 
ATOM     57  N   UNL A   1      45.047  30.326  27.838  1.00  0.00    -0.354 N 
ATOM     58  N   UNL A   1      42.578  31.016  29.308  1.00  0.00    -0.248 NA
ATOM     59  C   UNL A   1      41.310  32.555  30.523  1.00  0.00     0.031 C 
ATOM     60  C   UNL A   1      46.597  31.898  27.598  1.00  0.00     0.029 A 
ATOM     61  C   UNL A   1      45.345  31.645  28.138  1.00  0.00     0.049 A 
ATOM     62  H   UNL A   1      44.223  29.859  28.103  1.00  0.00     0.167 HD
ATOM     63  C   UNL A   1      43.260  32.223  29.361  1.00  0.00     0.074 A 
ATOM     64  C   UNL A   1      42.409  33.148  30.082  1.00  0.00     0.031 C 
ATOM     65  C   UNL A   1      44.482  32.542  28.863  1.00  0.00     0.037 A 
BRANCH  52  66
ATOM     66  C   UNL A   1      47.321  27.896  25.920  1.00  0.00     0.064 A 
ATOM     67  C   UNL A   1      47.358  27.817  24.518  1.00  0.00     0.173 A 
ATOM     68  C   UNL A   1      48.468  27.500  26.625  1.00  0.00     0.173 A 
ATOM     69  F   UNL A   1      46.284  28.165  23.794  1.00  0.00    -0.203 F 
ATOM     70  C   UNL A   1      48.479  27.325  23.855  1.00  0.00     0.198 A 
ATOM     71  C   UNL A   1      49.601  27.045  25.956  1.00  0.00     0.198 A 
ATOM     72  F   UNL A   1      48.491  27.555  27.966  1.00  0.00    -0.203 F 
ATOM     73  F   UNL A   1      48.464  27.197  22.521  1.00  0.00    -0.200 F 
ATOM     74  C   UNL A   1      49.602  26.947  24.573  1.00  0.00     0.200 A 
ATOM     75  F   UNL A   1      50.691  26.693  26.651  1.00  0.00    -0.200 F 
ATOM     76  F   UNL A   1      50.683  26.480  23.933  1.00  0.00    -0.200 F 
ENDBRANCH  52  66
BRANCH  53  77
ATOM     77  C   UNL A   1      39.101  30.674  30.946  1.00  0.00     0.064 A 
ATOM     78  C   UNL A   1      39.027  30.510  32.338  1.00  0.00     0.173 A 
ATOM     79  C   UNL A   1      37.992  31.237  30.300  1.00  0.00     0.173 A 
ATOM     80  F   UNL A   1      40.054  29.960  33.003  1.00  0.00    -0.203 F 
ATOM     81  C   UNL A   1      37.881  30.864  33.047  1.00  0.00     0.198 A 
ATOM     82  C   UNL A   1      36.858  31.623  31.015  1.00  0.00     0.198 A 
ATOM     83  F   UNL A   1      38.011  31.425  28.972  1.00  0.00    -0.203 F 
ATOM     84  F   UNL A   1      37.818  30.643  34.367  1.00  0.00    -0.200 F 
ATOM     85  C   UNL A   1      36.799  31.426  32.386  1.00  0.00     0.200 A 
ATOM     86  F   UNL A   1      35.824  32.182  30.374  1.00  0.00    -0.200 F 
ATOM     87  F   UNL A   1      35.699  31.770  33.068  1.00  0.00    -0.200 F 
ENDBRANCH  53  77
BRANCH  65  88
ATOM     88  C   UNL A   1      44.948  33.956  29.063  1.00  0.00     0.064 A 
ATOM     89  C   UNL A   1      45.709  34.333  30.181  1.00  0.00     0.173 A 
ATOM     90  C   UNL A   1      44.632  34.947  28.120  1.00  0.00     0.173 A 
ATOM     91  F   UNL A   1      46.029  33.426  31.116  1.00  0.00    -0.203 F 
ATOM     92  C   UNL A   1      46.090  35.657  30.372  1.00  0.00     0.198 A 
ATOM     93  C   UNL A   1      45.052  36.262  28.296  1.00  0.00     0.198 A 
ATOM     94  F   UNL A   1      43.919  34.639  27.027  1.00  0.00    -0.203 F 
ATOM     95  F   UNL A   1      46.750  36.007  31.486  1.00  0.00    -0.200 F 
ATOM     96  C   UNL A   1      45.766  36.620  29.429  1.00  0.00     0.200 A 
ATOM     97  F   UNL A   1      44.754  37.187  27.371  1.00  0.00    -0.200 F 
ATOM     98  F   UNL A   1      46.132  37.895  29.616  1.00  0.00    -0.200 F 
ENDBRANCH  65  88
ENDBRANCH  39  40
ENDBRANCH  31  34
ENDBRANCH  29  30
ENDBRANCH  28  29
ENDBRANCH   1  28
TORSDOF 14
ENDMDL
MODEL 2
REMARK VINA RESULT:     -12.8      1.829      7.538
REMARK SMILES CC(C)(C)OC(=O)Nc1ccc(-c2cccc(Cl)c2C(=O)NCCCNC(=O)c2ccc(-c3c4nc(c(-c5c(F)c(F)c(F)c(F)c5F)c5ccc([nH]5)c(-c5c(F)c(F)c(F)c(F)c5F)c5nc(c(-c6c(F)c(F)c(F)c(F)c6F)c6ccc3[nH]6)C=C5)C=C4)cc2)cc1
REMARK SMILES IDX 23 1 22 2 20 3 21 4 19 6 13 7 14 8 15 9 17 10 16 11 18 12
REMARK SMILES IDX 12 13 9 14 10 15 93 16 11 17 92 18 8 19 6 20 7 21 5 23 2 24
REMARK SMILES IDX 1 25 3 26 4 27 24 28 25 29 26 30 27 31 28 33 29 34 30 35
REMARK SMILES IDX 91 36 31 37 90 38 32 39 33 40 34 41 84 42 35 43 89 44 83 45
REMARK SMILES IDX 85 46 36 47 88 48 82 49 81 50 37 52 69 53 49 54 68 55 50 56
REMARK SMILES IDX 53 57 67 58 86 59 51 60 52 61 66 63 87 64 54 65 38 66 39 67
REMARK SMILES IDX 47 68 40 69 41 70 45 71 48 72 42 73 43 74 46 75 44 76 70 77
REMARK SMILES IDX 71 78 79 79 72 80 73 81 77 82 80 83 74 84 75 85 78 86 76 87
REMARK SMILES IDX 55 88 56 89 64 90 57 91 58 92 62 93 65 94 59 95 60 96 63 97
REMARK SMILES IDX 61 98
REMARK H PARENT 22 5 8 22 26 32 85 51 53 62
REMARK Flexibility Score: inf
ROOT
ATOM      1  C   UNL A   1      36.747  20.788  24.732  1.00  0.00     0.118 C 
ENDROOT
BRANCH   1   2
ATOM      2  N   UNL A   1      36.063  21.432  25.806  1.00  0.00    -0.352 N 
ATOM      3  C   UNL A   1      34.688  21.381  25.986  1.00  0.00     0.253 C 
ATOM      4  O   UNL A   1      34.296  21.285  27.152  1.00  0.00    -0.269 OA
ATOM      5  H   UNL A   1      36.598  21.942  26.458  1.00  0.00     0.163 HD
BRANCH   3   6
ATOM      6  C   UNL A   1      33.653  21.535  24.892  1.00  0.00     0.066 A 
ATOM      7  C   UNL A   1      33.147  22.747  24.322  1.00  0.00    -0.004 A 
ATOM      8  C   UNL A   1      32.326  22.671  23.168  1.00  0.00     0.009 A 
ATOM      9  C   UNL A   1      31.987  21.464  22.573  1.00  0.00     0.002 A 
ATOM     10  C   UNL A   1      33.245  20.313  24.290  1.00  0.00     0.054 A 
ATOM     11  C   UNL A   1      32.436  20.285  23.144  1.00  0.00     0.021 A 
ATOM     12  Cl  UNL A   1      33.621  18.744  24.943  1.00  0.00    -0.083 Cl
BRANCH   7  13
ATOM     13  C   UNL A   1      33.312  24.115  24.847  1.00  0.00    -0.017 A 
ATOM     14  C   UNL A   1      33.305  26.862  25.556  1.00  0.00     0.044 A 
ATOM     15  C   UNL A   1      33.937  26.440  24.386  1.00  0.00     0.027 A 
ATOM     16  C   UNL A   1      32.770  25.889  26.412  1.00  0.00     0.027 A 
ATOM     17  C   UNL A   1      33.968  25.083  24.051  1.00  0.00     0.011 A 
ATOM     18  C   UNL A   1      32.777  24.526  26.067  1.00  0.00     0.011 A 
BRANCH  14  19
ATOM     19  N   UNL A   1      33.199  28.253  25.747  1.00  0.00    -0.291 N 
ATOM     20  C   UNL A   1      32.202  29.133  25.414  1.00  0.00     0.412 C 
ATOM     21  O   UNL A   1      32.331  30.328  25.639  1.00  0.00    -0.224 OA
ATOM     22  H   UNL A   1      33.974  28.663  26.197  1.00  0.00     0.173 HD
BRANCH  20  23
ATOM     23  O   UNL A   1      31.094  28.535  24.937  1.00  0.00    -0.444 OA
BRANCH  23  24
ATOM     24  C   UNL A   1      30.666  28.651  23.564  1.00  0.00     0.106 C 
ATOM     25  C   UNL A   1      29.998  27.296  23.288  1.00  0.00     0.056 C 
ATOM     26  C   UNL A   1      31.858  28.828  22.624  1.00  0.00     0.056 C 
ATOM     27  C   UNL A   1      29.628  29.762  23.395  1.00  0.00     0.056 C 
ENDBRANCH  23  24
ENDBRANCH  20  23
ENDBRANCH  14  19
ENDBRANCH   7  13
ENDBRANCH   3   6
ENDBRANCH   1   2
BRANCH   1  28
ATOM     28  C   UNL A   1      37.774  19.721  24.996  1.00  0.00     0.042 C 
BRANCH  28  29
ATOM     29  C   UNL A   1      38.984  20.114  25.818  1.00  0.00     0.118 C 
BRANCH  29  30
ATOM     30  N   UNL A   1      40.100  19.171  25.820  1.00  0.00    -0.352 N 
ATOM     31  C   UNL A   1      41.443  19.310  26.097  1.00  0.00     0.251 C 
ATOM     32  H   UNL A   1      39.841  18.253  25.577  1.00  0.00     0.163 HD
ATOM     33  O   UNL A   1      42.159  18.311  26.077  1.00  0.00    -0.269 OA
BRANCH  31  34
ATOM     34  C   UNL A   1      42.055  20.633  26.367  1.00  0.00     0.039 A 
ATOM     35  C   UNL A   1      42.381  21.472  25.295  1.00  0.00     0.014 A 
ATOM     36  C   UNL A   1      42.309  21.068  27.664  1.00  0.00     0.014 A 
ATOM     37  C   UNL A   1      42.863  22.763  25.537  1.00  0.00     0.010 A 
ATOM     38  C   UNL A   1      42.620  22.397  27.908  1.00  0.00     0.010 A 
ATOM     39  C   UNL A   1      42.940  23.252  26.849  1.00  0.00    -0.014 A 
BRANCH  39  40
ATOM     40  C   UNL A   1      43.425  24.622  27.150  1.00  0.00     0.031 A 
ATOM     41  C   UNL A   1      42.474  25.637  27.731  1.00  0.00     0.074 A 
ATOM     42  C   UNL A   1      44.693  24.966  26.854  1.00  0.00     0.049 A 
ATOM     43  N   UNL A   1      42.679  26.896  28.024  1.00  0.00    -0.248 NA
ATOM     44  C   UNL A   1      41.091  25.190  27.976  1.00  0.00     0.031 C 
ATOM     45  C   UNL A   1      45.685  24.089  26.229  1.00  0.00     0.029 A 
ATOM     46  N   UNL A   1      45.366  26.147  27.041  1.00  0.00    -0.354 N 
ATOM     47  C   UNL A   1      41.454  27.383  28.466  1.00  0.00     0.074 A 
ATOM     48  C   UNL A   1      40.492  26.318  28.319  1.00  0.00     0.031 C 
ATOM     49  C   UNL A   1      46.852  24.746  26.127  1.00  0.00     0.029 A 
ATOM     50  C   UNL A   1      46.680  26.099  26.643  1.00  0.00     0.049 A 
ATOM     51  H   UNL A   1      44.947  26.952  27.422  1.00  0.00     0.167 HD
ATOM     52  C   UNL A   1      41.165  28.597  28.992  1.00  0.00     0.037 A 
ATOM     53  C   UNL A   1      47.638  27.045  26.700  1.00  0.00     0.037 A 
ATOM     54  C   UNL A   1      42.139  29.641  29.166  1.00  0.00     0.049 A 
ATOM     55  C   UNL A   1      47.294  28.384  27.297  1.00  0.00     0.074 A 
ATOM     56  C   UNL A   1      41.975  30.890  29.735  1.00  0.00     0.029 A 
ATOM     57  N   UNL A   1      43.466  29.550  28.769  1.00  0.00    -0.354 N 
ATOM     58  N   UNL A   1      46.151  28.809  27.783  1.00  0.00    -0.248 NA
ATOM     59  C   UNL A   1      48.380  29.370  27.368  1.00  0.00     0.031 C 
ATOM     60  C   UNL A   1      43.189  31.577  29.633  1.00  0.00     0.029 A 
ATOM     61  C   UNL A   1      44.127  30.732  29.059  1.00  0.00     0.049 A 
ATOM     62  H   UNL A   1      43.876  28.764  28.345  1.00  0.00     0.167 HD
ATOM     63  C   UNL A   1      46.386  30.098  28.241  1.00  0.00     0.074 A 
ATOM     64  C   UNL A   1      47.789  30.372  28.001  1.00  0.00     0.031 C 
ATOM     65  C   UNL A   1      45.524  30.981  28.805  1.00  0.00     0.037 A 
BRANCH  52  66
ATOM     66  C   UNL A   1      39.746  28.849  29.418  1.00  0.00     0.064 A 
ATOM     67  C   UNL A   1      38.794  29.393  28.539  1.00  0.00     0.173 A 
ATOM     68  C   UNL A   1      39.326  28.534  30.719  1.00  0.00     0.173 A 
ATOM     69  F   UNL A   1      39.144  29.730  27.289  1.00  0.00    -0.203 F 
ATOM     70  C   UNL A   1      37.490  29.647  28.959  1.00  0.00     0.198 A 
ATOM     71  C   UNL A   1      38.011  28.754  31.123  1.00  0.00     0.198 A 
ATOM     72  F   UNL A   1      40.191  28.012  31.603  1.00  0.00    -0.203 F 
ATOM     73  F   UNL A   1      36.620  30.227  28.121  1.00  0.00    -0.200 F 
ATOM     74  C   UNL A   1      37.098  29.319  30.247  1.00  0.00     0.200 A 
ATOM     75  F   UNL A   1      37.630  28.425  32.365  1.00  0.00    -0.200 F 
ATOM     76  F   UNL A   1      35.841  29.558  30.648  1.00  0.00    -0.200 F 
ENDBRANCH  52  66
BRANCH  53  77
ATOM     77  C   UNL A   1      49.014  26.748  26.219  1.00  0.00     0.064 A 
ATOM     78  C   UNL A   1      49.976  26.197  27.078  1.00  0.00     0.173 A 
ATOM     79  C   UNL A   1      49.402  27.017  24.899  1.00  0.00     0.173 A 
ATOM     80  F   UNL A   1      49.662  25.937  28.356  1.00  0.00    -0.203 F 
ATOM     81  C   UNL A   1      51.277  25.953  26.644  1.00  0.00     0.198 A 
ATOM     82  C   UNL A   1      50.695  26.742  24.456  1.00  0.00     0.198 A 
ATOM     83  F   UNL A   1      48.521  27.537  24.032  1.00  0.00    -0.203 F 
ATOM     84  F   UNL A   1      52.190  25.478  27.503  1.00  0.00    -0.200 F 
ATOM     85  C   UNL A   1      51.635  26.220  25.332  1.00  0.00     0.200 A 
ATOM     86  F   UNL A   1      51.029  26.984  23.182  1.00  0.00    -0.200 F 
ATOM     87  F   UNL A   1      52.885  25.984  24.913  1.00  0.00    -0.200 F 
ENDBRANCH  53  77
BRANCH  65  88
ATOM     88  C   UNL A   1      46.088  32.309  29.223  1.00  0.00     0.064 A 
ATOM     89  C   UNL A   1      46.096  33.414  28.357  1.00  0.00     0.173 A 
ATOM     90  C   UNL A   1      46.624  32.478  30.508  1.00  0.00     0.173 A 
ATOM     91  F   UNL A   1      45.604  33.301  27.114  1.00  0.00    -0.203 F 
ATOM     92  C   UNL A   1      46.666  34.622  28.746  1.00  0.00     0.198 A 
ATOM     93  C   UNL A   1      47.156  33.701  30.907  1.00  0.00     0.198 A 
ATOM     94  F   UNL A   1      46.630  31.459  31.380  1.00  0.00    -0.203 F 
ATOM     95  F   UNL A   1      46.731  35.640  27.875  1.00  0.00    -0.200 F 
ATOM     96  C   UNL A   1      47.191  34.767  30.021  1.00  0.00     0.200 A 
ATOM     97  F   UNL A   1      47.645  33.845  32.147  1.00  0.00    -0.200 F 
ATOM     98  F   UNL A   1      47.742  35.930  30.392  1.00  0.00    -0.200 F 
ENDBRANCH  65  88
ENDBRANCH  39  40
ENDBRANCH  31  34
ENDBRANCH  29  30
ENDBRANCH  28  29
ENDBRANCH   1  28
TORSDOF 14
ENDMDL
MODEL 3
REMARK VINA RESULT:     -12.6      0.269      1.642
REMARK SMILES CC(C)(C)OC(=O)Nc1ccc(-c2cccc(Cl)c2C(=O)NCCCNC(=O)c2ccc(-c3c4nc(c(-c5c(F)c(F)c(F)c(F)c5F)c5ccc([nH]5)c(-c5c(F)c(F)c(F)c(F)c5F)c5nc(c(-c6c(F)c(F)c(F)c(F)c6F)c6ccc3[nH]6)C=C5)C=C4)cc2)cc1
REMARK SMILES IDX 23 1 22 2 20 3 21 4 19 6 13 7 14 8 15 9 17 10 16 11 18 12
REMARK SMILES IDX 12 13 9 14 10 15 93 16 11 17 92 18 8 19 6 20 7 21 5 23 2 24
REMARK SMILES IDX 1 25 3 26 4 27 24 28 25 29 26 30 27 31 28 33 29 34 30 35
REMARK SMILES IDX 91 36 31 37 90 38 32 39 33 40 34 41 84 42 35 43 89 44 83 45
REMARK SMILES IDX 85 46 36 47 88 48 82 49 81 50 37 52 69 53 49 54 68 55 50 56
REMARK SMILES IDX 53 57 67 58 86 59 51 60 52 61 66 63 87 64 54 65 38 66 39 67
REMARK SMILES IDX 47 68 40 69 41 70 45 71 48 72 42 73 43 74 46 75 44 76 70 77
REMARK SMILES IDX 71 78 79 79 72 80 73 81 77 82 80 83 74 84 75 85 78 86 76 87
REMARK SMILES IDX 55 88 56 89 64 90 57 91 58 92 62 93 65 94 59 95 60 96 63 97
REMARK SMILES IDX 61 98
REMARK H PARENT 22 5 8 22 26 32 85 51 53 62
REMARK Flexibility Score: inf
ROOT
ATOM      1  C   UNL A   1      35.520  21.462  25.539  1.00  0.00     0.118 C 
ENDROOT
BRANCH   1   2
ATOM      2  N   UNL A   1      34.324  22.166  25.874  1.00  0.00    -0.352 N 
ATOM      3  C   UNL A   1      33.048  21.668  25.647  1.00  0.00     0.253 C 
ATOM      4  O   UNL A   1      32.211  21.902  26.522  1.00  0.00    -0.269 OA
ATOM      5  H   UNL A   1      34.408  23.054  26.289  1.00  0.00     0.163 HD
BRANCH   3   6
ATOM      6  C   UNL A   1      32.590  20.965  24.386  1.00  0.00     0.066 A 
ATOM      7  C   UNL A   1      32.235  21.552  23.130  1.00  0.00    -0.004 A 
ATOM      8  C   UNL A   1      32.023  20.703  22.012  1.00  0.00     0.009 A 
ATOM      9  C   UNL A   1      32.142  19.323  22.093  1.00  0.00     0.002 A 
ATOM     10  C   UNL A   1      32.653  19.545  24.447  1.00  0.00     0.054 A 
ATOM     11  C   UNL A   1      32.443  18.745  23.314  1.00  0.00     0.021 A 
ATOM     12  Cl  UNL A   1      32.905  18.654  25.921  1.00  0.00    -0.083 Cl
BRANCH   7  13
ATOM     13  C   UNL A   1      31.971  22.976  22.855  1.00  0.00    -0.017 A 
ATOM     14  C   UNL A   1      31.588  25.785  22.763  1.00  0.00     0.044 A 
ATOM     15  C   UNL A   1      30.647  24.969  23.392  1.00  0.00     0.027 A 
ATOM     16  C   UNL A   1      32.661  25.177  22.098  1.00  0.00     0.027 A 
ATOM     17  C   UNL A   1      30.820  23.581  23.411  1.00  0.00     0.011 A 
ATOM     18  C   UNL A   1      32.851  23.784  22.136  1.00  0.00     0.011 A 
BRANCH  14  19
ATOM     19  N   UNL A   1      31.412  27.175  22.909  1.00  0.00    -0.291 N 
ATOM     20  C   UNL A   1      32.014  28.075  23.751  1.00  0.00     0.412 C 
ATOM     21  O   UNL A   1      31.679  29.251  23.742  1.00  0.00    -0.224 OA
ATOM     22  H   UNL A   1      30.742  27.567  22.303  1.00  0.00     0.173 HD
BRANCH  20  23
ATOM     23  O   UNL A   1      33.028  27.548  24.463  1.00  0.00    -0.444 OA
BRANCH  23  24
ATOM     24  C   UNL A   1      32.914  27.211  25.862  1.00  0.00     0.106 C 
ATOM     25  C   UNL A   1      33.507  25.795  25.932  1.00  0.00     0.056 C 
ATOM     26  C   UNL A   1      31.453  27.171  26.307  1.00  0.00     0.056 C 
ATOM     27  C   UNL A   1      33.757  28.147  26.732  1.00  0.00     0.056 C 
ENDBRANCH  23  24
ENDBRANCH  20  23
ENDBRANCH  14  19
ENDBRANCH   7  13
ENDBRANCH   3   6
ENDBRANCH   1   2
BRANCH   1  28
ATOM     28  C   UNL A   1      36.870  22.004  25.923  1.00  0.00     0.042 C 
BRANCH  28  29
ATOM     29  C   UNL A   1      38.066  21.497  25.143  1.00  0.00     0.118 C 
BRANCH  29  30
ATOM     30  N   UNL A   1      38.984  20.619  25.864  1.00  0.00    -0.352 N 
ATOM     31  C   UNL A   1      39.990  20.861  26.776  1.00  0.00     0.251 C 
ATOM     32  H   UNL A   1      38.859  19.665  25.660  1.00  0.00     0.163 HD
ATOM     33  O   UNL A   1      40.577  19.906  27.278  1.00  0.00    -0.269 OA
BRANCH  31  34
ATOM     34  C   UNL A   1      40.415  22.237  27.126  1.00  0.00     0.039 A 
ATOM     35  C   UNL A   1      41.364  22.428  28.138  1.00  0.00     0.014 A 
ATOM     36  C   UNL A   1      39.898  23.350  26.470  1.00  0.00     0.014 A 
ATOM     37  C   UNL A   1      41.850  23.711  28.409  1.00  0.00     0.010 A 
ATOM     38  C   UNL A   1      40.499  24.591  26.617  1.00  0.00     0.010 A 
ATOM     39  C   UNL A   1      41.455  24.797  27.616  1.00  0.00    -0.014 A 
BRANCH  39  40
ATOM     40  C   UNL A   1      41.961  26.172  27.855  1.00  0.00     0.031 A 
ATOM     41  C   UNL A   1      43.312  26.571  27.317  1.00  0.00     0.074 A 
ATOM     42  C   UNL A   1      41.239  27.035  28.595  1.00  0.00     0.049 A 
ATOM     43  N   UNL A   1      43.960  27.700  27.451  1.00  0.00    -0.248 NA
ATOM     44  C   UNL A   1      44.057  25.547  26.561  1.00  0.00     0.031 C 
ATOM     45  C   UNL A   1      39.950  26.739  29.223  1.00  0.00     0.029 A 
ATOM     46  N   UNL A   1      41.486  28.338  28.943  1.00  0.00    -0.354 N 
ATOM     47  C   UNL A   1      45.181  27.511  26.815  1.00  0.00     0.074 A 
ATOM     48  C   UNL A   1      45.226  26.137  26.376  1.00  0.00     0.031 C 
ATOM     49  C   UNL A   1      39.497  27.843  29.840  1.00  0.00     0.029 A 
ATOM     50  C   UNL A   1      40.480  28.910  29.683  1.00  0.00     0.049 A 
ATOM     51  H   UNL A   1      42.307  28.818  28.688  1.00  0.00     0.167 HD
ATOM     52  C   UNL A   1      46.162  28.414  26.578  1.00  0.00     0.037 A 
ATOM     53  C   UNL A   1      40.366  30.160  30.171  1.00  0.00     0.037 A 
ATOM     54  C   UNL A   1      46.092  29.790  26.990  1.00  0.00     0.049 A 
ATOM     55  C   UNL A   1      41.465  31.148  29.886  1.00  0.00     0.074 A 
ATOM     56  C   UNL A   1      46.998  30.808  26.758  1.00  0.00     0.029 A 
ATOM     57  N   UNL A   1      45.048  30.339  27.721  1.00  0.00    -0.354 N 
ATOM     58  N   UNL A   1      42.583  30.980  29.218  1.00  0.00    -0.248 NA
ATOM     59  C   UNL A   1      41.279  32.508  30.409  1.00  0.00     0.031 C 
ATOM     60  C   UNL A   1      46.530  31.961  27.398  1.00  0.00     0.029 A 
ATOM     61  C   UNL A   1      45.300  31.677  27.971  1.00  0.00     0.049 A 
ATOM     62  H   UNL A   1      44.248  29.849  28.018  1.00  0.00     0.167 HD
ATOM     63  C   UNL A   1      43.218  32.214  29.218  1.00  0.00     0.074 A 
ATOM     64  C   UNL A   1      42.345  33.128  29.927  1.00  0.00     0.031 C 
ATOM     65  C   UNL A   1      44.416  32.564  28.686  1.00  0.00     0.037 A 
BRANCH  52  66
ATOM     66  C   UNL A   1      47.379  27.938  25.835  1.00  0.00     0.064 A 
ATOM     67  C   UNL A   1      47.397  27.829  24.434  1.00  0.00     0.173 A 
ATOM     68  C   UNL A   1      48.548  27.594  26.530  1.00  0.00     0.173 A 
ATOM     69  F   UNL A   1      46.301  28.126  23.720  1.00  0.00    -0.203 F 
ATOM     70  C   UNL A   1      48.523  27.359  23.764  1.00  0.00     0.198 A 
ATOM     71  C   UNL A   1      49.686  27.162  25.852  1.00  0.00     0.198 A 
ATOM     72  F   UNL A   1      48.591  27.678  27.868  1.00  0.00    -0.203 F 
ATOM     73  F   UNL A   1      48.492  27.202  22.433  1.00  0.00    -0.200 F 
ATOM     74  C   UNL A   1      49.669  27.034  24.472  1.00  0.00     0.200 A 
ATOM     75  F   UNL A   1      50.797  26.860  26.538  1.00  0.00    -0.200 F 
ATOM     76  F   UNL A   1      50.755  26.588  23.825  1.00  0.00    -0.200 F 
ENDBRANCH  52  66
BRANCH  53  77
ATOM     77  C   UNL A   1      39.155  30.557  30.939  1.00  0.00     0.064 A 
ATOM     78  C   UNL A   1      38.033  31.095  30.290  1.00  0.00     0.173 A 
ATOM     79  C   UNL A   1      39.094  30.420  32.332  1.00  0.00     0.173 A 
ATOM     80  F   UNL A   1      38.046  31.264  28.959  1.00  0.00    -0.203 F 
ATOM     81  C   UNL A   1      36.911  31.505  31.007  1.00  0.00     0.198 A 
ATOM     82  C   UNL A   1      37.957  30.800  33.046  1.00  0.00     0.198 A 
ATOM     83  F   UNL A   1      40.134  29.904  33.003  1.00  0.00    -0.203 F 
ATOM     84  F   UNL A   1      35.877  32.067  30.366  1.00  0.00    -0.200 F 
ATOM     85  C   UNL A   1      36.871  31.352  32.385  1.00  0.00     0.200 A 
ATOM     86  F   UNL A   1      37.917  30.632  34.375  1.00  0.00    -0.200 F 
ATOM     87  F   UNL A   1      35.792  31.744  33.075  1.00  0.00    -0.200 F 
ENDBRANCH  53  77
BRANCH  65  88
ATOM     88  C   UNL A   1      44.829  34.001  28.830  1.00  0.00     0.064 A 
ATOM     89  C   UNL A   1      44.454  34.976  27.891  1.00  0.00     0.173 A 
ATOM     90  C   UNL A   1      45.609  34.409  29.923  1.00  0.00     0.173 A 
ATOM     91  F   UNL A   1      43.717  34.636  26.823  1.00  0.00    -0.203 F 
ATOM     92  C   UNL A   1      44.886  36.292  28.017  1.00  0.00     0.198 A 
ATOM     93  C   UNL A   1      46.004  35.735  30.066  1.00  0.00     0.198 A 
ATOM     94  F   UNL A   1      45.985  33.521  30.856  1.00  0.00    -0.203 F 
ATOM     95  F   UNL A   1      44.579  37.188  27.068  1.00  0.00    -0.200 F 
ATOM     96  C   UNL A   1      45.656  36.672  29.105  1.00  0.00     0.200 A 
ATOM     97  F   UNL A   1      46.732  36.105  31.130  1.00  0.00    -0.200 F 
ATOM     98  F   UNL A   1      46.075  37.940  29.222  1.00  0.00    -0.200 F 
ENDBRANCH  65  88
ENDBRANCH  39  40
ENDBRANCH  31  34
ENDBRANCH  29  30
ENDBRANCH  28  29
ENDBRANCH   1  28
TORSDOF 14
ENDMDL
