MODEL 1
REMARK VINA RESULT:     -13.3      0.000      0.000
REMARK SMILES CN(C(=O)C[C@@H]1SC(=O)N(c2ccccc2)C1=O)c1ccccc1C(=O)NCCCNC(=O)c1ccc(-c2c3nc(c(-c4c(F)c(F)c(F)c(F)c4F)c4ccc([nH]4)c(-c4c(F)c(F)c(F)c(F)c4F)c4nc(c(-c5c(F)c(F)c(F)c(F)c5F)c5ccc2[nH]5)C=C4)C=C3)cc1
REMARK SMILES IDX 25 1 26 2 27 3 24 5 19 6 20 7 21 8 23 9 22 10 2 11 1 12 3 13
REMARK SMILES IDX 4 14 5 15 6 16 7 17 17 18 8 19 10 20 18 21 9 22 11 23 12 24
REMARK SMILES IDX 16 25 13 26 15 27 14 28 28 29 29 30 30 31 31 32 32 33 33 35
REMARK SMILES IDX 34 36 35 37 96 38 36 39 95 40 37 41 38 42 39 43 89 44 40 45
REMARK SMILES IDX 94 46 88 47 90 48 41 49 93 50 87 51 86 52 42 54 74 55 54 56
REMARK SMILES IDX 73 57 55 58 58 59 72 60 91 61 56 62 57 63 71 65 92 66 59 67
REMARK SMILES IDX 43 68 44 69 52 70 45 71 46 72 50 73 53 74 47 75 48 76 51 77
REMARK SMILES IDX 49 78 75 79 76 80 84 81 77 82 78 83 82 84 85 85 79 86 80 87
REMARK SMILES IDX 83 88 81 89 60 90 61 91 69 92 62 93 63 94 67 95 70 96 64 97
REMARK SMILES IDX 65 98 68 99 66 100
REMARK H PARENT 27 4 31 34 90 53 58 64
REMARK Flexibility Score: inf
ROOT
ATOM      1  C   UNL A   1      30.574  26.218  25.070  1.00  0.00     0.253 C 
ATOM      2  O   UNL A   1      30.267  25.056  24.796  1.00  0.00    -0.269 OA
ATOM      3  N   UNL A   1      30.866  26.514  26.384  1.00  0.00    -0.352 N 
ATOM      4  H   UNL A   1      30.679  25.804  27.040  1.00  0.00     0.163 HD
ENDROOT
BRANCH   1   5
ATOM      5  C   UNL A   1      30.505  27.252  23.990  1.00  0.00     0.063 A 
ATOM      6  C   UNL A   1      31.551  27.691  23.143  1.00  0.00     0.056 A 
ATOM      7  C   UNL A   1      31.296  28.760  22.261  1.00  0.00     0.027 A 
ATOM      8  C   UNL A   1      30.028  29.338  22.162  1.00  0.00     0.002 A 
ATOM      9  C   UNL A   1      29.228  27.843  23.866  1.00  0.00     0.016 A 
ATOM     10  C   UNL A   1      28.989  28.869  22.955  1.00  0.00     0.001 A 
BRANCH   6  11
ATOM     11  N   UNL A   1      32.837  27.050  23.036  1.00  0.00    -0.315 N 
ATOM     12  C   UNL A   1      33.979  27.900  23.354  1.00  0.00     0.153 C 
BRANCH  11  13
ATOM     13  C   UNL A   1      32.912  25.668  22.817  1.00  0.00     0.228 C 
ATOM     14  O   UNL A   1      32.197  25.089  21.991  1.00  0.00    -0.274 OA
BRANCH  13  15
ATOM     15  C   UNL A   1      33.965  24.834  23.545  1.00  0.00     0.125 C 
BRANCH  15  16
ATOM     16  C   UNL A   1      33.332  23.848  24.538  1.00  0.00     0.156 C 
ATOM     17  S   UNL A   1      34.096  23.815  26.186  1.00  0.00    -0.050 SA
ATOM     18  C   UNL A   1      33.419  22.406  24.062  1.00  0.00     0.248 C 
ATOM     19  C   UNL A   1      33.989  22.063  26.305  1.00  0.00     0.293 C 
ATOM     20  N   UNL A   1      33.627  21.520  25.102  1.00  0.00    -0.240 N 
ATOM     21  O   UNL A   1      33.258  22.096  22.886  1.00  0.00    -0.273 OA
ATOM     22  O   UNL A   1      34.279  21.487  27.350  1.00  0.00    -0.261 OA
BRANCH  20  23
ATOM     23  C   UNL A   1      33.621  20.114  24.872  1.00  0.00     0.053 A 
ATOM     24  C   UNL A   1      34.827  19.427  24.718  1.00  0.00     0.027 A 
ATOM     25  C   UNL A   1      32.431  19.392  24.728  1.00  0.00     0.027 A 
ATOM     26  C   UNL A   1      34.836  18.058  24.433  1.00  0.00     0.002 A 
ATOM     27  C   UNL A   1      32.435  18.034  24.404  1.00  0.00     0.002 A 
ATOM     28  C   UNL A   1      33.641  17.363  24.265  1.00  0.00     0.000 A 
ENDBRANCH  20  23
ENDBRANCH  15  16
ENDBRANCH  13  15
ENDBRANCH  11  13
ENDBRANCH   6  11
ENDBRANCH   1   5
BRANCH   3  29
ATOM     29  C   UNL A   1      31.408  27.736  26.914  1.00  0.00     0.118 C 
BRANCH  29  30
ATOM     30  C   UNL A   1      32.900  27.965  26.806  1.00  0.00     0.042 C 
BRANCH  30  31
ATOM     31  C   UNL A   1      33.395  29.273  26.220  1.00  0.00     0.118 C 
BRANCH  31  32
ATOM     32  N   UNL A   1      32.919  30.487  26.850  1.00  0.00    -0.352 N 
ATOM     33  C   UNL A   1      33.620  31.502  27.446  1.00  0.00     0.251 C 
ATOM     34  H   UNL A   1      31.941  30.602  26.850  1.00  0.00     0.163 HD
ATOM     35  O   UNL A   1      33.082  32.595  27.595  1.00  0.00    -0.269 OA
BRANCH  33  36
ATOM     36  C   UNL A   1      34.960  31.285  28.026  1.00  0.00     0.039 A 
ATOM     37  C   UNL A   1      35.196  30.037  28.607  1.00  0.00     0.014 A 
ATOM     38  C   UNL A   1      35.947  32.262  28.085  1.00  0.00     0.014 A 
ATOM     39  C   UNL A   1      36.395  29.728  29.219  1.00  0.00     0.010 A 
ATOM     40  C   UNL A   1      37.185  31.945  28.641  1.00  0.00     0.010 A 
ATOM     41  C   UNL A   1      37.400  30.681  29.221  1.00  0.00    -0.014 A 
BRANCH  41  42
ATOM     42  C   UNL A   1      38.629  30.429  29.982  1.00  0.00     0.031 A 
ATOM     43  C   UNL A   1      39.646  29.538  29.353  1.00  0.00     0.074 A 
ATOM     44  C   UNL A   1      38.805  30.992  31.188  1.00  0.00     0.049 A 
ATOM     45  N   UNL A   1      40.631  28.889  29.900  1.00  0.00    -0.248 NA
ATOM     46  C   UNL A   1      39.512  29.336  27.899  1.00  0.00     0.031 C 
ATOM     47  C   UNL A   1      37.927  31.993  31.795  1.00  0.00     0.029 A 
ATOM     48  N   UNL A   1      39.775  30.778  32.127  1.00  0.00    -0.354 N 
ATOM     49  C   UNL A   1      41.199  28.150  28.871  1.00  0.00     0.074 A 
ATOM     50  C   UNL A   1      40.457  28.439  27.666  1.00  0.00     0.031 C 
ATOM     51  C   UNL A   1      38.383  32.284  33.024  1.00  0.00     0.029 A 
ATOM     52  C   UNL A   1      39.528  31.429  33.310  1.00  0.00     0.049 A 
ATOM     53  H   UNL A   1      40.569  30.217  31.970  1.00  0.00     0.167 HD
ATOM     54  C   UNL A   1      42.238  27.291  28.957  1.00  0.00     0.037 A 
ATOM     55  C   UNL A   1      40.130  31.279  34.503  1.00  0.00     0.037 A 
ATOM     56  C   UNL A   1      42.940  27.051  30.188  1.00  0.00     0.049 A 
ATOM     57  C   UNL A   1      41.234  30.256  34.599  1.00  0.00     0.074 A 
ATOM     58  C   UNL A   1      43.970  26.171  30.451  1.00  0.00     0.029 A 
ATOM     59  N   UNL A   1      42.667  27.724  31.376  1.00  0.00    -0.354 N 
ATOM     60  N   UNL A   1      41.719  29.472  33.662  1.00  0.00    -0.248 NA
ATOM     61  C   UNL A   1      41.856  30.077  35.914  1.00  0.00     0.031 C 
ATOM     62  C   UNL A   1      44.297  26.289  31.808  1.00  0.00     0.029 A 
ATOM     63  C   UNL A   1      43.503  27.276  32.378  1.00  0.00     0.049 A 
ATOM     64  H   UNL A   1      41.978  28.419  31.484  1.00  0.00     0.167 HD
ATOM     65  C   UNL A   1      42.719  28.725  34.265  1.00  0.00     0.074 A 
ATOM     66  C   UNL A   1      42.775  29.159  35.649  1.00  0.00     0.031 C 
ATOM     67  C   UNL A   1      43.519  27.764  33.736  1.00  0.00     0.037 A 
BRANCH  54  68
ATOM     68  C   UNL A   1      42.585  26.519  27.720  1.00  0.00     0.064 A 
ATOM     69  C   UNL A   1      42.002  25.275  27.430  1.00  0.00     0.173 A 
ATOM     70  C   UNL A   1      43.574  26.997  26.846  1.00  0.00     0.173 A 
ATOM     71  F   UNL A   1      41.077  24.756  28.252  1.00  0.00    -0.203 F 
ATOM     72  C   UNL A   1      42.424  24.522  26.336  1.00  0.00     0.198 A 
ATOM     73  C   UNL A   1      43.974  26.254  25.738  1.00  0.00     0.198 A 
ATOM     74  F   UNL A   1      44.174  28.172  27.082  1.00  0.00    -0.203 F 
ATOM     75  F   UNL A   1      41.906  23.304  26.123  1.00  0.00    -0.200 F 
ATOM     76  C   UNL A   1      43.408  25.012  25.491  1.00  0.00     0.200 A 
ATOM     77  F   UNL A   1      44.926  26.729  24.923  1.00  0.00    -0.200 F 
ATOM     78  F   UNL A   1      43.826  24.279  24.449  1.00  0.00    -0.200 F 
ENDBRANCH  54  68
BRANCH  55  79
ATOM     79  C   UNL A   1      39.667  32.052  35.684  1.00  0.00     0.064 A 
ATOM     80  C   UNL A   1      40.253  33.280  36.017  1.00  0.00     0.173 A 
ATOM     81  C   UNL A   1      38.628  31.586  36.506  1.00  0.00     0.173 A 
ATOM     82  F   UNL A   1      41.263  33.762  35.277  1.00  0.00    -0.203 F 
ATOM     83  C   UNL A   1      39.829  34.005  37.131  1.00  0.00     0.198 A 
ATOM     84  C   UNL A   1      38.186  32.324  37.603  1.00  0.00     0.198 A 
ATOM     85  F   UNL A   1      38.031  30.415  36.237  1.00  0.00    -0.203 F 
ATOM     86  F   UNL A   1      40.437  35.156  37.450  1.00  0.00    -0.200 F 
ATOM     87  C   UNL A   1      38.793  33.529  37.919  1.00  0.00     0.200 A 
ATOM     88  F   UNL A   1      37.176  31.865  38.355  1.00  0.00    -0.200 F 
ATOM     89  F   UNL A   1      38.385  34.226  38.988  1.00  0.00    -0.200 F 
ENDBRANCH  55  79
BRANCH  67  90
ATOM     90  C   UNL A   1      44.543  27.170  34.651  1.00  0.00     0.064 A 
ATOM     91  C   UNL A   1      45.819  27.733  34.788  1.00  0.00     0.173 A 
ATOM     92  C   UNL A   1      44.216  26.059  35.441  1.00  0.00     0.173 A 
ATOM     93  F   UNL A   1      46.177  28.786  34.038  1.00  0.00    -0.203 F 
ATOM     94  C   UNL A   1      46.741  27.190  35.676  1.00  0.00     0.198 A 
ATOM     95  C   UNL A   1      45.130  25.537  36.348  1.00  0.00     0.198 A 
ATOM     96  F   UNL A   1      43.003  25.494  35.345  1.00  0.00    -0.203 F 
ATOM     97  F   UNL A   1      47.970  27.715  35.766  1.00  0.00    -0.200 F 
ATOM     98  C   UNL A   1      46.393  26.100  36.461  1.00  0.00     0.200 A 
ATOM     99  F   UNL A   1      44.789  24.494  37.116  1.00  0.00    -0.200 F 
ATOM    100  F   UNL A   1      47.279  25.586  37.325  1.00  0.00    -0.200 F 
ENDBRANCH  67  90
ENDBRANCH  41  42
ENDBRANCH  33  36
ENDBRANCH  31  32
ENDBRANCH  30  31
ENDBRANCH  29  30
ENDBRANCH   3  29
TORSDOF 15
ENDMDL
MODEL 2
REMARK VINA RESULT:     -13.1      4.918     10.711
REMARK SMILES CN(C(=O)C[C@@H]1SC(=O)N(c2ccccc2)C1=O)c1ccccc1C(=O)NCCCNC(=O)c1ccc(-c2c3nc(c(-c4c(F)c(F)c(F)c(F)c4F)c4ccc([nH]4)c(-c4c(F)c(F)c(F)c(F)c4F)c4nc(c(-c5c(F)c(F)c(F)c(F)c5F)c5ccc2[nH]5)C=C4)C=C3)cc1
REMARK SMILES IDX 25 1 26 2 27 3 24 5 19 6 20 7 21 8 23 9 22 10 2 11 1 12 3 13
REMARK SMILES IDX 4 14 5 15 6 16 7 17 17 18 8 19 10 20 18 21 9 22 11 23 12 24
REMARK SMILES IDX 16 25 13 26 15 27 14 28 28 29 29 30 30 31 31 32 32 33 33 35
REMARK SMILES IDX 34 36 35 37 96 38 36 39 95 40 37 41 38 42 39 43 89 44 40 45
REMARK SMILES IDX 94 46 88 47 90 48 41 49 93 50 87 51 86 52 42 54 74 55 54 56
REMARK SMILES IDX 73 57 55 58 58 59 72 60 91 61 56 62 57 63 71 65 92 66 59 67
REMARK SMILES IDX 43 68 44 69 52 70 45 71 46 72 50 73 53 74 47 75 48 76 51 77
REMARK SMILES IDX 49 78 75 79 76 80 84 81 77 82 78 83 82 84 85 85 79 86 80 87
REMARK SMILES IDX 83 88 81 89 60 90 61 91 69 92 62 93 63 94 67 95 70 96 64 97
REMARK SMILES IDX 65 98 68 99 66 100
REMARK H PARENT 27 4 31 34 90 53 58 64
REMARK Flexibility Score: inf
ROOT
ATOM      1  C   UNL A   1      35.555  32.150  31.378  1.00  0.00     0.253 C 
ATOM      2  O   UNL A   1      35.592  31.114  32.044  1.00  0.00    -0.269 OA
ATOM      3  N   UNL A   1      34.404  32.418  30.668  1.00  0.00    -0.352 N 
ATOM      4  H   UNL A   1      33.737  31.694  30.635  1.00  0.00     0.163 HD
ENDROOT
BRANCH   1   5
ATOM      5  C   UNL A   1      36.788  32.992  31.292  1.00  0.00     0.063 A 
ATOM      6  C   UNL A   1      37.383  33.768  32.317  1.00  0.00     0.056 A 
ATOM      7  C   UNL A   1      38.488  34.578  31.992  1.00  0.00     0.027 A 
ATOM      8  C   UNL A   1      39.041  34.577  30.708  1.00  0.00     0.002 A 
ATOM      9  C   UNL A   1      37.369  32.998  30.005  1.00  0.00     0.016 A 
ATOM     10  C   UNL A   1      38.490  33.775  29.718  1.00  0.00     0.001 A 
BRANCH   6  11
ATOM     11  N   UNL A   1      37.006  33.706  33.707  1.00  0.00    -0.315 N 
ATOM     12  C   UNL A   1      35.899  34.577  34.086  1.00  0.00     0.153 C 
BRANCH  11  13
ATOM     13  C   UNL A   1      37.574  32.733  34.542  1.00  0.00     0.228 C 
ATOM     14  O   UNL A   1      37.098  32.449  35.646  1.00  0.00    -0.274 OA
BRANCH  13  15
ATOM     15  C   UNL A   1      38.772  31.917  34.059  1.00  0.00     0.125 C 
BRANCH  15  16
ATOM     16  C   UNL A   1      39.337  31.016  35.167  1.00  0.00     0.156 C 
ATOM     17  S   UNL A   1      40.575  31.798  36.242  1.00  0.00    -0.050 SA
ATOM     18  C   UNL A   1      40.050  29.791  34.614  1.00  0.00     0.248 C 
ATOM     19  C   UNL A   1      41.588  30.359  36.283  1.00  0.00     0.293 C 
ATOM     20  N   UNL A   1      41.154  29.439  35.368  1.00  0.00    -0.240 N 
ATOM     21  O   UNL A   1      39.628  29.174  33.642  1.00  0.00    -0.273 OA
ATOM     22  O   UNL A   1      42.567  30.303  37.022  1.00  0.00    -0.261 OA
BRANCH  20  23
ATOM     23  C   UNL A   1      41.885  28.252  35.078  1.00  0.00     0.053 A 
ATOM     24  C   UNL A   1      42.868  28.262  34.086  1.00  0.00     0.027 A 
ATOM     25  C   UNL A   1      41.607  27.037  35.713  1.00  0.00     0.027 A 
ATOM     26  C   UNL A   1      43.552  27.090  33.748  1.00  0.00     0.002 A 
ATOM     27  C   UNL A   1      42.260  25.857  35.352  1.00  0.00     0.002 A 
ATOM     28  C   UNL A   1      43.240  25.885  34.373  1.00  0.00     0.000 A 
ENDBRANCH  20  23
ENDBRANCH  15  16
ENDBRANCH  13  15
ENDBRANCH  11  13
ENDBRANCH   6  11
ENDBRANCH   1   5
BRANCH   3  29
ATOM     29  C   UNL A   1      34.060  33.626  29.968  1.00  0.00     0.118 C 
BRANCH  29  30
ATOM     30  C   UNL A   1      33.995  33.586  28.456  1.00  0.00     0.042 C 
BRANCH  30  31
ATOM     31  C   UNL A   1      34.967  32.693  27.710  1.00  0.00     0.118 C 
BRANCH  31  32
ATOM     32  N   UNL A   1      34.454  31.418  27.251  1.00  0.00    -0.352 N 
ATOM     33  C   UNL A   1      34.801  30.145  27.623  1.00  0.00     0.251 C 
ATOM     34  H   UNL A   1      33.747  31.474  26.568  1.00  0.00     0.163 HD
ATOM     35  O   UNL A   1      34.023  29.223  27.398  1.00  0.00    -0.269 OA
BRANCH  33  36
ATOM     36  C   UNL A   1      36.135  29.833  28.172  1.00  0.00     0.039 A 
ATOM     37  C   UNL A   1      37.221  29.995  27.309  1.00  0.00     0.014 A 
ATOM     38  C   UNL A   1      36.349  29.328  29.449  1.00  0.00     0.014 A 
ATOM     39  C   UNL A   1      38.513  29.695  27.692  1.00  0.00     0.010 A 
ATOM     40  C   UNL A   1      37.653  29.081  29.873  1.00  0.00     0.010 A 
ATOM     41  C   UNL A   1      38.732  29.252  28.987  1.00  0.00    -0.014 A 
BRANCH  41  42
ATOM     42  C   UNL A   1      40.071  28.797  29.375  1.00  0.00     0.031 A 
ATOM     43  C   UNL A   1      40.903  29.739  30.176  1.00  0.00     0.074 A 
ATOM     44  C   UNL A   1      40.502  27.578  29.013  1.00  0.00     0.049 A 
ATOM     45  N   UNL A   1      42.190  29.754  30.367  1.00  0.00    -0.248 NA
ATOM     46  C   UNL A   1      40.174  30.837  30.838  1.00  0.00     0.031 C 
ATOM     47  C   UNL A   1      39.691  26.547  28.365  1.00  0.00     0.029 A 
ATOM     48  N   UNL A   1      41.743  27.014  29.121  1.00  0.00    -0.354 N 
ATOM     49  C   UNL A   1      42.436  30.895  31.117  1.00  0.00     0.074 A 
ATOM     50  C   UNL A   1      41.167  31.541  31.357  1.00  0.00     0.031 C 
ATOM     51  C   UNL A   1      40.466  25.483  28.103  1.00  0.00     0.029 A 
ATOM     52  C   UNL A   1      41.836  25.798  28.489  1.00  0.00     0.049 A 
ATOM     53  H   UNL A   1      42.492  27.435  29.602  1.00  0.00     0.167 HD
ATOM     54  C   UNL A   1      43.635  31.356  31.538  1.00  0.00     0.037 A 
ATOM     55  C   UNL A   1      42.931  25.073  28.201  1.00  0.00     0.037 A 
ATOM     56  C   UNL A   1      44.864  30.662  31.270  1.00  0.00     0.049 A 
ATOM     57  C   UNL A   1      44.267  25.643  28.606  1.00  0.00     0.074 A 
ATOM     58  C   UNL A   1      46.159  31.027  31.575  1.00  0.00     0.029 A 
ATOM     59  N   UNL A   1      44.930  29.430  30.625  1.00  0.00    -0.354 N 
ATOM     60  N   UNL A   1      44.531  26.771  29.227  1.00  0.00    -0.248 NA
ATOM     61  C   UNL A   1      45.454  24.860  28.252  1.00  0.00     0.031 C 
ATOM     62  C   UNL A   1      47.011  30.029  31.083  1.00  0.00     0.029 A 
ATOM     63  C   UNL A   1      46.244  29.022  30.515  1.00  0.00     0.049 A 
ATOM     64  H   UNL A   1      44.152  28.924  30.295  1.00  0.00     0.167 HD
ATOM     65  C   UNL A   1      45.909  26.823  29.362  1.00  0.00     0.074 A 
ATOM     66  C   UNL A   1      46.424  25.604  28.764  1.00  0.00     0.031 C 
ATOM     67  C   UNL A   1      46.689  27.784  29.921  1.00  0.00     0.037 A 
BRANCH  54  68
ATOM     68  C   UNL A   1      43.646  32.685  32.232  1.00  0.00     0.064 A 
ATOM     69  C   UNL A   1      43.660  32.794  33.632  1.00  0.00     0.173 A 
ATOM     70  C   UNL A   1      43.566  33.870  31.485  1.00  0.00     0.173 A 
ATOM     71  F   UNL A   1      43.700  31.690  34.394  1.00  0.00    -0.203 F 
ATOM     72  C   UNL A   1      43.552  34.035  34.256  1.00  0.00     0.198 A 
ATOM     73  C   UNL A   1      43.487  35.111  32.112  1.00  0.00     0.198 A 
ATOM     74  F   UNL A   1      43.535  33.824  30.145  1.00  0.00    -0.203 F 
ATOM     75  F   UNL A   1      43.492  34.108  35.593  1.00  0.00    -0.200 F 
ATOM     76  C   UNL A   1      43.467  35.191  33.496  1.00  0.00     0.200 A 
ATOM     77  F   UNL A   1      43.404  36.228  31.376  1.00  0.00    -0.200 F 
ATOM     78  F   UNL A   1      43.347  36.383  34.098  1.00  0.00    -0.200 F 
ENDBRANCH  54  68
BRANCH  55  79
ATOM     79  C   UNL A   1      42.814  23.795  27.453  1.00  0.00     0.064 A 
ATOM     80  C   UNL A   1      42.393  22.622  28.092  1.00  0.00     0.173 A 
ATOM     81  C   UNL A   1      43.115  23.715  26.083  1.00  0.00     0.173 A 
ATOM     82  F   UNL A   1      42.111  22.638  29.403  1.00  0.00    -0.203 F 
ATOM     83  C   UNL A   1      42.291  21.417  27.397  1.00  0.00     0.198 A 
ATOM     84  C   UNL A   1      42.987  22.516  25.383  1.00  0.00     0.198 A 
ATOM     85  F   UNL A   1      43.525  24.806  25.419  1.00  0.00    -0.203 F 
ATOM     86  F   UNL A   1      41.927  20.301  28.044  1.00  0.00    -0.200 F 
ATOM     87  C   UNL A   1      42.583  21.367  26.042  1.00  0.00     0.200 A 
ATOM     88  F   UNL A   1      43.258  22.476  24.071  1.00  0.00    -0.200 F 
ATOM     89  F   UNL A   1      42.483  20.209  25.375  1.00  0.00    -0.200 F 
ENDBRANCH  55  79
BRANCH  67  90
ATOM     90  C   UNL A   1      48.161  27.517  29.949  1.00  0.00     0.064 A 
ATOM     91  C   UNL A   1      48.756  26.798  30.994  1.00  0.00     0.173 A 
ATOM     92  C   UNL A   1      48.969  27.938  28.884  1.00  0.00     0.173 A 
ATOM     93  F   UNL A   1      48.020  26.392  32.040  1.00  0.00    -0.203 F 
ATOM     94  C   UNL A   1      50.119  26.525  30.979  1.00  0.00     0.198 A 
ATOM     95  C   UNL A   1      50.326  27.638  28.859  1.00  0.00     0.198 A 
ATOM     96  F   UNL A   1      48.437  28.623  27.860  1.00  0.00    -0.203 F 
ATOM     97  F   UNL A   1      50.680  25.871  32.005  1.00  0.00    -0.200 F 
ATOM     98  C   UNL A   1      50.900  26.936  29.908  1.00  0.00     0.200 A 
ATOM     99  F   UNL A   1      51.076  28.023  27.817  1.00  0.00    -0.200 F 
ATOM    100  F   UNL A   1      52.211  26.660  29.890  1.00  0.00    -0.200 F 
ENDBRANCH  67  90
ENDBRANCH  41  42
ENDBRANCH  33  36
ENDBRANCH  31  32
ENDBRANCH  30  31
ENDBRANCH  29  30
ENDBRANCH   3  29
TORSDOF 15
ENDMDL
MODEL 3
REMARK VINA RESULT:     -12.9      2.757      8.341
REMARK SMILES CN(C(=O)C[C@@H]1SC(=O)N(c2ccccc2)C1=O)c1ccccc1C(=O)NCCCNC(=O)c1ccc(-c2c3nc(c(-c4c(F)c(F)c(F)c(F)c4F)c4ccc([nH]4)c(-c4c(F)c(F)c(F)c(F)c4F)c4nc(c(-c5c(F)c(F)c(F)c(F)c5F)c5ccc2[nH]5)C=C4)C=C3)cc1
REMARK SMILES IDX 25 1 26 2 27 3 24 5 19 6 20 7 21 8 23 9 22 10 2 11 1 12 3 13
REMARK SMILES IDX 4 14 5 15 6 16 7 17 17 18 8 19 10 20 18 21 9 22 11 23 12 24
REMARK SMILES IDX 16 25 13 26 15 27 14 28 28 29 29 30 30 31 31 32 32 33 33 35
REMARK SMILES IDX 34 36 35 37 96 38 36 39 95 40 37 41 38 42 39 43 89 44 40 45
REMARK SMILES IDX 94 46 88 47 90 48 41 49 93 50 87 51 86 52 42 54 74 55 54 56
REMARK SMILES IDX 73 57 55 58 58 59 72 60 91 61 56 62 57 63 71 65 92 66 59 67
REMARK SMILES IDX 43 68 44 69 52 70 45 71 46 72 50 73 53 74 47 75 48 76 51 77
REMARK SMILES IDX 49 78 75 79 76 80 84 81 77 82 78 83 82 84 85 85 79 86 80 87
REMARK SMILES IDX 83 88 81 89 60 90 61 91 69 92 62 93 63 94 67 95 70 96 64 97
REMARK SMILES IDX 65 98 68 99 66 100
REMARK H PARENT 27 4 31 34 90 53 58 64
REMARK Flexibility Score: inf
ROOT
ATOM      1  C   UNL A   1      34.667  22.215  26.616  1.00  0.00     0.253 C 
ATOM      2  O   UNL A   1      34.150  22.229  27.735  1.00  0.00    -0.269 OA
ATOM      3  N   UNL A   1      36.003  22.542  26.520  1.00  0.00    -0.352 N 
ATOM      4  H   UNL A   1      36.421  22.895  27.339  1.00  0.00     0.163 HD
ENDROOT
BRANCH   1   5
ATOM      5  C   UNL A   1      33.798  21.953  25.427  1.00  0.00     0.063 A 
ATOM      6  C   UNL A   1      32.927  22.859  24.773  1.00  0.00     0.056 A 
ATOM      7  C   UNL A   1      32.113  22.375  23.731  1.00  0.00     0.027 A 
ATOM      8  C   UNL A   1      32.198  21.050  23.293  1.00  0.00     0.002 A 
ATOM      9  C   UNL A   1      33.876  20.623  24.962  1.00  0.00     0.016 A 
ATOM     10  C   UNL A   1      33.092  20.177  23.899  1.00  0.00     0.001 A 
BRANCH   6  11
ATOM     11  N   UNL A   1      32.891  24.278  25.023  1.00  0.00    -0.315 N 
ATOM     12  C   UNL A   1      33.932  25.050  24.354  1.00  0.00     0.153 C 
BRANCH  11  13
ATOM     13  C   UNL A   1      31.808  24.837  25.715  1.00  0.00     0.228 C 
ATOM     14  O   UNL A   1      31.683  24.738  26.941  1.00  0.00    -0.274 OA
BRANCH  13  15
ATOM     15  C   UNL A   1      30.776  25.681  24.968  1.00  0.00     0.125 C 
BRANCH  15  16
ATOM     16  C   UNL A   1      31.361  27.022  24.499  1.00  0.00     0.156 C 
ATOM     17  S   UNL A   1      31.918  28.129  25.828  1.00  0.00    -0.050 SA
ATOM     18  C   UNL A   1      30.355  27.857  23.722  1.00  0.00     0.248 C 
ATOM     19  C   UNL A   1      31.272  29.561  25.035  1.00  0.00     0.293 C 
ATOM     20  N   UNL A   1      30.489  29.210  23.970  1.00  0.00    -0.240 N 
ATOM     21  O   UNL A   1      29.568  27.355  22.926  1.00  0.00    -0.273 OA
ATOM     22  O   UNL A   1      31.498  30.681  25.485  1.00  0.00    -0.261 OA
BRANCH  20  23
ATOM     23  C   UNL A   1      29.714  30.162  23.248  1.00  0.00     0.053 A 
ATOM     24  C   UNL A   1      28.929  31.089  23.938  1.00  0.00     0.027 A 
ATOM     25  C   UNL A   1      29.656  30.164  21.850  1.00  0.00     0.027 A 
ATOM     26  C   UNL A   1      28.116  31.991  23.244  1.00  0.00     0.002 A 
ATOM     27  C   UNL A   1      28.817  31.036  21.155  1.00  0.00     0.002 A 
ATOM     28  C   UNL A   1      28.051  31.958  21.852  1.00  0.00     0.000 A 
ENDBRANCH  20  23
ENDBRANCH  15  16
ENDBRANCH  13  15
ENDBRANCH  11  13
ENDBRANCH   6  11
ENDBRANCH   1   5
BRANCH   3  29
ATOM     29  C   UNL A   1      36.858  22.431  25.370  1.00  0.00     0.118 C 
BRANCH  29  30
ATOM     30  C   UNL A   1      38.063  21.519  25.457  1.00  0.00     0.042 C 
BRANCH  30  31
ATOM     31  C   UNL A   1      39.287  22.000  26.211  1.00  0.00     0.118 C 
BRANCH  31  32
ATOM     32  N   UNL A   1      40.537  22.008  25.480  1.00  0.00    -0.352 N 
ATOM     33  C   UNL A   1      41.716  22.647  25.761  1.00  0.00     0.251 C 
ATOM     34  H   UNL A   1      40.542  21.470  24.655  1.00  0.00     0.163 HD
ATOM     35  O   UNL A   1      42.752  22.253  25.234  1.00  0.00    -0.269 OA
BRANCH  33  36
ATOM     36  C   UNL A   1      41.758  23.873  26.581  1.00  0.00     0.039 A 
ATOM     37  C   UNL A   1      41.515  23.720  27.948  1.00  0.00     0.014 A 
ATOM     38  C   UNL A   1      41.951  25.148  26.062  1.00  0.00     0.014 A 
ATOM     39  C   UNL A   1      41.485  24.797  28.813  1.00  0.00     0.010 A 
ATOM     40  C   UNL A   1      41.988  26.238  26.930  1.00  0.00     0.010 A 
ATOM     41  C   UNL A   1      41.740  26.060  28.303  1.00  0.00    -0.014 A 
BRANCH  41  42
ATOM     42  C   UNL A   1      41.579  27.231  29.172  1.00  0.00     0.031 A 
ATOM     43  C   UNL A   1      42.546  27.380  30.297  1.00  0.00     0.074 A 
ATOM     44  C   UNL A   1      40.597  28.116  28.938  1.00  0.00     0.049 A 
ATOM     45  N   UNL A   1      42.452  28.092  31.382  1.00  0.00    -0.248 NA
ATOM     46  C   UNL A   1      43.786  26.590  30.188  1.00  0.00     0.031 C 
ATOM     47  C   UNL A   1      39.716  28.119  27.770  1.00  0.00     0.029 A 
ATOM     48  N   UNL A   1      40.165  29.173  29.690  1.00  0.00    -0.354 N 
ATOM     49  C   UNL A   1      43.590  27.790  32.117  1.00  0.00     0.074 A 
ATOM     50  C   UNL A   1      44.364  26.840  31.352  1.00  0.00     0.031 C 
ATOM     51  C   UNL A   1      38.822  29.113  27.900  1.00  0.00     0.029 A 
ATOM     52  C   UNL A   1      39.024  29.754  29.194  1.00  0.00     0.049 A 
ATOM     53  H   UNL A   1      40.626  29.486  30.503  1.00  0.00     0.167 HD
ATOM     54  C   UNL A   1      43.926  28.262  33.338  1.00  0.00     0.037 A 
ATOM     55  C   UNL A   1      38.207  30.649  29.775  1.00  0.00     0.037 A 
ATOM     56  C   UNL A   1      43.113  29.212  34.046  1.00  0.00     0.049 A 
ATOM     57  C   UNL A   1      38.553  31.103  31.170  1.00  0.00     0.074 A 
ATOM     58  C   UNL A   1      43.284  29.739  35.310  1.00  0.00     0.029 A 
ATOM     59  N   UNL A   1      41.957  29.784  33.520  1.00  0.00    -0.354 N 
ATOM     60  N   UNL A   1      39.570  30.752  31.925  1.00  0.00    -0.248 NA
ATOM     61  C   UNL A   1      37.633  32.051  31.804  1.00  0.00     0.031 C 
ATOM     62  C   UNL A   1      42.212  30.606  35.560  1.00  0.00     0.029 A 
ATOM     63  C   UNL A   1      41.400  30.653  34.435  1.00  0.00     0.049 A 
ATOM     64  H   UNL A   1      41.592  29.595  32.625  1.00  0.00     0.167 HD
ATOM     65  C   UNL A   1      39.429  31.454  33.111  1.00  0.00     0.074 A 
ATOM     66  C   UNL A   1      38.229  32.259  32.970  1.00  0.00     0.031 C 
ATOM     67  C   UNL A   1      40.208  31.440  34.223  1.00  0.00     0.037 A 
BRANCH  54  68
ATOM     68  C   UNL A   1      45.153  27.685  33.975  1.00  0.00     0.064 A 
ATOM     69  C   UNL A   1      45.104  26.536  34.781  1.00  0.00     0.173 A 
ATOM     70  C   UNL A   1      46.389  28.335  33.839  1.00  0.00     0.173 A 
ATOM     71  F   UNL A   1      43.940  25.896  34.973  1.00  0.00    -0.203 F 
ATOM     72  C   UNL A   1      46.236  26.085  35.458  1.00  0.00     0.198 A 
ATOM     73  C   UNL A   1      47.525  27.865  34.494  1.00  0.00     0.198 A 
ATOM     74  F   UNL A   1      46.491  29.444  33.093  1.00  0.00    -0.203 F 
ATOM     75  F   UNL A   1      46.147  25.030  36.280  1.00  0.00    -0.200 F 
ATOM     76  C   UNL A   1      47.444  26.748  35.313  1.00  0.00     0.200 A 
ATOM     77  F   UNL A   1      48.692  28.508  34.354  1.00  0.00    -0.200 F 
ATOM     78  F   UNL A   1      48.528  26.323  35.978  1.00  0.00    -0.200 F 
ENDBRANCH  54  68
BRANCH  55  79
ATOM     79  C   UNL A   1      36.979  31.113  29.078  1.00  0.00     0.064 A 
ATOM     80  C   UNL A   1      36.876  32.422  28.590  1.00  0.00     0.173 A 
ATOM     81  C   UNL A   1      35.881  30.259  28.878  1.00  0.00     0.173 A 
ATOM     82  F   UNL A   1      37.888  33.284  28.770  1.00  0.00    -0.203 F 
ATOM     83  C   UNL A   1      35.722  32.864  27.944  1.00  0.00     0.198 A 
ATOM     84  C   UNL A   1      34.738  30.694  28.209  1.00  0.00     0.198 A 
ATOM     85  F   UNL A   1      35.922  28.995  29.325  1.00  0.00    -0.203 F 
ATOM     86  F   UNL A   1      35.636  34.135  27.526  1.00  0.00    -0.200 F 
ATOM     87  C   UNL A   1      34.657  31.999  27.749  1.00  0.00     0.200 A 
ATOM     88  F   UNL A   1      33.716  29.850  28.012  1.00  0.00    -0.200 F 
ATOM     89  F   UNL A   1      33.549  32.424  27.127  1.00  0.00    -0.200 F 
ENDBRANCH  55  79
BRANCH  67  90
ATOM     90  C   UNL A   1      39.804  32.357  35.334  1.00  0.00     0.064 A 
ATOM     91  C   UNL A   1      40.296  33.666  35.421  1.00  0.00     0.173 A 
ATOM     92  C   UNL A   1      38.865  31.934  36.286  1.00  0.00     0.173 A 
ATOM     93  F   UNL A   1      41.208  34.105  34.539  1.00  0.00    -0.203 F 
ATOM     94  C   UNL A   1      39.875  34.516  36.437  1.00  0.00     0.198 A 
ATOM     95  C   UNL A   1      38.425  32.796  37.283  1.00  0.00     0.198 A 
ATOM     96  F   UNL A   1      38.363  30.691  36.235  1.00  0.00    -0.203 F 
ATOM     97  F   UNL A   1      40.386  35.751  36.529  1.00  0.00    -0.200 F 
ATOM     98  C   UNL A   1      38.933  34.084  37.360  1.00  0.00     0.200 A 
ATOM     99  F   UNL A   1      37.505  32.383  38.165  1.00  0.00    -0.200 F 
ATOM    100  F   UNL A   1      38.519  34.910  38.331  1.00  0.00    -0.200 F 
ENDBRANCH  67  90
ENDBRANCH  41  42
ENDBRANCH  33  36
ENDBRANCH  31  32
ENDBRANCH  30  31
ENDBRANCH  29  30
ENDBRANCH   3  29
TORSDOF 15
ENDMDL
