MODEL 1
REMARK VINA RESULT:     -15.5      0.000      0.000
REMARK SMILES Cc1c(C(=O)NCCCNC(=O)c2ccc(-c3c4nc(c(-c5c(F)c(F)c(F)c(F)c5F)c5ccc([nH]5)c(-c5c(F)c(F)c(F)c(F)c5F)c5nc(c(-c6c(F)c(F)c(F)c(F)c6F)c6ccc3[nH]6)C=C5)C=C4)cc2)cccc1-n1c(C)cc(/C=C2/C(=O)NC(=S)N=C2O)c1C
REMARK SMILES IDX 7 1 6 2 4 3 5 4 3 6 1 7 2 8 79 9 76 10 78 11 77 12 80 13
REMARK SMILES IDX 81 14 95 15 82 16 83 17 84 18 96 19 85 20 86 21 87 22 93 23
REMARK SMILES IDX 88 24 89 25 92 26 90 27 91 29 94 30 8 32 9 33 10 34 11 35
REMARK SMILES IDX 12 37 13 38 14 39 75 40 15 41 74 42 16 43 17 44 18 45 68 46
REMARK SMILES IDX 19 47 73 48 67 49 69 50 20 51 72 52 66 53 65 54 21 56 53 57
REMARK SMILES IDX 33 58 52 59 34 60 37 61 51 62 70 63 35 64 36 65 50 67 71 68
REMARK SMILES IDX 38 69 22 70 23 71 31 72 24 73 25 74 29 75 32 76 26 77 27 78
REMARK SMILES IDX 30 79 28 80 54 81 55 82 63 83 56 84 57 85 61 86 64 87 58 88
REMARK SMILES IDX 59 89 62 90 60 91 39 92 40 93 48 94 41 95 42 96 46 97 49 98
REMARK SMILES IDX 43 99 44 100 47 101 45 102
REMARK H PARENT 6 5 89 28 94 31 10 36 69 55 37 66
REMARK Flexibility Score: inf
ROOT
ATOM      1  C   UNL A   1      31.319  29.935  25.716  1.00  0.00     0.118 C 
ENDROOT
BRANCH   1   2
ATOM      2  N   UNL A   1      31.898  29.730  24.393  1.00  0.00    -0.352 N 
ATOM      3  C   UNL A   1      32.648  28.753  23.789  1.00  0.00     0.251 C 
ATOM      4  O   UNL A   1      32.977  28.989  22.621  1.00  0.00    -0.269 OA
ATOM      5  H   UNL A   1      31.702  30.478  23.782  1.00  0.00     0.163 HD
BRANCH   3   6
ATOM      6  C   UNL A   1      33.050  27.426  24.367  1.00  0.00     0.044 A 
ATOM      7  C   UNL A   1      31.306  25.956  23.228  1.00  0.00     0.047 C 
ATOM      8  C   UNL A   1      32.468  26.165  24.136  1.00  0.00    -0.014 A 
ATOM      9  C   UNL A   1      32.964  25.043  24.845  1.00  0.00     0.049 A 
ATOM     10  C   UNL A   1      34.024  27.523  25.388  1.00  0.00     0.014 A 
ATOM     11  C   UNL A   1      33.930  25.157  25.844  1.00  0.00     0.027 A 
ATOM     12  C   UNL A   1      34.449  26.411  26.126  1.00  0.00     0.003 A 
BRANCH   9  13
ATOM     13  N   UNL A   1      32.387  23.766  24.636  1.00  0.00    -0.318 N 
ATOM     14  C   UNL A   1      31.358  23.231  25.392  1.00  0.00     0.020 A 
ATOM     15  C   UNL A   1      32.980  22.747  23.890  1.00  0.00     0.027 A 
ATOM     16  C   UNL A   1      30.678  23.958  26.500  1.00  0.00     0.065 C 
ATOM     17  C   UNL A   1      31.149  21.944  24.941  1.00  0.00     0.031 A 
ATOM     18  C   UNL A   1      32.155  21.636  23.986  1.00  0.00    -0.003 A 
ATOM     19  C   UNL A   1      34.319  22.947  23.249  1.00  0.00     0.065 C 
BRANCH  18  20
ATOM     20  C   UNL A   1      32.327  20.322  23.450  1.00  0.00     0.029 C 
ATOM     21  C   UNL A   1      32.653  19.144  24.014  1.00  0.00     0.102 C 
ATOM     22  C   UNL A   1      32.581  17.957  23.122  1.00  0.00     0.262 C 
ATOM     23  C   UNL A   1      32.995  18.814  25.397  1.00  0.00     0.226 C 
ATOM     24  O   UNL A   1      32.531  18.010  21.900  1.00  0.00    -0.269 OA
ATOM     25  N   UNL A   1      32.529  16.764  23.792  1.00  0.00    -0.297 N 
ATOM     26  N   UNL A   1      32.973  17.650  25.937  1.00  0.00    -0.184 NA
ATOM     27  C   UNL A   1      32.636  16.583  25.149  1.00  0.00     0.203 C 
ATOM     28  H   UNL A   1      32.402  15.955  23.246  1.00  0.00     0.172 HD
ATOM     29  S   UNL A   1      32.401  15.036  25.747  1.00  0.00    -0.038 S 
BRANCH  23  30
ATOM     30  O   UNL A   1      33.439  19.816  26.158  1.00  0.00    -0.493 OA
ATOM     31  H   UNL A   1      33.801  19.636  27.004  1.00  0.00     0.295 HD
ENDBRANCH  23  30
ENDBRANCH  18  20
ENDBRANCH   9  13
ENDBRANCH   3   6
ENDBRANCH   1   2
BRANCH   1  32
ATOM     32  C   UNL A   1      32.096  31.018  26.470  1.00  0.00     0.042 C 
BRANCH  32  33
ATOM     33  C   UNL A   1      33.309  30.581  27.252  1.00  0.00     0.118 C 
BRANCH  33  34
ATOM     34  N   UNL A   1      33.998  31.679  27.931  1.00  0.00    -0.352 N 
ATOM     35  C   UNL A   1      35.209  31.645  28.611  1.00  0.00     0.251 C 
ATOM     36  H   UNL A   1      33.546  32.552  27.903  1.00  0.00     0.163 HD
ATOM     37  O   UNL A   1      35.681  32.640  29.121  1.00  0.00    -0.269 OA
BRANCH  35  38
ATOM     38  C   UNL A   1      35.968  30.373  28.572  1.00  0.00     0.039 A 
ATOM     39  C   UNL A   1      36.202  29.727  29.789  1.00  0.00     0.014 A 
ATOM     40  C   UNL A   1      36.737  30.092  27.451  1.00  0.00     0.014 A 
ATOM     41  C   UNL A   1      37.387  29.016  29.952  1.00  0.00     0.010 A 
ATOM     42  C   UNL A   1      37.981  29.544  27.665  1.00  0.00     0.010 A 
ATOM     43  C   UNL A   1      38.331  29.048  28.931  1.00  0.00    -0.014 A 
BRANCH  43  44
ATOM     44  C   UNL A   1      39.728  28.640  29.069  1.00  0.00     0.031 A 
ATOM     45  C   UNL A   1      40.093  27.237  28.758  1.00  0.00     0.074 A 
ATOM     46  C   UNL A   1      40.699  29.554  29.298  1.00  0.00     0.049 A 
ATOM     47  N   UNL A   1      41.265  26.729  28.924  1.00  0.00    -0.248 NA
ATOM     48  C   UNL A   1      39.117  26.260  28.284  1.00  0.00     0.031 C 
ATOM     49  C   UNL A   1      42.129  29.399  29.029  1.00  0.00     0.029 A 
ATOM     50  N   UNL A   1      40.616  30.765  30.010  1.00  0.00    -0.354 N 
ATOM     51  C   UNL A   1      41.275  25.470  28.369  1.00  0.00     0.074 A 
ATOM     52  C   UNL A   1      39.896  25.202  28.052  1.00  0.00     0.031 C 
ATOM     53  C   UNL A   1      42.815  30.262  29.791  1.00  0.00     0.029 A 
ATOM     54  C   UNL A   1      41.862  30.884  30.688  1.00  0.00     0.049 A 
ATOM     55  H   UNL A   1      39.859  31.394  30.036  1.00  0.00     0.167 HD
ATOM     56  C   UNL A   1      42.479  24.856  28.179  1.00  0.00     0.037 A 
ATOM     57  C   UNL A   1      41.941  30.853  32.051  1.00  0.00     0.037 A 
ATOM     58  C   UNL A   1      43.533  25.561  28.912  1.00  0.00     0.049 A 
ATOM     59  C   UNL A   1      42.777  29.727  32.625  1.00  0.00     0.074 A 
ATOM     60  C   UNL A   1      44.553  26.440  28.587  1.00  0.00     0.029 A 
ATOM     61  N   UNL A   1      43.446  25.577  30.292  1.00  0.00    -0.354 N 
ATOM     62  N   UNL A   1      43.326  28.782  31.916  1.00  0.00    -0.248 NA
ATOM     63  C   UNL A   1      42.959  29.515  34.064  1.00  0.00     0.031 C 
ATOM     64  C   UNL A   1      45.059  26.996  29.802  1.00  0.00     0.029 A 
ATOM     65  C   UNL A   1      44.352  26.447  30.857  1.00  0.00     0.049 A 
ATOM     66  H   UNL A   1      42.811  25.030  30.810  1.00  0.00     0.167 HD
ATOM     67  C   UNL A   1      43.823  27.819  32.753  1.00  0.00     0.074 A 
ATOM     68  C   UNL A   1      43.592  28.330  34.089  1.00  0.00     0.031 C 
ATOM     69  C   UNL A   1      44.326  26.639  32.295  1.00  0.00     0.037 A 
BRANCH  56  70
ATOM     70  C   UNL A   1      42.768  23.686  27.256  1.00  0.00     0.064 A 
ATOM     71  C   UNL A   1      42.331  22.388  27.612  1.00  0.00     0.173 A 
ATOM     72  C   UNL A   1      43.528  23.727  26.069  1.00  0.00     0.173 A 
ATOM     73  F   UNL A   1      41.561  22.177  28.687  1.00  0.00    -0.203 F 
ATOM     74  C   UNL A   1      42.677  21.244  26.883  1.00  0.00     0.198 A 
ATOM     75  C   UNL A   1      43.873  22.586  25.341  1.00  0.00     0.198 A 
ATOM     76  F   UNL A   1      43.977  24.863  25.540  1.00  0.00    -0.203 F 
ATOM     77  F   UNL A   1      42.255  20.041  27.297  1.00  0.00    -0.200 F 
ATOM     78  C   UNL A   1      43.460  21.341  25.754  1.00  0.00     0.200 A 
ATOM     79  F   UNL A   1      44.621  22.712  24.234  1.00  0.00    -0.200 F 
ATOM     80  F   UNL A   1      43.808  20.248  25.064  1.00  0.00    -0.200 F 
ENDBRANCH  56  70
BRANCH  57  81
ATOM     81  C   UNL A   1      40.729  31.415  32.697  1.00  0.00     0.064 A 
ATOM     82  C   UNL A   1      40.593  32.815  32.757  1.00  0.00     0.173 A 
ATOM     83  C   UNL A   1      39.574  30.639  32.847  1.00  0.00     0.173 A 
ATOM     84  F   UNL A   1      41.674  33.599  32.618  1.00  0.00    -0.203 F 
ATOM     85  C   UNL A   1      39.338  33.413  32.818  1.00  0.00     0.198 A 
ATOM     86  C   UNL A   1      38.320  31.243  32.928  1.00  0.00     0.198 A 
ATOM     87  F   UNL A   1      39.641  29.301  32.777  1.00  0.00    -0.203 F 
ATOM     88  F   UNL A   1      39.228  34.746  32.737  1.00  0.00    -0.200 F 
ATOM     89  C   UNL A   1      38.201  32.624  32.869  1.00  0.00     0.200 A 
ATOM     90  F   UNL A   1      37.217  30.482  32.945  1.00  0.00    -0.200 F 
ATOM     91  F   UNL A   1      36.988  33.191  32.809  1.00  0.00    -0.200 F 
ENDBRANCH  57  81
BRANCH  69  92
ATOM     92  C   UNL A   1      44.813  25.548  33.200  1.00  0.00     0.064 A 
ATOM     93  C   UNL A   1      46.154  25.142  33.220  1.00  0.00     0.173 A 
ATOM     94  C   UNL A   1      43.913  24.792  33.979  1.00  0.00     0.173 A 
ATOM     95  F   UNL A   1      47.076  25.797  32.497  1.00  0.00    -0.203 F 
ATOM     96  C   UNL A   1      46.570  24.044  33.976  1.00  0.00     0.198 A 
ATOM     97  C   UNL A   1      44.321  23.667  34.691  1.00  0.00     0.198 A 
ATOM     98  F   UNL A   1      42.623  25.143  34.087  1.00  0.00    -0.203 F 
ATOM     99  F   UNL A   1      47.865  23.705  34.001  1.00  0.00    -0.200 F 
ATOM    100  C   UNL A   1      45.650  23.295  34.694  1.00  0.00     0.200 A 
ATOM    101  F   UNL A   1      43.417  22.950  35.373  1.00  0.00    -0.200 F 
ATOM    102  F   UNL A   1      46.046  22.223  35.392  1.00  0.00    -0.200 F 
ENDBRANCH  69  92
ENDBRANCH  43  44
ENDBRANCH  35  38
ENDBRANCH  33  34
ENDBRANCH  32  33
ENDBRANCH   1  32
TORSDOF 13
ENDMDL
MODEL 2
REMARK VINA RESULT:     -15.1      3.800      9.969
REMARK SMILES Cc1c(C(=O)NCCCNC(=O)c2ccc(-c3c4nc(c(-c5c(F)c(F)c(F)c(F)c5F)c5ccc([nH]5)c(-c5c(F)c(F)c(F)c(F)c5F)c5nc(c(-c6c(F)c(F)c(F)c(F)c6F)c6ccc3[nH]6)C=C5)C=C4)cc2)cccc1-n1c(C)cc(/C=C2/C(=O)NC(=S)N=C2O)c1C
REMARK SMILES IDX 7 1 6 2 4 3 5 4 3 6 1 7 2 8 79 9 76 10 78 11 77 12 80 13
REMARK SMILES IDX 81 14 95 15 82 16 83 17 84 18 96 19 85 20 86 21 87 22 93 23
REMARK SMILES IDX 88 24 89 25 92 26 90 27 91 29 94 30 8 32 9 33 10 34 11 35
REMARK SMILES IDX 12 37 13 38 14 39 75 40 15 41 74 42 16 43 17 44 18 45 68 46
REMARK SMILES IDX 19 47 73 48 67 49 69 50 20 51 72 52 66 53 65 54 21 56 53 57
REMARK SMILES IDX 33 58 52 59 34 60 37 61 51 62 70 63 35 64 36 65 50 67 71 68
REMARK SMILES IDX 38 69 22 70 23 71 31 72 24 73 25 74 29 75 32 76 26 77 27 78
REMARK SMILES IDX 30 79 28 80 54 81 55 82 63 83 56 84 57 85 61 86 64 87 58 88
REMARK SMILES IDX 59 89 62 90 60 91 39 92 40 93 48 94 41 95 42 96 46 97 49 98
REMARK SMILES IDX 43 99 44 100 47 101 45 102
REMARK H PARENT 6 5 89 28 94 31 10 36 69 55 37 66
REMARK Flexibility Score: inf
ROOT
ATOM      1  C   UNL A   1      36.465  20.713  24.573  1.00  0.00     0.118 C 
ENDROOT
BRANCH   1   2
ATOM      2  N   UNL A   1      35.287  20.501  25.405  1.00  0.00    -0.352 N 
ATOM      3  C   UNL A   1      34.284  21.291  25.909  1.00  0.00     0.251 C 
ATOM      4  O   UNL A   1      33.465  20.708  26.627  1.00  0.00    -0.269 OA
ATOM      5  H   UNL A   1      35.185  19.558  25.671  1.00  0.00     0.163 HD
BRANCH   3   6
ATOM      6  C   UNL A   1      34.049  22.749  25.633  1.00  0.00     0.044 A 
ATOM      7  C   UNL A   1      31.979  22.541  24.159  1.00  0.00     0.047 C 
ATOM      8  C   UNL A   1      33.031  23.333  24.856  1.00  0.00    -0.014 A 
ATOM      9  C   UNL A   1      33.035  24.738  24.668  1.00  0.00     0.049 A 
ATOM     10  C   UNL A   1      35.092  23.589  26.089  1.00  0.00     0.014 A 
ATOM     11  C   UNL A   1      34.069  25.551  25.130  1.00  0.00     0.027 A 
ATOM     12  C   UNL A   1      35.113  24.965  25.831  1.00  0.00     0.003 A 
BRANCH   9  13
ATOM     13  N   UNL A   1      32.026  25.347  23.881  1.00  0.00    -0.318 N 
ATOM     14  C   UNL A   1      32.117  25.572  22.518  1.00  0.00     0.020 A 
ATOM     15  C   UNL A   1      30.975  26.103  24.398  1.00  0.00     0.027 A 
ATOM     16  C   UNL A   1      33.275  25.149  21.682  1.00  0.00     0.065 C 
ATOM     17  C   UNL A   1      30.985  26.266  22.145  1.00  0.00     0.031 A 
ATOM     18  C   UNL A   1      30.253  26.591  23.319  1.00  0.00    -0.003 A 
ATOM     19  C   UNL A   1      30.849  26.333  25.872  1.00  0.00     0.065 C 
BRANCH  18  20
ATOM     20  C   UNL A   1      29.115  27.457  23.298  1.00  0.00     0.029 C 
ATOM     21  C   UNL A   1      28.947  28.730  22.897  1.00  0.00     0.102 C 
ATOM     22  C   UNL A   1      27.547  29.231  22.898  1.00  0.00     0.262 C 
ATOM     23  C   UNL A   1      29.912  29.699  22.377  1.00  0.00     0.226 C 
ATOM     24  O   UNL A   1      26.618  28.689  23.483  1.00  0.00    -0.269 OA
ATOM     25  N   UNL A   1      27.360  30.353  22.136  1.00  0.00    -0.297 N 
ATOM     26  N   UNL A   1      29.648  30.765  21.713  1.00  0.00    -0.184 NA
ATOM     27  C   UNL A   1      28.334  31.073  21.488  1.00  0.00     0.203 C 
ATOM     28  H   UNL A   1      26.435  30.675  22.043  1.00  0.00     0.172 HD
ATOM     29  S   UNL A   1      27.840  32.332  20.500  1.00  0.00    -0.038 S 
BRANCH  23  30
ATOM     30  O   UNL A   1      31.193  29.488  22.680  1.00  0.00    -0.493 OA
ATOM     31  H   UNL A   1      31.478  29.540  23.572  1.00  0.00     0.295 HD
ENDBRANCH  23  30
ENDBRANCH  18  20
ENDBRANCH   9  13
ENDBRANCH   3   6
ENDBRANCH   1   2
BRANCH   1  32
ATOM     32  C   UNL A   1      37.730  20.708  25.437  1.00  0.00     0.042 C 
BRANCH  32  33
ATOM     33  C   UNL A   1      38.379  22.040  25.720  1.00  0.00     0.118 C 
BRANCH  33  34
ATOM     34  N   UNL A   1      39.783  21.937  26.118  1.00  0.00    -0.352 N 
ATOM     35  C   UNL A   1      40.624  22.945  26.571  1.00  0.00     0.251 C 
ATOM     36  H   UNL A   1      40.182  21.039  26.058  1.00  0.00     0.163 HD
ATOM     37  O   UNL A   1      41.774  22.720  26.887  1.00  0.00    -0.269 OA
BRANCH  35  38
ATOM     38  C   UNL A   1      40.022  24.282  26.782  1.00  0.00     0.039 A 
ATOM     39  C   UNL A   1      40.546  25.346  26.044  1.00  0.00     0.014 A 
ATOM     40  C   UNL A   1      39.285  24.504  27.937  1.00  0.00     0.014 A 
ATOM     41  C   UNL A   1      40.573  26.611  26.621  1.00  0.00     0.010 A 
ATOM     42  C   UNL A   1      39.470  25.707  28.578  1.00  0.00     0.010 A 
ATOM     43  C   UNL A   1      40.160  26.753  27.941  1.00  0.00    -0.014 A 
BRANCH  43  44
ATOM     44  C   UNL A   1      40.427  27.917  28.783  1.00  0.00     0.031 A 
ATOM     45  C   UNL A   1      39.452  29.034  28.782  1.00  0.00     0.074 A 
ATOM     46  C   UNL A   1      41.441  27.909  29.679  1.00  0.00     0.049 A 
ATOM     47  N   UNL A   1      39.612  30.150  29.406  1.00  0.00    -0.248 NA
ATOM     48  C   UNL A   1      38.219  28.997  28.002  1.00  0.00     0.031 C 
ATOM     49  C   UNL A   1      41.573  28.762  30.861  1.00  0.00     0.029 A 
ATOM     50  N   UNL A   1      42.678  27.242  29.601  1.00  0.00    -0.354 N 
ATOM     51  C   UNL A   1      38.440  30.865  29.324  1.00  0.00     0.074 A 
ATOM     52  C   UNL A   1      37.634  30.135  28.379  1.00  0.00     0.031 C 
ATOM     53  C   UNL A   1      42.863  28.816  31.221  1.00  0.00     0.029 A 
ATOM     54  C   UNL A   1      43.618  28.133  30.190  1.00  0.00     0.049 A 
ATOM     55  H   UNL A   1      42.855  26.352  29.220  1.00  0.00     0.167 HD
ATOM     56  C   UNL A   1      38.283  31.947  30.140  1.00  0.00     0.037 A 
ATOM     57  C   UNL A   1      44.625  28.698  29.460  1.00  0.00     0.037 A 
ATOM     58  C   UNL A   1      39.565  32.321  30.744  1.00  0.00     0.049 A 
ATOM     59  C   UNL A   1      44.609  30.211  29.397  1.00  0.00     0.074 A 
ATOM     60  C   UNL A   1      40.164  32.166  31.982  1.00  0.00     0.029 A 
ATOM     61  N   UNL A   1      40.563  32.760  29.893  1.00  0.00    -0.354 N 
ATOM     62  N   UNL A   1      43.674  30.959  29.911  1.00  0.00    -0.248 NA
ATOM     63  C   UNL A   1      45.592  30.993  28.642  1.00  0.00     0.031 C 
ATOM     64  C   UNL A   1      41.546  32.501  31.849  1.00  0.00     0.029 A 
ATOM     65  C   UNL A   1      41.777  32.867  30.534  1.00  0.00     0.049 A 
ATOM     66  H   UNL A   1      40.422  32.971  28.942  1.00  0.00     0.167 HD
ATOM     67  C   UNL A   1      43.851  32.252  29.495  1.00  0.00     0.074 A 
ATOM     68  C   UNL A   1      45.076  32.232  28.722  1.00  0.00     0.031 C 
ATOM     69  C   UNL A   1      42.945  33.235  29.754  1.00  0.00     0.037 A 
BRANCH  56  70
ATOM     70  C   UNL A   1      36.977  32.629  30.508  1.00  0.00     0.064 A 
ATOM     71  C   UNL A   1      36.316  33.437  29.553  1.00  0.00     0.173 A 
ATOM     72  C   UNL A   1      36.358  32.617  31.774  1.00  0.00     0.173 A 
ATOM     73  F   UNL A   1      36.747  33.524  28.288  1.00  0.00    -0.203 F 
ATOM     74  C   UNL A   1      35.185  34.204  29.860  1.00  0.00     0.198 A 
ATOM     75  C   UNL A   1      35.229  33.381  32.081  1.00  0.00     0.198 A 
ATOM     76  F   UNL A   1      36.796  31.871  32.785  1.00  0.00    -0.203 F 
ATOM     77  F   UNL A   1      34.629  34.973  28.915  1.00  0.00    -0.200 F 
ATOM     78  C   UNL A   1      34.649  34.186  31.129  1.00  0.00     0.200 A 
ATOM     79  F   UNL A   1      34.717  33.331  33.320  1.00  0.00    -0.200 F 
ATOM     80  F   UNL A   1      33.579  34.931  31.432  1.00  0.00    -0.200 F 
ENDBRANCH  56  70
BRANCH  57  81
ATOM     81  C   UNL A   1      45.083  27.814  28.359  1.00  0.00     0.064 A 
ATOM     82  C   UNL A   1      45.950  26.750  28.673  1.00  0.00     0.173 A 
ATOM     83  C   UNL A   1      44.371  27.742  27.156  1.00  0.00     0.173 A 
ATOM     84  F   UNL A   1      46.653  26.776  29.817  1.00  0.00    -0.203 F 
ATOM     85  C   UNL A   1      45.991  25.601  27.890  1.00  0.00     0.198 A 
ATOM     86  C   UNL A   1      44.430  26.597  26.364  1.00  0.00     0.198 A 
ATOM     87  F   UNL A   1      43.514  28.717  26.816  1.00  0.00    -0.203 F 
ATOM     88  F   UNL A   1      46.722  24.549  28.284  1.00  0.00    -0.200 F 
ATOM     89  C   UNL A   1      45.204  25.513  26.753  1.00  0.00     0.200 A 
ATOM     90  F   UNL A   1      43.645  26.497  25.282  1.00  0.00    -0.200 F 
ATOM     91  F   UNL A   1      45.150  24.366  26.062  1.00  0.00    -0.200 F 
ENDBRANCH  57  81
BRANCH  69  92
ATOM     92  C   UNL A   1      43.089  34.639  29.250  1.00  0.00     0.064 A 
ATOM     93  C   UNL A   1      43.273  35.724  30.117  1.00  0.00     0.173 A 
ATOM     94  C   UNL A   1      42.916  34.944  27.884  1.00  0.00     0.173 A 
ATOM     95  F   UNL A   1      43.432  35.526  31.434  1.00  0.00    -0.203 F 
ATOM     96  C   UNL A   1      43.283  37.039  29.643  1.00  0.00     0.198 A 
ATOM     97  C   UNL A   1      42.875  36.257  27.422  1.00  0.00     0.198 A 
ATOM     98  F   UNL A   1      42.807  33.974  26.964  1.00  0.00    -0.203 F 
ATOM     99  F   UNL A   1      43.497  38.051  30.494  1.00  0.00    -0.200 F 
ATOM    100  C   UNL A   1      43.063  37.305  28.301  1.00  0.00     0.200 A 
ATOM    101  F   UNL A   1      42.653  36.497  26.122  1.00  0.00    -0.200 F 
ATOM    102  F   UNL A   1      43.041  38.568  27.855  1.00  0.00    -0.200 F 
ENDBRANCH  69  92
ENDBRANCH  43  44
ENDBRANCH  35  38
ENDBRANCH  33  34
ENDBRANCH  32  33
ENDBRANCH   1  32
TORSDOF 13
ENDMDL
MODEL 3
REMARK VINA RESULT:     -14.8      1.384      2.260
REMARK SMILES Cc1c(C(=O)NCCCNC(=O)c2ccc(-c3c4nc(c(-c5c(F)c(F)c(F)c(F)c5F)c5ccc([nH]5)c(-c5c(F)c(F)c(F)c(F)c5F)c5nc(c(-c6c(F)c(F)c(F)c(F)c6F)c6ccc3[nH]6)C=C5)C=C4)cc2)cccc1-n1c(C)cc(/C=C2/C(=O)NC(=S)N=C2O)c1C
REMARK SMILES IDX 7 1 6 2 4 3 5 4 3 6 1 7 2 8 79 9 76 10 78 11 77 12 80 13
REMARK SMILES IDX 81 14 95 15 82 16 83 17 84 18 96 19 85 20 86 21 87 22 93 23
REMARK SMILES IDX 88 24 89 25 92 26 90 27 91 29 94 30 8 32 9 33 10 34 11 35
REMARK SMILES IDX 12 37 13 38 14 39 75 40 15 41 74 42 16 43 17 44 18 45 68 46
REMARK SMILES IDX 19 47 73 48 67 49 69 50 20 51 72 52 66 53 65 54 21 56 53 57
REMARK SMILES IDX 33 58 52 59 34 60 37 61 51 62 70 63 35 64 36 65 50 67 71 68
REMARK SMILES IDX 38 69 22 70 23 71 31 72 24 73 25 74 29 75 32 76 26 77 27 78
REMARK SMILES IDX 30 79 28 80 54 81 55 82 63 83 56 84 57 85 61 86 64 87 58 88
REMARK SMILES IDX 59 89 62 90 60 91 39 92 40 93 48 94 41 95 42 96 46 97 49 98
REMARK SMILES IDX 43 99 44 100 47 101 45 102
REMARK H PARENT 6 5 89 28 94 31 10 36 69 55 37 66
REMARK Flexibility Score: inf
ROOT
ATOM      1  C   UNL A   1      31.495  30.405  26.292  1.00  0.00     0.118 C 
ENDROOT
BRANCH   1   2
ATOM      2  N   UNL A   1      30.989  30.580  24.935  1.00  0.00    -0.352 N 
ATOM      3  C   UNL A   1      30.662  29.750  23.892  1.00  0.00     0.251 C 
ATOM      4  O   UNL A   1      30.292  30.322  22.861  1.00  0.00    -0.269 OA
ATOM      5  H   UNL A   1      30.847  31.529  24.712  1.00  0.00     0.163 HD
BRANCH   3   6
ATOM      6  C   UNL A   1      30.649  28.248  23.895  1.00  0.00     0.044 A 
ATOM      7  C   UNL A   1      33.120  27.832  23.427  1.00  0.00     0.047 C 
ATOM      8  C   UNL A   1      31.729  27.369  23.688  1.00  0.00    -0.014 A 
ATOM      9  C   UNL A   1      31.479  25.974  23.663  1.00  0.00     0.049 A 
ATOM     10  C   UNL A   1      29.349  27.692  23.948  1.00  0.00     0.014 A 
ATOM     11  C   UNL A   1      30.191  25.444  23.723  1.00  0.00     0.027 A 
ATOM     12  C   UNL A   1      29.119  26.315  23.849  1.00  0.00     0.003 A 
BRANCH   9  13
ATOM     13  N   UNL A   1      32.549  25.071  23.446  1.00  0.00    -0.318 N 
ATOM     14  C   UNL A   1      33.011  24.677  22.201  1.00  0.00     0.020 A 
ATOM     15  C   UNL A   1      33.052  24.200  24.412  1.00  0.00     0.027 A 
ATOM     16  C   UNL A   1      32.473  25.200  20.913  1.00  0.00     0.065 C 
ATOM     17  C   UNL A   1      33.985  23.725  22.412  1.00  0.00     0.031 A 
ATOM     18  C   UNL A   1      34.030  23.430  23.801  1.00  0.00    -0.003 A 
ATOM     19  C   UNL A   1      32.462  24.161  25.788  1.00  0.00     0.065 C 
BRANCH  18  20
ATOM     20  C   UNL A   1      34.815  22.360  24.333  1.00  0.00     0.029 C 
ATOM     21  C   UNL A   1      34.538  21.069  24.594  1.00  0.00     0.102 C 
ATOM     22  C   UNL A   1      35.692  20.230  25.010  1.00  0.00     0.262 C 
ATOM     23  C   UNL A   1      33.290  20.318  24.459  1.00  0.00     0.226 C 
ATOM     24  O   UNL A   1      36.768  20.672  25.395  1.00  0.00    -0.269 OA
ATOM     25  N   UNL A   1      35.472  18.884  24.886  1.00  0.00    -0.297 N 
ATOM     26  N   UNL A   1      33.164  19.042  24.406  1.00  0.00    -0.184 NA
ATOM     27  C   UNL A   1      34.294  18.279  24.524  1.00  0.00     0.203 C 
ATOM     28  H   UNL A   1      36.234  18.292  25.076  1.00  0.00     0.172 HD
ATOM     29  S   UNL A   1      34.310  16.618  24.306  1.00  0.00    -0.038 S 
BRANCH  23  30
ATOM     30  O   UNL A   1      32.162  21.029  24.458  1.00  0.00    -0.493 OA
ATOM     31  H   UNL A   1      31.755  21.260  23.646  1.00  0.00     0.295 HD
ENDBRANCH  23  30
ENDBRANCH  18  20
ENDBRANCH   9  13
ENDBRANCH   3   6
ENDBRANCH   1   2
BRANCH   1  32
ATOM     32  C   UNL A   1      33.026  30.371  26.285  1.00  0.00     0.042 C 
BRANCH  32  33
ATOM     33  C   UNL A   1      33.714  29.992  27.572  1.00  0.00     0.118 C 
BRANCH  33  34
ATOM     34  N   UNL A   1      34.367  31.117  28.243  1.00  0.00    -0.352 N 
ATOM     35  C   UNL A   1      35.573  31.125  28.932  1.00  0.00     0.251 C 
ATOM     36  H   UNL A   1      33.891  31.978  28.201  1.00  0.00     0.163 HD
ATOM     37  O   UNL A   1      36.013  32.139  29.433  1.00  0.00    -0.269 OA
BRANCH  35  38
ATOM     38  C   UNL A   1      36.368  29.875  28.914  1.00  0.00     0.039 A 
ATOM     39  C   UNL A   1      36.657  29.281  30.146  1.00  0.00     0.014 A 
ATOM     40  C   UNL A   1      37.110  29.575  27.781  1.00  0.00     0.014 A 
ATOM     41  C   UNL A   1      37.866  28.610  30.297  1.00  0.00     0.010 A 
ATOM     42  C   UNL A   1      38.375  29.071  27.975  1.00  0.00     0.010 A 
ATOM     43  C   UNL A   1      38.778  28.632  29.247  1.00  0.00    -0.014 A 
BRANCH  43  44
ATOM     44  C   UNL A   1      40.190  28.268  29.355  1.00  0.00     0.031 A 
ATOM     45  C   UNL A   1      40.626  26.949  28.838  1.00  0.00     0.074 A 
ATOM     46  C   UNL A   1      41.112  29.176  29.750  1.00  0.00     0.049 A 
ATOM     47  N   UNL A   1      41.818  26.473  28.952  1.00  0.00    -0.248 NA
ATOM     48  C   UNL A   1      39.707  26.017  28.191  1.00  0.00     0.031 C 
ATOM     49  C   UNL A   1      42.553  29.128  29.497  1.00  0.00     0.029 A 
ATOM     50  N   UNL A   1      40.958  30.254  30.641  1.00  0.00    -0.354 N 
ATOM     51  C   UNL A   1      41.898  25.319  28.207  1.00  0.00     0.074 A 
ATOM     52  C   UNL A   1      40.539  25.044  27.816  1.00  0.00     0.031 C 
ATOM     53  C   UNL A   1      43.182  29.889  30.403  1.00  0.00     0.029 A 
ATOM     54  C   UNL A   1      42.184  30.319  31.361  1.00  0.00     0.049 A 
ATOM     55  H   UNL A   1      40.172  30.838  30.745  1.00  0.00     0.167 HD
ATOM     56  C   UNL A   1      43.132  24.795  27.954  1.00  0.00     0.037 A 
ATOM     57  C   UNL A   1      42.240  30.076  32.704  1.00  0.00     0.037 A 
ATOM     58  C   UNL A   1      44.139  25.422  28.816  1.00  0.00     0.049 A 
ATOM     59  C   UNL A   1      43.116  28.912  33.116  1.00  0.00     0.074 A 
ATOM     60  C   UNL A   1      45.121  26.384  28.660  1.00  0.00     0.029 A 
ATOM     61  N   UNL A   1      44.025  25.215  30.179  1.00  0.00    -0.354 N 
ATOM     62  N   UNL A   1      43.723  28.116  32.282  1.00  0.00    -0.248 NA
ATOM     63  C   UNL A   1      43.281  28.484  34.508  1.00  0.00     0.031 C 
ATOM     64  C   UNL A   1      45.578  26.764  29.960  1.00  0.00     0.029 A 
ATOM     65  C   UNL A   1      44.877  26.024  30.897  1.00  0.00     0.049 A 
ATOM     66  H   UNL A   1      43.407  24.567  30.588  1.00  0.00     0.167 HD
ATOM     67  C   UNL A   1      44.249  27.055  32.970  1.00  0.00     0.074 A 
ATOM     68  C   UNL A   1      43.969  27.339  34.363  1.00  0.00     0.031 C 
ATOM     69  C   UNL A   1      44.815  25.986  32.346  1.00  0.00     0.037 A 
BRANCH  56  70
ATOM     70  C   UNL A   1      43.494  23.800  26.868  1.00  0.00     0.064 A 
ATOM     71  C   UNL A   1      43.044  22.462  26.964  1.00  0.00     0.173 A 
ATOM     72  C   UNL A   1      44.334  24.041  25.761  1.00  0.00     0.173 A 
ATOM     73  F   UNL A   1      42.202  22.073  27.932  1.00  0.00    -0.203 F 
ATOM     74  C   UNL A   1      43.449  21.458  26.076  1.00  0.00     0.198 A 
ATOM     75  C   UNL A   1      44.737  23.039  24.874  1.00  0.00     0.198 A 
ATOM     76  F   UNL A   1      44.810  25.248  25.466  1.00  0.00    -0.203 F 
ATOM     77  F   UNL A   1      43.008  20.204  26.248  1.00  0.00    -0.200 F 
ATOM     78  C   UNL A   1      44.306  21.744  25.038  1.00  0.00     0.200 A 
ATOM     79  F   UNL A   1      45.560  23.350  23.860  1.00  0.00    -0.200 F 
ATOM     80  F   UNL A   1      44.710  20.784  24.197  1.00  0.00    -0.200 F 
ENDBRANCH  56  70
BRANCH  57  81
ATOM     81  C   UNL A   1      40.990  30.476  33.399  1.00  0.00     0.064 A 
ATOM     82  C   UNL A   1      40.772  31.845  33.645  1.00  0.00     0.173 A 
ATOM     83  C   UNL A   1      39.880  29.623  33.421  1.00  0.00     0.173 A 
ATOM     84  F   UNL A   1      41.807  32.700  33.633  1.00  0.00    -0.203 F 
ATOM     85  C   UNL A   1      39.484  32.357  33.764  1.00  0.00     0.198 A 
ATOM     86  C   UNL A   1      38.593  30.139  33.560  1.00  0.00     0.198 A 
ATOM     87  F   UNL A   1      40.026  28.314  33.171  1.00  0.00    -0.203 F 
ATOM     88  F   UNL A   1      39.297  33.681  33.863  1.00  0.00    -0.200 F 
ATOM     89  C   UNL A   1      38.394  31.506  33.687  1.00  0.00     0.200 A 
ATOM     90  F   UNL A   1      37.536  29.322  33.454  1.00  0.00    -0.200 F 
ATOM     91  F   UNL A   1      37.151  32.007  33.682  1.00  0.00    -0.200 F 
ENDBRANCH  57  81
BRANCH  69  92
ATOM     92  C   UNL A   1      45.336  24.787  33.081  1.00  0.00     0.064 A 
ATOM     93  C   UNL A   1      44.521  23.687  33.381  1.00  0.00     0.173 A 
ATOM     94  C   UNL A   1      46.640  24.772  33.616  1.00  0.00     0.173 A 
ATOM     95  F   UNL A   1      43.262  23.627  32.923  1.00  0.00    -0.203 F 
ATOM     96  C   UNL A   1      44.986  22.633  34.171  1.00  0.00     0.198 A 
ATOM     97  C   UNL A   1      47.084  23.744  34.445  1.00  0.00     0.198 A 
ATOM     98  F   UNL A   1      47.523  25.740  33.327  1.00  0.00    -0.203 F 
ATOM     99  F   UNL A   1      44.192  21.581  34.409  1.00  0.00    -0.200 F 
ATOM    100  C   UNL A   1      46.258  22.672  34.720  1.00  0.00     0.200 A 
ATOM    101  F   UNL A   1      48.314  23.802  34.974  1.00  0.00    -0.200 F 
ATOM    102  F   UNL A   1      46.689  21.676  35.504  1.00  0.00    -0.200 F 
ENDBRANCH  69  92
ENDBRANCH  43  44
ENDBRANCH  35  38
ENDBRANCH  33  34
ENDBRANCH  32  33
ENDBRANCH   1  32
TORSDOF 13
ENDMDL
