MODEL 1
REMARK VINA RESULT:     -13.1      0.000      0.000
REMARK SMILES O=C(CCOc1cc(-c2ccncc2)nc(-c2ccc(C(F)(F)F)cc2)n1)NCCCNC(=O)c1ccc(-c2c3nc(c(-c4c(F)c(F)c(F)c(F)c4F)c4ccc([nH]4)c(-c4c(F)c(F)c(F)c(F)c4F)c4nc(c(-c5c(F)c(F)c(F)c(F)c5F)c5ccc2[nH]5)C=C4)C=C3)cc1
REMARK SMILES IDX 1 1 2 2 28 3 3 5 4 6 5 7 6 8 7 9 27 10 8 11 16 12 15 13 9 14
REMARK SMILES IDX 10 15 14 16 11 17 13 18 12 19 17 20 18 21 26 22 19 23 25 24
REMARK SMILES IDX 20 25 21 26 22 27 23 28 24 29 29 30 30 31 31 32 32 33 33 34
REMARK SMILES IDX 34 36 35 37 36 38 97 39 37 40 96 41 38 42 39 43 40 44 90 45
REMARK SMILES IDX 41 46 95 47 89 48 91 49 42 50 94 51 88 52 87 53 43 55 75 56
REMARK SMILES IDX 55 57 74 58 56 59 59 60 73 61 92 62 57 63 58 64 72 66 93 67
REMARK SMILES IDX 60 68 44 69 45 70 53 71 46 72 47 73 51 74 54 75 48 76 49 77
REMARK SMILES IDX 52 78 50 79 76 80 77 81 85 82 78 83 79 84 83 85 86 86 80 87
REMARK SMILES IDX 81 88 84 89 82 90 61 91 62 92 70 93 63 94 64 95 68 96 71 97
REMARK SMILES IDX 65 98 66 99 69 100 67 101
REMARK H PARENT 28 4 32 35 91 54 59 65
REMARK Flexibility Score: inf
ROOT
ATOM      1  O   UNL A   1      33.650  26.258  21.560  1.00  0.00    -0.275 OA
ATOM      2  C   UNL A   1      32.615  26.377  22.208  1.00  0.00     0.223 C 
ATOM      3  N   UNL A   1      32.151  27.579  22.698  1.00  0.00    -0.356 N 
ATOM      4  H   UNL A   1      31.217  27.633  23.007  1.00  0.00     0.163 HD
ENDROOT
BRANCH   2   5
ATOM      5  C   UNL A   1      31.833  25.176  22.689  1.00  0.00     0.141 C 
BRANCH   5   6
ATOM      6  C   UNL A   1      32.623  23.889  22.414  1.00  0.00     0.241 C 
BRANCH   6   7
ATOM      7  O   UNL A   1      31.982  22.741  22.985  1.00  0.00    -0.477 OA
BRANCH   7   8
ATOM      8  C   UNL A   1      32.774  21.964  23.797  1.00  0.00     0.217 A 
ATOM      9  C   UNL A   1      32.501  20.637  24.014  1.00  0.00     0.097 A 
ATOM     10  N   UNL A   1      33.940  22.520  24.146  1.00  0.00    -0.193 NA
ATOM     11  C   UNL A   1      33.516  19.845  24.510  1.00  0.00     0.078 A 
ATOM     12  C   UNL A   1      34.841  21.697  24.721  1.00  0.00     0.163 A 
ATOM     13  N   UNL A   1      34.695  20.363  24.877  1.00  0.00    -0.228 NA
BRANCH  11  14
ATOM     14  C   UNL A   1      33.350  18.385  24.504  1.00  0.00     0.003 A 
ATOM     15  C   UNL A   1      32.649  17.730  25.526  1.00  0.00     0.030 A 
ATOM     16  C   UNL A   1      34.046  17.591  23.593  1.00  0.00     0.030 A 
ATOM     17  C   UNL A   1      32.741  16.353  25.646  1.00  0.00     0.111 A 
ATOM     18  C   UNL A   1      34.062  16.216  23.779  1.00  0.00     0.111 A 
ATOM     19  N   UNL A   1      33.446  15.581  24.798  1.00  0.00    -0.265 NA
ENDBRANCH  11  14
BRANCH  12  20
ATOM     20  C   UNL A   1      36.091  22.289  25.194  1.00  0.00     0.019 A 
ATOM     21  C   UNL A   1      36.148  23.622  25.628  1.00  0.00     0.012 A 
ATOM     22  C   UNL A   1      37.261  21.521  25.277  1.00  0.00     0.012 A 
ATOM     23  C   UNL A   1      37.320  24.146  26.187  1.00  0.00     0.014 A 
ATOM     24  C   UNL A   1      38.437  22.040  25.821  1.00  0.00     0.014 A 
ATOM     25  C   UNL A   1      38.470  23.350  26.310  1.00  0.00     0.056 A 
BRANCH  25  26
ATOM     26  C   UNL A   1      39.705  23.889  26.986  1.00  0.00     0.416 C 
ATOM     27  F   UNL A   1      40.584  22.908  27.333  1.00  0.00    -0.166 F 
ATOM     28  F   UNL A   1      40.399  24.748  26.189  1.00  0.00    -0.166 F 
ATOM     29  F   UNL A   1      39.444  24.578  28.133  1.00  0.00    -0.166 F 
ENDBRANCH  25  26
ENDBRANCH  12  20
ENDBRANCH   7   8
ENDBRANCH   6   7
ENDBRANCH   5   6
ENDBRANCH   2   5
BRANCH   3  30
ATOM     30  C   UNL A   1      32.981  28.769  22.779  1.00  0.00     0.117 C 
BRANCH  30  31
ATOM     31  C   UNL A   1      34.017  28.708  23.917  1.00  0.00     0.042 C 
BRANCH  31  32
ATOM     32  C   UNL A   1      33.454  28.614  25.345  1.00  0.00     0.118 C 
BRANCH  32  33
ATOM     33  N   UNL A   1      33.050  29.863  25.972  1.00  0.00    -0.352 N 
ATOM     34  C   UNL A   1      33.567  30.725  26.900  1.00  0.00     0.251 C 
ATOM     35  H   UNL A   1      32.176  30.169  25.641  1.00  0.00     0.163 HD
ATOM     36  O   UNL A   1      32.878  31.701  27.209  1.00  0.00    -0.269 OA
BRANCH  34  37
ATOM     37  C   UNL A   1      34.852  30.557  27.603  1.00  0.00     0.039 A 
ATOM     38  C   UNL A   1      35.682  31.689  27.713  1.00  0.00     0.014 A 
ATOM     39  C   UNL A   1      35.303  29.343  28.103  1.00  0.00     0.014 A 
ATOM     40  C   UNL A   1      36.916  31.611  28.359  1.00  0.00     0.010 A 
ATOM     41  C   UNL A   1      36.487  29.283  28.829  1.00  0.00     0.010 A 
ATOM     42  C   UNL A   1      37.305  30.412  28.961  1.00  0.00    -0.014 A 
BRANCH  42  43
ATOM     43  C   UNL A   1      38.554  30.289  29.747  1.00  0.00     0.031 A 
ATOM     44  C   UNL A   1      39.700  29.487  29.200  1.00  0.00     0.074 A 
ATOM     45  C   UNL A   1      38.592  30.787  30.996  1.00  0.00     0.049 A 
ATOM     46  N   UNL A   1      40.787  29.076  29.800  1.00  0.00    -0.248 NA
ATOM     47  C   UNL A   1      39.583  29.045  27.799  1.00  0.00     0.031 C 
ATOM     48  C   UNL A   1      37.517  31.544  31.641  1.00  0.00     0.029 A 
ATOM     49  N   UNL A   1      39.564  30.705  31.960  1.00  0.00    -0.354 N 
ATOM     50  C   UNL A   1      41.462  28.301  28.866  1.00  0.00     0.074 A 
ATOM     51  C   UNL A   1      40.636  28.250  27.679  1.00  0.00     0.031 C 
ATOM     52  C   UNL A   1      37.895  31.873  32.885  1.00  0.00     0.029 A 
ATOM     53  C   UNL A   1      39.211  31.304  33.145  1.00  0.00     0.049 A 
ATOM     54  H   UNL A   1      40.431  30.262  31.816  1.00  0.00     0.167 HD
ATOM     55  C   UNL A   1      42.671  27.705  28.986  1.00  0.00     0.037 A 
ATOM     56  C   UNL A   1      39.872  31.365  34.316  1.00  0.00     0.037 A 
ATOM     57  C   UNL A   1      43.493  27.798  30.165  1.00  0.00     0.049 A 
ATOM     58  C   UNL A   1      41.218  30.702  34.419  1.00  0.00     0.074 A 
ATOM     59  C   UNL A   1      44.760  27.288  30.378  1.00  0.00     0.029 A 
ATOM     60  N   UNL A   1      43.124  28.456  31.331  1.00  0.00    -0.354 N 
ATOM     61  N   UNL A   1      41.873  30.012  33.515  1.00  0.00    -0.248 NA
ATOM     62  C   UNL A   1      41.920  30.832  35.701  1.00  0.00     0.031 C 
ATOM     63  C   UNL A   1      45.137  27.593  31.690  1.00  0.00     0.029 A 
ATOM     64  C   UNL A   1      44.132  28.348  32.274  1.00  0.00     0.049 A 
ATOM     65  H   UNL A   1      42.271  28.928  31.467  1.00  0.00     0.167 HD
ATOM     66  C   UNL A   1      43.077  29.656  34.106  1.00  0.00     0.074 A 
ATOM     67  C   UNL A   1      43.066  30.218  35.441  1.00  0.00     0.031 C 
ATOM     68  C   UNL A   1      44.100  28.929  33.592  1.00  0.00     0.037 A 
BRANCH  55  69
ATOM     69  C   UNL A   1      43.174  26.904  27.818  1.00  0.00     0.064 A 
ATOM     70  C   UNL A   1      43.029  25.509  27.760  1.00  0.00     0.173 A 
ATOM     71  C   UNL A   1      43.793  27.540  26.731  1.00  0.00     0.173 A 
ATOM     72  F   UNL A   1      42.456  24.846  28.777  1.00  0.00    -0.203 F 
ATOM     73  C   UNL A   1      43.518  24.779  26.679  1.00  0.00     0.198 A 
ATOM     74  C   UNL A   1      44.247  26.811  25.634  1.00  0.00     0.198 A 
ATOM     75  F   UNL A   1      43.956  28.872  26.728  1.00  0.00    -0.203 F 
ATOM     76  F   UNL A   1      43.423  23.442  26.678  1.00  0.00    -0.200 F 
ATOM     77  C   UNL A   1      44.119  25.431  25.613  1.00  0.00     0.200 A 
ATOM     78  F   UNL A   1      44.816  27.445  24.599  1.00  0.00    -0.200 F 
ATOM     79  F   UNL A   1      44.585  24.728  24.571  1.00  0.00    -0.200 F 
ENDBRANCH  55  69
BRANCH  56  80
ATOM     80  C   UNL A   1      39.284  32.102  35.465  1.00  0.00     0.064 A 
ATOM     81  C   UNL A   1      39.516  33.474  35.628  1.00  0.00     0.173 A 
ATOM     82  C   UNL A   1      38.476  31.461  36.416  1.00  0.00     0.173 A 
ATOM     83  F   UNL A   1      40.292  34.131  34.753  1.00  0.00    -0.203 F 
ATOM     84  C   UNL A   1      38.987  34.171  36.712  1.00  0.00     0.198 A 
ATOM     85  C   UNL A   1      37.922  32.165  37.482  1.00  0.00     0.198 A 
ATOM     86  F   UNL A   1      38.213  30.150  36.300  1.00  0.00    -0.203 F 
ATOM     87  F   UNL A   1      39.268  35.472  36.871  1.00  0.00    -0.200 F 
ATOM     88  C   UNL A   1      38.185  33.518  37.636  1.00  0.00     0.200 A 
ATOM     89  F   UNL A   1      37.132  31.533  38.362  1.00  0.00    -0.200 F 
ATOM     90  F   UNL A   1      37.674  34.189  38.676  1.00  0.00    -0.200 F 
ENDBRANCH  56  80
BRANCH  68  91
ATOM     91  C   UNL A   1      45.313  28.748  34.460  1.00  0.00     0.064 A 
ATOM     92  C   UNL A   1      46.379  29.658  34.441  1.00  0.00     0.173 A 
ATOM     93  C   UNL A   1      45.388  27.664  35.348  1.00  0.00     0.173 A 
ATOM     94  F   UNL A   1      46.361  30.703  33.599  1.00  0.00    -0.203 F 
ATOM     95  C   UNL A   1      47.490  29.473  35.260  1.00  0.00     0.198 A 
ATOM     96  C   UNL A   1      46.483  27.502  36.189  1.00  0.00     0.198 A 
ATOM     97  F   UNL A   1      44.390  26.769  35.410  1.00  0.00    -0.203 F 
ATOM     98  F   UNL A   1      48.521  30.325  35.187  1.00  0.00    -0.200 F 
ATOM     99  C   UNL A   1      47.537  28.401  36.139  1.00  0.00     0.200 A 
ATOM    100  F   UNL A   1      46.519  26.476  37.051  1.00  0.00    -0.200 F 
ATOM    101  F   UNL A   1      48.604  28.231  36.932  1.00  0.00    -0.200 F 
ENDBRANCH  68  91
ENDBRANCH  42  43
ENDBRANCH  34  37
ENDBRANCH  32  33
ENDBRANCH  31  32
ENDBRANCH  30  31
ENDBRANCH   3  30
TORSDOF 16
ENDMDL
MODEL 2
REMARK VINA RESULT:     -13.0      3.962      9.951
REMARK SMILES O=C(CCOc1cc(-c2ccncc2)nc(-c2ccc(C(F)(F)F)cc2)n1)NCCCNC(=O)c1ccc(-c2c3nc(c(-c4c(F)c(F)c(F)c(F)c4F)c4ccc([nH]4)c(-c4c(F)c(F)c(F)c(F)c4F)c4nc(c(-c5c(F)c(F)c(F)c(F)c5F)c5ccc2[nH]5)C=C4)C=C3)cc1
REMARK SMILES IDX 1 1 2 2 28 3 3 5 4 6 5 7 6 8 7 9 27 10 8 11 16 12 15 13 9 14
REMARK SMILES IDX 10 15 14 16 11 17 13 18 12 19 17 20 18 21 26 22 19 23 25 24
REMARK SMILES IDX 20 25 21 26 22 27 23 28 24 29 29 30 30 31 31 32 32 33 33 34
REMARK SMILES IDX 34 36 35 37 36 38 97 39 37 40 96 41 38 42 39 43 40 44 90 45
REMARK SMILES IDX 41 46 95 47 89 48 91 49 42 50 94 51 88 52 87 53 43 55 75 56
REMARK SMILES IDX 55 57 74 58 56 59 59 60 73 61 92 62 57 63 58 64 72 66 93 67
REMARK SMILES IDX 60 68 44 69 45 70 53 71 46 72 47 73 51 74 54 75 48 76 49 77
REMARK SMILES IDX 52 78 50 79 76 80 77 81 85 82 78 83 79 84 83 85 86 86 80 87
REMARK SMILES IDX 81 88 84 89 82 90 61 91 62 92 70 93 63 94 64 95 68 96 71 97
REMARK SMILES IDX 65 98 66 99 69 100 67 101
REMARK H PARENT 28 4 32 35 91 54 59 65
REMARK Flexibility Score: inf
ROOT
ATOM      1  O   UNL A   1      33.521  24.735  22.003  1.00  0.00    -0.275 OA
ATOM      2  C   UNL A   1      32.758  24.315  22.867  1.00  0.00     0.223 C 
ATOM      3  N   UNL A   1      33.162  23.546  23.938  1.00  0.00    -0.356 N 
ATOM      4  H   UNL A   1      32.546  23.437  24.698  1.00  0.00     0.163 HD
ENDROOT
BRANCH   2   5
ATOM      5  C   UNL A   1      31.258  24.451  22.741  1.00  0.00     0.141 C 
BRANCH   5   6
ATOM      6  C   UNL A   1      30.651  24.861  24.089  1.00  0.00     0.241 C 
BRANCH   6   7
ATOM      7  O   UNL A   1      29.677  25.902  23.938  1.00  0.00    -0.477 OA
BRANCH   7   8
ATOM      8  C   UNL A   1      30.180  27.179  23.872  1.00  0.00     0.217 A 
ATOM      9  C   UNL A   1      29.571  28.156  23.125  1.00  0.00     0.097 A 
ATOM     10  N   UNL A   1      31.136  27.455  24.767  1.00  0.00    -0.193 NA
ATOM     11  C   UNL A   1      29.894  29.469  23.400  1.00  0.00     0.078 A 
ATOM     12  C   UNL A   1      31.465  28.756  24.901  1.00  0.00     0.163 A 
ATOM     13  N   UNL A   1      30.849  29.788  24.284  1.00  0.00    -0.228 NA
BRANCH  11  14
ATOM     14  C   UNL A   1      29.077  30.542  22.815  1.00  0.00     0.003 A 
ATOM     15  C   UNL A   1      28.551  30.431  21.521  1.00  0.00     0.030 A 
ATOM     16  C   UNL A   1      28.964  31.779  23.450  1.00  0.00     0.030 A 
ATOM     17  C   UNL A   1      28.027  31.551  20.896  1.00  0.00     0.111 A 
ATOM     18  C   UNL A   1      28.402  32.839  22.753  1.00  0.00     0.111 A 
ATOM     19  N   UNL A   1      27.953  32.759  21.483  1.00  0.00    -0.265 NA
ENDBRANCH  11  14
BRANCH  12  20
ATOM     20  C   UNL A   1      32.566  29.085  25.805  1.00  0.00     0.019 A 
ATOM     21  C   UNL A   1      33.649  28.212  25.982  1.00  0.00     0.012 A 
ATOM     22  C   UNL A   1      32.593  30.311  26.485  1.00  0.00     0.012 A 
ATOM     23  C   UNL A   1      34.752  28.585  26.760  1.00  0.00     0.014 A 
ATOM     24  C   UNL A   1      33.683  30.685  27.272  1.00  0.00     0.014 A 
ATOM     25  C   UNL A   1      34.789  29.837  27.394  1.00  0.00     0.056 A 
BRANCH  25  26
ATOM     26  C   UNL A   1      36.011  30.270  28.163  1.00  0.00     0.416 C 
ATOM     27  F   UNL A   1      37.162  29.741  27.662  1.00  0.00    -0.166 F 
ATOM     28  F   UNL A   1      36.182  31.621  28.144  1.00  0.00    -0.166 F 
ATOM     29  F   UNL A   1      35.981  29.920  29.479  1.00  0.00    -0.166 F 
ENDBRANCH  25  26
ENDBRANCH  12  20
ENDBRANCH   7   8
ENDBRANCH   6   7
ENDBRANCH   5   6
ENDBRANCH   2   5
BRANCH   3  30
ATOM     30  C   UNL A   1      34.458  22.889  23.991  1.00  0.00     0.117 C 
BRANCH  30  31
ATOM     31  C   UNL A   1      35.461  23.606  24.915  1.00  0.00     0.042 C 
BRANCH  31  32
ATOM     32  C   UNL A   1      35.944  22.813  26.141  1.00  0.00     0.118 C 
BRANCH  32  33
ATOM     33  N   UNL A   1      37.068  21.913  25.935  1.00  0.00    -0.352 N 
ATOM     34  C   UNL A   1      38.427  21.968  26.076  1.00  0.00     0.251 C 
ATOM     35  H   UNL A   1      36.773  21.033  25.607  1.00  0.00     0.163 HD
ATOM     36  O   UNL A   1      39.070  20.966  25.751  1.00  0.00    -0.269 OA
BRANCH  34  37
ATOM     37  C   UNL A   1      39.194  23.142  26.532  1.00  0.00     0.039 A 
ATOM     38  C   UNL A   1      40.213  22.920  27.479  1.00  0.00     0.014 A 
ATOM     39  C   UNL A   1      38.928  24.441  26.125  1.00  0.00     0.014 A 
ATOM     40  C   UNL A   1      40.980  23.980  27.965  1.00  0.00     0.010 A 
ATOM     41  C   UNL A   1      39.750  25.484  26.534  1.00  0.00     0.010 A 
ATOM     42  C   UNL A   1      40.780  25.266  27.458  1.00  0.00    -0.014 A 
BRANCH  42  43
ATOM     43  C   UNL A   1      41.626  26.414  27.855  1.00  0.00     0.031 A 
ATOM     44  C   UNL A   1      41.044  27.502  28.713  1.00  0.00     0.074 A 
ATOM     45  C   UNL A   1      42.859  26.530  27.333  1.00  0.00     0.049 A 
ATOM     46  N   UNL A   1      41.529  28.683  28.997  1.00  0.00    -0.248 NA
ATOM     47  C   UNL A   1      39.712  27.246  29.287  1.00  0.00     0.031 C 
ATOM     48  C   UNL A   1      43.504  25.552  26.453  1.00  0.00     0.029 A 
ATOM     49  N   UNL A   1      43.783  27.537  27.441  1.00  0.00    -0.354 N 
ATOM     50  C   UNL A   1      40.552  29.320  29.750  1.00  0.00     0.074 A 
ATOM     51  C   UNL A   1      39.423  28.419  29.830  1.00  0.00     0.031 C 
ATOM     52  C   UNL A   1      44.723  25.997  26.117  1.00  0.00     0.029 A 
ATOM     53  C   UNL A   1      44.924  27.314  26.709  1.00  0.00     0.049 A 
ATOM     54  H   UNL A   1      43.643  28.342  27.990  1.00  0.00     0.167 HD
ATOM     55  C   UNL A   1      40.604  30.538  30.337  1.00  0.00     0.037 A 
ATOM     56  C   UNL A   1      46.003  28.098  26.523  1.00  0.00     0.037 A 
ATOM     57  C   UNL A   1      41.753  31.405  30.275  1.00  0.00     0.049 A 
ATOM     58  C   UNL A   1      46.039  29.443  27.195  1.00  0.00     0.074 A 
ATOM     59  C   UNL A   1      41.943  32.633  30.879  1.00  0.00     0.029 A 
ATOM     60  N   UNL A   1      42.913  31.124  29.564  1.00  0.00    -0.354 N 
ATOM     61  N   UNL A   1      45.131  30.019  27.946  1.00  0.00    -0.248 NA
ATOM     62  C   UNL A   1      47.253  30.244  26.998  1.00  0.00     0.031 C 
ATOM     63  C   UNL A   1      43.197  33.119  30.495  1.00  0.00     0.029 A 
ATOM     64  C   UNL A   1      43.815  32.165  29.701  1.00  0.00     0.049 A 
ATOM     65  H   UNL A   1      43.069  30.305  29.039  1.00  0.00     0.167 HD
ATOM     66  C   UNL A   1      45.676  31.233  28.341  1.00  0.00     0.074 A 
ATOM     67  C   UNL A   1      47.000  31.303  27.756  1.00  0.00     0.031 C 
ATOM     68  C   UNL A   1      45.133  32.203  29.117  1.00  0.00     0.037 A 
BRANCH  55  69
ATOM     69  C   UNL A   1      39.391  31.002  31.094  1.00  0.00     0.064 A 
ATOM     70  C   UNL A   1      39.152  30.610  32.420  1.00  0.00     0.173 A 
ATOM     71  C   UNL A   1      38.464  31.868  30.494  1.00  0.00     0.173 A 
ATOM     72  F   UNL A   1      39.999  29.773  33.041  1.00  0.00    -0.203 F 
ATOM     73  C   UNL A   1      38.014  31.033  33.102  1.00  0.00     0.198 A 
ATOM     74  C   UNL A   1      37.346  32.320  31.191  1.00  0.00     0.198 A 
ATOM     75  F   UNL A   1      38.642  32.280  29.229  1.00  0.00    -0.203 F 
ATOM     76  F   UNL A   1      37.778  30.593  34.346  1.00  0.00    -0.200 F 
ATOM     77  C   UNL A   1      37.116  31.894  32.490  1.00  0.00     0.200 A 
ATOM     78  F   UNL A   1      36.486  33.162  30.602  1.00  0.00    -0.200 F 
ATOM     79  F   UNL A   1      36.023  32.305  33.148  1.00  0.00    -0.200 F 
ENDBRANCH  55  69
BRANCH  56  80
ATOM     80  C   UNL A   1      47.138  27.618  25.693  1.00  0.00     0.064 A 
ATOM     81  C   UNL A   1      48.205  26.922  26.276  1.00  0.00     0.173 A 
ATOM     82  C   UNL A   1      47.181  27.833  24.308  1.00  0.00     0.173 A 
ATOM     83  F   UNL A   1      48.218  26.701  27.599  1.00  0.00    -0.203 F 
ATOM     84  C   UNL A   1      49.285  26.484  25.512  1.00  0.00     0.198 A 
ATOM     85  C   UNL A   1      48.245  27.369  23.539  1.00  0.00     0.198 A 
ATOM     86  F   UNL A   1      46.179  28.485  23.697  1.00  0.00    -0.203 F 
ATOM     87  F   UNL A   1      50.316  25.866  26.104  1.00  0.00    -0.200 F 
ATOM     88  C   UNL A   1      49.302  26.703  24.143  1.00  0.00     0.200 A 
ATOM     89  F   UNL A   1      48.249  27.566  22.213  1.00  0.00    -0.200 F 
ATOM     90  F   UNL A   1      50.339  26.279  23.407  1.00  0.00    -0.200 F 
ENDBRANCH  56  80
BRANCH  68  91
ATOM     91  C   UNL A   1      45.991  33.397  29.419  1.00  0.00     0.064 A 
ATOM     92  C   UNL A   1      46.862  33.424  30.518  1.00  0.00     0.173 A 
ATOM     93  C   UNL A   1      45.964  34.516  28.573  1.00  0.00     0.173 A 
ATOM     94  F   UNL A   1      46.913  32.385  31.366  1.00  0.00    -0.203 F 
ATOM     95  C   UNL A   1      47.653  34.540  30.775  1.00  0.00     0.198 A 
ATOM     96  C   UNL A   1      46.783  35.615  28.812  1.00  0.00     0.198 A 
ATOM     97  F   UNL A   1      45.154  34.537  27.504  1.00  0.00    -0.203 F 
ATOM     98  F   UNL A   1      48.438  34.566  31.860  1.00  0.00    -0.200 F 
ATOM     99  C   UNL A   1      47.620  35.630  29.917  1.00  0.00     0.200 A 
ATOM    100  F   UNL A   1      46.763  36.659  27.973  1.00  0.00    -0.200 F 
ATOM    101  F   UNL A   1      48.390  36.699  30.161  1.00  0.00    -0.200 F 
ENDBRANCH  68  91
ENDBRANCH  42  43
ENDBRANCH  34  37
ENDBRANCH  32  33
ENDBRANCH  31  32
ENDBRANCH  30  31
ENDBRANCH   3  30
TORSDOF 16
ENDMDL
MODEL 3
REMARK VINA RESULT:     -12.8      3.347      9.216
REMARK SMILES O=C(CCOc1cc(-c2ccncc2)nc(-c2ccc(C(F)(F)F)cc2)n1)NCCCNC(=O)c1ccc(-c2c3nc(c(-c4c(F)c(F)c(F)c(F)c4F)c4ccc([nH]4)c(-c4c(F)c(F)c(F)c(F)c4F)c4nc(c(-c5c(F)c(F)c(F)c(F)c5F)c5ccc2[nH]5)C=C4)C=C3)cc1
REMARK SMILES IDX 1 1 2 2 28 3 3 5 4 6 5 7 6 8 7 9 27 10 8 11 16 12 15 13 9 14
REMARK SMILES IDX 10 15 14 16 11 17 13 18 12 19 17 20 18 21 26 22 19 23 25 24
REMARK SMILES IDX 20 25 21 26 22 27 23 28 24 29 29 30 30 31 31 32 32 33 33 34
REMARK SMILES IDX 34 36 35 37 36 38 97 39 37 40 96 41 38 42 39 43 40 44 90 45
REMARK SMILES IDX 41 46 95 47 89 48 91 49 42 50 94 51 88 52 87 53 43 55 75 56
REMARK SMILES IDX 55 57 74 58 56 59 59 60 73 61 92 62 57 63 58 64 72 66 93 67
REMARK SMILES IDX 60 68 44 69 45 70 53 71 46 72 47 73 51 74 54 75 48 76 49 77
REMARK SMILES IDX 52 78 50 79 76 80 77 81 85 82 78 83 79 84 83 85 86 86 80 87
REMARK SMILES IDX 81 88 84 89 82 90 61 91 62 92 70 93 63 94 64 95 68 96 71 97
REMARK SMILES IDX 65 98 66 99 69 100 67 101
REMARK H PARENT 28 4 32 35 91 54 59 65
REMARK Flexibility Score: inf
ROOT
ATOM      1  O   UNL A   1      36.902  32.794  28.258  1.00  0.00    -0.275 OA
ATOM      2  C   UNL A   1      35.796  32.286  28.102  1.00  0.00     0.223 C 
ATOM      3  N   UNL A   1      34.609  32.956  28.308  1.00  0.00    -0.356 N 
ATOM      4  H   UNL A   1      33.779  32.563  27.952  1.00  0.00     0.163 HD
ENDROOT
BRANCH   2   5
ATOM      5  C   UNL A   1      35.628  30.807  27.840  1.00  0.00     0.141 C 
BRANCH   5   6
ATOM      6  C   UNL A   1      34.139  30.437  27.843  1.00  0.00     0.241 C 
BRANCH   6   7
ATOM      7  O   UNL A   1      33.465  30.938  26.681  1.00  0.00    -0.477 OA
BRANCH   7   8
ATOM      8  C   UNL A   1      32.705  30.021  25.995  1.00  0.00     0.217 A 
ATOM      9  C   UNL A   1      31.489  30.354  25.452  1.00  0.00     0.097 A 
ATOM     10  N   UNL A   1      33.336  28.882  25.690  1.00  0.00    -0.193 NA
ATOM     11  C   UNL A   1      30.973  29.525  24.479  1.00  0.00     0.078 A 
ATOM     12  C   UNL A   1      32.712  28.076  24.806  1.00  0.00     0.163 A 
ATOM     13  N   UNL A   1      31.570  28.372  24.147  1.00  0.00    -0.228 NA
BRANCH  11  14
ATOM     14  C   UNL A   1      29.819  29.981  23.690  1.00  0.00     0.003 A 
ATOM     15  C   UNL A   1      29.134  31.158  24.021  1.00  0.00     0.030 A 
ATOM     16  C   UNL A   1      29.252  29.161  22.714  1.00  0.00     0.030 A 
ATOM     17  C   UNL A   1      27.902  31.419  23.444  1.00  0.00     0.111 A 
ATOM     18  C   UNL A   1      28.024  29.516  22.174  1.00  0.00     0.111 A 
ATOM     19  N   UNL A   1      27.325  30.613  22.533  1.00  0.00    -0.265 NA
ENDBRANCH  11  14
BRANCH  12  20
ATOM     20  C   UNL A   1      33.330  26.784  24.515  1.00  0.00     0.019 A 
ATOM     21  C   UNL A   1      34.196  26.168  25.431  1.00  0.00     0.012 A 
ATOM     22  C   UNL A   1      33.033  26.098  23.329  1.00  0.00     0.012 A 
ATOM     23  C   UNL A   1      34.692  24.880  25.196  1.00  0.00     0.014 A 
ATOM     24  C   UNL A   1      33.534  24.819  23.082  1.00  0.00     0.014 A 
ATOM     25  C   UNL A   1      34.346  24.184  24.027  1.00  0.00     0.056 A 
BRANCH  25  26
ATOM     26  C   UNL A   1      34.814  22.766  23.813  1.00  0.00     0.416 C 
ATOM     27  F   UNL A   1      33.926  22.024  23.095  1.00  0.00    -0.166 F 
ATOM     28  F   UNL A   1      35.990  22.707  23.129  1.00  0.00    -0.166 F 
ATOM     29  F   UNL A   1      35.024  22.080  24.971  1.00  0.00    -0.166 F 
ENDBRANCH  25  26
ENDBRANCH  12  20
ENDBRANCH   7   8
ENDBRANCH   6   7
ENDBRANCH   5   6
ENDBRANCH   2   5
BRANCH   3  30
ATOM     30  C   UNL A   1      34.531  34.216  29.028  1.00  0.00     0.117 C 
BRANCH  30  31
ATOM     31  C   UNL A   1      33.097  34.774  29.118  1.00  0.00     0.042 C 
BRANCH  31  32
ATOM     32  C   UNL A   1      32.962  36.229  29.598  1.00  0.00     0.118 C 
BRANCH  32  33
ATOM     33  N   UNL A   1      32.468  36.426  30.952  1.00  0.00    -0.352 N 
ATOM     34  C   UNL A   1      32.819  36.017  32.209  1.00  0.00     0.251 C 
ATOM     35  H   UNL A   1      31.674  37.006  30.969  1.00  0.00     0.163 HD
ATOM     36  O   UNL A   1      32.100  36.382  33.143  1.00  0.00    -0.269 OA
BRANCH  34  37
ATOM     37  C   UNL A   1      33.952  35.131  32.538  1.00  0.00     0.039 A 
ATOM     38  C   UNL A   1      35.249  35.637  32.330  1.00  0.00     0.014 A 
ATOM     39  C   UNL A   1      33.804  33.824  32.979  1.00  0.00     0.014 A 
ATOM     40  C   UNL A   1      36.373  34.859  32.610  1.00  0.00     0.010 A 
ATOM     41  C   UNL A   1      34.918  33.081  33.349  1.00  0.00     0.010 A 
ATOM     42  C   UNL A   1      36.211  33.588  33.167  1.00  0.00    -0.014 A 
BRANCH  42  43
ATOM     43  C   UNL A   1      37.361  32.753  33.581  1.00  0.00     0.031 A 
ATOM     44  C   UNL A   1      38.068  33.052  34.873  1.00  0.00     0.074 A 
ATOM     45  C   UNL A   1      37.836  31.825  32.731  1.00  0.00     0.049 A 
ATOM     46  N   UNL A   1      39.209  32.594  35.319  1.00  0.00    -0.248 NA
ATOM     47  C   UNL A   1      37.428  34.039  35.759  1.00  0.00     0.031 C 
ATOM     48  C   UNL A   1      37.250  31.485  31.432  1.00  0.00     0.029 A 
ATOM     49  N   UNL A   1      38.939  31.016  32.818  1.00  0.00    -0.354 N 
ATOM     50  C   UNL A   1      39.440  33.261  36.515  1.00  0.00     0.074 A 
ATOM     51  C   UNL A   1      38.351  34.196  36.697  1.00  0.00     0.031 C 
ATOM     52  C   UNL A   1      37.988  30.528  30.853  1.00  0.00     0.029 A 
ATOM     53  C   UNL A   1      39.127  30.225  31.711  1.00  0.00     0.049 A 
ATOM     54  H   UNL A   1      39.538  31.003  33.600  1.00  0.00     0.167 HD
ATOM     55  C   UNL A   1      40.459  33.090  37.389  1.00  0.00     0.037 A 
ATOM     56  C   UNL A   1      40.122  29.368  31.416  1.00  0.00     0.037 A 
ATOM     57  C   UNL A   1      41.514  32.127  37.206  1.00  0.00     0.049 A 
ATOM     58  C   UNL A   1      41.237  29.190  32.410  1.00  0.00     0.074 A 
ATOM     59  C   UNL A   1      42.564  31.824  38.052  1.00  0.00     0.029 A 
ATOM     60  N   UNL A   1      41.646  31.307  36.093  1.00  0.00    -0.354 N 
ATOM     61  N   UNL A   1      41.423  29.788  33.563  1.00  0.00    -0.248 NA
ATOM     62  C   UNL A   1      42.277  28.213  32.065  1.00  0.00     0.031 C 
ATOM     63  C   UNL A   1      43.359  30.855  37.430  1.00  0.00     0.029 A 
ATOM     64  C   UNL A   1      42.770  30.509  36.224  1.00  0.00     0.049 A 
ATOM     65  H   UNL A   1      41.030  31.295  35.324  1.00  0.00     0.167 HD
ATOM     66  C   UNL A   1      42.579  29.236  34.097  1.00  0.00     0.074 A 
ATOM     67  C   UNL A   1      43.043  28.246  33.146  1.00  0.00     0.031 C 
ATOM     68  C   UNL A   1      43.202  29.522  35.267  1.00  0.00     0.037 A 
BRANCH  55  69
ATOM     69  C   UNL A   1      40.480  33.958  38.616  1.00  0.00     0.064 A 
ATOM     70  C   UNL A   1      39.826  33.580  39.800  1.00  0.00     0.173 A 
ATOM     71  C   UNL A   1      41.179  35.174  38.618  1.00  0.00     0.173 A 
ATOM     72  F   UNL A   1      39.131  32.432  39.852  1.00  0.00    -0.203 F 
ATOM     73  C   UNL A   1      39.839  34.403  40.924  1.00  0.00     0.198 A 
ATOM     74  C   UNL A   1      41.221  35.978  39.755  1.00  0.00     0.198 A 
ATOM     75  F   UNL A   1      41.826  35.585  37.517  1.00  0.00    -0.203 F 
ATOM     76  F   UNL A   1      39.154  34.049  42.020  1.00  0.00    -0.200 F 
ATOM     77  C   UNL A   1      40.543  35.598  40.903  1.00  0.00     0.200 A 
ATOM     78  F   UNL A   1      41.912  37.126  39.737  1.00  0.00    -0.200 F 
ATOM     79  F   UNL A   1      40.559  36.387  41.986  1.00  0.00    -0.200 F 
ENDBRANCH  55  69
BRANCH  56  80
ATOM     80  C   UNL A   1      40.090  28.599  30.145  1.00  0.00     0.064 A 
ATOM     81  C   UNL A   1      39.442  27.358  30.077  1.00  0.00     0.173 A 
ATOM     82  C   UNL A   1      40.693  29.083  28.975  1.00  0.00     0.173 A 
ATOM     83  F   UNL A   1      38.861  26.845  31.172  1.00  0.00    -0.203 F 
ATOM     84  C   UNL A   1      39.422  26.618  28.897  1.00  0.00     0.198 A 
ATOM     85  C   UNL A   1      40.646  28.357  27.787  1.00  0.00     0.198 A 
ATOM     86  F   UNL A   1      41.317  30.271  28.983  1.00  0.00    -0.203 F 
ATOM     87  F   UNL A   1      38.840  25.411  28.875  1.00  0.00    -0.200 F 
ATOM     88  C   UNL A   1      40.019  27.120  27.751  1.00  0.00     0.200 A 
ATOM     89  F   UNL A   1      41.208  28.855  26.677  1.00  0.00    -0.200 F 
ATOM     90  F   UNL A   1      39.997  26.410  26.615  1.00  0.00    -0.200 F 
ENDBRANCH  56  80
BRANCH  68  91
ATOM     91  C   UNL A   1      44.422  28.715  35.606  1.00  0.00     0.064 A 
ATOM     92  C   UNL A   1      45.705  29.107  35.198  1.00  0.00     0.173 A 
ATOM     93  C   UNL A   1      44.305  27.552  36.382  1.00  0.00     0.173 A 
ATOM     94  F   UNL A   1      45.868  30.203  34.442  1.00  0.00    -0.203 F 
ATOM     95  C   UNL A   1      46.823  28.347  35.530  1.00  0.00     0.198 A 
ATOM     96  C   UNL A   1      45.428  26.815  36.742  1.00  0.00     0.198 A 
ATOM     97  F   UNL A   1      43.100  27.139  36.805  1.00  0.00    -0.203 F 
ATOM     98  F   UNL A   1      48.033  28.710  35.084  1.00  0.00    -0.200 F 
ATOM     99  C   UNL A   1      46.685  27.207  36.309  1.00  0.00     0.200 A 
ATOM    100  F   UNL A   1      45.294  25.724  37.510  1.00  0.00    -0.200 F 
ATOM    101  F   UNL A   1      47.764  26.482  36.635  1.00  0.00    -0.200 F 
ENDBRANCH  68  91
ENDBRANCH  42  43
ENDBRANCH  34  37
ENDBRANCH  32  33
ENDBRANCH  31  32
ENDBRANCH  30  31
ENDBRANCH   3  30
TORSDOF 16
ENDMDL
