MODEL 1
REMARK VINA RESULT:     -12.0      0.000      0.000
REMARK SMILES CCC(CC)(C(=O)NCCCNC(=O)c1ccc(-c2c3nc(c(-c4c(F)c(F)c(F)c(F)c4F)c4ccc([nH]4)c(-c4c(F)c(F)c(F)c(F)c4F)c4nc(c(-c5c(F)c(F)c(F)c(F)c5F)c5ccc2[nH]5)C=C4)C=C3)cc1)n1nnnc1C[C@@H](C)C(C)(C)C
REMARK SMILES IDX 9 1 8 2 6 3 7 4 3 6 2 7 1 8 4 9 5 10 78 11 79 12 82 13 80 14
REMARK SMILES IDX 81 15 83 16 84 17 85 18 86 19 87 20 88 21 89 22 10 23 11 24
REMARK SMILES IDX 12 25 13 26 14 28 15 29 16 30 77 31 17 32 76 33 18 34 19 35
REMARK SMILES IDX 20 36 70 37 21 38 75 39 69 40 71 41 22 42 74 43 68 44 67 45
REMARK SMILES IDX 23 47 55 48 35 49 54 50 36 51 39 52 53 53 72 54 37 55 38 56
REMARK SMILES IDX 52 58 73 59 40 60 24 61 25 62 33 63 26 64 27 65 31 66 34 67
REMARK SMILES IDX 28 68 29 69 32 70 30 71 56 72 57 73 65 74 58 75 59 76 63 77
REMARK SMILES IDX 66 78 60 79 61 80 64 81 62 82 41 83 42 84 50 85 43 86 44 87
REMARK SMILES IDX 48 88 51 89 45 90 46 91 49 92 47 93
REMARK H PARENT 8 5 12 27 71 46 39 57
REMARK Flexibility Score: inf
ROOT
ATOM      1  C   UNL A   1      31.586  30.617  26.290  1.00  0.00     0.117 C 
ENDROOT
BRANCH   1   2
ATOM      2  N   UNL A   1      31.413  30.217  24.902  1.00  0.00    -0.354 N 
ATOM      3  C   UNL A   1      31.723  29.061  24.224  1.00  0.00     0.248 C 
ATOM      4  O   UNL A   1      31.143  28.958  23.141  1.00  0.00    -0.272 OA
ATOM      5  H   UNL A   1      30.993  30.908  24.338  1.00  0.00     0.163 HD
BRANCH   3   6
ATOM      6  C   UNL A   1      32.661  27.952  24.837  1.00  0.00     0.144 C 
BRANCH   6   7
ATOM      7  C   UNL A   1      33.936  28.699  25.363  1.00  0.00     0.037 C 
ATOM      8  C   UNL A   1      34.376  28.572  26.808  1.00  0.00     0.007 C 
ENDBRANCH   6   7
BRANCH   6   9
ATOM      9  C   UNL A   1      31.721  27.072  25.729  1.00  0.00     0.037 C 
ATOM     10  C   UNL A   1      30.563  26.260  25.183  1.00  0.00     0.007 C 
ENDBRANCH   6   9
BRANCH   6  11
ATOM     11  N   UNL A   1      33.169  26.990  23.789  1.00  0.00    -0.214 N 
ATOM     12  N   UNL A   1      33.115  27.286  22.476  1.00  0.00    -0.044 NA
ATOM     13  C   UNL A   1      33.847  25.778  23.927  1.00  0.00     0.152 A 
ATOM     14  N   UNL A   1      33.590  26.232  21.836  1.00  0.00    -0.024 NA
ATOM     15  N   UNL A   1      34.064  25.303  22.715  1.00  0.00    -0.114 NA
BRANCH  13  16
ATOM     16  C   UNL A   1      34.420  25.187  25.176  1.00  0.00     0.083 C 
BRANCH  16  17
ATOM     17  C   UNL A   1      35.085  23.795  25.061  1.00  0.00    -0.001 C 
ATOM     18  C   UNL A   1      36.455  23.815  25.758  1.00  0.00     0.008 C 
BRANCH  17  19
ATOM     19  C   UNL A   1      34.132  22.642  25.602  1.00  0.00    -0.035 C 
ATOM     20  C   UNL A   1      34.928  21.598  26.424  1.00  0.00     0.011 C 
ATOM     21  C   UNL A   1      33.057  23.210  26.553  1.00  0.00     0.011 C 
ATOM     22  C   UNL A   1      33.418  21.894  24.458  1.00  0.00     0.011 C 
ENDBRANCH  17  19
ENDBRANCH  16  17
ENDBRANCH  13  16
ENDBRANCH   6  11
ENDBRANCH   3   6
ENDBRANCH   1   2
BRANCH   1  23
ATOM     23  C   UNL A   1      31.438  32.106  26.537  1.00  0.00     0.042 C 
BRANCH  23  24
ATOM     24  C   UNL A   1      32.592  32.713  27.310  1.00  0.00     0.118 C 
BRANCH  24  25
ATOM     25  N   UNL A   1      32.386  34.124  27.620  1.00  0.00    -0.352 N 
ATOM     26  C   UNL A   1      32.963  34.924  28.574  1.00  0.00     0.251 C 
ATOM     27  H   UNL A   1      31.723  34.577  27.050  1.00  0.00     0.163 HD
ATOM     28  O   UNL A   1      32.494  36.036  28.802  1.00  0.00    -0.269 OA
BRANCH  26  29
ATOM     29  C   UNL A   1      34.127  34.444  29.348  1.00  0.00     0.039 A 
ATOM     30  C   UNL A   1      33.921  33.856  30.599  1.00  0.00     0.014 A 
ATOM     31  C   UNL A   1      35.421  34.568  28.841  1.00  0.00     0.014 A 
ATOM     32  C   UNL A   1      35.006  33.319  31.296  1.00  0.00     0.010 A 
ATOM     33  C   UNL A   1      36.476  33.925  29.474  1.00  0.00     0.010 A 
ATOM     34  C   UNL A   1      36.284  33.304  30.715  1.00  0.00    -0.014 A 
BRANCH  34  35
ATOM     35  C   UNL A   1      37.441  32.663  31.389  1.00  0.00     0.031 A 
ATOM     36  C   UNL A   1      38.145  31.506  30.732  1.00  0.00     0.074 A 
ATOM     37  C   UNL A   1      37.802  33.064  32.623  1.00  0.00     0.049 A 
ATOM     38  N   UNL A   1      39.108  30.750  31.197  1.00  0.00    -0.248 NA
ATOM     39  C   UNL A   1      37.678  31.119  29.391  1.00  0.00     0.031 C 
ATOM     40  C   UNL A   1      37.156  34.134  33.388  1.00  0.00     0.029 A 
ATOM     41  N   UNL A   1      38.793  32.613  33.457  1.00  0.00    -0.354 N 
ATOM     42  C   UNL A   1      39.340  29.792  30.220  1.00  0.00     0.074 A 
ATOM     43  C   UNL A   1      38.378  30.019  29.164  1.00  0.00     0.031 C 
ATOM     44  C   UNL A   1      37.786  34.274  34.565  1.00  0.00     0.029 A 
ATOM     45  C   UNL A   1      38.849  33.279  34.658  1.00  0.00     0.049 A 
ATOM     46  H   UNL A   1      39.406  31.881  33.219  1.00  0.00     0.167 HD
ATOM     47  C   UNL A   1      40.288  28.827  30.191  1.00  0.00     0.037 A 
ATOM     48  C   UNL A   1      39.660  33.100  35.718  1.00  0.00     0.037 A 
ATOM     49  C   UNL A   1      41.268  28.632  31.227  1.00  0.00     0.049 A 
ATOM     50  C   UNL A   1      40.716  32.029  35.656  1.00  0.00     0.074 A 
ATOM     51  C   UNL A   1      42.321  27.736  31.261  1.00  0.00     0.029 A 
ATOM     52  N   UNL A   1      41.311  29.347  32.416  1.00  0.00    -0.354 N 
ATOM     53  N   UNL A   1      40.976  31.179  34.693  1.00  0.00    -0.248 NA
ATOM     54  C   UNL A   1      41.597  31.900  36.825  1.00  0.00     0.031 C 
ATOM     55  C   UNL A   1      42.968  27.870  32.493  1.00  0.00     0.029 A 
ATOM     56  C   UNL A   1      42.358  28.893  33.201  1.00  0.00     0.049 A 
ATOM     57  H   UNL A   1      40.691  30.070  32.664  1.00  0.00     0.167 HD
ATOM     58  C   UNL A   1      42.064  30.433  35.125  1.00  0.00     0.074 A 
ATOM     59  C   UNL A   1      42.426  30.943  36.432  1.00  0.00     0.031 C 
ATOM     60  C   UNL A   1      42.706  29.416  34.498  1.00  0.00     0.037 A 
BRANCH  47  61
ATOM     61  C   UNL A   1      40.318  27.910  29.003  1.00  0.00     0.064 A 
ATOM     62  C   UNL A   1      39.598  26.705  28.978  1.00  0.00     0.173 A 
ATOM     63  C   UNL A   1      41.047  28.258  27.855  1.00  0.00     0.173 A 
ATOM     64  F   UNL A   1      38.894  26.317  30.053  1.00  0.00    -0.203 F 
ATOM     65  C   UNL A   1      39.629  25.872  27.862  1.00  0.00     0.198 A 
ATOM     66  C   UNL A   1      41.049  27.440  26.729  1.00  0.00     0.198 A 
ATOM     67  F   UNL A   1      41.751  29.400  27.822  1.00  0.00    -0.203 F 
ATOM     68  F   UNL A   1      38.976  24.702  27.884  1.00  0.00    -0.200 F 
ATOM     69  C   UNL A   1      40.347  26.243  26.736  1.00  0.00     0.200 A 
ATOM     70  F   UNL A   1      41.731  27.808  25.636  1.00  0.00    -0.200 F 
ATOM     71  F   UNL A   1      40.367  25.446  25.659  1.00  0.00    -0.200 F 
ENDBRANCH  47  61
BRANCH  48  72
ATOM     72  C   UNL A   1      39.521  33.972  36.914  1.00  0.00     0.064 A 
ATOM     73  C   UNL A   1      38.769  33.557  38.023  1.00  0.00     0.173 A 
ATOM     74  C   UNL A   1      40.138  35.229  36.979  1.00  0.00     0.173 A 
ATOM     75  F   UNL A   1      38.145  32.371  38.003  1.00  0.00    -0.203 F 
ATOM     76  C   UNL A   1      38.625  34.376  39.142  1.00  0.00     0.198 A 
ATOM     77  C   UNL A   1      40.020  36.033  38.110  1.00  0.00     0.198 A 
ATOM     78  F   UNL A   1      40.876  35.669  35.949  1.00  0.00    -0.203 F 
ATOM     79  F   UNL A   1      37.866  33.973  40.170  1.00  0.00    -0.200 F 
ATOM     80  C   UNL A   1      39.256  35.609  39.188  1.00  0.00     0.200 A 
ATOM     81  F   UNL A   1      40.646  37.216  38.158  1.00  0.00    -0.200 F 
ATOM     82  F   UNL A   1      39.125  36.392  40.268  1.00  0.00    -0.200 F 
ENDBRANCH  48  72
BRANCH  60  83
ATOM     83  C   UNL A   1      43.889  28.811  35.197  1.00  0.00     0.064 A 
ATOM     84  C   UNL A   1      43.749  27.742  36.094  1.00  0.00     0.173 A 
ATOM     85  C   UNL A   1      45.185  29.278  34.929  1.00  0.00     0.173 A 
ATOM     86  F   UNL A   1      42.530  27.267  36.394  1.00  0.00    -0.203 F 
ATOM     87  C   UNL A   1      44.861  27.181  36.717  1.00  0.00     0.198 A 
ATOM     88  C   UNL A   1      46.296  28.692  35.527  1.00  0.00     0.198 A 
ATOM     89  F   UNL A   1      45.375  30.294  34.072  1.00  0.00    -0.203 F 
ATOM     90  F   UNL A   1      44.698  26.193  37.608  1.00  0.00    -0.200 F 
ATOM     91  C   UNL A   1      46.133  27.650  36.426  1.00  0.00     0.200 A 
ATOM     92  F   UNL A   1      47.527  29.135  35.231  1.00  0.00    -0.200 F 
ATOM     93  F   UNL A   1      47.202  27.101  37.019  1.00  0.00    -0.200 F 
ENDBRANCH  60  83
ENDBRANCH  34  35
ENDBRANCH  26  29
ENDBRANCH  24  25
ENDBRANCH  23  24
ENDBRANCH   1  23
TORSDOF 16
ENDMDL
MODEL 2
REMARK VINA RESULT:     -11.9      0.276      1.617
REMARK SMILES CCC(CC)(C(=O)NCCCNC(=O)c1ccc(-c2c3nc(c(-c4c(F)c(F)c(F)c(F)c4F)c4ccc([nH]4)c(-c4c(F)c(F)c(F)c(F)c4F)c4nc(c(-c5c(F)c(F)c(F)c(F)c5F)c5ccc2[nH]5)C=C4)C=C3)cc1)n1nnnc1C[C@@H](C)C(C)(C)C
REMARK SMILES IDX 9 1 8 2 6 3 7 4 3 6 2 7 1 8 4 9 5 10 78 11 79 12 82 13 80 14
REMARK SMILES IDX 81 15 83 16 84 17 85 18 86 19 87 20 88 21 89 22 10 23 11 24
REMARK SMILES IDX 12 25 13 26 14 28 15 29 16 30 77 31 17 32 76 33 18 34 19 35
REMARK SMILES IDX 20 36 70 37 21 38 75 39 69 40 71 41 22 42 74 43 68 44 67 45
REMARK SMILES IDX 23 47 55 48 35 49 54 50 36 51 39 52 53 53 72 54 37 55 38 56
REMARK SMILES IDX 52 58 73 59 40 60 24 61 25 62 33 63 26 64 27 65 31 66 34 67
REMARK SMILES IDX 28 68 29 69 32 70 30 71 56 72 57 73 65 74 58 75 59 76 63 77
REMARK SMILES IDX 66 78 60 79 61 80 64 81 62 82 41 83 42 84 50 85 43 86 44 87
REMARK SMILES IDX 48 88 51 89 45 90 46 91 49 92 47 93
REMARK H PARENT 8 5 12 27 71 46 39 57
REMARK Flexibility Score: inf
ROOT
ATOM      1  C   UNL A   1      31.583  30.684  26.324  1.00  0.00     0.117 C 
ENDROOT
BRANCH   1   2
ATOM      2  N   UNL A   1      31.440  30.307  24.926  1.00  0.00    -0.354 N 
ATOM      3  C   UNL A   1      31.741  29.153  24.240  1.00  0.00     0.248 C 
ATOM      4  O   UNL A   1      31.190  29.080  23.140  1.00  0.00    -0.272 OA
ATOM      5  H   UNL A   1      31.053  31.015  24.360  1.00  0.00     0.163 HD
BRANCH   3   6
ATOM      6  C   UNL A   1      32.634  28.013  24.864  1.00  0.00     0.144 C 
BRANCH   6   7
ATOM      7  C   UNL A   1      33.901  28.725  25.457  1.00  0.00     0.037 C 
ATOM      8  C   UNL A   1      34.321  28.498  26.897  1.00  0.00     0.007 C 
ENDBRANCH   6   7
BRANCH   6   9
ATOM      9  C   UNL A   1      31.644  27.131  25.697  1.00  0.00     0.037 C 
ATOM     10  C   UNL A   1      30.394  26.498  25.119  1.00  0.00     0.007 C 
ENDBRANCH   6   9
BRANCH   6  11
ATOM     11  N   UNL A   1      33.167  27.066  23.814  1.00  0.00    -0.214 N 
ATOM     12  N   UNL A   1      33.276  27.435  22.523  1.00  0.00    -0.044 NA
ATOM     13  C   UNL A   1      33.724  25.793  23.944  1.00  0.00     0.152 A 
ATOM     14  N   UNL A   1      33.725  26.378  21.871  1.00  0.00    -0.024 NA
ATOM     15  N   UNL A   1      34.025  25.365  22.733  1.00  0.00    -0.114 NA
BRANCH  13  16
ATOM     16  C   UNL A   1      34.112  25.089  25.206  1.00  0.00     0.083 C 
BRANCH  16  17
ATOM     17  C   UNL A   1      34.385  23.569  25.112  1.00  0.00    -0.001 C 
ATOM     18  C   UNL A   1      35.890  23.302  25.276  1.00  0.00     0.008 C 
BRANCH  17  19
ATOM     19  C   UNL A   1      33.496  22.747  26.144  1.00  0.00    -0.035 C 
ATOM     20  C   UNL A   1      34.320  22.332  27.387  1.00  0.00     0.011 C 
ATOM     21  C   UNL A   1      32.322  23.602  26.671  1.00  0.00     0.011 C 
ATOM     22  C   UNL A   1      32.914  21.464  25.516  1.00  0.00     0.011 C 
ENDBRANCH  17  19
ENDBRANCH  16  17
ENDBRANCH  13  16
ENDBRANCH   6  11
ENDBRANCH   3   6
ENDBRANCH   1   2
BRANCH   1  23
ATOM     23  C   UNL A   1      31.410  32.166  26.595  1.00  0.00     0.042 C 
BRANCH  23  24
ATOM     24  C   UNL A   1      32.617  32.810  27.250  1.00  0.00     0.118 C 
BRANCH  24  25
ATOM     25  N   UNL A   1      32.392  34.208  27.599  1.00  0.00    -0.352 N 
ATOM     26  C   UNL A   1      32.954  34.987  28.580  1.00  0.00     0.251 C 
ATOM     27  H   UNL A   1      31.728  34.670  27.038  1.00  0.00     0.163 HD
ATOM     28  O   UNL A   1      32.471  36.086  28.837  1.00  0.00    -0.269 OA
BRANCH  26  29
ATOM     29  C   UNL A   1      34.118  34.497  29.347  1.00  0.00     0.039 A 
ATOM     30  C   UNL A   1      33.915  33.908  30.598  1.00  0.00     0.014 A 
ATOM     31  C   UNL A   1      35.411  34.615  28.835  1.00  0.00     0.014 A 
ATOM     32  C   UNL A   1      34.999  33.362  31.289  1.00  0.00     0.010 A 
ATOM     33  C   UNL A   1      36.465  33.964  29.462  1.00  0.00     0.010 A 
ATOM     34  C   UNL A   1      36.275  33.341  30.702  1.00  0.00    -0.014 A 
BRANCH  34  35
ATOM     35  C   UNL A   1      37.431  32.691  31.369  1.00  0.00     0.031 A 
ATOM     36  C   UNL A   1      38.128  31.535  30.704  1.00  0.00     0.074 A 
ATOM     37  C   UNL A   1      37.796  33.083  32.605  1.00  0.00     0.049 A 
ATOM     38  N   UNL A   1      39.089  30.773  31.162  1.00  0.00    -0.248 NA
ATOM     39  C   UNL A   1      37.656  31.159  29.361  1.00  0.00     0.031 C 
ATOM     40  C   UNL A   1      37.157  34.150  33.378  1.00  0.00     0.029 A 
ATOM     41  N   UNL A   1      38.787  32.623  33.434  1.00  0.00    -0.354 N 
ATOM     42  C   UNL A   1      39.315  29.820  30.178  1.00  0.00     0.074 A 
ATOM     43  C   UNL A   1      38.352  30.056  29.126  1.00  0.00     0.031 C 
ATOM     44  C   UNL A   1      37.790  34.281  34.555  1.00  0.00     0.029 A 
ATOM     45  C   UNL A   1      38.849  33.281  34.639  1.00  0.00     0.049 A 
ATOM     46  H   UNL A   1      39.397  31.890  33.190  1.00  0.00     0.167 HD
ATOM     47  C   UNL A   1      40.259  28.850  30.142  1.00  0.00     0.037 A 
ATOM     48  C   UNL A   1      39.662  33.092  35.695  1.00  0.00     0.037 A 
ATOM     49  C   UNL A   1      41.240  28.646  31.174  1.00  0.00     0.049 A 
ATOM     50  C   UNL A   1      40.713  32.018  35.624  1.00  0.00     0.074 A 
ATOM     51  C   UNL A   1      42.290  27.745  31.199  1.00  0.00     0.029 A 
ATOM     52  N   UNL A   1      41.289  29.353  32.367  1.00  0.00    -0.354 N 
ATOM     53  N   UNL A   1      40.968  31.172  34.655  1.00  0.00    -0.248 NA
ATOM     54  C   UNL A   1      41.596  31.878  36.790  1.00  0.00     0.031 C 
ATOM     55  C   UNL A   1      42.941  27.868  32.431  1.00  0.00     0.029 A 
ATOM     56  C   UNL A   1      42.337  28.890  33.147  1.00  0.00     0.049 A 
ATOM     57  H   UNL A   1      40.673  30.077  32.621  1.00  0.00     0.167 HD
ATOM     58  C   UNL A   1      42.053  30.419  35.081  1.00  0.00     0.074 A 
ATOM     59  C   UNL A   1      42.420  30.920  36.389  1.00  0.00     0.031 C 
ATOM     60  C   UNL A   1      42.690  29.404  34.446  1.00  0.00     0.037 A 
BRANCH  47  61
ATOM     61  C   UNL A   1      40.282  27.941  28.947  1.00  0.00     0.064 A 
ATOM     62  C   UNL A   1      41.041  28.238  27.804  1.00  0.00     0.173 A 
ATOM     63  C   UNL A   1      39.566  26.734  28.959  1.00  0.00     0.173 A 
ATOM     64  F   UNL A   1      41.735  29.385  27.734  1.00  0.00    -0.203 F 
ATOM     65  C   UNL A   1      41.059  27.378  26.709  1.00  0.00     0.198 A 
ATOM     66  C   UNL A   1      39.613  25.859  27.877  1.00  0.00     0.198 A 
ATOM     67  F   UNL A   1      38.827  26.397  30.027  1.00  0.00    -0.203 F 
ATOM     68  F   UNL A   1      41.748  27.710  25.610  1.00  0.00    -0.200 F 
ATOM     69  C   UNL A   1      40.353  26.186  26.750  1.00  0.00     0.200 A 
ATOM     70  F   UNL A   1      38.942  24.701  27.924  1.00  0.00    -0.200 F 
ATOM     71  F   UNL A   1      40.379  25.353  25.700  1.00  0.00    -0.200 F 
ENDBRANCH  47  61
BRANCH  48  72
ATOM     72  C   UNL A   1      39.529  33.957  36.897  1.00  0.00     0.064 A 
ATOM     73  C   UNL A   1      38.787  33.535  38.010  1.00  0.00     0.173 A 
ATOM     74  C   UNL A   1      40.143  35.216  36.964  1.00  0.00     0.173 A 
ATOM     75  F   UNL A   1      38.166  32.347  37.988  1.00  0.00    -0.203 F 
ATOM     76  C   UNL A   1      38.649  34.347  39.134  1.00  0.00     0.198 A 
ATOM     77  C   UNL A   1      40.031  36.014  38.101  1.00  0.00     0.198 A 
ATOM     78  F   UNL A   1      40.872  35.664  35.931  1.00  0.00    -0.203 F 
ATOM     79  F   UNL A   1      37.899  33.937  40.165  1.00  0.00    -0.200 F 
ATOM     80  C   UNL A   1      39.277  35.582  39.182  1.00  0.00     0.200 A 
ATOM     81  F   UNL A   1      40.654  37.199  38.150  1.00  0.00    -0.200 F 
ATOM     82  F   UNL A   1      39.151  36.359  40.267  1.00  0.00    -0.200 F 
ENDBRANCH  48  72
BRANCH  60  83
ATOM     83  C   UNL A   1      43.871  28.790  35.139  1.00  0.00     0.064 A 
ATOM     84  C   UNL A   1      45.172  29.278  34.952  1.00  0.00     0.173 A 
ATOM     85  C   UNL A   1      43.692  27.727  36.037  1.00  0.00     0.173 A 
ATOM     86  F   UNL A   1      45.400  30.285  34.094  1.00  0.00    -0.203 F 
ATOM     87  C   UNL A   1      46.254  28.708  35.620  1.00  0.00     0.198 A 
ATOM     88  C   UNL A   1      44.769  27.182  36.729  1.00  0.00     0.198 A 
ATOM     89  F   UNL A   1      42.466  27.227  36.258  1.00  0.00    -0.203 F 
ATOM     90  F   UNL A   1      47.494  29.159  35.388  1.00  0.00    -0.200 F 
ATOM     91  C   UNL A   1      46.051  27.667  36.513  1.00  0.00     0.200 A 
ATOM     92  F   UNL A   1      44.569  26.188  37.606  1.00  0.00    -0.200 F 
ATOM     93  F   UNL A   1      47.090  27.128  37.162  1.00  0.00    -0.200 F 
ENDBRANCH  60  83
ENDBRANCH  34  35
ENDBRANCH  26  29
ENDBRANCH  24  25
ENDBRANCH  23  24
ENDBRANCH   1  23
TORSDOF 16
ENDMDL
MODEL 3
REMARK VINA RESULT:     -11.9      0.334      2.035
REMARK SMILES CCC(CC)(C(=O)NCCCNC(=O)c1ccc(-c2c3nc(c(-c4c(F)c(F)c(F)c(F)c4F)c4ccc([nH]4)c(-c4c(F)c(F)c(F)c(F)c4F)c4nc(c(-c5c(F)c(F)c(F)c(F)c5F)c5ccc2[nH]5)C=C4)C=C3)cc1)n1nnnc1C[C@@H](C)C(C)(C)C
REMARK SMILES IDX 9 1 8 2 6 3 7 4 3 6 2 7 1 8 4 9 5 10 78 11 79 12 82 13 80 14
REMARK SMILES IDX 81 15 83 16 84 17 85 18 86 19 87 20 88 21 89 22 10 23 11 24
REMARK SMILES IDX 12 25 13 26 14 28 15 29 16 30 77 31 17 32 76 33 18 34 19 35
REMARK SMILES IDX 20 36 70 37 21 38 75 39 69 40 71 41 22 42 74 43 68 44 67 45
REMARK SMILES IDX 23 47 55 48 35 49 54 50 36 51 39 52 53 53 72 54 37 55 38 56
REMARK SMILES IDX 52 58 73 59 40 60 24 61 25 62 33 63 26 64 27 65 31 66 34 67
REMARK SMILES IDX 28 68 29 69 32 70 30 71 56 72 57 73 65 74 58 75 59 76 63 77
REMARK SMILES IDX 66 78 60 79 61 80 64 81 62 82 41 83 42 84 50 85 43 86 44 87
REMARK SMILES IDX 48 88 51 89 45 90 46 91 49 92 47 93
REMARK H PARENT 8 5 12 27 71 46 39 57
REMARK Flexibility Score: inf
ROOT
ATOM      1  C   UNL A   1      31.580  30.642  26.250  1.00  0.00     0.117 C 
ENDROOT
BRANCH   1   2
ATOM      2  N   UNL A   1      31.447  30.272  24.849  1.00  0.00    -0.354 N 
ATOM      3  C   UNL A   1      31.748  29.119  24.162  1.00  0.00     0.248 C 
ATOM      4  O   UNL A   1      31.206  29.052  23.057  1.00  0.00    -0.272 OA
ATOM      5  H   UNL A   1      31.068  30.984  24.283  1.00  0.00     0.163 HD
BRANCH   3   6
ATOM      6  C   UNL A   1      32.630  27.972  24.789  1.00  0.00     0.144 C 
BRANCH   6   7
ATOM      7  C   UNL A   1      33.909  28.672  25.369  1.00  0.00     0.037 C 
ATOM      8  C   UNL A   1      34.302  28.499  26.824  1.00  0.00     0.007 C 
ENDBRANCH   6   7
BRANCH   6   9
ATOM      9  C   UNL A   1      31.634  27.108  25.634  1.00  0.00     0.037 C 
ATOM     10  C   UNL A   1      30.347  26.529  25.081  1.00  0.00     0.007 C 
ENDBRANCH   6   9
BRANCH   6  11
ATOM     11  N   UNL A   1      33.145  27.011  23.743  1.00  0.00    -0.214 N 
ATOM     12  N   UNL A   1      33.129  27.321  22.432  1.00  0.00    -0.044 NA
ATOM     13  C   UNL A   1      33.795  25.784  23.884  1.00  0.00     0.152 A 
ATOM     14  N   UNL A   1      33.599  26.265  21.793  1.00  0.00    -0.024 NA
ATOM     15  N   UNL A   1      34.032  25.318  22.673  1.00  0.00    -0.114 NA
BRANCH  13  16
ATOM     16  C   UNL A   1      34.326  25.170  25.141  1.00  0.00     0.083 C 
BRANCH  16  17
ATOM     17  C   UNL A   1      33.600  23.912  25.674  1.00  0.00    -0.001 C 
ATOM     18  C   UNL A   1      32.475  23.512  24.705  1.00  0.00     0.008 C 
BRANCH  17  19
ATOM     19  C   UNL A   1      34.618  22.724  25.964  1.00  0.00    -0.035 C 
ATOM     20  C   UNL A   1      36.074  23.244  26.054  1.00  0.00     0.011 C 
ATOM     21  C   UNL A   1      34.316  22.052  27.321  1.00  0.00     0.011 C 
ATOM     22  C   UNL A   1      34.573  21.640  24.868  1.00  0.00     0.011 C 
ENDBRANCH  17  19
ENDBRANCH  16  17
ENDBRANCH  13  16
ENDBRANCH   6  11
ENDBRANCH   3   6
ENDBRANCH   1   2
BRANCH   1  23
ATOM     23  C   UNL A   1      31.422  32.126  26.524  1.00  0.00     0.042 C 
BRANCH  23  24
ATOM     24  C   UNL A   1      32.585  32.731  27.287  1.00  0.00     0.118 C 
BRANCH  24  25
ATOM     25  N   UNL A   1      32.381  34.140  27.603  1.00  0.00    -0.352 N 
ATOM     26  C   UNL A   1      32.963  34.936  28.559  1.00  0.00     0.251 C 
ATOM     27  H   UNL A   1      31.716  34.597  27.039  1.00  0.00     0.163 HD
ATOM     28  O   UNL A   1      32.496  36.047  28.794  1.00  0.00    -0.269 OA
BRANCH  26  29
ATOM     29  C   UNL A   1      34.129  34.451  29.326  1.00  0.00     0.039 A 
ATOM     30  C   UNL A   1      33.926  33.816  30.554  1.00  0.00     0.014 A 
ATOM     31  C   UNL A   1      35.425  34.617  28.835  1.00  0.00     0.014 A 
ATOM     32  C   UNL A   1      35.015  33.276  31.242  1.00  0.00     0.010 A 
ATOM     33  C   UNL A   1      36.487  33.972  29.454  1.00  0.00     0.010 A 
ATOM     34  C   UNL A   1      36.297  33.305  30.671  1.00  0.00    -0.014 A 
BRANCH  34  35
ATOM     35  C   UNL A   1      37.461  32.663  31.332  1.00  0.00     0.031 A 
ATOM     36  C   UNL A   1      38.161  31.510  30.665  1.00  0.00     0.074 A 
ATOM     37  C   UNL A   1      37.831  33.059  32.566  1.00  0.00     0.049 A 
ATOM     38  N   UNL A   1      39.129  30.754  31.118  1.00  0.00    -0.248 NA
ATOM     39  C   UNL A   1      37.684  31.129  29.325  1.00  0.00     0.031 C 
ATOM     40  C   UNL A   1      37.190  34.123  33.341  1.00  0.00     0.029 A 
ATOM     41  N   UNL A   1      38.830  32.605  33.389  1.00  0.00    -0.354 N 
ATOM     42  C   UNL A   1      39.355  29.801  30.134  1.00  0.00     0.074 A 
ATOM     43  C   UNL A   1      38.384  30.030  29.088  1.00  0.00     0.031 C 
ATOM     44  C   UNL A   1      37.829  34.260  34.514  1.00  0.00     0.029 A 
ATOM     45  C   UNL A   1      38.895  33.265  34.593  1.00  0.00     0.049 A 
ATOM     46  H   UNL A   1      39.442  31.875  33.142  1.00  0.00     0.167 HD
ATOM     47  C   UNL A   1      40.304  28.837  30.093  1.00  0.00     0.037 A 
ATOM     48  C   UNL A   1      39.715  33.083  35.645  1.00  0.00     0.037 A 
ATOM     49  C   UNL A   1      41.293  28.639  31.120  1.00  0.00     0.049 A 
ATOM     50  C   UNL A   1      40.772  32.014  35.569  1.00  0.00     0.074 A 
ATOM     51  C   UNL A   1      42.348  27.745  31.141  1.00  0.00     0.029 A 
ATOM     52  N   UNL A   1      41.345  29.349  32.312  1.00  0.00    -0.354 N 
ATOM     53  N   UNL A   1      41.026  31.169  34.600  1.00  0.00    -0.248 NA
ATOM     54  C   UNL A   1      41.663  31.881  36.730  1.00  0.00     0.031 C 
ATOM     55  C   UNL A   1      43.005  27.874  32.368  1.00  0.00     0.029 A 
ATOM     56  C   UNL A   1      42.399  28.892  33.086  1.00  0.00     0.049 A 
ATOM     57  H   UNL A   1      40.725  30.070  32.569  1.00  0.00     0.167 HD
ATOM     58  C   UNL A   1      42.118  30.423  35.020  1.00  0.00     0.074 A 
ATOM     59  C   UNL A   1      42.490  30.927  36.326  1.00  0.00     0.031 C 
ATOM     60  C   UNL A   1      42.757  29.411  34.383  1.00  0.00     0.037 A 
BRANCH  47  61
ATOM     61  C   UNL A   1      40.326  27.926  28.900  1.00  0.00     0.064 A 
ATOM     62  C   UNL A   1      41.059  28.237  27.744  1.00  0.00     0.173 A 
ATOM     63  C   UNL A   1      39.635  26.705  28.926  1.00  0.00     0.173 A 
ATOM     64  F   UNL A   1      41.728  29.397  27.660  1.00  0.00    -0.203 F 
ATOM     65  C   UNL A   1      41.076  27.374  26.650  1.00  0.00     0.198 A 
ATOM     66  C   UNL A   1      39.681  25.829  27.844  1.00  0.00     0.198 A 
ATOM     67  F   UNL A   1      38.921  26.354  30.007  1.00  0.00    -0.203 F 
ATOM     68  F   UNL A   1      41.740  27.719  25.539  1.00  0.00    -0.200 F 
ATOM     69  C   UNL A   1      40.395  26.168  26.704  1.00  0.00     0.200 A 
ATOM     70  F   UNL A   1      39.034  24.658  27.904  1.00  0.00    -0.200 F 
ATOM     71  F   UNL A   1      40.420  25.335  25.656  1.00  0.00    -0.200 F 
ENDBRANCH  47  61
BRANCH  48  72
ATOM     72  C   UNL A   1      39.584  33.949  36.846  1.00  0.00     0.064 A 
ATOM     73  C   UNL A   1      40.231  35.191  36.912  1.00  0.00     0.173 A 
ATOM     74  C   UNL A   1      38.807  33.560  37.947  1.00  0.00     0.173 A 
ATOM     75  F   UNL A   1      40.999  35.601  35.892  1.00  0.00    -0.203 F 
ATOM     76  C   UNL A   1      40.121  36.002  38.041  1.00  0.00     0.198 A 
ATOM     77  C   UNL A   1      38.673  34.385  39.062  1.00  0.00     0.198 A 
ATOM     78  F   UNL A   1      38.160  32.385  37.931  1.00  0.00    -0.203 F 
ATOM     79  F   UNL A   1      40.784  37.165  38.094  1.00  0.00    -0.200 F 
ATOM     80  C   UNL A   1      39.336  35.602  39.111  1.00  0.00     0.200 A 
ATOM     81  F   UNL A   1      37.899  34.003  40.087  1.00  0.00    -0.200 F 
ATOM     82  F   UNL A   1      39.224  36.386  40.192  1.00  0.00    -0.200 F 
ENDBRANCH  48  72
BRANCH  60  83
ATOM     83  C   UNL A   1      43.946  28.804  35.069  1.00  0.00     0.064 A 
ATOM     84  C   UNL A   1      45.240  29.316  34.894  1.00  0.00     0.173 A 
ATOM     85  C   UNL A   1      43.781  27.725  35.951  1.00  0.00     0.173 A 
ATOM     86  F   UNL A   1      45.454  30.339  34.052  1.00  0.00    -0.203 F 
ATOM     87  C   UNL A   1      46.328  28.752  35.556  1.00  0.00     0.198 A 
ATOM     88  C   UNL A   1      44.865  27.186  36.637  1.00  0.00     0.198 A 
ATOM     89  F   UNL A   1      42.562  27.202  36.160  1.00  0.00    -0.203 F 
ATOM     90  F   UNL A   1      47.562  29.226  35.335  1.00  0.00    -0.200 F 
ATOM     91  C   UNL A   1      46.139  27.695  36.433  1.00  0.00     0.200 A 
ATOM     92  F   UNL A   1      44.677  26.176  37.498  1.00  0.00    -0.200 F 
ATOM     93  F   UNL A   1      47.186  27.162  37.076  1.00  0.00    -0.200 F 
ENDBRANCH  60  83
ENDBRANCH  34  35
ENDBRANCH  26  29
ENDBRANCH  24  25
ENDBRANCH  23  24
ENDBRANCH   1  23
TORSDOF 16
ENDMDL
