MODEL 1
REMARK VINA RESULT:     -11.4      0.000      0.000
REMARK SMILES C[NH2+]C[C@H](C)C(=O)N[C@H]1C=C[C@@H](C(=O)NCCCNC(=O)c2ccc(-c3c4nc(c(-c5c(F)c(F)c(F)c(F)c5F)c5ccc([nH]5)c(-c5c(F)c(F)c(F)c(F)c5F)c5nc(c(-c6c(F)c(F)c(F)c(F)c6F)c6ccc3[nH]6)C=C5)C=C4)cc2)C1
REMARK SMILES IDX 16 1 15 2 13 3 14 4 12 6 9 7 10 8 85 9 11 10 8 11 6 12 7 13
REMARK SMILES IDX 4 15 5 16 3 17 2 18 1 19 17 22 18 23 19 24 20 25 21 27 22 28
REMARK SMILES IDX 23 29 84 30 24 31 83 32 25 33 26 34 27 35 77 36 28 37 82 38
REMARK SMILES IDX 76 39 78 40 29 41 81 42 75 43 74 44 30 46 62 47 42 48 61 49
REMARK SMILES IDX 43 50 46 51 60 52 79 53 44 54 45 55 59 57 80 58 47 59 31 60
REMARK SMILES IDX 32 61 40 62 33 63 34 64 38 65 41 66 35 67 36 68 39 69 37 70
REMARK SMILES IDX 63 71 64 72 72 73 65 74 66 75 70 76 73 77 67 78 68 79 71 80
REMARK SMILES IDX 69 81 48 82 49 83 57 84 50 85 51 86 55 87 58 88 52 89 53 90
REMARK SMILES IDX 56 91 54 92
REMARK H PARENT 15 5 8 14 2 20 2 21 19 26 78 45 46 56
REMARK Flexibility Score: inf
ROOT
ATOM      1  C   UNL A   1      31.519  27.427  24.211  1.00  0.00     0.117 C 
ENDROOT
BRANCH   1   2
ATOM      2  N   UNL A   1      31.055  26.363  25.091  1.00  0.00    -0.356 N 
ATOM      3  C   UNL A   1      31.649  25.450  25.897  1.00  0.00     0.227 C 
ATOM      4  O   UNL A   1      30.859  24.773  26.573  1.00  0.00    -0.274 OA
ATOM      5  H   UNL A   1      30.074  26.291  25.103  1.00  0.00     0.163 HD
BRANCH   3   6
ATOM      6  C   UNL A   1      33.151  25.130  26.010  1.00  0.00     0.103 C 
ATOM      7  C   UNL A   1      34.844  23.370  25.972  1.00  0.00     0.106 C 
ATOM      8  C   UNL A   1      35.034  24.338  24.860  1.00  0.00    -0.006 C 
ATOM      9  C   UNL A   1      33.468  23.720  26.545  1.00  0.00     0.047 C 
ATOM     10  C   UNL A   1      34.083  25.284  24.851  1.00  0.00    -0.016 C 
BRANCH   7  11
ATOM     11  N   UNL A   1      35.140  21.999  25.588  1.00  0.00    -0.349 N 
ATOM     12  C   UNL A   1      34.513  20.903  25.110  1.00  0.00     0.228 C 
ATOM     13  O   UNL A   1      35.252  19.947  24.835  1.00  0.00    -0.275 OA
ATOM     14  H   UNL A   1      36.098  21.810  25.717  1.00  0.00     0.164 HD
BRANCH  12  15
ATOM     15  C   UNL A   1      33.018  20.726  24.914  1.00  0.00     0.130 C 
ATOM     16  C   UNL A   1      32.551  21.529  23.702  1.00  0.00     0.024 C 
BRANCH  15  17
ATOM     17  C   UNL A   1      32.529  19.280  24.914  1.00  0.00     0.273 C 
BRANCH  17  18
ATOM     18  N   UNL A   1      32.837  18.472  26.093  1.00  0.00    -0.348 N 
ATOM     19  C   UNL A   1      33.106  17.086  25.752  1.00  0.00     0.330 C 
ATOM     20  H   UNL A   1      33.659  18.864  26.554  1.00  0.00     0.346 HD
ATOM     21  H   UNL A   1      32.025  18.492  26.709  1.00  0.00     0.346 HD
ENDBRANCH  17  18
ENDBRANCH  15  17
ENDBRANCH  12  15
ENDBRANCH   7  11
ENDBRANCH   3   6
ENDBRANCH   1   2
BRANCH   1  22
ATOM     22  C   UNL A   1      31.370  28.808  24.868  1.00  0.00     0.042 C 
BRANCH  22  23
ATOM     23  C   UNL A   1      32.659  29.433  25.395  1.00  0.00     0.118 C 
BRANCH  23  24
ATOM     24  N   UNL A   1      32.458  30.754  25.980  1.00  0.00    -0.352 N 
ATOM     25  C   UNL A   1      33.104  31.501  26.937  1.00  0.00     0.251 C 
ATOM     26  H   UNL A   1      31.678  31.220  25.601  1.00  0.00     0.163 HD
ATOM     27  O   UNL A   1      32.575  32.573  27.251  1.00  0.00    -0.269 OA
BRANCH  25  28
ATOM     28  C   UNL A   1      34.368  31.113  27.633  1.00  0.00     0.039 A 
ATOM     29  C   UNL A   1      34.520  29.767  28.015  1.00  0.00     0.014 A 
ATOM     30  C   UNL A   1      35.372  32.003  28.004  1.00  0.00     0.014 A 
ATOM     31  C   UNL A   1      35.655  29.328  28.717  1.00  0.00     0.010 A 
ATOM     32  C   UNL A   1      36.557  31.548  28.596  1.00  0.00     0.010 A 
ATOM     33  C   UNL A   1      36.707  30.212  28.993  1.00  0.00    -0.014 A 
BRANCH  33  34
ATOM     34  C   UNL A   1      37.929  29.785  29.741  1.00  0.00     0.031 A 
ATOM     35  C   UNL A   1      38.184  30.293  31.142  1.00  0.00     0.074 A 
ATOM     36  C   UNL A   1      38.852  28.994  29.153  1.00  0.00     0.049 A 
ATOM     37  N   UNL A   1      39.234  30.134  31.912  1.00  0.00    -0.248 NA
ATOM     38  C   UNL A   1      37.132  31.129  31.743  1.00  0.00     0.031 C 
ATOM     39  C   UNL A   1      38.775  28.471  27.790  1.00  0.00     0.029 A 
ATOM     40  N   UNL A   1      40.044  28.500  29.630  1.00  0.00    -0.354 N 
ATOM     41  C   UNL A   1      38.985  30.883  33.058  1.00  0.00     0.074 A 
ATOM     42  C   UNL A   1      37.715  31.545  32.858  1.00  0.00     0.031 C 
ATOM     43  C   UNL A   1      39.851  27.704  27.550  1.00  0.00     0.029 A 
ATOM     44  C   UNL A   1      40.716  27.712  28.726  1.00  0.00     0.049 A 
ATOM     45  H   UNL A   1      40.384  28.692  30.533  1.00  0.00     0.167 HD
ATOM     46  C   UNL A   1      39.726  30.989  34.189  1.00  0.00     0.037 A 
ATOM     47  C   UNL A   1      41.896  27.069  28.831  1.00  0.00     0.037 A 
ATOM     48  C   UNL A   1      40.957  30.279  34.421  1.00  0.00     0.049 A 
ATOM     49  C   UNL A   1      42.679  27.163  30.113  1.00  0.00     0.074 A 
ATOM     50  C   UNL A   1      41.738  30.255  35.564  1.00  0.00     0.029 A 
ATOM     51  N   UNL A   1      41.579  29.455  33.495  1.00  0.00    -0.354 N 
ATOM     52  N   UNL A   1      42.402  27.828  31.208  1.00  0.00    -0.248 NA
ATOM     53  C   UNL A   1      43.939  26.407  30.176  1.00  0.00     0.031 C 
ATOM     54  C   UNL A   1      42.853  29.445  35.316  1.00  0.00     0.029 A 
ATOM     55  C   UNL A   1      42.741  28.928  34.036  1.00  0.00     0.049 A 
ATOM     56  H   UNL A   1      41.244  29.271  32.588  1.00  0.00     0.167 HD
ATOM     57  C   UNL A   1      43.434  27.553  32.095  1.00  0.00     0.074 A 
ATOM     58  C   UNL A   1      44.332  26.639  31.420  1.00  0.00     0.031 C 
ATOM     59  C   UNL A   1      43.623  28.017  33.354  1.00  0.00     0.037 A 
BRANCH  46  60
ATOM     60  C   UNL A   1      39.215  31.896  35.274  1.00  0.00     0.064 A 
ATOM     61  C   UNL A   1      39.483  33.275  35.273  1.00  0.00     0.173 A 
ATOM     62  C   UNL A   1      38.424  31.387  36.316  1.00  0.00     0.173 A 
ATOM     63  F   UNL A   1      40.241  33.813  34.305  1.00  0.00    -0.203 F 
ATOM     64  C   UNL A   1      39.016  34.099  36.294  1.00  0.00     0.198 A 
ATOM     65  C   UNL A   1      37.928  32.221  37.317  1.00  0.00     0.198 A 
ATOM     66  F   UNL A   1      38.126  30.080  36.364  1.00  0.00    -0.203 F 
ATOM     67  F   UNL A   1      39.340  35.399  36.303  1.00  0.00    -0.200 F 
ATOM     68  C   UNL A   1      38.235  33.574  37.310  1.00  0.00     0.200 A 
ATOM     69  F   UNL A   1      37.160  31.715  38.291  1.00  0.00    -0.200 F 
ATOM     70  F   UNL A   1      37.782  34.369  38.290  1.00  0.00    -0.200 F 
ENDBRANCH  46  60
BRANCH  47  71
ATOM     71  C   UNL A   1      42.396  26.242  27.699  1.00  0.00     0.064 A 
ATOM     72  C   UNL A   1      41.940  24.929  27.516  1.00  0.00     0.173 A 
ATOM     73  C   UNL A   1      43.341  26.737  26.789  1.00  0.00     0.173 A 
ATOM     74  F   UNL A   1      41.056  24.402  28.374  1.00  0.00    -0.203 F 
ATOM     75  C   UNL A   1      42.426  24.135  26.478  1.00  0.00     0.198 A 
ATOM     76  C   UNL A   1      43.804  25.952  25.734  1.00  0.00     0.198 A 
ATOM     77  F   UNL A   1      43.807  27.988  26.918  1.00  0.00    -0.203 F 
ATOM     78  F   UNL A   1      42.009  22.867  26.357  1.00  0.00    -0.200 F 
ATOM     79  C   UNL A   1      43.352  24.649  25.584  1.00  0.00     0.200 A 
ATOM     80  F   UNL A   1      44.690  26.456  24.865  1.00  0.00    -0.200 F 
ATOM     81  F   UNL A   1      43.817  23.887  24.585  1.00  0.00    -0.200 F 
ENDBRANCH  47  71
BRANCH  59  82
ATOM     82  C   UNL A   1      44.834  27.523  34.094  1.00  0.00     0.064 A 
ATOM     83  C   UNL A   1      46.055  28.210  34.049  1.00  0.00     0.173 A 
ATOM     84  C   UNL A   1      44.765  26.358  34.872  1.00  0.00     0.173 A 
ATOM     85  F   UNL A   1      46.177  29.322  33.308  1.00  0.00    -0.203 F 
ATOM     86  C   UNL A   1      47.172  27.732  34.730  1.00  0.00     0.198 A 
ATOM     87  C   UNL A   1      45.875  25.898  35.576  1.00  0.00     0.198 A 
ATOM     88  F   UNL A   1      43.618  25.666  34.955  1.00  0.00    -0.203 F 
ATOM     89  F   UNL A   1      48.344  28.376  34.627  1.00  0.00    -0.200 F 
ATOM     90  C   UNL A   1      47.080  26.581  35.497  1.00  0.00     0.200 A 
ATOM     91  F   UNL A   1      45.781  24.793  36.328  1.00  0.00    -0.200 F 
ATOM     92  F   UNL A   1      48.155  26.122  36.151  1.00  0.00    -0.200 F 
ENDBRANCH  59  82
ENDBRANCH  33  34
ENDBRANCH  25  28
ENDBRANCH  23  24
ENDBRANCH  22  23
ENDBRANCH   1  22
TORSDOF 14
ENDMDL
MODEL 2
REMARK VINA RESULT:     -11.4      1.102      7.782
REMARK SMILES C[NH2+]C[C@H](C)C(=O)N[C@H]1C=C[C@@H](C(=O)NCCCNC(=O)c2ccc(-c3c4nc(c(-c5c(F)c(F)c(F)c(F)c5F)c5ccc([nH]5)c(-c5c(F)c(F)c(F)c(F)c5F)c5nc(c(-c6c(F)c(F)c(F)c(F)c6F)c6ccc3[nH]6)C=C5)C=C4)cc2)C1
REMARK SMILES IDX 16 1 15 2 13 3 14 4 12 6 9 7 10 8 85 9 11 10 8 11 6 12 7 13
REMARK SMILES IDX 4 15 5 16 3 17 2 18 1 19 17 22 18 23 19 24 20 25 21 27 22 28
REMARK SMILES IDX 23 29 84 30 24 31 83 32 25 33 26 34 27 35 77 36 28 37 82 38
REMARK SMILES IDX 76 39 78 40 29 41 81 42 75 43 74 44 30 46 62 47 42 48 61 49
REMARK SMILES IDX 43 50 46 51 60 52 79 53 44 54 45 55 59 57 80 58 47 59 31 60
REMARK SMILES IDX 32 61 40 62 33 63 34 64 38 65 41 66 35 67 36 68 39 69 37 70
REMARK SMILES IDX 63 71 64 72 72 73 65 74 66 75 70 76 73 77 67 78 68 79 71 80
REMARK SMILES IDX 69 81 48 82 49 83 57 84 50 85 51 86 55 87 58 88 52 89 53 90
REMARK SMILES IDX 56 91 54 92
REMARK H PARENT 15 5 8 14 2 20 2 21 19 26 78 45 46 56
REMARK Flexibility Score: inf
ROOT
ATOM      1  C   UNL A   1      32.792  26.688  24.756  1.00  0.00     0.117 C 
ENDROOT
BRANCH   1   2
ATOM      2  N   UNL A   1      33.480  25.855  23.779  1.00  0.00    -0.356 N 
ATOM      3  C   UNL A   1      33.947  24.583  23.755  1.00  0.00     0.227 C 
ATOM      4  O   UNL A   1      34.394  24.222  22.656  1.00  0.00    -0.274 OA
ATOM      5  H   UNL A   1      33.646  26.331  22.934  1.00  0.00     0.163 HD
BRANCH   3   6
ATOM      6  C   UNL A   1      34.038  23.591  24.930  1.00  0.00     0.103 C 
ATOM      7  C   UNL A   1      34.418  21.267  25.579  1.00  0.00     0.106 C 
ATOM      8  C   UNL A   1      35.463  22.168  26.131  1.00  0.00    -0.006 C 
ATOM      9  C   UNL A   1      33.659  22.140  24.574  1.00  0.00     0.047 C 
ATOM     10  C   UNL A   1      35.283  23.441  25.743  1.00  0.00    -0.016 C 
BRANCH   7  11
ATOM     11  N   UNL A   1      34.942  19.976  25.163  1.00  0.00    -0.349 N 
ATOM     12  C   UNL A   1      34.514  18.811  24.629  1.00  0.00     0.228 C 
ATOM     13  O   UNL A   1      35.405  17.998  24.349  1.00  0.00    -0.275 OA
ATOM     14  H   UNL A   1      35.913  19.940  25.317  1.00  0.00     0.164 HD
BRANCH  12  15
ATOM     15  C   UNL A   1      33.074  18.404  24.378  1.00  0.00     0.130 C 
ATOM     16  C   UNL A   1      32.938  17.793  22.986  1.00  0.00     0.024 C 
BRANCH  15  17
ATOM     17  C   UNL A   1      32.435  17.562  25.480  1.00  0.00     0.273 C 
BRANCH  17  18
ATOM     18  N   UNL A   1      33.229  16.458  26.019  1.00  0.00    -0.348 N 
ATOM     19  C   UNL A   1      32.714  15.163  25.609  1.00  0.00     0.330 C 
ATOM     20  H   UNL A   1      34.189  16.551  25.688  1.00  0.00     0.346 HD
ATOM     21  H   UNL A   1      33.184  16.507  27.037  1.00  0.00     0.346 HD
ENDBRANCH  17  18
ENDBRANCH  15  17
ENDBRANCH  12  15
ENDBRANCH   7  11
ENDBRANCH   3   6
ENDBRANCH   1   2
BRANCH   1  22
ATOM     22  C   UNL A   1      32.464  28.075  24.181  1.00  0.00     0.042 C 
BRANCH  22  23
ATOM     23  C   UNL A   1      33.447  29.188  24.536  1.00  0.00     0.118 C 
BRANCH  23  24
ATOM     24  N   UNL A   1      32.844  30.255  25.327  1.00  0.00    -0.352 N 
ATOM     25  C   UNL A   1      33.137  30.858  26.528  1.00  0.00     0.251 C 
ATOM     26  H   UNL A   1      32.040  30.632  24.903  1.00  0.00     0.163 HD
ATOM     27  O   UNL A   1      32.322  31.688  26.943  1.00  0.00    -0.269 OA
BRANCH  25  28
ATOM     28  C   UNL A   1      34.339  30.574  27.370  1.00  0.00     0.039 A 
ATOM     29  C   UNL A   1      35.131  31.666  27.772  1.00  0.00     0.014 A 
ATOM     30  C   UNL A   1      34.777  29.299  27.719  1.00  0.00     0.014 A 
ATOM     31  C   UNL A   1      36.305  31.482  28.522  1.00  0.00     0.010 A 
ATOM     32  C   UNL A   1      35.878  29.121  28.567  1.00  0.00     0.010 A 
ATOM     33  C   UNL A   1      36.680  30.203  28.957  1.00  0.00    -0.014 A 
BRANCH  33  34
ATOM     34  C   UNL A   1      37.923  29.966  29.753  1.00  0.00     0.031 A 
ATOM     35  C   UNL A   1      39.019  29.076  29.211  1.00  0.00     0.074 A 
ATOM     36  C   UNL A   1      38.055  30.489  30.990  1.00  0.00     0.049 A 
ATOM     37  N   UNL A   1      40.117  28.654  29.791  1.00  0.00    -0.248 NA
ATOM     38  C   UNL A   1      38.834  28.556  27.847  1.00  0.00     0.031 C 
ATOM     39  C   UNL A   1      37.062  31.319  31.670  1.00  0.00     0.029 A 
ATOM     40  N   UNL A   1      39.081  30.389  31.901  1.00  0.00    -0.354 N 
ATOM     41  C   UNL A   1      40.721  27.791  28.883  1.00  0.00     0.074 A 
ATOM     42  C   UNL A   1      39.840  27.701  27.740  1.00  0.00     0.031 C 
ATOM     43  C   UNL A   1      37.537  31.680  32.873  1.00  0.00     0.029 A 
ATOM     44  C   UNL A   1      38.852  31.077  33.069  1.00  0.00     0.049 A 
ATOM     45  H   UNL A   1      39.903  29.874  31.732  1.00  0.00     0.167 HD
ATOM     46  C   UNL A   1      41.915  27.154  28.972  1.00  0.00     0.037 A 
ATOM     47  C   UNL A   1      39.612  31.206  34.174  1.00  0.00     0.037 A 
ATOM     48  C   UNL A   1      42.829  27.294  30.077  1.00  0.00     0.049 A 
ATOM     49  C   UNL A   1      40.954  30.527  34.232  1.00  0.00     0.074 A 
ATOM     50  C   UNL A   1      44.096  26.756  30.224  1.00  0.00     0.029 A 
ATOM     51  N   UNL A   1      42.575  28.038  31.220  1.00  0.00    -0.354 N 
ATOM     52  N   UNL A   1      41.537  29.762  33.341  1.00  0.00    -0.248 NA
ATOM     53  C   UNL A   1      41.751  30.739  35.450  1.00  0.00     0.031 C 
ATOM     54  C   UNL A   1      44.595  27.145  31.473  1.00  0.00     0.029 A 
ATOM     55  C   UNL A   1      43.658  27.962  32.083  1.00  0.00     0.049 A 
ATOM     56  H   UNL A   1      41.749  28.544  31.393  1.00  0.00     0.167 HD
ATOM     57  C   UNL A   1      42.772  29.423  33.877  1.00  0.00     0.074 A 
ATOM     58  C   UNL A   1      42.867  30.086  35.161  1.00  0.00     0.031 C 
ATOM     59  C   UNL A   1      43.740  28.631  33.355  1.00  0.00     0.037 A 
BRANCH  46  60
ATOM     60  C   UNL A   1      42.314  26.257  27.833  1.00  0.00     0.064 A 
ATOM     61  C   UNL A   1      41.802  24.956  27.702  1.00  0.00     0.173 A 
ATOM     62  C   UNL A   1      43.197  26.712  26.842  1.00  0.00     0.173 A 
ATOM     63  F   UNL A   1      40.960  24.467  28.625  1.00  0.00    -0.203 F 
ATOM     64  C   UNL A   1      42.193  24.132  26.649  1.00  0.00     0.198 A 
ATOM     65  C   UNL A   1      43.559  25.897  25.770  1.00  0.00     0.198 A 
ATOM     66  F   UNL A   1      43.710  27.950  26.908  1.00  0.00    -0.203 F 
ATOM     67  F   UNL A   1      41.740  22.872  26.584  1.00  0.00    -0.200 F 
ATOM     68  C   UNL A   1      43.065  24.604  25.682  1.00  0.00     0.200 A 
ATOM     69  F   UNL A   1      44.390  26.361  24.827  1.00  0.00    -0.200 F 
ATOM     70  F   UNL A   1      43.437  23.811  24.667  1.00  0.00    -0.200 F 
ENDBRANCH  46  60
BRANCH  47  71
ATOM     71  C   UNL A   1      39.140  32.045  35.308  1.00  0.00     0.064 A 
ATOM     72  C   UNL A   1      39.429  33.417  35.353  1.00  0.00     0.173 A 
ATOM     73  C   UNL A   1      38.405  31.500  36.371  1.00  0.00     0.173 A 
ATOM     74  F   UNL A   1      40.151  33.980  34.374  1.00  0.00    -0.203 F 
ATOM     75  C   UNL A   1      39.020  34.205  36.426  1.00  0.00     0.198 A 
ATOM     76  C   UNL A   1      37.970  32.296  37.429  1.00  0.00     0.198 A 
ATOM     77  F   UNL A   1      38.099  30.194  36.375  1.00  0.00    -0.203 F 
ATOM     78  F   UNL A   1      39.354  35.503  36.467  1.00  0.00    -0.200 F 
ATOM     79  C   UNL A   1      38.285  33.646  37.460  1.00  0.00     0.200 A 
ATOM     80  F   UNL A   1      37.250  31.754  38.421  1.00  0.00    -0.200 F 
ATOM     81  F   UNL A   1      37.889  34.406  38.491  1.00  0.00    -0.200 F 
ENDBRANCH  47  71
BRANCH  59  82
ATOM     82  C   UNL A   1      44.997  28.460  34.160  1.00  0.00     0.064 A 
ATOM     83  C   UNL A   1      45.119  27.456  35.131  1.00  0.00     0.173 A 
ATOM     84  C   UNL A   1      46.099  29.300  33.943  1.00  0.00     0.173 A 
ATOM     85  F   UNL A   1      44.088  26.635  35.387  1.00  0.00    -0.203 F 
ATOM     86  C   UNL A   1      46.286  27.319  35.879  1.00  0.00     0.198 A 
ATOM     87  C   UNL A   1      47.277  29.141  34.670  1.00  0.00     0.198 A 
ATOM     88  F   UNL A   1      46.039  30.273  33.021  1.00  0.00    -0.203 F 
ATOM     89  F   UNL A   1      46.359  26.388  36.840  1.00  0.00    -0.200 F 
ATOM     90  C   UNL A   1      47.365  28.158  35.644  1.00  0.00     0.200 A 
ATOM     91  F   UNL A   1      48.323  29.944  34.433  1.00  0.00    -0.200 F 
ATOM     92  F   UNL A   1      48.487  28.024  36.364  1.00  0.00    -0.200 F 
ENDBRANCH  59  82
ENDBRANCH  33  34
ENDBRANCH  25  28
ENDBRANCH  23  24
ENDBRANCH  22  23
ENDBRANCH   1  22
TORSDOF 14
ENDMDL
MODEL 3
REMARK VINA RESULT:     -11.3      5.624     11.186
REMARK SMILES C[NH2+]C[C@H](C)C(=O)N[C@H]1C=C[C@@H](C(=O)NCCCNC(=O)c2ccc(-c3c4nc(c(-c5c(F)c(F)c(F)c(F)c5F)c5ccc([nH]5)c(-c5c(F)c(F)c(F)c(F)c5F)c5nc(c(-c6c(F)c(F)c(F)c(F)c6F)c6ccc3[nH]6)C=C5)C=C4)cc2)C1
REMARK SMILES IDX 16 1 15 2 13 3 14 4 12 6 9 7 10 8 85 9 11 10 8 11 6 12 7 13
REMARK SMILES IDX 4 15 5 16 3 17 2 18 1 19 17 22 18 23 19 24 20 25 21 27 22 28
REMARK SMILES IDX 23 29 84 30 24 31 83 32 25 33 26 34 27 35 77 36 28 37 82 38
REMARK SMILES IDX 76 39 78 40 29 41 81 42 75 43 74 44 30 46 62 47 42 48 61 49
REMARK SMILES IDX 43 50 46 51 60 52 79 53 44 54 45 55 59 57 80 58 47 59 31 60
REMARK SMILES IDX 32 61 40 62 33 63 34 64 38 65 41 66 35 67 36 68 39 69 37 70
REMARK SMILES IDX 63 71 64 72 72 73 65 74 66 75 70 76 73 77 67 78 68 79 71 80
REMARK SMILES IDX 69 81 48 82 49 83 57 84 50 85 51 86 55 87 58 88 52 89 53 90
REMARK SMILES IDX 56 91 54 92
REMARK H PARENT 15 5 8 14 2 20 2 21 19 26 78 45 46 56
REMARK Flexibility Score: inf
ROOT
ATOM      1  C   UNL A   1      41.431  19.535  27.253  1.00  0.00     0.117 C 
ENDROOT
BRANCH   1   2
ATOM      2  N   UNL A   1      41.751  20.781  27.937  1.00  0.00    -0.356 N 
ATOM      3  C   UNL A   1      41.301  22.058  27.874  1.00  0.00     0.227 C 
ATOM      4  O   UNL A   1      41.787  22.815  28.729  1.00  0.00    -0.274 OA
ATOM      5  H   UNL A   1      42.465  20.668  28.605  1.00  0.00     0.163 HD
BRANCH   3   6
ATOM      6  C   UNL A   1      40.329  22.665  26.845  1.00  0.00     0.103 C 
ATOM      7  C   UNL A   1      38.088  22.556  25.882  1.00  0.00     0.106 C 
ATOM      8  C   UNL A   1      38.327  23.853  26.568  1.00  0.00    -0.006 C 
ATOM      9  C   UNL A   1      39.274  21.682  26.302  1.00  0.00     0.047 C 
ATOM     10  C   UNL A   1      39.542  23.903  27.135  1.00  0.00    -0.016 C 
BRANCH   7  11
ATOM     11  N   UNL A   1      36.730  22.063  26.056  1.00  0.00    -0.349 N 
ATOM     12  C   UNL A   1      35.471  22.342  25.654  1.00  0.00     0.228 C 
ATOM     13  O   UNL A   1      34.608  21.528  26.013  1.00  0.00    -0.275 OA
ATOM     14  H   UNL A   1      36.728  21.281  26.653  1.00  0.00     0.164 HD
BRANCH  12  15
ATOM     15  C   UNL A   1      35.022  23.548  24.851  1.00  0.00     0.130 C 
ATOM     16  C   UNL A   1      35.213  23.285  23.359  1.00  0.00     0.024 C 
BRANCH  15  17
ATOM     17  C   UNL A   1      33.637  24.086  25.204  1.00  0.00     0.273 C 
BRANCH  17  18
ATOM     18  N   UNL A   1      33.166  23.864  26.570  1.00  0.00    -0.348 N 
ATOM     19  C   UNL A   1      31.722  23.714  26.633  1.00  0.00     0.330 C 
ATOM     20  H   UNL A   1      33.601  23.017  26.935  1.00  0.00     0.346 HD
ATOM     21  H   UNL A   1      33.421  24.680  27.127  1.00  0.00     0.346 HD
ENDBRANCH  17  18
ENDBRANCH  15  17
ENDBRANCH  12  15
ENDBRANCH   7  11
ENDBRANCH   3   6
ENDBRANCH   1   2
BRANCH   1  22
ATOM     22  C   UNL A   1      42.200  19.407  25.929  1.00  0.00     0.042 C 
BRANCH  22  23
ATOM     23  C   UNL A   1      43.311  18.360  25.906  1.00  0.00     0.118 C 
BRANCH  23  24
ATOM     24  N   UNL A   1      44.162  18.452  24.725  1.00  0.00    -0.352 N 
ATOM     25  C   UNL A   1      44.871  19.461  24.115  1.00  0.00     0.251 C 
ATOM     26  H   UNL A   1      44.249  17.593  24.254  1.00  0.00     0.163 HD
ATOM     27  O   UNL A   1      45.416  19.182  23.042  1.00  0.00    -0.269 OA
BRANCH  25  28
ATOM     28  C   UNL A   1      45.013  20.856  24.632  1.00  0.00     0.039 A 
ATOM     29  C   UNL A   1      44.540  21.907  23.823  1.00  0.00     0.014 A 
ATOM     30  C   UNL A   1      45.652  21.197  25.821  1.00  0.00     0.014 A 
ATOM     31  C   UNL A   1      44.680  23.249  24.212  1.00  0.00     0.010 A 
ATOM     32  C   UNL A   1      45.686  22.525  26.267  1.00  0.00     0.010 A 
ATOM     33  C   UNL A   1      45.231  23.577  25.458  1.00  0.00    -0.014 A 
BRANCH  33  34
ATOM     34  C   UNL A   1      45.400  24.993  25.907  1.00  0.00     0.031 A 
ATOM     35  C   UNL A   1      46.750  25.668  25.813  1.00  0.00     0.074 A 
ATOM     36  C   UNL A   1      44.369  25.665  26.460  1.00  0.00     0.049 A 
ATOM     37  N   UNL A   1      47.130  26.844  26.252  1.00  0.00    -0.248 NA
ATOM     38  C   UNL A   1      47.831  24.898  25.176  1.00  0.00     0.031 C 
ATOM     39  C   UNL A   1      43.024  25.131  26.669  1.00  0.00     0.029 A 
ATOM     40  N   UNL A   1      44.297  26.946  26.956  1.00  0.00    -0.354 N 
ATOM     41  C   UNL A   1      48.492  26.930  25.985  1.00  0.00     0.074 A 
ATOM     42  C   UNL A   1      48.886  25.666  25.403  1.00  0.00     0.031 C 
ATOM     43  C   UNL A   1      42.252  26.082  27.219  1.00  0.00     0.029 A 
ATOM     44  C   UNL A   1      43.054  27.282  27.439  1.00  0.00     0.049 A 
ATOM     45  H   UNL A   1      45.062  27.564  26.966  1.00  0.00     0.167 HD
ATOM     46  C   UNL A   1      49.337  27.974  26.175  1.00  0.00     0.037 A 
ATOM     47  C   UNL A   1      42.610  28.426  27.997  1.00  0.00     0.037 A 
ATOM     48  C   UNL A   1      48.937  29.258  26.689  1.00  0.00     0.049 A 
ATOM     49  C   UNL A   1      43.554  29.587  28.155  1.00  0.00     0.074 A 
ATOM     50  C   UNL A   1      49.699  30.404  26.842  1.00  0.00     0.029 A 
ATOM     51  N   UNL A   1      47.657  29.569  27.123  1.00  0.00    -0.354 N 
ATOM     52  N   UNL A   1      44.825  29.672  27.844  1.00  0.00    -0.248 NA
ATOM     53  C   UNL A   1      42.997  30.819  28.735  1.00  0.00     0.031 C 
ATOM     54  C   UNL A   1      48.889  31.398  27.403  1.00  0.00     0.029 A 
ATOM     55  C   UNL A   1      47.612  30.886  27.556  1.00  0.00     0.049 A 
ATOM     56  H   UNL A   1      46.894  28.948  27.124  1.00  0.00     0.167 HD
ATOM     57  C   UNL A   1      45.212  30.966  28.165  1.00  0.00     0.074 A 
ATOM     58  C   UNL A   1      44.035  31.641  28.673  1.00  0.00     0.031 C 
ATOM     59  C   UNL A   1      46.433  31.545  28.055  1.00  0.00     0.037 A 
BRANCH  46  60
ATOM     60  C   UNL A   1      50.782  27.777  25.806  1.00  0.00     0.064 A 
ATOM     61  C   UNL A   1      51.242  27.966  24.492  1.00  0.00     0.173 A 
ATOM     62  C   UNL A   1      51.726  27.421  26.782  1.00  0.00     0.173 A 
ATOM     63  F   UNL A   1      50.382  28.299  23.518  1.00  0.00    -0.203 F 
ATOM     64  C   UNL A   1      52.581  27.765  24.163  1.00  0.00     0.198 A 
ATOM     65  C   UNL A   1      53.071  27.255  26.456  1.00  0.00     0.198 A 
ATOM     66  F   UNL A   1      51.346  27.237  28.056  1.00  0.00    -0.203 F 
ATOM     67  F   UNL A   1      52.981  27.889  22.891  1.00  0.00    -0.200 F 
ATOM     68  C   UNL A   1      53.494  27.416  25.145  1.00  0.00     0.200 A 
ATOM     69  F   UNL A   1      53.956  26.933  27.409  1.00  0.00    -0.200 F 
ATOM     70  F   UNL A   1      54.783  27.227  24.828  1.00  0.00    -0.200 F 
ENDBRANCH  46  60
BRANCH  47  71
ATOM     71  C   UNL A   1      41.187  28.546  28.415  1.00  0.00     0.064 A 
ATOM     72  C   UNL A   1      40.212  28.998  27.514  1.00  0.00     0.173 A 
ATOM     73  C   UNL A   1      40.773  28.227  29.716  1.00  0.00     0.173 A 
ATOM     74  F   UNL A   1      40.562  29.340  26.266  1.00  0.00    -0.203 F 
ATOM     75  C   UNL A   1      38.882  29.145  27.904  1.00  0.00     0.198 A 
ATOM     76  C   UNL A   1      39.438  28.346  30.096  1.00  0.00     0.198 A 
ATOM     77  F   UNL A   1      41.666  27.788  30.616  1.00  0.00    -0.203 F 
ATOM     78  F   UNL A   1      37.981  29.627  27.036  1.00  0.00    -0.200 F 
ATOM     79  C   UNL A   1      38.495  28.813  29.193  1.00  0.00     0.200 A 
ATOM     80  F   UNL A   1      39.065  28.013  31.340  1.00  0.00    -0.200 F 
ATOM     81  F   UNL A   1      37.215  28.952  29.567  1.00  0.00    -0.200 F 
ENDBRANCH  47  71
BRANCH  59  82
ATOM     82  C   UNL A   1      46.551  32.985  28.463  1.00  0.00     0.064 A 
ATOM     83  C   UNL A   1      46.893  33.353  29.773  1.00  0.00     0.173 A 
ATOM     84  C   UNL A   1      46.337  34.009  27.529  1.00  0.00     0.173 A 
ATOM     85  F   UNL A   1      47.094  32.412  30.708  1.00  0.00    -0.203 F 
ATOM     86  C   UNL A   1      46.986  34.693  30.140  1.00  0.00     0.198 A 
ATOM     87  C   UNL A   1      46.461  35.348  27.891  1.00  0.00     0.198 A 
ATOM     88  F   UNL A   1      46.014  33.712  26.261  1.00  0.00    -0.203 F 
ATOM     89  F   UNL A   1      47.260  35.021  31.411  1.00  0.00    -0.200 F 
ATOM     90  C   UNL A   1      46.776  35.689  29.198  1.00  0.00     0.200 A 
ATOM     91  F   UNL A   1      46.270  36.309  26.977  1.00  0.00    -0.200 F 
ATOM     92  F   UNL A   1      46.866  36.978  29.553  1.00  0.00    -0.200 F 
ENDBRANCH  59  82
ENDBRANCH  33  34
ENDBRANCH  25  28
ENDBRANCH  23  24
ENDBRANCH  22  23
ENDBRANCH   1  22
TORSDOF 14
ENDMDL
