MODEL 1
REMARK VINA RESULT:     -13.4      0.000      0.000
REMARK SMILES O=C(NCCCNC(=O)c1cn(C2CN(C(=O)Nc3ccsc3)C2)nn1)c1ccc(-c2c3nc(c(-c4c(F)c(F)c(F)c(F)c4F)c4ccc([nH]4)c(-c4c(F)c(F)c(F)c(F)c4F)c4nc(c(-c5c(F)c(F)c(F)c(F)c5F)c5ccc2[nH]5)C=C4)C=C3)cc1
REMARK SMILES IDX 5 1 4 2 3 3 1 4 2 5 27 7 28 8 89 9 29 10 88 11 30 12 31 13
REMARK SMILES IDX 32 14 82 15 33 16 87 17 81 18 83 19 34 20 86 21 80 22 79 23
REMARK SMILES IDX 35 25 67 26 47 27 66 28 48 29 51 30 65 31 84 32 49 33 50 34
REMARK SMILES IDX 64 36 85 37 52 38 36 39 37 40 45 41 38 42 39 43 43 44 46 45
REMARK SMILES IDX 40 46 41 47 44 48 42 49 68 50 69 51 77 52 70 53 71 54 75 55
REMARK SMILES IDX 78 56 72 57 73 58 76 59 74 60 53 61 54 62 62 63 55 64 56 65
REMARK SMILES IDX 60 66 63 67 57 68 58 69 61 70 59 71 6 72 7 73 8 74 9 76
REMARK SMILES IDX 10 77 11 78 26 79 12 80 25 81 13 82 14 83 24 84 15 85 16 86
REMARK SMILES IDX 17 87 18 88 19 90 20 91 23 92 21 93 22 94
REMARK H PARENT 3 6 83 24 51 35 7 75 18 89
REMARK Flexibility Score: inf
ROOT
ATOM      1  C   UNL A   1      34.378  35.479  28.480  1.00  0.00     0.042 C 
ENDROOT
BRANCH   1   2
ATOM      2  C   UNL A   1      35.005  34.157  28.919  1.00  0.00     0.118 C 
BRANCH   2   3
ATOM      3  N   UNL A   1      34.424  32.986  28.294  1.00  0.00    -0.352 N 
ATOM      4  O   UNL A   1      33.931  30.934  27.663  1.00  0.00    -0.269 OA
ATOM      5  C   UNL A   1      34.776  31.672  28.179  1.00  0.00     0.251 C 
ATOM      6  H   UNL A   1      33.571  33.185  27.845  1.00  0.00     0.163 HD
BRANCH   5   7
ATOM      7  C   UNL A   1      36.090  31.088  28.561  1.00  0.00     0.039 A 
ATOM      8  C   UNL A   1      37.188  31.789  29.062  1.00  0.00     0.014 A 
ATOM      9  C   UNL A   1      36.227  29.704  28.340  1.00  0.00     0.014 A 
ATOM     10  C   UNL A   1      38.412  31.150  29.251  1.00  0.00     0.010 A 
ATOM     11  C   UNL A   1      37.438  29.055  28.546  1.00  0.00     0.010 A 
ATOM     12  C   UNL A   1      38.544  29.790  28.964  1.00  0.00    -0.014 A 
BRANCH  12  13
ATOM     13  C   UNL A   1      39.823  29.138  29.238  1.00  0.00     0.031 A 
ATOM     14  C   UNL A   1      40.178  29.001  30.684  1.00  0.00     0.074 A 
ATOM     15  C   UNL A   1      40.553  28.535  28.276  1.00  0.00     0.049 A 
ATOM     16  N   UNL A   1      41.274  29.336  31.286  1.00  0.00    -0.248 NA
ATOM     17  C   UNL A   1      39.142  28.471  31.587  1.00  0.00     0.031 C 
ATOM     18  C   UNL A   1      40.185  28.320  26.875  1.00  0.00     0.029 A 
ATOM     19  N   UNL A   1      41.742  27.876  28.386  1.00  0.00    -0.354 N 
ATOM     20  C   UNL A   1      41.131  28.922  32.614  1.00  0.00     0.074 A 
ATOM     21  C   UNL A   1      39.764  28.502  32.765  1.00  0.00     0.031 C 
ATOM     22  C   UNL A   1      41.014  27.401  26.331  1.00  0.00     0.029 A 
ATOM     23  C   UNL A   1      42.039  27.059  27.303  1.00  0.00     0.049 A 
ATOM     24  H   UNL A   1      42.338  27.971  29.164  1.00  0.00     0.167 HD
ATOM     25  C   UNL A   1      42.203  28.774  33.442  1.00  0.00     0.037 A 
ATOM     26  C   UNL A   1      43.008  26.112  27.236  1.00  0.00     0.037 A 
ATOM     27  C   UNL A   1      43.324  29.557  32.994  1.00  0.00     0.049 A 
ATOM     28  C   UNL A   1      43.986  26.384  28.316  1.00  0.00     0.074 A 
ATOM     29  C   UNL A   1      43.553  30.905  32.796  1.00  0.00     0.029 A 
ATOM     30  N   UNL A   1      44.371  28.919  32.381  1.00  0.00    -0.354 N 
ATOM     31  N   UNL A   1      44.795  27.404  28.334  1.00  0.00    -0.248 NA
ATOM     32  C   UNL A   1      43.778  25.726  29.597  1.00  0.00     0.031 C 
ATOM     33  C   UNL A   1      44.420  30.969  31.665  1.00  0.00     0.029 A 
ATOM     34  C   UNL A   1      44.692  29.658  31.275  1.00  0.00     0.049 A 
ATOM     35  H   UNL A   1      44.808  28.088  32.679  1.00  0.00     0.167 HD
ATOM     36  C   UNL A   1      44.855  27.779  29.667  1.00  0.00     0.074 A 
ATOM     37  C   UNL A   1      44.294  26.654  30.407  1.00  0.00     0.031 C 
ATOM     38  C   UNL A   1      45.096  29.075  30.021  1.00  0.00     0.037 A 
BRANCH  25  39
ATOM     39  C   UNL A   1      42.359  27.643  34.440  1.00  0.00     0.064 A 
ATOM     40  C   UNL A   1      42.874  26.406  33.995  1.00  0.00     0.173 A 
ATOM     41  C   UNL A   1      41.727  27.612  35.702  1.00  0.00     0.173 A 
ATOM     42  F   UNL A   1      43.506  26.310  32.816  1.00  0.00    -0.203 F 
ATOM     43  C   UNL A   1      42.655  25.216  34.697  1.00  0.00     0.198 A 
ATOM     44  C   UNL A   1      41.556  26.431  36.423  1.00  0.00     0.198 A 
ATOM     45  F   UNL A   1      41.153  28.693  36.242  1.00  0.00    -0.203 F 
ATOM     46  F   UNL A   1      43.031  24.048  34.158  1.00  0.00    -0.200 F 
ATOM     47  C   UNL A   1      41.981  25.229  35.902  1.00  0.00     0.200 A 
ATOM     48  F   UNL A   1      40.894  26.463  37.588  1.00  0.00    -0.200 F 
ATOM     49  F   UNL A   1      41.700  24.083  36.537  1.00  0.00    -0.200 F 
ENDBRANCH  25  39
BRANCH  26  50
ATOM     50  C   UNL A   1      42.979  24.820  26.510  1.00  0.00     0.064 A 
ATOM     51  C   UNL A   1      43.861  24.562  25.448  1.00  0.00     0.173 A 
ATOM     52  C   UNL A   1      42.272  23.714  27.021  1.00  0.00     0.173 A 
ATOM     53  F   UNL A   1      44.611  25.549  24.937  1.00  0.00    -0.203 F 
ATOM     54  C   UNL A   1      44.036  23.270  24.939  1.00  0.00     0.198 A 
ATOM     55  C   UNL A   1      42.441  22.428  26.506  1.00  0.00     0.198 A 
ATOM     56  F   UNL A   1      41.477  23.841  28.093  1.00  0.00    -0.203 F 
ATOM     57  F   UNL A   1      44.932  23.049  23.966  1.00  0.00    -0.200 F 
ATOM     58  C   UNL A   1      43.333  22.203  25.475  1.00  0.00     0.200 A 
ATOM     59  F   UNL A   1      41.782  21.401  27.061  1.00  0.00    -0.200 F 
ATOM     60  F   UNL A   1      43.544  20.957  25.029  1.00  0.00    -0.200 F 
ENDBRANCH  26  50
BRANCH  38  61
ATOM     61  C   UNL A   1      45.563  30.018  28.952  1.00  0.00     0.064 A 
ATOM     62  C   UNL A   1      44.697  30.711  28.090  1.00  0.00     0.173 A 
ATOM     63  C   UNL A   1      46.925  30.340  28.897  1.00  0.00     0.173 A 
ATOM     64  F   UNL A   1      43.371  30.539  28.157  1.00  0.00    -0.203 F 
ATOM     65  C   UNL A   1      45.183  31.647  27.179  1.00  0.00     0.198 A 
ATOM     66  C   UNL A   1      47.403  31.302  28.013  1.00  0.00     0.198 A 
ATOM     67  F   UNL A   1      47.790  29.754  29.741  1.00  0.00    -0.203 F 
ATOM     68  F   UNL A   1      44.337  32.286  26.356  1.00  0.00    -0.200 F 
ATOM     69  C   UNL A   1      46.535  31.946  27.145  1.00  0.00     0.200 A 
ATOM     70  F   UNL A   1      48.703  31.628  28.021  1.00  0.00    -0.200 F 
ATOM     71  F   UNL A   1      46.997  32.878  26.300  1.00  0.00    -0.200 F 
ENDBRANCH  38  61
ENDBRANCH  12  13
ENDBRANCH   5   7
ENDBRANCH   2   3
ENDBRANCH   1   2
BRANCH   1  72
ATOM     72  C   UNL A   1      33.040  35.788  29.148  1.00  0.00     0.118 C 
BRANCH  72  73
ATOM     73  N   UNL A   1      33.114  36.917  30.056  1.00  0.00    -0.351 N 
ATOM     74  C   UNL A   1      33.281  36.941  31.425  1.00  0.00     0.273 C 
ATOM     75  H   UNL A   1      33.033  37.801  29.630  1.00  0.00     0.163 HD
ATOM     76  O   UNL A   1      33.133  37.998  32.017  1.00  0.00    -0.267 OA
BRANCH  74  77
ATOM     77  C   UNL A   1      33.620  35.699  32.096  1.00  0.00     0.170 A 
ATOM     78  C   UNL A   1      34.869  35.234  32.460  1.00  0.00     0.145 A 
ATOM     79  N   UNL A   1      32.676  34.789  32.500  1.00  0.00    -0.125 NA
ATOM     80  N   UNL A   1      34.623  33.999  32.979  1.00  0.00    -0.245 N 
ATOM     81  N   UNL A   1      33.305  33.745  33.022  1.00  0.00    -0.066 NA
BRANCH  80  82
ATOM     82  C   UNL A   1      35.567  33.053  33.476  1.00  0.00     0.148 C 
ATOM     83  C   UNL A   1      36.814  32.812  32.604  1.00  0.00     0.150 C 
ATOM     84  C   UNL A   1      36.556  33.681  34.484  1.00  0.00     0.150 C 
ATOM     85  N   UNL A   1      37.532  32.802  33.879  1.00  0.00    -0.320 N 
ATOM     86  C   UNL A   1      38.808  32.409  34.112  1.00  0.00     0.322 C 
ATOM     87  O   UNL A   1      39.483  31.901  33.212  1.00  0.00    -0.248 OA
ATOM     88  N   UNL A   1      39.416  32.686  35.294  1.00  0.00    -0.307 N 
ATOM     89  H   UNL A   1      40.400  32.685  35.259  1.00  0.00     0.171 HD
BRANCH  88  90
ATOM     90  C   UNL A   1      38.888  32.970  36.539  1.00  0.00     0.053 A 
ATOM     91  C   UNL A   1      38.931  34.207  37.247  1.00  0.00     0.038 A 
ATOM     92  C   UNL A   1      38.148  32.035  37.232  1.00  0.00     0.091 A 
ATOM     93  C   UNL A   1      38.419  34.102  38.523  1.00  0.00     0.067 A 
ATOM     94  S   UNL A   1      37.742  32.561  38.810  1.00  0.00    -0.150 S 
ENDBRANCH  88  90
ENDBRANCH  80  82
ENDBRANCH  74  77
ENDBRANCH  72  73
ENDBRANCH   1  72
TORSDOF 12
ENDMDL
MODEL 2
REMARK VINA RESULT:     -13.2      1.446      2.362
REMARK SMILES O=C(NCCCNC(=O)c1cn(C2CN(C(=O)Nc3ccsc3)C2)nn1)c1ccc(-c2c3nc(c(-c4c(F)c(F)c(F)c(F)c4F)c4ccc([nH]4)c(-c4c(F)c(F)c(F)c(F)c4F)c4nc(c(-c5c(F)c(F)c(F)c(F)c5F)c5ccc2[nH]5)C=C4)C=C3)cc1
REMARK SMILES IDX 5 1 4 2 3 3 1 4 2 5 27 7 28 8 89 9 29 10 88 11 30 12 31 13
REMARK SMILES IDX 32 14 82 15 33 16 87 17 81 18 83 19 34 20 86 21 80 22 79 23
REMARK SMILES IDX 35 25 67 26 47 27 66 28 48 29 51 30 65 31 84 32 49 33 50 34
REMARK SMILES IDX 64 36 85 37 52 38 36 39 37 40 45 41 38 42 39 43 43 44 46 45
REMARK SMILES IDX 40 46 41 47 44 48 42 49 68 50 69 51 77 52 70 53 71 54 75 55
REMARK SMILES IDX 78 56 72 57 73 58 76 59 74 60 53 61 54 62 62 63 55 64 56 65
REMARK SMILES IDX 60 66 63 67 57 68 58 69 61 70 59 71 6 72 7 73 8 74 9 76
REMARK SMILES IDX 10 77 11 78 26 79 12 80 25 81 13 82 14 83 24 84 15 85 16 86
REMARK SMILES IDX 17 87 18 88 19 90 20 91 23 92 21 93 22 94
REMARK H PARENT 3 6 83 24 51 35 7 75 18 89
REMARK Flexibility Score: inf
ROOT
ATOM      1  C   UNL A   1      34.336  35.199  28.660  1.00  0.00     0.042 C 
ENDROOT
BRANCH   1   2
ATOM      2  C   UNL A   1      34.916  33.847  29.069  1.00  0.00     0.118 C 
BRANCH   2   3
ATOM      3  N   UNL A   1      34.436  32.729  28.283  1.00  0.00    -0.352 N 
ATOM      4  O   UNL A   1      34.096  30.744  27.392  1.00  0.00    -0.269 OA
ATOM      5  C   UNL A   1      34.872  31.460  28.033  1.00  0.00     0.251 C 
ATOM      6  H   UNL A   1      33.592  32.933  27.819  1.00  0.00     0.163 HD
BRANCH   5   7
ATOM      7  C   UNL A   1      36.202  30.908  28.407  1.00  0.00     0.039 A 
ATOM      8  C   UNL A   1      37.265  31.626  28.958  1.00  0.00     0.014 A 
ATOM      9  C   UNL A   1      36.394  29.543  28.125  1.00  0.00     0.014 A 
ATOM     10  C   UNL A   1      38.509  31.025  29.137  1.00  0.00     0.010 A 
ATOM     11  C   UNL A   1      37.626  28.931  28.320  1.00  0.00     0.010 A 
ATOM     12  C   UNL A   1      38.697  29.686  28.789  1.00  0.00    -0.014 A 
BRANCH  12  13
ATOM     13  C   UNL A   1      39.997  29.070  29.053  1.00  0.00     0.031 A 
ATOM     14  C   UNL A   1      40.290  28.780  30.491  1.00  0.00     0.074 A 
ATOM     15  C   UNL A   1      40.803  28.622  28.068  1.00  0.00     0.049 A 
ATOM     16  N   UNL A   1      41.337  29.095  31.185  1.00  0.00    -0.248 NA
ATOM     17  C   UNL A   1      39.244  28.096  31.270  1.00  0.00     0.031 C 
ATOM     18  C   UNL A   1      40.513  28.557  26.634  1.00  0.00     0.029 A 
ATOM     19  N   UNL A   1      42.020  28.015  28.163  1.00  0.00    -0.354 N 
ATOM     20  C   UNL A   1      41.155  28.521  32.446  1.00  0.00     0.074 A 
ATOM     21  C   UNL A   1      39.808  28.018  32.475  1.00  0.00     0.031 C 
ATOM     22  C   UNL A   1      41.416  27.751  26.032  1.00  0.00     0.029 A 
ATOM     23  C   UNL A   1      42.412  27.348  27.010  1.00  0.00     0.049 A 
ATOM     24  H   UNL A   1      42.573  28.047  28.978  1.00  0.00     0.167 HD
ATOM     25  C   UNL A   1      42.193  28.329  33.307  1.00  0.00     0.037 A 
ATOM     26  C   UNL A   1      43.435  26.464  26.886  1.00  0.00     0.037 A 
ATOM     27  C   UNL A   1      43.289  29.214  33.013  1.00  0.00     0.049 A 
ATOM     28  C   UNL A   1      44.344  26.655  28.040  1.00  0.00     0.074 A 
ATOM     29  C   UNL A   1      43.452  30.585  32.985  1.00  0.00     0.029 A 
ATOM     30  N   UNL A   1      44.397  28.705  32.387  1.00  0.00    -0.354 N 
ATOM     31  N   UNL A   1      45.094  27.704  28.219  1.00  0.00    -0.248 NA
ATOM     32  C   UNL A   1      44.113  25.840  29.224  1.00  0.00     0.031 C 
ATOM     33  C   UNL A   1      44.366  30.826  31.916  1.00  0.00     0.029 A 
ATOM     34  C   UNL A   1      44.729  29.586  31.393  1.00  0.00     0.049 A 
ATOM     35  H   UNL A   1      44.865  27.868  32.609  1.00  0.00     0.167 HD
ATOM     36  C   UNL A   1      45.071  27.921  29.588  1.00  0.00     0.074 A 
ATOM     37  C   UNL A   1      44.538  26.689  30.162  1.00  0.00     0.031 C 
ATOM     38  C   UNL A   1      45.222  29.176  30.103  1.00  0.00     0.037 A 
BRANCH  25  39
ATOM     39  C   UNL A   1      42.365  27.096  34.174  1.00  0.00     0.064 A 
ATOM     40  C   UNL A   1      41.964  27.152  35.526  1.00  0.00     0.173 A 
ATOM     41  C   UNL A   1      43.193  26.004  33.837  1.00  0.00     0.173 A 
ATOM     42  F   UNL A   1      41.167  28.138  35.966  1.00  0.00    -0.203 F 
ATOM     43  C   UNL A   1      42.460  26.262  36.484  1.00  0.00     0.198 A 
ATOM     44  C   UNL A   1      43.645  25.088  34.787  1.00  0.00     0.198 A 
ATOM     45  F   UNL A   1      43.689  25.834  32.606  1.00  0.00    -0.203 F 
ATOM     46  F   UNL A   1      42.170  26.450  37.779  1.00  0.00    -0.200 F 
ATOM     47  C   UNL A   1      43.314  25.242  36.115  1.00  0.00     0.200 A 
ATOM     48  F   UNL A   1      44.477  24.107  34.410  1.00  0.00    -0.200 F 
ATOM     49  F   UNL A   1      43.854  24.438  37.041  1.00  0.00    -0.200 F 
ENDBRANCH  25  39
BRANCH  26  50
ATOM     50  C   UNL A   1      43.511  25.268  26.015  1.00  0.00     0.064 A 
ATOM     51  C   UNL A   1      44.648  25.009  25.231  1.00  0.00     0.173 A 
ATOM     52  C   UNL A   1      42.584  24.215  26.141  1.00  0.00     0.173 A 
ATOM     53  F   UNL A   1      45.605  25.939  25.101  1.00  0.00    -0.203 F 
ATOM     54  C   UNL A   1      44.852  23.764  24.625  1.00  0.00     0.198 A 
ATOM     55  C   UNL A   1      42.784  22.978  25.528  1.00  0.00     0.198 A 
ATOM     56  F   UNL A   1      41.515  24.332  26.940  1.00  0.00    -0.203 F 
ATOM     57  F   UNL A   1      45.978  23.531  23.936  1.00  0.00    -0.200 F 
ATOM     58  C   UNL A   1      43.924  22.747  24.782  1.00  0.00     0.200 A 
ATOM     59  F   UNL A   1      41.897  21.991  25.721  1.00  0.00    -0.200 F 
ATOM     60  F   UNL A   1      44.147  21.536  24.252  1.00  0.00    -0.200 F 
ENDBRANCH  26  50
BRANCH  38  61
ATOM     61  C   UNL A   1      45.685  30.261  29.176  1.00  0.00     0.064 A 
ATOM     62  C   UNL A   1      47.037  30.552  28.927  1.00  0.00     0.173 A 
ATOM     63  C   UNL A   1      44.727  30.933  28.407  1.00  0.00     0.173 A 
ATOM     64  F   UNL A   1      48.014  29.875  29.544  1.00  0.00    -0.203 F 
ATOM     65  C   UNL A   1      47.407  31.508  27.984  1.00  0.00     0.198 A 
ATOM     66  C   UNL A   1      45.101  31.860  27.439  1.00  0.00     0.198 A 
ATOM     67  F   UNL A   1      43.423  30.651  28.559  1.00  0.00    -0.203 F 
ATOM     68  F   UNL A   1      48.705  31.776  27.772  1.00  0.00    -0.200 F 
ATOM     69  C   UNL A   1      46.439  32.157  27.236  1.00  0.00     0.200 A 
ATOM     70  F   UNL A   1      44.164  32.446  26.680  1.00  0.00    -0.200 F 
ATOM     71  F   UNL A   1      46.796  33.045  26.298  1.00  0.00    -0.200 F 
ENDBRANCH  38  61
ENDBRANCH  12  13
ENDBRANCH   5   7
ENDBRANCH   2   3
ENDBRANCH   1   2
BRANCH   1  72
ATOM     72  C   UNL A   1      32.942  35.475  29.218  1.00  0.00     0.118 C 
BRANCH  72  73
ATOM     73  N   UNL A   1      32.888  36.688  30.015  1.00  0.00    -0.351 N 
ATOM     74  C   UNL A   1      33.181  36.883  31.348  1.00  0.00     0.273 C 
ATOM     75  H   UNL A   1      32.598  37.494  29.528  1.00  0.00     0.163 HD
ATOM     76  O   UNL A   1      32.893  37.952  31.863  1.00  0.00    -0.267 OA
BRANCH  74  77
ATOM     77  C   UNL A   1      33.815  35.799  32.077  1.00  0.00     0.170 A 
ATOM     78  C   UNL A   1      35.106  35.733  32.562  1.00  0.00     0.145 A 
ATOM     79  N   UNL A   1      33.156  34.646  32.417  1.00  0.00    -0.125 NA
ATOM     80  N   UNL A   1      35.197  34.479  33.087  1.00  0.00    -0.245 N 
ATOM     81  N   UNL A   1      34.020  33.838  33.018  1.00  0.00    -0.066 NA
BRANCH  80  82
ATOM     82  C   UNL A   1      36.333  33.861  33.689  1.00  0.00     0.148 C 
ATOM     83  C   UNL A   1      36.276  32.329  33.839  1.00  0.00     0.150 C 
ATOM     84  C   UNL A   1      37.464  33.588  32.673  1.00  0.00     0.150 C 
ATOM     85  N   UNL A   1      37.681  32.377  33.434  1.00  0.00    -0.320 N 
ATOM     86  C   UNL A   1      38.599  31.381  33.494  1.00  0.00     0.322 C 
ATOM     87  O   UNL A   1      38.321  30.302  34.024  1.00  0.00    -0.248 OA
ATOM     88  N   UNL A   1      39.792  31.496  32.857  1.00  0.00    -0.307 N 
ATOM     89  H   UNL A   1      40.235  30.639  32.659  1.00  0.00     0.171 HD
BRANCH  88  90
ATOM     90  C   UNL A   1      40.491  32.612  32.438  1.00  0.00     0.053 A 
ATOM     91  C   UNL A   1      40.673  33.082  31.104  1.00  0.00     0.038 A 
ATOM     92  C   UNL A   1      41.056  33.484  33.346  1.00  0.00     0.091 A 
ATOM     93  C   UNL A   1      41.538  34.154  31.036  1.00  0.00     0.067 A 
ATOM     94  S   UNL A   1      42.001  34.694  32.588  1.00  0.00    -0.150 S 
ENDBRANCH  88  90
ENDBRANCH  80  82
ENDBRANCH  74  77
ENDBRANCH  72  73
ENDBRANCH   1  72
TORSDOF 12
ENDMDL
MODEL 3
REMARK VINA RESULT:     -12.9      5.164     10.777
REMARK SMILES O=C(NCCCNC(=O)c1cn(C2CN(C(=O)Nc3ccsc3)C2)nn1)c1ccc(-c2c3nc(c(-c4c(F)c(F)c(F)c(F)c4F)c4ccc([nH]4)c(-c4c(F)c(F)c(F)c(F)c4F)c4nc(c(-c5c(F)c(F)c(F)c(F)c5F)c5ccc2[nH]5)C=C4)C=C3)cc1
REMARK SMILES IDX 5 1 4 2 3 3 1 4 2 5 27 7 28 8 89 9 29 10 88 11 30 12 31 13
REMARK SMILES IDX 32 14 82 15 33 16 87 17 81 18 83 19 34 20 86 21 80 22 79 23
REMARK SMILES IDX 35 25 67 26 47 27 66 28 48 29 51 30 65 31 84 32 49 33 50 34
REMARK SMILES IDX 64 36 85 37 52 38 36 39 37 40 45 41 38 42 39 43 43 44 46 45
REMARK SMILES IDX 40 46 41 47 44 48 42 49 68 50 69 51 77 52 70 53 71 54 75 55
REMARK SMILES IDX 78 56 72 57 73 58 76 59 74 60 53 61 54 62 62 63 55 64 56 65
REMARK SMILES IDX 60 66 63 67 57 68 58 69 61 70 59 71 6 72 7 73 8 74 9 76
REMARK SMILES IDX 10 77 11 78 26 79 12 80 25 81 13 82 14 83 24 84 15 85 16 86
REMARK SMILES IDX 17 87 18 88 19 90 20 91 23 92 21 93 22 94
REMARK H PARENT 3 6 83 24 51 35 7 75 18 89
REMARK Flexibility Score: inf
ROOT
ATOM      1  C   UNL A   1      36.324  21.051  25.005  1.00  0.00     0.042 C 
ENDROOT
BRANCH   1   2
ATOM      2  C   UNL A   1      37.533  21.976  25.134  1.00  0.00     0.118 C 
BRANCH   2   3
ATOM      3  N   UNL A   1      38.738  21.320  25.598  1.00  0.00    -0.352 N 
ATOM      4  O   UNL A   1      40.557  20.739  26.695  1.00  0.00    -0.269 OA
ATOM      5  C   UNL A   1      39.749  21.641  26.458  1.00  0.00     0.251 C 
ATOM      6  H   UNL A   1      38.856  20.428  25.198  1.00  0.00     0.163 HD
BRANCH   5   7
ATOM      7  C   UNL A   1      39.981  22.980  27.064  1.00  0.00     0.039 A 
ATOM      8  C   UNL A   1      39.207  24.123  26.856  1.00  0.00     0.014 A 
ATOM      9  C   UNL A   1      41.122  23.086  27.882  1.00  0.00     0.014 A 
ATOM     10  C   UNL A   1      39.607  25.354  27.372  1.00  0.00     0.010 A 
ATOM     11  C   UNL A   1      41.516  24.306  28.417  1.00  0.00     0.010 A 
ATOM     12  C   UNL A   1      40.778  25.450  28.126  1.00  0.00    -0.014 A 
BRANCH  12  13
ATOM     13  C   UNL A   1      41.132  26.744  28.708  1.00  0.00     0.031 A 
ATOM     14  C   UNL A   1      42.374  27.374  28.164  1.00  0.00     0.074 A 
ATOM     15  C   UNL A   1      40.311  27.417  29.541  1.00  0.00     0.049 A 
ATOM     16  N   UNL A   1      43.393  27.849  28.808  1.00  0.00    -0.248 NA
ATOM     17  C   UNL A   1      42.520  27.426  26.699  1.00  0.00     0.031 C 
ATOM     18  C   UNL A   1      38.938  27.071  29.917  1.00  0.00     0.029 A 
ATOM     19  N   UNL A   1      40.496  28.629  30.138  1.00  0.00    -0.354 N 
ATOM     20  C   UNL A   1      44.242  28.398  27.843  1.00  0.00     0.074 A 
ATOM     21  C   UNL A   1      43.711  28.011  26.564  1.00  0.00     0.031 C 
ATOM     22  C   UNL A   1      38.347  28.146  30.485  1.00  0.00     0.029 A 
ATOM     23  C   UNL A   1      39.331  29.206  30.624  1.00  0.00     0.049 A 
ATOM     24  H   UNL A   1      41.380  29.057  30.218  1.00  0.00     0.167 HD
ATOM     25  C   UNL A   1      45.213  29.297  28.166  1.00  0.00     0.037 A 
ATOM     26  C   UNL A   1      39.165  30.488  31.037  1.00  0.00     0.037 A 
ATOM     27  C   UNL A   1      45.586  29.191  29.551  1.00  0.00     0.049 A 
ATOM     28  C   UNL A   1      40.506  31.053  31.316  1.00  0.00     0.074 A 
ATOM     29  C   UNL A   1      46.124  28.194  30.342  1.00  0.00     0.029 A 
ATOM     30  N   UNL A   1      45.141  30.146  30.429  1.00  0.00    -0.354 N 
ATOM     31  N   UNL A   1      41.265  30.689  32.309  1.00  0.00    -0.248 NA
ATOM     32  C   UNL A   1      41.182  31.752  30.233  1.00  0.00     0.031 C 
ATOM     33  C   UNL A   1      45.519  28.369  31.621  1.00  0.00     0.029 A 
ATOM     34  C   UNL A   1      44.685  29.484  31.536  1.00  0.00     0.049 A 
ATOM     35  H   UNL A   1      45.149  31.120  30.289  1.00  0.00     0.167 HD
ATOM     36  C   UNL A   1      42.552  30.720  31.795  1.00  0.00     0.074 A 
ATOM     37  C   UNL A   1      42.449  31.476  30.551  1.00  0.00     0.031 C 
ATOM     38  C   UNL A   1      43.523  29.894  32.282  1.00  0.00     0.037 A 
BRANCH  25  39
ATOM     39  C   UNL A   1      45.561  30.513  27.330  1.00  0.00     0.064 A 
ATOM     40  C   UNL A   1      46.921  30.816  27.097  1.00  0.00     0.173 A 
ATOM     41  C   UNL A   1      44.655  31.556  27.039  1.00  0.00     0.173 A 
ATOM     42  F   UNL A   1      47.876  29.902  27.327  1.00  0.00    -0.203 F 
ATOM     43  C   UNL A   1      47.343  32.098  26.732  1.00  0.00     0.198 A 
ATOM     44  C   UNL A   1      45.078  32.818  26.625  1.00  0.00     0.198 A 
ATOM     45  F   UNL A   1      43.339  31.439  27.245  1.00  0.00    -0.203 F 
ATOM     46  F   UNL A   1      48.653  32.373  26.672  1.00  0.00    -0.200 F 
ATOM     47  C   UNL A   1      46.421  33.102  26.513  1.00  0.00     0.200 A 
ATOM     48  F   UNL A   1      44.168  33.782  26.422  1.00  0.00    -0.200 F 
ATOM     49  F   UNL A   1      46.825  34.350  26.241  1.00  0.00    -0.200 F 
ENDBRANCH  25  39
BRANCH  26  50
ATOM     50  C   UNL A   1      37.963  31.344  30.907  1.00  0.00     0.064 A 
ATOM     51  C   UNL A   1      37.463  31.713  29.648  1.00  0.00     0.173 A 
ATOM     52  C   UNL A   1      37.123  31.591  32.011  1.00  0.00     0.173 A 
ATOM     53  F   UNL A   1      38.176  31.466  28.539  1.00  0.00    -0.203 F 
ATOM     54  C   UNL A   1      36.191  32.280  29.501  1.00  0.00     0.198 A 
ATOM     55  C   UNL A   1      35.860  32.165  31.865  1.00  0.00     0.198 A 
ATOM     56  F   UNL A   1      37.471  31.192  33.243  1.00  0.00    -0.203 F 
ATOM     57  F   UNL A   1      35.721  32.562  28.278  1.00  0.00    -0.200 F 
ATOM     58  C   UNL A   1      35.388  32.496  30.609  1.00  0.00     0.200 A 
ATOM     59  F   UNL A   1      35.079  32.332  32.941  1.00  0.00    -0.200 F 
ATOM     60  F   UNL A   1      34.147  32.983  30.464  1.00  0.00    -0.200 F 
ENDBRANCH  26  50
BRANCH  38  61
ATOM     61  C   UNL A   1      43.240  29.158  33.558  1.00  0.00     0.064 A 
ATOM     62  C   UNL A   1      42.530  27.948  33.621  1.00  0.00     0.173 A 
ATOM     63  C   UNL A   1      43.833  29.621  34.739  1.00  0.00     0.173 A 
ATOM     64  F   UNL A   1      42.026  27.384  32.515  1.00  0.00    -0.203 F 
ATOM     65  C   UNL A   1      42.379  27.260  34.823  1.00  0.00     0.198 A 
ATOM     66  C   UNL A   1      43.713  28.913  35.932  1.00  0.00     0.198 A 
ATOM     67  F   UNL A   1      44.575  30.740  34.727  1.00  0.00    -0.203 F 
ATOM     68  F   UNL A   1      41.685  26.112  34.859  1.00  0.00    -0.200 F 
ATOM     69  C   UNL A   1      42.976  27.741  35.977  1.00  0.00     0.200 A 
ATOM     70  F   UNL A   1      44.338  29.353  37.033  1.00  0.00    -0.200 F 
ATOM     71  F   UNL A   1      42.870  27.057  37.125  1.00  0.00    -0.200 F 
ENDBRANCH  38  61
ENDBRANCH  12  13
ENDBRANCH   5   7
ENDBRANCH   2   3
ENDBRANCH   1   2
BRANCH   1  72
ATOM     72  C   UNL A   1      35.213  21.330  26.015  1.00  0.00     0.118 C 
BRANCH  72  73
ATOM     73  N   UNL A   1      34.048  20.488  25.814  1.00  0.00    -0.351 N 
ATOM     74  C   UNL A   1      32.921  20.707  25.051  1.00  0.00     0.273 C 
ATOM     75  H   UNL A   1      34.066  19.629  26.295  1.00  0.00     0.163 HD
ATOM     76  O   UNL A   1      31.975  19.944  25.166  1.00  0.00    -0.267 OA
BRANCH  74  77
ATOM     77  C   UNL A   1      32.913  21.846  24.149  1.00  0.00     0.170 A 
ATOM     78  C   UNL A   1      32.956  23.190  24.464  1.00  0.00     0.145 A 
ATOM     79  N   UNL A   1      32.889  21.713  22.784  1.00  0.00    -0.125 NA
ATOM     80  N   UNL A   1      32.845  23.815  23.258  1.00  0.00    -0.245 N 
ATOM     81  N   UNL A   1      32.828  22.926  22.252  1.00  0.00    -0.066 NA
BRANCH  80  82
ATOM     82  C   UNL A   1      32.794  25.216  22.999  1.00  0.00     0.148 C 
ATOM     83  C   UNL A   1      31.576  25.717  22.199  1.00  0.00     0.150 C 
ATOM     84  C   UNL A   1      32.184  26.011  24.174  1.00  0.00     0.150 C 
ATOM     85  N   UNL A   1      31.593  26.836  23.142  1.00  0.00    -0.320 N 
ATOM     86  C   UNL A   1      30.910  28.003  23.060  1.00  0.00     0.322 C 
ATOM     87  O   UNL A   1      30.244  28.272  22.056  1.00  0.00    -0.248 OA
ATOM     88  N   UNL A   1      30.833  28.840  24.126  1.00  0.00    -0.307 N 
ATOM     89  H   UNL A   1      30.069  29.460  24.105  1.00  0.00     0.171 HD
BRANCH  88  90
ATOM     90  C   UNL A   1      31.646  28.970  25.236  1.00  0.00     0.053 A 
ATOM     91  C   UNL A   1      31.476  28.374  26.520  1.00  0.00     0.038 A 
ATOM     92  C   UNL A   1      32.828  29.679  25.178  1.00  0.00     0.091 A 
ATOM     93  C   UNL A   1      32.404  28.822  27.436  1.00  0.00     0.067 A 
ATOM     94  S   UNL A   1      33.574  29.832  26.711  1.00  0.00    -0.150 S 
ENDBRANCH  88  90
ENDBRANCH  80  82
ENDBRANCH  74  77
ENDBRANCH  72  73
ENDBRANCH   1  72
TORSDOF 12
ENDMDL
