MODEL 1
REMARK VINA RESULT:     -13.1      0.000      0.000
REMARK SMILES O=C(NCCCNC(=O)[C@@H]1CN(C(=O)[C@H]2CC=CCC2)c2ccccc2O1)c1ccc(-c2c3nc(c(-c4c(F)c(F)c(F)c(F)c4F)c4ccc([nH]4)c(-c4c(F)c(F)c(F)c(F)c4F)c4nc(c(-c5c(F)c(F)c(F)c(F)c5F)c5ccc2[nH]5)C=C4)C=C3)cc1
REMARK SMILES IDX 5 1 4 2 3 3 1 4 2 5 28 7 29 8 90 9 30 10 89 11 31 12 32 13
REMARK SMILES IDX 33 14 83 15 34 16 88 17 82 18 84 19 35 20 87 21 81 22 80 23
REMARK SMILES IDX 36 25 68 26 48 27 67 28 49 29 52 30 66 31 85 32 50 33 51 34
REMARK SMILES IDX 65 36 86 37 53 38 37 39 38 40 46 41 39 42 40 43 44 44 47 45
REMARK SMILES IDX 41 46 42 47 45 48 43 49 69 50 70 51 78 52 71 53 72 54 76 55
REMARK SMILES IDX 79 56 73 57 74 58 77 59 75 60 54 61 55 62 63 63 56 64 57 65
REMARK SMILES IDX 61 66 64 67 58 68 59 69 62 70 60 71 6 72 7 73 8 74 9 76
REMARK SMILES IDX 10 77 11 78 27 79 12 80 26 81 21 82 25 83 22 84 24 85 23 86
REMARK SMILES IDX 13 87 14 88 15 89 16 90 20 91 17 92 19 93 18 94
REMARK H PARENT 3 6 84 24 52 35 7 75
REMARK Flexibility Score: inf
ROOT
ATOM      1  C   UNL A   1      32.619  27.621  25.298  1.00  0.00     0.042 C 
ENDROOT
BRANCH   1   2
ATOM      2  C   UNL A   1      33.327  28.858  24.754  1.00  0.00     0.118 C 
BRANCH   2   3
ATOM      3  N   UNL A   1      32.803  30.081  25.347  1.00  0.00    -0.352 N 
ATOM      4  O   UNL A   1      32.263  31.670  26.795  1.00  0.00    -0.269 OA
ATOM      5  C   UNL A   1      33.060  30.766  26.507  1.00  0.00     0.251 C 
ATOM      6  H   UNL A   1      32.115  30.511  24.792  1.00  0.00     0.163 HD
BRANCH   5   7
ATOM      7  C   UNL A   1      34.195  30.505  27.441  1.00  0.00     0.039 A 
ATOM      8  C   UNL A   1      34.460  29.279  28.046  1.00  0.00     0.014 A 
ATOM      9  C   UNL A   1      35.136  31.537  27.625  1.00  0.00     0.014 A 
ATOM     10  C   UNL A   1      35.585  29.104  28.863  1.00  0.00     0.010 A 
ATOM     11  C   UNL A   1      36.311  31.337  28.371  1.00  0.00     0.010 A 
ATOM     12  C   UNL A   1      36.548  30.114  29.007  1.00  0.00    -0.014 A 
BRANCH  12  13
ATOM     13  C   UNL A   1      37.815  29.831  29.745  1.00  0.00     0.031 A 
ATOM     14  C   UNL A   1      38.054  30.350  31.139  1.00  0.00     0.074 A 
ATOM     15  C   UNL A   1      38.766  29.074  29.157  1.00  0.00     0.049 A 
ATOM     16  N   UNL A   1      39.075  30.145  31.937  1.00  0.00    -0.248 NA
ATOM     17  C   UNL A   1      37.021  31.227  31.708  1.00  0.00     0.031 C 
ATOM     18  C   UNL A   1      38.691  28.540  27.795  1.00  0.00     0.029 A 
ATOM     19  N   UNL A   1      39.966  28.598  29.630  1.00  0.00    -0.354 N 
ATOM     20  C   UNL A   1      38.818  30.879  33.087  1.00  0.00     0.074 A 
ATOM     21  C   UNL A   1      37.559  31.561  32.874  1.00  0.00     0.031 C 
ATOM     22  C   UNL A   1      39.757  27.757  27.567  1.00  0.00     0.029 A 
ATOM     23  C   UNL A   1      40.622  27.777  28.742  1.00  0.00     0.049 A 
ATOM     24  H   UNL A   1      40.322  28.823  30.519  1.00  0.00     0.167 HD
ATOM     25  C   UNL A   1      39.557  30.968  34.222  1.00  0.00     0.037 A 
ATOM     26  C   UNL A   1      41.789  27.113  28.854  1.00  0.00     0.037 A 
ATOM     27  C   UNL A   1      40.799  30.271  34.449  1.00  0.00     0.049 A 
ATOM     28  C   UNL A   1      42.582  27.225  30.126  1.00  0.00     0.074 A 
ATOM     29  C   UNL A   1      41.586  30.259  35.589  1.00  0.00     0.029 A 
ATOM     30  N   UNL A   1      41.437  29.463  33.518  1.00  0.00    -0.354 N 
ATOM     31  N   UNL A   1      42.297  27.876  31.227  1.00  0.00    -0.248 NA
ATOM     32  C   UNL A   1      43.864  26.507  30.170  1.00  0.00     0.031 C 
ATOM     33  C   UNL A   1      42.724  29.486  35.330  1.00  0.00     0.029 A 
ATOM     34  C   UNL A   1      42.620  28.969  34.051  1.00  0.00     0.049 A 
ATOM     35  H   UNL A   1      41.100  29.269  32.614  1.00  0.00     0.167 HD
ATOM     36  C   UNL A   1      43.346  27.628  32.100  1.00  0.00     0.074 A 
ATOM     37  C   UNL A   1      44.267  26.750  31.409  1.00  0.00     0.031 C 
ATOM     38  C   UNL A   1      43.528  28.090  33.361  1.00  0.00     0.037 A 
BRANCH  25  39
ATOM     39  C   UNL A   1      39.050  31.868  35.314  1.00  0.00     0.064 A 
ATOM     40  C   UNL A   1      38.297  31.377  36.389  1.00  0.00     0.173 A 
ATOM     41  C   UNL A   1      39.364  33.237  35.307  1.00  0.00     0.173 A 
ATOM     42  F   UNL A   1      37.961  30.079  36.441  1.00  0.00    -0.203 F 
ATOM     43  C   UNL A   1      37.851  32.224  37.401  1.00  0.00     0.198 A 
ATOM     44  C   UNL A   1      38.943  34.077  36.336  1.00  0.00     0.198 A 
ATOM     45  F   UNL A   1      40.093  33.759  34.309  1.00  0.00    -0.203 F 
ATOM     46  F   UNL A   1      37.092  31.740  38.394  1.00  0.00    -0.200 F 
ATOM     47  C   UNL A   1      38.180  33.571  37.377  1.00  0.00     0.200 A 
ATOM     48  F   UNL A   1      39.276  35.375  36.318  1.00  0.00    -0.200 F 
ATOM     49  F   UNL A   1      37.756  34.384  38.354  1.00  0.00    -0.200 F 
ENDBRANCH  25  39
BRANCH  26  50
ATOM     50  C   UNL A   1      42.271  26.264  27.733  1.00  0.00     0.064 A 
ATOM     51  C   UNL A   1      41.775  24.966  27.546  1.00  0.00     0.173 A 
ATOM     52  C   UNL A   1      43.239  26.727  26.830  1.00  0.00     0.173 A 
ATOM     53  F   UNL A   1      40.866  24.468  28.398  1.00  0.00    -0.203 F 
ATOM     54  C   UNL A   1      42.240  24.158  26.510  1.00  0.00     0.198 A 
ATOM     55  C   UNL A   1      43.680  25.931  25.775  1.00  0.00     0.198 A 
ATOM     56  F   UNL A   1      43.747  27.962  26.963  1.00  0.00    -0.203 F 
ATOM     57  F   UNL A   1      41.782  22.906  26.383  1.00  0.00    -0.200 F 
ATOM     58  C   UNL A   1      43.186  24.645  25.620  1.00  0.00     0.200 A 
ATOM     59  F   UNL A   1      44.584  26.409  24.909  1.00  0.00    -0.200 F 
ATOM     60  F   UNL A   1      43.628  23.870  24.620  1.00  0.00    -0.200 F 
ENDBRANCH  26  50
BRANCH  38  61
ATOM     61  C   UNL A   1      44.753  27.621  34.092  1.00  0.00     0.064 A 
ATOM     62  C   UNL A   1      44.775  26.410  34.799  1.00  0.00     0.173 A 
ATOM     63  C   UNL A   1      45.927  28.391  34.075  1.00  0.00     0.173 A 
ATOM     64  F   UNL A   1      43.675  25.644  34.861  1.00  0.00    -0.203 F 
ATOM     65  C   UNL A   1      45.915  26.000  35.485  1.00  0.00     0.198 A 
ATOM     66  C   UNL A   1      47.075  27.965  34.738  1.00  0.00     0.198 A 
ATOM     67  F   UNL A   1      45.962  29.556  33.411  1.00  0.00    -0.203 F 
ATOM     68  F   UNL A   1      45.895  24.866  36.199  1.00  0.00    -0.200 F 
ATOM     69  C   UNL A   1      47.065  26.775  35.449  1.00  0.00     0.200 A 
ATOM     70  F   UNL A   1      48.189  28.709  34.692  1.00  0.00    -0.200 F 
ATOM     71  F   UNL A   1      48.162  26.380  36.111  1.00  0.00    -0.200 F 
ENDBRANCH  38  61
ENDBRANCH  12  13
ENDBRANCH   5   7
ENDBRANCH   2   3
ENDBRANCH   1   2
BRANCH   1  72
ATOM     72  C   UNL A   1      33.031  26.318  24.605  1.00  0.00     0.118 C 
BRANCH  72  73
ATOM     73  N   UNL A   1      32.716  25.163  25.424  1.00  0.00    -0.353 N 
ATOM     74  C   UNL A   1      32.525  23.844  25.154  1.00  0.00     0.262 C 
ATOM     75  H   UNL A   1      32.621  25.379  26.379  1.00  0.00     0.163 HD
ATOM     76  O   UNL A   1      32.360  23.139  26.158  1.00  0.00    -0.271 OA
BRANCH  74  77
ATOM     77  C   UNL A   1      32.606  23.218  23.731  1.00  0.00     0.281 C 
ATOM     78  C   UNL A   1      32.316  21.731  23.569  1.00  0.00     0.181 C 
ATOM     79  O   UNL A   1      33.894  23.451  23.140  1.00  0.00    -0.477 OA
ATOM     80  N   UNL A   1      33.230  20.894  24.342  1.00  0.00    -0.304 N 
ATOM     81  C   UNL A   1      34.860  22.662  23.733  1.00  0.00     0.144 A 
ATOM     82  C   UNL A   1      34.581  21.433  24.383  1.00  0.00     0.086 A 
ATOM     83  C   UNL A   1      36.153  23.194  23.678  1.00  0.00     0.049 A 
ATOM     84  C   UNL A   1      35.659  20.788  25.002  1.00  0.00     0.030 A 
ATOM     85  C   UNL A   1      37.199  22.537  24.314  1.00  0.00     0.004 A 
ATOM     86  C   UNL A   1      36.949  21.342  24.982  1.00  0.00     0.002 A 
BRANCH  80  87
ATOM     87  C   UNL A   1      32.829  19.758  25.041  1.00  0.00     0.230 C 
ATOM     88  O   UNL A   1      32.845  19.719  26.281  1.00  0.00    -0.274 OA
BRANCH  87  89
ATOM     89  C   UNL A   1      32.414  18.428  24.343  1.00  0.00     0.083 C 
ATOM     90  C   UNL A   1      32.934  18.011  22.964  1.00  0.00     0.040 C 
ATOM     91  C   UNL A   1      32.418  17.243  25.317  1.00  0.00     0.018 C 
ATOM     92  C   UNL A   1      34.024  16.982  22.958  1.00  0.00    -0.030 C 
ATOM     93  C   UNL A   1      33.759  16.516  25.394  1.00  0.00     0.028 C 
ATOM     94  C   UNL A   1      34.408  16.323  24.057  1.00  0.00    -0.031 C 
ENDBRANCH  87  89
ENDBRANCH  80  87
ENDBRANCH  74  77
ENDBRANCH  72  73
ENDBRANCH   1  72
TORSDOF 12
ENDMDL
MODEL 2
REMARK VINA RESULT:     -13.1      0.241      1.600
REMARK SMILES O=C(NCCCNC(=O)[C@@H]1CN(C(=O)[C@H]2CC=CCC2)c2ccccc2O1)c1ccc(-c2c3nc(c(-c4c(F)c(F)c(F)c(F)c4F)c4ccc([nH]4)c(-c4c(F)c(F)c(F)c(F)c4F)c4nc(c(-c5c(F)c(F)c(F)c(F)c5F)c5ccc2[nH]5)C=C4)C=C3)cc1
REMARK SMILES IDX 5 1 4 2 3 3 1 4 2 5 28 7 29 8 90 9 30 10 89 11 31 12 32 13
REMARK SMILES IDX 33 14 83 15 34 16 88 17 82 18 84 19 35 20 87 21 81 22 80 23
REMARK SMILES IDX 36 25 68 26 48 27 67 28 49 29 52 30 66 31 85 32 50 33 51 34
REMARK SMILES IDX 65 36 86 37 53 38 37 39 38 40 46 41 39 42 40 43 44 44 47 45
REMARK SMILES IDX 41 46 42 47 45 48 43 49 69 50 70 51 78 52 71 53 72 54 76 55
REMARK SMILES IDX 79 56 73 57 74 58 77 59 75 60 54 61 55 62 63 63 56 64 57 65
REMARK SMILES IDX 61 66 64 67 58 68 59 69 62 70 60 71 6 72 7 73 8 74 9 76
REMARK SMILES IDX 10 77 11 78 27 79 12 80 26 81 21 82 25 83 22 84 24 85 23 86
REMARK SMILES IDX 13 87 14 88 15 89 16 90 20 91 17 92 19 93 18 94
REMARK H PARENT 3 6 84 24 52 35 7 75
REMARK Flexibility Score: inf
ROOT
ATOM      1  C   UNL A   1      32.902  27.622  25.467  1.00  0.00     0.042 C 
ENDROOT
BRANCH   1   2
ATOM      2  C   UNL A   1      33.528  28.860  24.834  1.00  0.00     0.118 C 
BRANCH   2   3
ATOM      3  N   UNL A   1      33.006  30.086  25.423  1.00  0.00    -0.352 N 
ATOM      4  O   UNL A   1      32.473  31.683  26.865  1.00  0.00    -0.269 OA
ATOM      5  C   UNL A   1      33.268  30.777  26.578  1.00  0.00     0.251 C 
ATOM      6  H   UNL A   1      32.315  30.513  24.869  1.00  0.00     0.163 HD
BRANCH   5   7
ATOM      7  C   UNL A   1      34.409  30.521  27.508  1.00  0.00     0.039 A 
ATOM      8  C   UNL A   1      34.639  29.318  28.169  1.00  0.00     0.014 A 
ATOM      9  C   UNL A   1      35.389  31.526  27.626  1.00  0.00     0.014 A 
ATOM     10  C   UNL A   1      35.771  29.144  28.978  1.00  0.00     0.010 A 
ATOM     11  C   UNL A   1      36.568  31.322  28.363  1.00  0.00     0.010 A 
ATOM     12  C   UNL A   1      36.771  30.124  29.057  1.00  0.00    -0.014 A 
BRANCH  12  13
ATOM     13  C   UNL A   1      38.039  29.831  29.791  1.00  0.00     0.031 A 
ATOM     14  C   UNL A   1      38.297  30.370  31.174  1.00  0.00     0.074 A 
ATOM     15  C   UNL A   1      38.972  29.049  29.207  1.00  0.00     0.049 A 
ATOM     16  N   UNL A   1      39.321  30.160  31.967  1.00  0.00    -0.248 NA
ATOM     17  C   UNL A   1      37.283  31.272  31.736  1.00  0.00     0.031 C 
ATOM     18  C   UNL A   1      38.878  28.494  27.856  1.00  0.00     0.029 A 
ATOM     19  N   UNL A   1      40.168  28.561  29.679  1.00  0.00    -0.354 N 
ATOM     20  C   UNL A   1      39.085  30.917  33.107  1.00  0.00     0.074 A 
ATOM     21  C   UNL A   1      37.835  31.616  32.892  1.00  0.00     0.031 C 
ATOM     22  C   UNL A   1      39.929  27.690  27.633  1.00  0.00     0.029 A 
ATOM     23  C   UNL A   1      40.804  27.715  28.800  1.00  0.00     0.049 A 
ATOM     24  H   UNL A   1      40.535  28.795  30.562  1.00  0.00     0.167 HD
ATOM     25  C   UNL A   1      39.834  31.013  34.234  1.00  0.00     0.037 A 
ATOM     26  C   UNL A   1      41.960  27.034  28.914  1.00  0.00     0.037 A 
ATOM     27  C   UNL A   1      41.066  30.298  34.464  1.00  0.00     0.049 A 
ATOM     28  C   UNL A   1      42.765  27.153  30.178  1.00  0.00     0.074 A 
ATOM     29  C   UNL A   1      41.862  30.292  35.598  1.00  0.00     0.029 A 
ATOM     30  N   UNL A   1      41.683  29.465  33.542  1.00  0.00    -0.354 N 
ATOM     31  N   UNL A   1      42.499  27.826  31.270  1.00  0.00    -0.248 NA
ATOM     32  C   UNL A   1      44.035  26.414  30.224  1.00  0.00     0.031 C 
ATOM     33  C   UNL A   1      42.985  29.496  35.344  1.00  0.00     0.029 A 
ATOM     34  C   UNL A   1      42.862  28.960  34.073  1.00  0.00     0.049 A 
ATOM     35  H   UNL A   1      41.336  29.262  32.643  1.00  0.00     0.167 HD
ATOM     36  C   UNL A   1      43.550  27.575  32.140  1.00  0.00     0.074 A 
ATOM     37  C   UNL A   1      44.452  26.671  31.457  1.00  0.00     0.031 C 
ATOM     38  C   UNL A   1      43.750  28.054  33.391  1.00  0.00     0.037 A 
BRANCH  25  39
ATOM     39  C   UNL A   1      39.351  31.939  35.315  1.00  0.00     0.064 A 
ATOM     40  C   UNL A   1      38.543  31.489  36.370  1.00  0.00     0.173 A 
ATOM     41  C   UNL A   1      39.742  33.287  35.320  1.00  0.00     0.173 A 
ATOM     42  F   UNL A   1      38.133  30.212  36.410  1.00  0.00    -0.203 F 
ATOM     43  C   UNL A   1      38.119  32.360  37.372  1.00  0.00     0.198 A 
ATOM     44  C   UNL A   1      39.342  34.148  36.340  1.00  0.00     0.198 A 
ATOM     45  F   UNL A   1      40.524  33.768  34.342  1.00  0.00    -0.203 F 
ATOM     46  F   UNL A   1      37.309  31.918  38.343  1.00  0.00    -0.200 F 
ATOM     47  C   UNL A   1      38.525  33.686  37.360  1.00  0.00     0.200 A 
ATOM     48  F   UNL A   1      39.748  35.425  36.334  1.00  0.00    -0.200 F 
ATOM     49  F   UNL A   1      38.122  34.520  38.327  1.00  0.00    -0.200 F 
ENDBRANCH  25  39
BRANCH  26  50
ATOM     50  C   UNL A   1      42.420  26.158  27.804  1.00  0.00     0.064 A 
ATOM     51  C   UNL A   1      43.340  26.623  26.853  1.00  0.00     0.173 A 
ATOM     52  C   UNL A   1      41.947  24.846  27.664  1.00  0.00     0.173 A 
ATOM     53  F   UNL A   1      43.804  27.880  26.928  1.00  0.00    -0.203 F 
ATOM     54  C   UNL A   1      43.757  25.814  25.798  1.00  0.00     0.198 A 
ATOM     55  C   UNL A   1      42.388  24.027  26.627  1.00  0.00     0.198 A 
ATOM     56  F   UNL A   1      41.065  24.352  28.546  1.00  0.00    -0.203 F 
ATOM     57  F   UNL A   1      44.602  26.299  24.878  1.00  0.00    -0.200 F 
ATOM     58  C   UNL A   1      43.287  24.514  25.690  1.00  0.00     0.200 A 
ATOM     59  F   UNL A   1      41.943  22.766  26.535  1.00  0.00    -0.200 F 
ATOM     60  F   UNL A   1      43.693  23.734  24.679  1.00  0.00    -0.200 F 
ENDBRANCH  26  50
BRANCH  38  61
ATOM     61  C   UNL A   1      44.973  27.577  34.121  1.00  0.00     0.064 A 
ATOM     62  C   UNL A   1      46.191  28.270  34.055  1.00  0.00     0.173 A 
ATOM     63  C   UNL A   1      44.920  26.417  34.910  1.00  0.00     0.173 A 
ATOM     64  F   UNL A   1      46.300  29.375  33.303  1.00  0.00    -0.203 F 
ATOM     65  C   UNL A   1      47.319  27.802  34.726  1.00  0.00     0.198 A 
ATOM     66  C   UNL A   1      46.041  25.969  35.603  1.00  0.00     0.198 A 
ATOM     67  F   UNL A   1      43.779  25.720  35.011  1.00  0.00    -0.203 F 
ATOM     68  F   UNL A   1      48.486  28.449  34.603  1.00  0.00    -0.200 F 
ATOM     69  C   UNL A   1      47.241  26.656  35.503  1.00  0.00     0.200 A 
ATOM     70  F   UNL A   1      45.961  24.868  36.363  1.00  0.00    -0.200 F 
ATOM     71  F   UNL A   1      48.327  26.207  36.147  1.00  0.00    -0.200 F 
ENDBRANCH  38  61
ENDBRANCH  12  13
ENDBRANCH   5   7
ENDBRANCH   2   3
ENDBRANCH   1   2
BRANCH   1  72
ATOM     72  C   UNL A   1      33.165  26.329  24.688  1.00  0.00     0.118 C 
BRANCH  72  73
ATOM     73  N   UNL A   1      32.930  25.159  25.511  1.00  0.00    -0.353 N 
ATOM     74  C   UNL A   1      32.765  23.836  25.240  1.00  0.00     0.262 C 
ATOM     75  H   UNL A   1      32.878  25.366  26.472  1.00  0.00     0.163 HD
ATOM     76  O   UNL A   1      32.676  23.120  26.246  1.00  0.00    -0.271 OA
BRANCH  74  77
ATOM     77  C   UNL A   1      32.790  23.223  23.810  1.00  0.00     0.281 C 
ATOM     78  C   UNL A   1      32.424  21.754  23.638  1.00  0.00     0.181 C 
ATOM     79  O   UNL A   1      34.077  23.399  23.198  1.00  0.00    -0.477 OA
ATOM     80  N   UNL A   1      33.308  20.864  24.386  1.00  0.00    -0.304 N 
ATOM     81  C   UNL A   1      35.013  22.556  23.766  1.00  0.00     0.144 A 
ATOM     82  C   UNL A   1      34.684  21.335  24.407  1.00  0.00     0.086 A 
ATOM     83  C   UNL A   1      36.330  23.023  23.693  1.00  0.00     0.049 A 
ATOM     84  C   UNL A   1      35.740  20.630  25.000  1.00  0.00     0.030 A 
ATOM     85  C   UNL A   1      37.353  22.308  24.303  1.00  0.00     0.004 A 
ATOM     86  C   UNL A   1      37.055  21.120  24.963  1.00  0.00     0.002 A 
BRANCH  80  87
ATOM     87  C   UNL A   1      32.863  19.742  25.079  1.00  0.00     0.230 C 
ATOM     88  O   UNL A   1      32.843  19.711  26.320  1.00  0.00    -0.274 OA
BRANCH  87  89
ATOM     89  C   UNL A   1      32.440  18.416  24.379  1.00  0.00     0.083 C 
ATOM     90  C   UNL A   1      32.928  18.017  22.982  1.00  0.00     0.040 C 
ATOM     91  C   UNL A   1      32.476  17.222  25.339  1.00  0.00     0.018 C 
ATOM     92  C   UNL A   1      34.024  16.997  22.938  1.00  0.00    -0.030 C 
ATOM     93  C   UNL A   1      33.823  16.503  25.376  1.00  0.00     0.028 C 
ATOM     94  C   UNL A   1      34.440  16.329  24.021  1.00  0.00    -0.031 C 
ENDBRANCH  87  89
ENDBRANCH  80  87
ENDBRANCH  74  77
ENDBRANCH  72  73
ENDBRANCH   1  72
TORSDOF 12
ENDMDL
MODEL 3
REMARK VINA RESULT:     -13.0      4.788      8.561
REMARK SMILES O=C(NCCCNC(=O)[C@@H]1CN(C(=O)[C@H]2CC=CCC2)c2ccccc2O1)c1ccc(-c2c3nc(c(-c4c(F)c(F)c(F)c(F)c4F)c4ccc([nH]4)c(-c4c(F)c(F)c(F)c(F)c4F)c4nc(c(-c5c(F)c(F)c(F)c(F)c5F)c5ccc2[nH]5)C=C4)C=C3)cc1
REMARK SMILES IDX 5 1 4 2 3 3 1 4 2 5 28 7 29 8 90 9 30 10 89 11 31 12 32 13
REMARK SMILES IDX 33 14 83 15 34 16 88 17 82 18 84 19 35 20 87 21 81 22 80 23
REMARK SMILES IDX 36 25 68 26 48 27 67 28 49 29 52 30 66 31 85 32 50 33 51 34
REMARK SMILES IDX 65 36 86 37 53 38 37 39 38 40 46 41 39 42 40 43 44 44 47 45
REMARK SMILES IDX 41 46 42 47 45 48 43 49 69 50 70 51 78 52 71 53 72 54 76 55
REMARK SMILES IDX 79 56 73 57 74 58 77 59 75 60 54 61 55 62 63 63 56 64 57 65
REMARK SMILES IDX 61 66 64 67 58 68 59 69 62 70 60 71 6 72 7 73 8 74 9 76
REMARK SMILES IDX 10 77 11 78 27 79 12 80 26 81 21 82 25 83 22 84 24 85 23 86
REMARK SMILES IDX 13 87 14 88 15 89 16 90 20 91 17 92 19 93 18 94
REMARK H PARENT 3 6 84 24 52 35 7 75
REMARK Flexibility Score: inf
ROOT
ATOM      1  C   UNL A   1      34.341  34.809  28.212  1.00  0.00     0.042 C 
ENDROOT
BRANCH   1   2
ATOM      2  C   UNL A   1      35.150  33.560  27.876  1.00  0.00     0.118 C 
BRANCH   2   3
ATOM      3  N   UNL A   1      34.306  32.375  27.816  1.00  0.00    -0.352 N 
ATOM      4  O   UNL A   1      33.601  30.287  27.569  1.00  0.00    -0.269 OA
ATOM      5  C   UNL A   1      34.549  31.026  27.869  1.00  0.00     0.251 C 
ATOM      6  H   UNL A   1      33.351  32.588  27.716  1.00  0.00     0.163 HD
BRANCH   5   7
ATOM      7  C   UNL A   1      35.847  30.388  28.241  1.00  0.00     0.039 A 
ATOM      8  C   UNL A   1      37.035  30.532  27.529  1.00  0.00     0.014 A 
ATOM      9  C   UNL A   1      35.903  29.694  29.466  1.00  0.00     0.014 A 
ATOM     10  C   UNL A   1      38.225  29.946  27.984  1.00  0.00     0.010 A 
ATOM     11  C   UNL A   1      37.112  29.183  29.968  1.00  0.00     0.010 A 
ATOM     12  C   UNL A   1      38.293  29.298  29.227  1.00  0.00    -0.014 A 
BRANCH  12  13
ATOM     13  C   UNL A   1      39.614  28.839  29.752  1.00  0.00     0.031 A 
ATOM     14  C   UNL A   1      40.274  29.507  30.930  1.00  0.00     0.074 A 
ATOM     15  C   UNL A   1      40.225  27.787  29.168  1.00  0.00     0.049 A 
ATOM     16  N   UNL A   1      41.391  29.193  31.542  1.00  0.00    -0.248 NA
ATOM     17  C   UNL A   1      39.604  30.691  31.485  1.00  0.00     0.031 C 
ATOM     18  C   UNL A   1      39.726  27.071  27.993  1.00  0.00     0.029 A 
ATOM     19  N   UNL A   1      41.381  27.117  29.493  1.00  0.00    -0.354 N 
ATOM     20  C   UNL A   1      41.567  30.146  32.536  1.00  0.00     0.074 A 
ATOM     21  C   UNL A   1      40.457  31.071  32.427  1.00  0.00     0.031 C 
ATOM     22  C   UNL A   1      40.527  26.025  27.737  1.00  0.00     0.029 A 
ATOM     23  C   UNL A   1      41.630  26.026  28.692  1.00  0.00     0.049 A 
ATOM     24  H   UNL A   1      41.975  27.391  30.228  1.00  0.00     0.167 HD
ATOM     25  C   UNL A   1      42.554  30.238  33.462  1.00  0.00     0.037 A 
ATOM     26  C   UNL A   1      42.631  25.125  28.718  1.00  0.00     0.037 A 
ATOM     27  C   UNL A   1      43.647  29.306  33.591  1.00  0.00     0.049 A 
ATOM     28  C   UNL A   1      43.707  25.247  29.760  1.00  0.00     0.074 A 
ATOM     29  C   UNL A   1      44.662  29.290  34.534  1.00  0.00     0.029 A 
ATOM     30  N   UNL A   1      43.871  28.224  32.750  1.00  0.00    -0.354 N 
ATOM     31  N   UNL A   1      43.827  26.120  30.730  1.00  0.00    -0.248 NA
ATOM     32  C   UNL A   1      44.791  24.255  29.710  1.00  0.00     0.031 C 
ATOM     33  C   UNL A   1      45.526  28.231  34.233  1.00  0.00     0.029 A 
ATOM     34  C   UNL A   1      45.021  27.551  33.139  1.00  0.00     0.049 A 
ATOM     35  H   UNL A   1      43.298  27.972  31.989  1.00  0.00     0.167 HD
ATOM     36  C   UNL A   1      44.980  25.771  31.418  1.00  0.00     0.074 A 
ATOM     37  C   UNL A   1      45.515  24.593  30.768  1.00  0.00     0.031 C 
ATOM     38  C   UNL A   1      45.544  26.375  32.492  1.00  0.00     0.037 A 
BRANCH  25  39
ATOM     39  C   UNL A   1      42.512  31.402  34.412  1.00  0.00     0.064 A 
ATOM     40  C   UNL A   1      41.938  31.297  35.687  1.00  0.00     0.173 A 
ATOM     41  C   UNL A   1      43.098  32.628  34.058  1.00  0.00     0.173 A 
ATOM     42  F   UNL A   1      41.357  30.151  36.074  1.00  0.00    -0.203 F 
ATOM     43  C   UNL A   1      41.924  32.383  36.561  1.00  0.00     0.198 A 
ATOM     44  C   UNL A   1      43.110  33.702  34.945  1.00  0.00     0.198 A 
ATOM     45  F   UNL A   1      43.672  32.781  32.855  1.00  0.00    -0.203 F 
ATOM     46  F   UNL A   1      41.327  32.272  37.755  1.00  0.00    -0.200 F 
ATOM     47  C   UNL A   1      42.516  33.581  36.191  1.00  0.00     0.200 A 
ATOM     48  F   UNL A   1      43.695  34.855  34.591  1.00  0.00    -0.200 F 
ATOM     49  F   UNL A   1      42.507  34.622  37.034  1.00  0.00    -0.200 F 
ENDBRANCH  25  39
BRANCH  26  50
ATOM     50  C   UNL A   1      42.653  24.011  27.733  1.00  0.00     0.064 A 
ATOM     51  C   UNL A   1      42.197  22.731  28.081  1.00  0.00     0.173 A 
ATOM     52  C   UNL A   1      43.135  24.198  26.429  1.00  0.00     0.173 A 
ATOM     53  F   UNL A   1      41.750  22.495  29.324  1.00  0.00    -0.203 F 
ATOM     54  C   UNL A   1      42.236  21.679  27.169  1.00  0.00     0.198 A 
ATOM     55  C   UNL A   1      43.144  23.153  25.508  1.00  0.00     0.198 A 
ATOM     56  F   UNL A   1      43.583  25.402  26.045  1.00  0.00    -0.203 F 
ATOM     57  F   UNL A   1      41.837  20.456  27.543  1.00  0.00    -0.200 F 
ATOM     58  C   UNL A   1      42.703  21.893  25.880  1.00  0.00     0.200 A 
ATOM     59  F   UNL A   1      43.581  23.367  24.259  1.00  0.00    -0.200 F 
ATOM     60  F   UNL A   1      42.733  20.882  25.001  1.00  0.00    -0.200 F 
ENDBRANCH  26  50
BRANCH  38  61
ATOM     61  C   UNL A   1      46.785  25.749  33.058  1.00  0.00     0.064 A 
ATOM     62  C   UNL A   1      48.066  26.128  32.630  1.00  0.00     0.173 A 
ATOM     63  C   UNL A   1      46.692  24.764  34.053  1.00  0.00     0.173 A 
ATOM     64  F   UNL A   1      48.211  27.053  31.669  1.00  0.00    -0.203 F 
ATOM     65  C   UNL A   1      49.206  25.523  33.155  1.00  0.00     0.198 A 
ATOM     66  C   UNL A   1      47.833  24.182  34.597  1.00  0.00     0.198 A 
ATOM     67  F   UNL A   1      45.491  24.368  34.502  1.00  0.00    -0.203 F 
ATOM     68  F   UNL A   1      50.417  25.861  32.691  1.00  0.00    -0.200 F 
ATOM     69  C   UNL A   1      49.089  24.555  34.142  1.00  0.00     0.200 A 
ATOM     70  F   UNL A   1      47.718  23.256  35.560  1.00  0.00    -0.200 F 
ATOM     71  F   UNL A   1      50.186  23.974  34.645  1.00  0.00    -0.200 F 
ENDBRANCH  38  61
ENDBRANCH  12  13
ENDBRANCH   5   7
ENDBRANCH   2   3
ENDBRANCH   1   2
BRANCH   1  72
ATOM     72  C   UNL A   1      33.282  34.586  29.297  1.00  0.00     0.118 C 
BRANCH  72  73
ATOM     73  N   UNL A   1      33.741  35.057  30.589  1.00  0.00    -0.353 N 
ATOM     74  C   UNL A   1      34.406  34.471  31.621  1.00  0.00     0.262 C 
ATOM     75  H   UNL A   1      33.527  36.003  30.755  1.00  0.00     0.163 HD
ATOM     76  O   UNL A   1      34.705  35.248  32.538  1.00  0.00    -0.271 OA
BRANCH  74  77
ATOM     77  C   UNL A   1      34.864  32.984  31.640  1.00  0.00     0.281 C 
ATOM     78  C   UNL A   1      35.393  32.398  32.943  1.00  0.00     0.181 C 
ATOM     79  O   UNL A   1      35.871  32.745  30.644  1.00  0.00    -0.477 OA
ATOM     80  N   UNL A   1      36.571  33.105  33.438  1.00  0.00    -0.304 N 
ATOM     81  C   UNL A   1      37.078  33.304  31.018  1.00  0.00     0.144 A 
ATOM     82  C   UNL A   1      37.445  33.553  32.364  1.00  0.00     0.086 A 
ATOM     83  C   UNL A   1      37.910  33.648  29.947  1.00  0.00     0.049 A 
ATOM     84  C   UNL A   1      38.672  34.195  32.575  1.00  0.00     0.030 A 
ATOM     85  C   UNL A   1      39.115  34.297  30.188  1.00  0.00     0.004 A 
ATOM     86  C   UNL A   1      39.489  34.578  31.498  1.00  0.00     0.002 A 
BRANCH  80  87
ATOM     87  C   UNL A   1      36.784  33.399  34.782  1.00  0.00     0.230 C 
ATOM     88  O   UNL A   1      35.892  33.894  35.488  1.00  0.00    -0.274 OA
BRANCH  87  89
ATOM     89  C   UNL A   1      38.161  33.219  35.489  1.00  0.00     0.083 C 
ATOM     90  C   UNL A   1      38.849  34.339  36.276  1.00  0.00     0.040 C 
ATOM     91  C   UNL A   1      38.253  31.882  36.235  1.00  0.00     0.018 C 
ATOM     92  C   UNL A   1      38.740  34.254  37.768  1.00  0.00    -0.030 C 
ATOM     93  C   UNL A   1      37.778  31.953  37.684  1.00  0.00     0.028 C 
ATOM     94  C   UNL A   1      38.240  33.186  38.401  1.00  0.00    -0.031 C 
ENDBRANCH  87  89
ENDBRANCH  80  87
ENDBRANCH  74  77
ENDBRANCH  72  73
ENDBRANCH   1  72
TORSDOF 12
ENDMDL
