MODEL 1
REMARK VINA RESULT:     -14.1      0.000      0.000
REMARK SMILES Cc1cccc2c1[C@H]1c3c(C)cccc3[C@H](CC(=O)NCCCNC(=O)c3ccc(-c4c5nc(c(-c6c(F)c(F)c(F)c(F)c6F)c6ccc([nH]6)c(-c6c(F)c(F)c(F)c(F)c6F)c6nc(c(-c7c(F)c(F)c(F)c(F)c7F)c7ccc4[nH]7)C=C6)C=C5)cc3)C[C@H]1CC2
REMARK SMILES IDX 22 1 21 2 20 3 18 4 19 5 17 7 16 8 1 9 2 10 3 11 7 12 4 13
REMARK SMILES IDX 6 14 8 15 5 16 93 17 9 18 91 19 92 20 10 21 15 22 90 23
REMARK SMILES IDX 12 24 11 25 14 26 13 27 23 28 24 29 25 30 26 32 27 33 28 34
REMARK SMILES IDX 89 35 29 36 88 37 30 38 31 39 32 40 82 41 33 42 87 43 81 44
REMARK SMILES IDX 83 45 34 46 86 47 80 48 79 49 35 51 67 52 47 53 66 54 48 55
REMARK SMILES IDX 51 56 65 57 84 58 49 59 50 60 64 62 85 63 52 64 36 65 37 66
REMARK SMILES IDX 45 67 38 68 39 69 43 70 46 71 40 72 41 73 44 74 42 75 68 76
REMARK SMILES IDX 69 77 77 78 70 79 71 80 75 81 78 82 72 83 73 84 76 85 74 86
REMARK SMILES IDX 53 87 54 88 62 89 55 90 56 91 60 92 63 93 57 94 58 95 61 96
REMARK SMILES IDX 59 97
REMARK H PARENT 20 6 24 31 83 50 51 61
REMARK Flexibility Score: inf
ROOT
ATOM      1  C   UNL A   1      31.463  32.045  26.877  1.00  0.00     0.042 C 
ENDROOT
BRANCH   1   2
ATOM      2  C   UNL A   1      31.776  30.549  26.856  1.00  0.00     0.117 C 
BRANCH   2   3
ATOM      3  N   UNL A   1      32.686  30.212  25.778  1.00  0.00    -0.356 N 
ATOM      4  C   UNL A   1      32.563  29.320  24.761  1.00  0.00     0.220 C 
ATOM      5  O   UNL A   1      33.547  29.110  24.053  1.00  0.00    -0.275 OA
ATOM      6  H   UNL A   1      33.534  30.712  25.784  1.00  0.00     0.163 HD
BRANCH   4   7
ATOM      7  C   UNL A   1      31.237  28.650  24.479  1.00  0.00     0.108 C 
BRANCH   7   8
ATOM      8  C   UNL A   1      31.148  27.135  24.755  1.00  0.00     0.029 C 
ATOM      9  C   UNL A   1      36.051  24.076  25.830  1.00  0.00     0.044 C 
ATOM     10  C   UNL A   1      34.890  23.114  25.855  1.00  0.00    -0.047 A 
ATOM     11  C   UNL A   1      35.207  21.754  26.032  1.00  0.00     0.004 A 
ATOM     12  C   UNL A   1      33.533  23.496  25.696  1.00  0.00    -0.034 A 
ATOM     13  C   UNL A   1      34.210  20.791  26.139  1.00  0.00     0.001 A 
ATOM     14  C   UNL A   1      32.528  22.530  25.950  1.00  0.00    -0.044 A 
ATOM     15  C   UNL A   1      33.112  24.915  25.315  1.00  0.00     0.053 C 
ATOM     16  C   UNL A   1      32.878  21.182  26.133  1.00  0.00     0.004 A 
ATOM     17  C   UNL A   1      31.084  22.906  26.179  1.00  0.00     0.036 C 
ATOM     18  C   UNL A   1      32.707  25.232  23.849  1.00  0.00    -0.034 A 
ATOM     19  C   UNL A   1      31.978  25.293  26.293  1.00  0.00     0.002 C 
ATOM     20  C   UNL A   1      30.749  24.393  26.064  1.00  0.00     0.009 C 
ATOM     21  C   UNL A   1      33.240  24.575  22.704  1.00  0.00    -0.047 A 
ATOM     22  C   UNL A   1      31.796  26.319  23.622  1.00  0.00    -0.040 A 
ATOM     23  C   UNL A   1      31.696  26.783  26.141  1.00  0.00     0.013 C 
ATOM     24  C   UNL A   1      32.848  24.975  21.409  1.00  0.00     0.004 A 
ATOM     25  C   UNL A   1      34.236  23.448  22.737  1.00  0.00     0.044 C 
ATOM     26  C   UNL A   1      31.399  26.643  22.306  1.00  0.00     0.004 A 
ATOM     27  C   UNL A   1      31.932  25.990  21.209  1.00  0.00     0.001 A 
ENDBRANCH   7   8
ENDBRANCH   4   7
ENDBRANCH   2   3
ENDBRANCH   1   2
BRANCH   1  28
ATOM     28  C   UNL A   1      32.700  32.930  26.983  1.00  0.00     0.118 C 
BRANCH  28  29
ATOM     29  N   UNL A   1      32.413  34.203  27.626  1.00  0.00    -0.352 N 
ATOM     30  C   UNL A   1      32.993  34.728  28.755  1.00  0.00     0.251 C 
ATOM     31  H   UNL A   1      31.718  34.754  27.201  1.00  0.00     0.163 HD
ATOM     32  O   UNL A   1      32.533  35.721  29.299  1.00  0.00    -0.269 OA
BRANCH  30  33
ATOM     33  C   UNL A   1      34.183  34.058  29.314  1.00  0.00     0.039 A 
ATOM     34  C   UNL A   1      35.449  34.450  28.878  1.00  0.00     0.014 A 
ATOM     35  C   UNL A   1      34.033  33.061  30.285  1.00  0.00     0.014 A 
ATOM     36  C   UNL A   1      36.579  33.857  29.441  1.00  0.00     0.010 A 
ATOM     37  C   UNL A   1      35.162  32.510  30.884  1.00  0.00     0.010 A 
ATOM     38  C   UNL A   1      36.441  32.890  30.451  1.00  0.00    -0.014 A 
BRANCH  38  39
ATOM     39  C   UNL A   1      37.634  32.214  31.007  1.00  0.00     0.031 A 
ATOM     40  C   UNL A   1      38.123  32.589  32.375  1.00  0.00     0.074 A 
ATOM     41  C   UNL A   1      38.274  31.275  30.289  1.00  0.00     0.049 A 
ATOM     42  N   UNL A   1      39.106  32.076  33.072  1.00  0.00    -0.248 NA
ATOM     43  C   UNL A   1      37.427  33.700  33.043  1.00  0.00     0.031 C 
ATOM     44  C   UNL A   1      37.911  30.856  28.936  1.00  0.00     0.029 A 
ATOM     45  N   UNL A   1      39.359  30.497  30.602  1.00  0.00    -0.354 N 
ATOM     46  C   UNL A   1      39.129  32.788  34.262  1.00  0.00     0.074 A 
ATOM     47  C   UNL A   1      38.122  33.821  34.163  1.00  0.00     0.031 C 
ATOM     48  C   UNL A   1      38.737  29.870  28.548  1.00  0.00     0.029 A 
ATOM     49  C   UNL A   1      39.694  29.600  29.619  1.00  0.00     0.049 A 
ATOM     50  H   UNL A   1      39.851  30.574  31.451  1.00  0.00     0.167 HD
ATOM     51  C   UNL A   1      39.894  32.574  35.357  1.00  0.00     0.037 A 
ATOM     52  C   UNL A   1      40.654  28.655  29.596  1.00  0.00     0.037 A 
ATOM     53  C   UNL A   1      40.892  31.545  35.453  1.00  0.00     0.049 A 
ATOM     54  C   UNL A   1      41.534  28.470  30.802  1.00  0.00     0.074 A 
ATOM     55  C   UNL A   1      41.689  31.210  36.532  1.00  0.00     0.029 A 
ATOM     56  N   UNL A   1      41.235  30.686  34.418  1.00  0.00    -0.354 N 
ATOM     57  N   UNL A   1      41.495  29.092  31.954  1.00  0.00    -0.248 NA
ATOM     58  C   UNL A   1      42.589  27.451  30.705  1.00  0.00     0.031 C 
ATOM     59  C   UNL A   1      42.546  30.178  36.137  1.00  0.00     0.029 A 
ATOM     60  C   UNL A   1      42.255  29.843  34.823  1.00  0.00     0.049 A 
ATOM     61  H   UNL A   1      40.816  30.678  33.527  1.00  0.00     0.167 HD
ATOM     62  C   UNL A   1      42.502  28.531  32.727  1.00  0.00     0.074 A 
ATOM     63  C   UNL A   1      43.132  27.510  31.914  1.00  0.00     0.031 C 
ATOM     64  C   UNL A   1      42.870  28.834  33.997  1.00  0.00     0.037 A 
BRANCH  51  65
ATOM     65  C   UNL A   1      39.657  33.464  36.540  1.00  0.00     0.064 A 
ATOM     66  C   UNL A   1      38.776  33.088  37.567  1.00  0.00     0.173 A 
ATOM     67  C   UNL A   1      40.311  34.699  36.653  1.00  0.00     0.173 A 
ATOM     68  F   UNL A   1      38.116  31.922  37.497  1.00  0.00    -0.203 F 
ATOM     69  C   UNL A   1      38.531  33.933  38.645  1.00  0.00     0.198 A 
ATOM     70  C   UNL A   1      40.084  35.529  37.749  1.00  0.00     0.198 A 
ATOM     71  F   UNL A   1      41.164  35.103  35.701  1.00  0.00    -0.203 F 
ATOM     72  F   UNL A   1      37.643  33.578  39.585  1.00  0.00    -0.200 F 
ATOM     73  C   UNL A   1      39.189  35.150  38.737  1.00  0.00     0.200 A 
ATOM     74  F   UNL A   1      40.726  36.701  37.842  1.00  0.00    -0.200 F 
ATOM     75  F   UNL A   1      38.950  35.964  39.775  1.00  0.00    -0.200 F 
ENDBRANCH  51  65
BRANCH  52  76
ATOM     76  C   UNL A   1      40.774  27.769  28.412  1.00  0.00     0.064 A 
ATOM     77  C   UNL A   1      40.054  26.568  28.344  1.00  0.00     0.173 A 
ATOM     78  C   UNL A   1      41.563  28.123  27.308  1.00  0.00     0.173 A 
ATOM     79  F   UNL A   1      39.299  26.183  29.382  1.00  0.00    -0.203 F 
ATOM     80  C   UNL A   1      40.115  25.756  27.215  1.00  0.00     0.198 A 
ATOM     81  C   UNL A   1      41.609  27.317  26.171  1.00  0.00     0.198 A 
ATOM     82  F   UNL A   1      42.267  29.263  27.324  1.00  0.00    -0.203 F 
ATOM     83  F   UNL A   1      39.426  24.607  27.180  1.00  0.00    -0.200 F 
ATOM     84  C   UNL A   1      40.886  26.135  26.126  1.00  0.00     0.200 A 
ATOM     85  F   UNL A   1      42.344  27.693  25.116  1.00  0.00    -0.200 F 
ATOM     86  F   UNL A   1      40.930  25.362  25.032  1.00  0.00    -0.200 F 
ENDBRANCH  52  76
BRANCH  64  87
ATOM     87  C   UNL A   1      44.007  28.062  34.597  1.00  0.00     0.064 A 
ATOM     88  C   UNL A   1      45.314  28.567  34.585  1.00  0.00     0.173 A 
ATOM     89  C   UNL A   1      43.768  26.862  35.283  1.00  0.00     0.173 A 
ATOM     90  F   UNL A   1      45.593  29.705  33.930  1.00  0.00    -0.203 F 
ATOM     91  C   UNL A   1      46.344  27.897  35.240  1.00  0.00     0.198 A 
ATOM     92  C   UNL A   1      44.794  26.208  35.957  1.00  0.00     0.198 A 
ATOM     93  F   UNL A   1      42.531  26.344  35.329  1.00  0.00    -0.203 F 
ATOM     94  F   UNL A   1      47.590  28.388  35.203  1.00  0.00    -0.200 F 
ATOM     95  C   UNL A   1      46.080  26.726  35.936  1.00  0.00     0.200 A 
ATOM     96  F   UNL A   1      44.537  25.085  36.641  1.00  0.00    -0.200 F 
ATOM     97  F   UNL A   1      47.068  26.096  36.587  1.00  0.00    -0.200 F 
ENDBRANCH  64  87
ENDBRANCH  38  39
ENDBRANCH  30  33
ENDBRANCH  28  29
ENDBRANCH   1  28
TORSDOF 11
ENDMDL
MODEL 2
REMARK VINA RESULT:     -14.1      0.193      1.225
REMARK SMILES Cc1cccc2c1[C@H]1c3c(C)cccc3[C@H](CC(=O)NCCCNC(=O)c3ccc(-c4c5nc(c(-c6c(F)c(F)c(F)c(F)c6F)c6ccc([nH]6)c(-c6c(F)c(F)c(F)c(F)c6F)c6nc(c(-c7c(F)c(F)c(F)c(F)c7F)c7ccc4[nH]7)C=C6)C=C5)cc3)C[C@H]1CC2
REMARK SMILES IDX 22 1 21 2 20 3 18 4 19 5 17 7 16 8 1 9 2 10 3 11 7 12 4 13
REMARK SMILES IDX 6 14 8 15 5 16 93 17 9 18 91 19 92 20 10 21 15 22 90 23
REMARK SMILES IDX 12 24 11 25 14 26 13 27 23 28 24 29 25 30 26 32 27 33 28 34
REMARK SMILES IDX 89 35 29 36 88 37 30 38 31 39 32 40 82 41 33 42 87 43 81 44
REMARK SMILES IDX 83 45 34 46 86 47 80 48 79 49 35 51 67 52 47 53 66 54 48 55
REMARK SMILES IDX 51 56 65 57 84 58 49 59 50 60 64 62 85 63 52 64 36 65 37 66
REMARK SMILES IDX 45 67 38 68 39 69 43 70 46 71 40 72 41 73 44 74 42 75 68 76
REMARK SMILES IDX 69 77 77 78 70 79 71 80 75 81 78 82 72 83 73 84 76 85 74 86
REMARK SMILES IDX 53 87 54 88 62 89 55 90 56 91 60 92 63 93 57 94 58 95 61 96
REMARK SMILES IDX 59 97
REMARK H PARENT 20 6 24 31 83 50 51 61
REMARK Flexibility Score: inf
ROOT
ATOM      1  C   UNL A   1      31.484  32.054  26.871  1.00  0.00     0.042 C 
ENDROOT
BRANCH   1   2
ATOM      2  C   UNL A   1      31.786  30.556  26.846  1.00  0.00     0.117 C 
BRANCH   2   3
ATOM      3  N   UNL A   1      32.666  30.210  25.746  1.00  0.00    -0.356 N 
ATOM      4  C   UNL A   1      32.510  29.317  24.735  1.00  0.00     0.220 C 
ATOM      5  O   UNL A   1      33.475  29.098  24.002  1.00  0.00    -0.275 OA
ATOM      6  H   UNL A   1      33.517  30.704  25.730  1.00  0.00     0.163 HD
BRANCH   4   7
ATOM      7  C   UNL A   1      31.172  28.657  24.487  1.00  0.00     0.108 C 
BRANCH   7   8
ATOM      8  C   UNL A   1      31.083  27.140  24.756  1.00  0.00     0.029 C 
ATOM      9  C   UNL A   1      35.982  24.078  25.840  1.00  0.00     0.044 C 
ATOM     10  C   UNL A   1      34.821  23.115  25.855  1.00  0.00    -0.047 A 
ATOM     11  C   UNL A   1      35.137  21.755  26.027  1.00  0.00     0.004 A 
ATOM     12  C   UNL A   1      33.465  23.498  25.692  1.00  0.00    -0.034 A 
ATOM     13  C   UNL A   1      34.140  20.791  26.125  1.00  0.00     0.001 A 
ATOM     14  C   UNL A   1      32.459  22.530  25.935  1.00  0.00    -0.044 A 
ATOM     15  C   UNL A   1      33.044  24.918  25.315  1.00  0.00     0.053 C 
ATOM     16  C   UNL A   1      32.808  21.181  26.114  1.00  0.00     0.004 A 
ATOM     17  C   UNL A   1      31.013  22.905  26.160  1.00  0.00     0.036 C 
ATOM     18  C   UNL A   1      32.647  25.242  23.849  1.00  0.00    -0.034 A 
ATOM     19  C   UNL A   1      31.905  25.292  26.289  1.00  0.00     0.002 C 
ATOM     20  C   UNL A   1      30.678  24.392  26.050  1.00  0.00     0.009 C 
ATOM     21  C   UNL A   1      33.186  24.590  22.703  1.00  0.00    -0.047 A 
ATOM     22  C   UNL A   1      31.737  26.330  23.622  1.00  0.00    -0.040 A 
ATOM     23  C   UNL A   1      31.624  26.782  26.143  1.00  0.00     0.013 C 
ATOM     24  C   UNL A   1      32.801  24.996  21.408  1.00  0.00     0.004 A 
ATOM     25  C   UNL A   1      34.182  23.464  22.736  1.00  0.00     0.044 C 
ATOM     26  C   UNL A   1      31.346  26.660  22.306  1.00  0.00     0.004 A 
ATOM     27  C   UNL A   1      31.885  26.012  21.208  1.00  0.00     0.001 A 
ENDBRANCH   7   8
ENDBRANCH   4   7
ENDBRANCH   2   3
ENDBRANCH   1   2
BRANCH   1  28
ATOM     28  C   UNL A   1      32.728  32.930  26.992  1.00  0.00     0.118 C 
BRANCH  28  29
ATOM     29  N   UNL A   1      32.443  34.207  27.626  1.00  0.00    -0.352 N 
ATOM     30  C   UNL A   1      33.029  34.744  28.746  1.00  0.00     0.251 C 
ATOM     31  H   UNL A   1      31.743  34.753  27.200  1.00  0.00     0.163 HD
ATOM     32  O   UNL A   1      32.570  35.741  29.283  1.00  0.00    -0.269 OA
BRANCH  30  33
ATOM     33  C   UNL A   1      34.225  34.082  29.302  1.00  0.00     0.039 A 
ATOM     34  C   UNL A   1      34.060  33.039  30.214  1.00  0.00     0.014 A 
ATOM     35  C   UNL A   1      35.501  34.488  28.896  1.00  0.00     0.014 A 
ATOM     36  C   UNL A   1      35.185  32.376  30.703  1.00  0.00     0.010 A 
ATOM     37  C   UNL A   1      36.618  33.790  29.343  1.00  0.00     0.010 A 
ATOM     38  C   UNL A   1      36.469  32.743  30.265  1.00  0.00    -0.014 A 
BRANCH  38  39
ATOM     39  C   UNL A   1      37.668  32.084  30.827  1.00  0.00     0.031 A 
ATOM     40  C   UNL A   1      38.145  32.465  32.197  1.00  0.00     0.074 A 
ATOM     41  C   UNL A   1      38.326  31.155  30.111  1.00  0.00     0.049 A 
ATOM     42  N   UNL A   1      39.131  31.965  32.899  1.00  0.00    -0.248 NA
ATOM     43  C   UNL A   1      37.429  33.565  32.863  1.00  0.00     0.031 C 
ATOM     44  C   UNL A   1      37.975  30.732  28.755  1.00  0.00     0.029 A 
ATOM     45  N   UNL A   1      39.420  30.392  30.429  1.00  0.00    -0.354 N 
ATOM     46  C   UNL A   1      39.138  32.677  34.090  1.00  0.00     0.074 A 
ATOM     47  C   UNL A   1      38.117  33.694  33.986  1.00  0.00     0.031 C 
ATOM     48  C   UNL A   1      38.818  29.759  28.371  1.00  0.00     0.029 A 
ATOM     49  C   UNL A   1      39.773  29.501  29.446  1.00  0.00     0.049 A 
ATOM     50  H   UNL A   1      39.907  30.476  31.281  1.00  0.00     0.167 HD
ATOM     51  C   UNL A   1      39.900  32.472  35.189  1.00  0.00     0.037 A 
ATOM     52  C   UNL A   1      40.747  28.570  29.428  1.00  0.00     0.037 A 
ATOM     53  C   UNL A   1      40.913  31.457  35.288  1.00  0.00     0.049 A 
ATOM     54  C   UNL A   1      41.623  28.397  30.638  1.00  0.00     0.074 A 
ATOM     55  C   UNL A   1      41.709  31.134  36.371  1.00  0.00     0.029 A 
ATOM     56  N   UNL A   1      41.274  30.605  34.254  1.00  0.00    -0.354 N 
ATOM     57  N   UNL A   1      41.570  29.018  31.791  1.00  0.00    -0.248 NA
ATOM     58  C   UNL A   1      42.693  27.394  30.545  1.00  0.00     0.031 C 
ATOM     59  C   UNL A   1      42.583  30.115  35.979  1.00  0.00     0.029 A 
ATOM     60  C   UNL A   1      42.303  29.776  34.663  1.00  0.00     0.049 A 
ATOM     61  H   UNL A   1      40.860  30.592  33.361  1.00  0.00     0.167 HD
ATOM     62  C   UNL A   1      42.581  28.470  32.568  1.00  0.00     0.074 A 
ATOM     63  C   UNL A   1      43.229  27.459  31.757  1.00  0.00     0.031 C 
ATOM     64  C   UNL A   1      42.938  28.778  33.840  1.00  0.00     0.037 A 
BRANCH  51  65
ATOM     65  C   UNL A   1      39.644  33.357  36.371  1.00  0.00     0.064 A 
ATOM     66  C   UNL A   1      38.751  32.975  37.385  1.00  0.00     0.173 A 
ATOM     67  C   UNL A   1      40.293  34.594  36.498  1.00  0.00     0.173 A 
ATOM     68  F   UNL A   1      38.095  31.808  37.302  1.00  0.00    -0.203 F 
ATOM     69  C   UNL A   1      38.488  33.816  38.462  1.00  0.00     0.198 A 
ATOM     70  C   UNL A   1      40.049  35.419  37.593  1.00  0.00     0.198 A 
ATOM     71  F   UNL A   1      41.158  35.004  35.559  1.00  0.00    -0.203 F 
ATOM     72  F   UNL A   1      37.588  33.455  39.388  1.00  0.00    -0.200 F 
ATOM     73  C   UNL A   1      39.141  35.035  38.568  1.00  0.00     0.200 A 
ATOM     74  F   UNL A   1      40.687  36.593  37.699  1.00  0.00    -0.200 F 
ATOM     75  F   UNL A   1      38.886  35.844  39.605  1.00  0.00    -0.200 F 
ENDBRANCH  51  65
BRANCH  52  76
ATOM     76  C   UNL A   1      40.886  27.688  28.243  1.00  0.00     0.064 A 
ATOM     77  C   UNL A   1      41.698  28.065  27.165  1.00  0.00     0.173 A 
ATOM     78  C   UNL A   1      40.259  26.434  28.185  1.00  0.00     0.173 A 
ATOM     79  F   UNL A   1      42.304  29.260  27.172  1.00  0.00    -0.203 F 
ATOM     80  C   UNL A   1      41.880  27.221  26.073  1.00  0.00     0.198 A 
ATOM     81  C   UNL A   1      40.457  25.583  27.099  1.00  0.00     0.198 A 
ATOM     82  F   UNL A   1      39.476  26.028  29.194  1.00  0.00    -0.203 F 
ATOM     83  F   UNL A   1      42.652  27.611  25.049  1.00  0.00    -0.200 F 
ATOM     84  C   UNL A   1      41.266  25.977  26.044  1.00  0.00     0.200 A 
ATOM     85  F   UNL A   1      39.874  24.377  27.080  1.00  0.00    -0.200 F 
ATOM     86  F   UNL A   1      41.457  25.157  25.001  1.00  0.00    -0.200 F 
ENDBRANCH  52  76
BRANCH  64  87
ATOM     87  C   UNL A   1      44.083  28.022  34.445  1.00  0.00     0.064 A 
ATOM     88  C   UNL A   1      45.384  28.542  34.432  1.00  0.00     0.173 A 
ATOM     89  C   UNL A   1      43.857  26.822  35.136  1.00  0.00     0.173 A 
ATOM     90  F   UNL A   1      45.650  29.680  33.773  1.00  0.00    -0.203 F 
ATOM     91  C   UNL A   1      46.420  27.887  35.092  1.00  0.00     0.198 A 
ATOM     92  C   UNL A   1      44.890  26.183  35.814  1.00  0.00     0.198 A 
ATOM     93  F   UNL A   1      42.626  26.289  35.183  1.00  0.00    -0.203 F 
ATOM     94  F   UNL A   1      47.661  28.392  35.055  1.00  0.00    -0.200 F 
ATOM     95  C   UNL A   1      46.170  26.716  35.793  1.00  0.00     0.200 A 
ATOM     96  F   UNL A   1      44.644  25.060  36.503  1.00  0.00    -0.200 F 
ATOM     97  F   UNL A   1      47.163  26.101  36.448  1.00  0.00    -0.200 F 
ENDBRANCH  64  87
ENDBRANCH  38  39
ENDBRANCH  30  33
ENDBRANCH  28  29
ENDBRANCH   1  28
TORSDOF 11
ENDMDL
MODEL 3
REMARK VINA RESULT:     -14.0      0.260      1.657
REMARK SMILES Cc1cccc2c1[C@H]1c3c(C)cccc3[C@H](CC(=O)NCCCNC(=O)c3ccc(-c4c5nc(c(-c6c(F)c(F)c(F)c(F)c6F)c6ccc([nH]6)c(-c6c(F)c(F)c(F)c(F)c6F)c6nc(c(-c7c(F)c(F)c(F)c(F)c7F)c7ccc4[nH]7)C=C6)C=C5)cc3)C[C@H]1CC2
REMARK SMILES IDX 22 1 21 2 20 3 18 4 19 5 17 7 16 8 1 9 2 10 3 11 7 12 4 13
REMARK SMILES IDX 6 14 8 15 5 16 93 17 9 18 91 19 92 20 10 21 15 22 90 23
REMARK SMILES IDX 12 24 11 25 14 26 13 27 23 28 24 29 25 30 26 32 27 33 28 34
REMARK SMILES IDX 89 35 29 36 88 37 30 38 31 39 32 40 82 41 33 42 87 43 81 44
REMARK SMILES IDX 83 45 34 46 86 47 80 48 79 49 35 51 67 52 47 53 66 54 48 55
REMARK SMILES IDX 51 56 65 57 84 58 49 59 50 60 64 62 85 63 52 64 36 65 37 66
REMARK SMILES IDX 45 67 38 68 39 69 43 70 46 71 40 72 41 73 44 74 42 75 68 76
REMARK SMILES IDX 69 77 77 78 70 79 71 80 75 81 78 82 72 83 73 84 76 85 74 86
REMARK SMILES IDX 53 87 54 88 62 89 55 90 56 91 60 92 63 93 57 94 58 95 61 96
REMARK SMILES IDX 59 97
REMARK H PARENT 20 6 24 31 83 50 51 61
REMARK Flexibility Score: inf
ROOT
ATOM      1  C   UNL A   1      31.481  32.052  26.876  1.00  0.00     0.042 C 
ENDROOT
BRANCH   1   2
ATOM      2  C   UNL A   1      31.778  30.553  26.840  1.00  0.00     0.117 C 
BRANCH   2   3
ATOM      3  N   UNL A   1      32.650  30.211  25.733  1.00  0.00    -0.356 N 
ATOM      4  C   UNL A   1      32.490  29.318  24.722  1.00  0.00     0.220 C 
ATOM      5  O   UNL A   1      33.450  29.103  23.982  1.00  0.00    -0.275 OA
ATOM      6  H   UNL A   1      33.499  30.709  25.709  1.00  0.00     0.163 HD
BRANCH   4   7
ATOM      7  C   UNL A   1      31.154  28.651  24.486  1.00  0.00     0.108 C 
BRANCH   7   8
ATOM      8  C   UNL A   1      31.069  27.137  24.772  1.00  0.00     0.029 C 
ATOM      9  C   UNL A   1      35.989  24.078  25.762  1.00  0.00     0.044 C 
ATOM     10  C   UNL A   1      34.828  23.117  25.816  1.00  0.00    -0.047 A 
ATOM     11  C   UNL A   1      35.146  21.758  25.993  1.00  0.00     0.004 A 
ATOM     12  C   UNL A   1      33.469  23.500  25.684  1.00  0.00    -0.034 A 
ATOM     13  C   UNL A   1      34.151  20.797  26.126  1.00  0.00     0.001 A 
ATOM     14  C   UNL A   1      32.468  22.537  25.962  1.00  0.00    -0.044 A 
ATOM     15  C   UNL A   1      33.041  24.918  25.304  1.00  0.00     0.053 C 
ATOM     16  C   UNL A   1      32.819  21.189  26.146  1.00  0.00     0.004 A 
ATOM     17  C   UNL A   1      31.029  22.916  26.220  1.00  0.00     0.036 C 
ATOM     18  C   UNL A   1      32.607  25.228  23.845  1.00  0.00    -0.034 A 
ATOM     19  C   UNL A   1      31.928  25.303  26.302  1.00  0.00     0.002 C 
ATOM     20  C   UNL A   1      30.694  24.403  26.104  1.00  0.00     0.009 C 
ATOM     21  C   UNL A   1      33.115  24.563  22.692  1.00  0.00    -0.047 A 
ATOM     22  C   UNL A   1      31.692  26.315  23.630  1.00  0.00    -0.040 A 
ATOM     23  C   UNL A   1      31.645  26.792  26.148  1.00  0.00     0.013 C 
ATOM     24  C   UNL A   1      32.697  24.957  21.404  1.00  0.00     0.004 A 
ATOM     25  C   UNL A   1      34.110  23.435  22.710  1.00  0.00     0.044 C 
ATOM     26  C   UNL A   1      31.268  26.632  22.321  1.00  0.00     0.004 A 
ATOM     27  C   UNL A   1      31.778  25.973  21.217  1.00  0.00     0.001 A 
ENDBRANCH   7   8
ENDBRANCH   4   7
ENDBRANCH   2   3
ENDBRANCH   1   2
BRANCH   1  28
ATOM     28  C   UNL A   1      32.728  32.923  26.997  1.00  0.00     0.118 C 
BRANCH  28  29
ATOM     29  N   UNL A   1      32.447  34.203  27.626  1.00  0.00    -0.352 N 
ATOM     30  C   UNL A   1      33.037  34.743  28.742  1.00  0.00     0.251 C 
ATOM     31  H   UNL A   1      31.748  34.749  27.200  1.00  0.00     0.163 HD
ATOM     32  O   UNL A   1      32.582  35.743  29.277  1.00  0.00    -0.269 OA
BRANCH  30  33
ATOM     33  C   UNL A   1      34.233  34.081  29.299  1.00  0.00     0.039 A 
ATOM     34  C   UNL A   1      34.068  33.041  30.214  1.00  0.00     0.014 A 
ATOM     35  C   UNL A   1      35.509  34.483  28.889  1.00  0.00     0.014 A 
ATOM     36  C   UNL A   1      35.193  32.377  30.703  1.00  0.00     0.010 A 
ATOM     37  C   UNL A   1      36.626  33.784  29.336  1.00  0.00     0.010 A 
ATOM     38  C   UNL A   1      36.476  32.741  30.262  1.00  0.00    -0.014 A 
BRANCH  38  39
ATOM     39  C   UNL A   1      37.676  32.081  30.823  1.00  0.00     0.031 A 
ATOM     40  C   UNL A   1      38.154  32.463  32.193  1.00  0.00     0.074 A 
ATOM     41  C   UNL A   1      38.332  31.151  30.108  1.00  0.00     0.049 A 
ATOM     42  N   UNL A   1      39.140  31.963  32.894  1.00  0.00    -0.248 NA
ATOM     43  C   UNL A   1      37.439  33.564  32.859  1.00  0.00     0.031 C 
ATOM     44  C   UNL A   1      37.980  30.727  28.753  1.00  0.00     0.029 A 
ATOM     45  N   UNL A   1      39.426  30.388  30.426  1.00  0.00    -0.354 N 
ATOM     46  C   UNL A   1      39.148  32.676  34.085  1.00  0.00     0.074 A 
ATOM     47  C   UNL A   1      38.127  33.694  33.981  1.00  0.00     0.031 C 
ATOM     48  C   UNL A   1      38.822  29.753  28.369  1.00  0.00     0.029 A 
ATOM     49  C   UNL A   1      39.777  29.496  29.444  1.00  0.00     0.049 A 
ATOM     50  H   UNL A   1      39.913  30.472  31.278  1.00  0.00     0.167 HD
ATOM     51  C   UNL A   1      39.911  32.472  35.183  1.00  0.00     0.037 A 
ATOM     52  C   UNL A   1      40.750  28.564  29.426  1.00  0.00     0.037 A 
ATOM     53  C   UNL A   1      40.923  31.456  35.283  1.00  0.00     0.049 A 
ATOM     54  C   UNL A   1      41.628  28.391  30.636  1.00  0.00     0.074 A 
ATOM     55  C   UNL A   1      41.719  31.133  36.366  1.00  0.00     0.029 A 
ATOM     56  N   UNL A   1      41.282  30.603  34.250  1.00  0.00    -0.354 N 
ATOM     57  N   UNL A   1      41.575  29.013  31.788  1.00  0.00    -0.248 NA
ATOM     58  C   UNL A   1      42.697  27.387  30.543  1.00  0.00     0.031 C 
ATOM     59  C   UNL A   1      42.592  30.113  35.975  1.00  0.00     0.029 A 
ATOM     60  C   UNL A   1      42.311  29.774  34.659  1.00  0.00     0.049 A 
ATOM     61  H   UNL A   1      40.867  30.589  33.357  1.00  0.00     0.167 HD
ATOM     62  C   UNL A   1      42.587  28.465  32.565  1.00  0.00     0.074 A 
ATOM     63  C   UNL A   1      43.234  27.453  31.755  1.00  0.00     0.031 C 
ATOM     64  C   UNL A   1      42.945  28.774  33.836  1.00  0.00     0.037 A 
BRANCH  51  65
ATOM     65  C   UNL A   1      39.656  33.358  36.365  1.00  0.00     0.064 A 
ATOM     66  C   UNL A   1      38.769  32.974  37.384  1.00  0.00     0.173 A 
ATOM     67  C   UNL A   1      40.300  34.598  36.486  1.00  0.00     0.173 A 
ATOM     68  F   UNL A   1      38.118  31.804  37.306  1.00  0.00    -0.203 F 
ATOM     69  C   UNL A   1      38.507  33.816  38.460  1.00  0.00     0.198 A 
ATOM     70  C   UNL A   1      40.057  35.425  37.581  1.00  0.00     0.198 A 
ATOM     71  F   UNL A   1      41.159  35.009  35.543  1.00  0.00    -0.203 F 
ATOM     72  F   UNL A   1      37.613  33.453  39.391  1.00  0.00    -0.200 F 
ATOM     73  C   UNL A   1      39.156  35.038  38.561  1.00  0.00     0.200 A 
ATOM     74  F   UNL A   1      40.690  36.601  37.682  1.00  0.00    -0.200 F 
ATOM     75  F   UNL A   1      38.901  35.848  39.597  1.00  0.00    -0.200 F 
ENDBRANCH  51  65
BRANCH  52  76
ATOM     76  C   UNL A   1      40.888  27.680  28.242  1.00  0.00     0.064 A 
ATOM     77  C   UNL A   1      41.691  28.061  27.158  1.00  0.00     0.173 A 
ATOM     78  C   UNL A   1      40.269  26.422  28.189  1.00  0.00     0.173 A 
ATOM     79  F   UNL A   1      42.289  29.260  27.159  1.00  0.00    -0.203 F 
ATOM     80  C   UNL A   1      41.872  27.216  26.066  1.00  0.00     0.198 A 
ATOM     81  C   UNL A   1      40.466  25.570  27.104  1.00  0.00     0.198 A 
ATOM     82  F   UNL A   1      39.495  26.013  29.204  1.00  0.00    -0.203 F 
ATOM     83  F   UNL A   1      42.635  27.609  25.037  1.00  0.00    -0.200 F 
ATOM     84  C   UNL A   1      41.267  25.968  26.044  1.00  0.00     0.200 A 
ATOM     85  F   UNL A   1      39.891  24.360  27.091  1.00  0.00    -0.200 F 
ATOM     86  F   UNL A   1      41.457  25.148  25.001  1.00  0.00    -0.200 F 
ENDBRANCH  52  76
BRANCH  64  87
ATOM     87  C   UNL A   1      44.089  28.018  34.441  1.00  0.00     0.064 A 
ATOM     88  C   UNL A   1      43.891  26.782  35.072  1.00  0.00     0.173 A 
ATOM     89  C   UNL A   1      45.406  28.481  34.293  1.00  0.00     0.173 A 
ATOM     90  F   UNL A   1      42.650  26.305  35.247  1.00  0.00    -0.203 F 
ATOM     91  C   UNL A   1      44.972  26.035  35.533  1.00  0.00     0.198 A 
ATOM     92  C   UNL A   1      46.484  27.720  34.734  1.00  0.00     0.198 A 
ATOM     93  F   UNL A   1      45.646  29.655  33.689  1.00  0.00    -0.203 F 
ATOM     94  F   UNL A   1      44.760  24.863  36.147  1.00  0.00    -0.200 F 
ATOM     95  C   UNL A   1      46.267  26.499  35.352  1.00  0.00     0.200 A 
ATOM     96  F   UNL A   1      47.736  28.162  34.545  1.00  0.00    -0.200 F 
ATOM     97  F   UNL A   1      47.306  25.766  35.773  1.00  0.00    -0.200 F 
ENDBRANCH  64  87
ENDBRANCH  38  39
ENDBRANCH  30  33
ENDBRANCH  28  29
ENDBRANCH   1  28
TORSDOF 11
ENDMDL
