MODEL 1
REMARK VINA RESULT:     -13.3      0.000      0.000
REMARK SMILES Cn1c(=O)c2c(nc(Nc3cccc(Cl)c3Cl)n2CC(=O)NCCCNC(=O)c2ccc(-c3c4nc(c(-c5c(F)c(F)c(F)c(F)c5F)c5ccc([nH]5)c(-c5c(F)c(F)c(F)c(F)c5F)c5nc(c(-c6c(F)c(F)c(F)c(F)c6F)c6ccc3[nH]6)C=C5)C=C4)cc2)n(C)c1=O
REMARK SMILES IDX 23 1 22 2 20 3 21 4 19 6 18 7 1 8 2 9 3 10 94 11 4 12 5 13
REMARK SMILES IDX 92 14 95 15 6 16 93 17 7 18 8 19 9 20 10 22 11 23 16 24
REMARK SMILES IDX 12 25 14 26 17 27 13 28 15 29 24 30 25 31 26 32 27 33 28 35
REMARK SMILES IDX 29 36 30 37 91 38 31 39 90 40 32 41 33 42 34 43 84 44 35 45
REMARK SMILES IDX 89 46 83 47 85 48 36 49 88 50 82 51 81 52 37 54 69 55 49 56
REMARK SMILES IDX 68 57 50 58 53 59 67 60 86 61 51 62 52 63 66 65 87 66 54 67
REMARK SMILES IDX 38 68 39 69 47 70 40 71 41 72 45 73 48 74 42 75 43 76 46 77
REMARK SMILES IDX 44 78 70 79 71 80 79 81 72 82 73 83 77 84 80 85 74 86 75 87
REMARK SMILES IDX 78 88 76 89 55 90 56 91 64 92 57 93 58 94 62 95 65 96 59 97
REMARK SMILES IDX 60 98 63 99 61 100
REMARK H PARENT 22 5 9 21 26 34 85 53 53 64
REMARK Flexibility Score: inf
ROOT
ATOM      1  C   UNL A   1      38.872  34.156  32.816  1.00  0.00     0.117 C 
ENDROOT
BRANCH   1   2
ATOM      2  N   UNL A   1      38.799  32.782  33.253  1.00  0.00    -0.354 N 
ATOM      3  C   UNL A   1      37.688  32.114  33.678  1.00  0.00     0.240 C 
ATOM      4  O   UNL A   1      37.796  30.907  33.892  1.00  0.00    -0.273 OA
ATOM      5  H   UNL A   1      39.640  32.273  33.242  1.00  0.00     0.163 HD
BRANCH   3   6
ATOM      6  C   UNL A   1      36.357  32.835  33.698  1.00  0.00     0.226 C 
BRANCH   6   7
ATOM      7  N   UNL A   1      35.643  32.937  32.428  1.00  0.00    -0.295 N 
ATOM      8  C   UNL A   1      33.617  37.536  32.245  1.00  0.00     0.159 C 
ATOM      9  N   UNL A   1      33.940  36.201  31.763  1.00  0.00    -0.261 N 
ATOM     10  C   UNL A   1      34.696  35.348  32.584  1.00  0.00     0.282 A 
ATOM     11  C   UNL A   1      33.418  35.865  30.504  1.00  0.00     0.332 A 
ATOM     12  O   UNL A   1      35.109  35.670  33.693  1.00  0.00    -0.267 OA
ATOM     13  C   UNL A   1      34.941  34.060  32.004  1.00  0.00     0.154 A 
ATOM     14  N   UNL A   1      33.703  34.595  30.018  1.00  0.00    -0.279 N 
ATOM     15  O   UNL A   1      32.737  36.668  29.858  1.00  0.00    -0.247 OA
ATOM     16  C   UNL A   1      34.452  33.729  30.778  1.00  0.00     0.170 A 
ATOM     17  C   UNL A   1      33.199  34.188  28.720  1.00  0.00     0.157 C 
ATOM     18  N   UNL A   1      34.805  32.475  30.410  1.00  0.00    -0.194 NA
ATOM     19  C   UNL A   1      35.492  31.968  31.417  1.00  0.00     0.210 A 
BRANCH  19  20
ATOM     20  N   UNL A   1      36.038  30.725  31.306  1.00  0.00    -0.324 N 
ATOM     21  H   UNL A   1      35.979  30.206  32.141  1.00  0.00     0.170 HD
BRANCH  20  22
ATOM     22  C   UNL A   1      36.669  30.014  30.259  1.00  0.00     0.061 A 
ATOM     23  C   UNL A   1      36.413  30.434  28.932  1.00  0.00     0.028 A 
ATOM     24  C   UNL A   1      37.563  28.947  30.457  1.00  0.00     0.083 A 
ATOM     25  C   UNL A   1      37.125  29.902  27.852  1.00  0.00     0.004 A 
ATOM     26  C   UNL A   1      38.304  28.445  29.374  1.00  0.00     0.061 A 
ATOM     27  Cl  UNL A   1      37.728  28.242  32.038  1.00  0.00    -0.080 Cl
ATOM     28  C   UNL A   1      38.094  28.931  28.081  1.00  0.00     0.022 A 
ATOM     29  Cl  UNL A   1      39.539  27.253  29.582  1.00  0.00    -0.083 Cl
ENDBRANCH  20  22
ENDBRANCH  19  20
ENDBRANCH   6   7
ENDBRANCH   3   6
ENDBRANCH   1   2
BRANCH   1  30
ATOM     30  C   UNL A   1      40.251  34.507  32.317  1.00  0.00     0.042 C 
BRANCH  30  31
ATOM     31  C   UNL A   1      40.349  34.130  30.875  1.00  0.00     0.118 C 
BRANCH  31  32
ATOM     32  N   UNL A   1      41.638  34.489  30.290  1.00  0.00    -0.352 N 
ATOM     33  C   UNL A   1      42.710  33.624  30.024  1.00  0.00     0.251 C 
ATOM     34  H   UNL A   1      41.769  35.436  30.058  1.00  0.00     0.163 HD
ATOM     35  O   UNL A   1      43.797  34.016  29.812  1.00  0.00    -0.269 OA
BRANCH  33  36
ATOM     36  C   UNL A   1      42.300  32.200  29.822  1.00  0.00     0.039 A 
ATOM     37  C   UNL A   1      41.177  31.542  30.296  1.00  0.00     0.014 A 
ATOM     38  C   UNL A   1      43.275  31.385  29.285  1.00  0.00     0.014 A 
ATOM     39  C   UNL A   1      41.303  30.083  30.366  1.00  0.00     0.010 A 
ATOM     40  C   UNL A   1      42.940  30.149  28.885  1.00  0.00     0.010 A 
ATOM     41  C   UNL A   1      42.548  29.420  29.957  1.00  0.00    -0.014 A 
BRANCH  41  42
ATOM     42  C   UNL A   1      43.065  27.901  29.642  1.00  0.00     0.031 A 
ATOM     43  C   UNL A   1      43.436  27.618  31.330  1.00  0.00     0.074 A 
ATOM     44  C   UNL A   1      43.075  27.013  28.363  1.00  0.00     0.049 A 
ATOM     45  N   UNL A   1      44.582  27.970  31.861  1.00  0.00    -0.248 NA
ATOM     46  C   UNL A   1      42.495  27.558  32.595  1.00  0.00     0.031 C 
ATOM     47  C   UNL A   1      42.649  27.042  26.773  1.00  0.00     0.029 A 
ATOM     48  N   UNL A   1      43.637  25.687  28.129  1.00  0.00    -0.354 N 
ATOM     49  C   UNL A   1      44.608  27.379  33.134  1.00  0.00     0.074 A 
ATOM     50  C   UNL A   1      43.311  27.440  33.657  1.00  0.00     0.031 C 
ATOM     51  C   UNL A   1      42.602  25.786  26.146  1.00  0.00     0.029 A 
ATOM     52  C   UNL A   1      43.154  24.786  27.028  1.00  0.00     0.049 A 
ATOM     53  H   UNL A   1      44.361  25.370  28.715  1.00  0.00     0.167 HD
ATOM     54  C   UNL A   1      45.528  26.421  33.382  1.00  0.00     0.037 A 
ATOM     55  C   UNL A   1      43.488  23.432  26.738  1.00  0.00     0.037 A 
ATOM     56  C   UNL A   1      46.504  26.512  32.336  1.00  0.00     0.049 A 
ATOM     57  C   UNL A   1      44.570  23.149  27.720  1.00  0.00     0.074 A 
ATOM     58  C   UNL A   1      47.322  27.538  31.907  1.00  0.00     0.029 A 
ATOM     59  N   UNL A   1      46.107  25.825  31.227  1.00  0.00    -0.354 N 
ATOM     60  N   UNL A   1      45.737  23.728  27.603  1.00  0.00    -0.248 NA
ATOM     61  C   UNL A   1      44.028  22.933  29.065  1.00  0.00     0.031 C 
ATOM     62  C   UNL A   1      47.304  27.503  30.485  1.00  0.00     0.029 A 
ATOM     63  C   UNL A   1      46.639  26.350  30.092  1.00  0.00     0.049 A 
ATOM     64  H   UNL A   1      45.510  25.043  31.245  1.00  0.00     0.167 HD
ATOM     65  C   UNL A   1      45.862  24.429  28.789  1.00  0.00     0.074 A 
ATOM     66  C   UNL A   1      44.766  23.874  29.674  1.00  0.00     0.031 C 
ATOM     67  C   UNL A   1      46.473  25.670  28.844  1.00  0.00     0.037 A 
BRANCH  54  68
ATOM     68  C   UNL A   1      45.296  25.170  34.180  1.00  0.00     0.064 A 
ATOM     69  C   UNL A   1      46.082  25.031  35.328  1.00  0.00     0.173 A 
ATOM     70  C   UNL A   1      44.510  24.044  33.822  1.00  0.00     0.173 A 
ATOM     71  F   UNL A   1      46.891  26.030  35.708  1.00  0.00    -0.203 F 
ATOM     72  C   UNL A   1      46.072  23.870  36.092  1.00  0.00     0.198 A 
ATOM     73  C   UNL A   1      44.471  22.893  34.615  1.00  0.00     0.198 A 
ATOM     74  F   UNL A   1      43.811  23.988  32.680  1.00  0.00    -0.203 F 
ATOM     75  F   UNL A   1      46.866  23.788  37.167  1.00  0.00    -0.200 F 
ATOM     76  C   UNL A   1      45.257  22.807  35.747  1.00  0.00     0.200 A 
ATOM     77  F   UNL A   1      43.688  21.861  34.264  1.00  0.00    -0.200 F 
ATOM     78  F   UNL A   1      45.241  21.699  36.498  1.00  0.00    -0.200 F 
ENDBRANCH  54  68
BRANCH  55  79
ATOM     79  C   UNL A   1      42.601  22.223  26.256  1.00  0.00     0.064 A 
ATOM     80  C   UNL A   1      42.920  20.838  26.006  1.00  0.00     0.173 A 
ATOM     81  C   UNL A   1      41.226  22.447  26.388  1.00  0.00     0.173 A 
ATOM     82  F   UNL A   1      44.186  20.426  25.813  1.00  0.00    -0.203 F 
ATOM     83  C   UNL A   1      41.920  19.809  25.959  1.00  0.00     0.198 A 
ATOM     84  C   UNL A   1      40.253  21.437  26.373  1.00  0.00     0.198 A 
ATOM     85  F   UNL A   1      40.792  23.686  26.634  1.00  0.00    -0.203 F 
ATOM     86  F   UNL A   1      42.244  18.518  25.747  1.00  0.00    -0.200 F 
ATOM     87  C   UNL A   1      40.591  20.115  26.181  1.00  0.00     0.200 A 
ATOM     88  F   UNL A   1      38.978  21.771  26.611  1.00  0.00    -0.200 F 
ATOM     89  F   UNL A   1      39.646  19.162  26.237  1.00  0.00    -0.200 F 
ENDBRANCH  55  79
BRANCH  67  90
ATOM     90  C   UNL A   1      47.157  26.335  27.646  1.00  0.00     0.064 A 
ATOM     91  C   UNL A   1      46.780  27.513  26.952  1.00  0.00     0.173 A 
ATOM     92  C   UNL A   1      48.437  25.867  27.350  1.00  0.00     0.173 A 
ATOM     93  F   UNL A   1      45.712  28.225  27.316  1.00  0.00    -0.203 F 
ATOM     94  C   UNL A   1      47.558  28.066  25.918  1.00  0.00     0.198 A 
ATOM     95  C   UNL A   1      49.244  26.455  26.376  1.00  0.00     0.198 A 
ATOM     96  F   UNL A   1      48.956  24.877  28.091  1.00  0.00    -0.203 F 
ATOM     97  F   UNL A   1      47.127  29.142  25.237  1.00  0.00    -0.200 F 
ATOM     98  C   UNL A   1      48.792  27.524  25.627  1.00  0.00     0.200 A 
ATOM     99  F   UNL A   1      50.485  25.989  26.192  1.00  0.00    -0.200 F 
ATOM    100  F   UNL A   1      49.558  28.050  24.660  1.00  0.00    -0.200 F 
ENDBRANCH  67  90
ENDBRANCH  41  42
ENDBRANCH  33  36
ENDBRANCH  31  32
ENDBRANCH  30  31
ENDBRANCH   1  30
TORSDOF 13
ENDMDL
MODEL 2
REMARK VINA RESULT:     -13.3      5.523     10.595
REMARK SMILES Cn1c(=O)c2c(nc(Nc3cccc(Cl)c3Cl)n2CC(=O)NCCCNC(=O)c2ccc(-c3c4nc(c(-c5c(F)c(F)c(F)c(F)c5F)c5ccc([nH]5)c(-c5c(F)c(F)c(F)c(F)c5F)c5nc(c(-c6c(F)c(F)c(F)c(F)c6F)c6ccc3[nH]6)C=C5)C=C4)cc2)n(C)c1=O
REMARK SMILES IDX 23 1 22 2 20 3 21 4 19 6 18 7 1 8 2 9 3 10 94 11 4 12 5 13
REMARK SMILES IDX 92 14 95 15 6 16 93 17 7 18 8 19 9 20 10 22 11 23 16 24
REMARK SMILES IDX 12 25 14 26 17 27 13 28 15 29 24 30 25 31 26 32 27 33 28 35
REMARK SMILES IDX 29 36 30 37 91 38 31 39 90 40 32 41 33 42 34 43 84 44 35 45
REMARK SMILES IDX 89 46 83 47 85 48 36 49 88 50 82 51 81 52 37 54 69 55 49 56
REMARK SMILES IDX 68 57 50 58 53 59 67 60 86 61 51 62 52 63 66 65 87 66 54 67
REMARK SMILES IDX 38 68 39 69 47 70 40 71 41 72 45 73 48 74 42 75 43 76 46 77
REMARK SMILES IDX 44 78 70 79 71 80 79 81 72 82 73 83 77 84 80 85 74 86 75 87
REMARK SMILES IDX 78 88 76 89 55 90 56 91 64 92 57 93 58 94 62 95 65 96 59 97
REMARK SMILES IDX 60 98 63 99 61 100
REMARK H PARENT 22 5 9 21 26 34 85 53 53 64
REMARK Flexibility Score: inf
ROOT
ATOM      1  C   UNL A   1      35.880  23.742  24.474  1.00  0.00     0.117 C 
ENDROOT
BRANCH   1   2
ATOM      2  N   UNL A   1      34.726  23.701  25.340  1.00  0.00    -0.354 N 
ATOM      3  C   UNL A   1      34.139  24.756  25.977  1.00  0.00     0.240 C 
ATOM      4  O   UNL A   1      33.085  24.546  26.576  1.00  0.00    -0.273 OA
ATOM      5  H   UNL A   1      34.318  22.818  25.488  1.00  0.00     0.163 HD
BRANCH   3   6
ATOM      6  C   UNL A   1      34.706  26.145  25.775  1.00  0.00     0.226 C 
BRANCH   6   7
ATOM      7  N   UNL A   1      33.745  27.223  25.554  1.00  0.00    -0.295 N 
ATOM      8  C   UNL A   1      31.287  26.154  21.300  1.00  0.00     0.159 C 
ATOM      9  N   UNL A   1      31.614  26.918  22.494  1.00  0.00    -0.261 N 
ATOM     10  C   UNL A   1      32.639  26.455  23.336  1.00  0.00     0.282 A 
ATOM     11  C   UNL A   1      30.883  28.102  22.679  1.00  0.00     0.332 A 
ATOM     12  O   UNL A   1      33.276  25.429  23.122  1.00  0.00    -0.267 OA
ATOM     13  C   UNL A   1      32.874  27.297  24.472  1.00  0.00     0.154 A 
ATOM     14  N   UNL A   1      31.177  28.859  23.808  1.00  0.00    -0.279 N 
ATOM     15  O   UNL A   1      30.014  28.452  21.874  1.00  0.00    -0.247 OA
ATOM     16  C   UNL A   1      32.162  28.439  24.669  1.00  0.00     0.170 A 
ATOM     17  C   UNL A   1      30.452  30.090  24.061  1.00  0.00     0.157 C 
ATOM     18  N   UNL A   1      32.529  29.080  25.803  1.00  0.00    -0.194 NA
ATOM     19  C   UNL A   1      33.516  28.377  26.328  1.00  0.00     0.210 A 
BRANCH  19  20
ATOM     20  N   UNL A   1      34.052  28.751  27.523  1.00  0.00    -0.324 N 
ATOM     21  H   UNL A   1      33.629  28.300  28.290  1.00  0.00     0.170 HD
BRANCH  20  22
ATOM     22  C   UNL A   1      35.081  29.641  27.908  1.00  0.00     0.061 A 
ATOM     23  C   UNL A   1      36.340  29.087  28.241  1.00  0.00     0.028 A 
ATOM     24  C   UNL A   1      34.943  31.041  27.941  1.00  0.00     0.083 A 
ATOM     25  C   UNL A   1      37.456  29.899  28.464  1.00  0.00     0.004 A 
ATOM     26  C   UNL A   1      36.075  31.851  28.126  1.00  0.00     0.061 A 
ATOM     27  Cl  UNL A   1      33.367  31.755  27.774  1.00  0.00    -0.080 Cl
ATOM     28  C   UNL A   1      37.327  31.281  28.372  1.00  0.00     0.022 A 
ATOM     29  Cl  UNL A   1      35.999  33.574  28.006  1.00  0.00    -0.083 Cl
ENDBRANCH  20  22
ENDBRANCH  19  20
ENDBRANCH   6   7
ENDBRANCH   3   6
ENDBRANCH   1   2
BRANCH   1  30
ATOM     30  C   UNL A   1      36.954  22.789  24.935  1.00  0.00     0.042 C 
BRANCH  30  31
ATOM     31  C   UNL A   1      37.930  23.541  25.780  1.00  0.00     0.118 C 
BRANCH  31  32
ATOM     32  N   UNL A   1      38.680  22.668  26.679  1.00  0.00    -0.352 N 
ATOM     33  C   UNL A   1      39.916  22.944  27.282  1.00  0.00     0.251 C 
ATOM     34  H   UNL A   1      38.275  21.794  26.883  1.00  0.00     0.163 HD
ATOM     35  O   UNL A   1      40.582  22.105  27.766  1.00  0.00    -0.269 OA
BRANCH  33  36
ATOM     36  C   UNL A   1      40.195  24.404  27.442  1.00  0.00     0.039 A 
ATOM     37  C   UNL A   1      41.232  25.155  26.915  1.00  0.00     0.014 A 
ATOM     38  C   UNL A   1      39.453  25.034  28.420  1.00  0.00     0.014 A 
ATOM     39  C   UNL A   1      41.521  26.398  27.636  1.00  0.00     0.010 A 
ATOM     40  C   UNL A   1      39.489  26.372  28.501  1.00  0.00     0.010 A 
ATOM     41  C   UNL A   1      40.743  26.769  28.825  1.00  0.00    -0.014 A 
BRANCH  41  42
ATOM     42  C   UNL A   1      40.533  28.085  29.773  1.00  0.00     0.031 A 
ATOM     43  C   UNL A   1      41.716  28.999  28.860  1.00  0.00     0.074 A 
ATOM     44  C   UNL A   1      39.554  28.429  30.933  1.00  0.00     0.049 A 
ATOM     45  N   UNL A   1      43.000  28.934  29.119  1.00  0.00    -0.248 NA
ATOM     46  C   UNL A   1      41.710  29.478  27.357  1.00  0.00     0.031 C 
ATOM     47  C   UNL A   1      38.315  27.783  31.805  1.00  0.00     0.029 A 
ATOM     48  N   UNL A   1      39.479  29.599  31.802  1.00  0.00    -0.354 N 
ATOM     49  C   UNL A   1      43.591  29.959  28.364  1.00  0.00     0.074 A 
ATOM     50  C   UNL A   1      42.917  30.029  27.140  1.00  0.00     0.031 C 
ATOM     51  C   UNL A   1      37.566  28.709  32.551  1.00  0.00     0.029 A 
ATOM     52  C   UNL A   1      38.221  29.994  32.521  1.00  0.00     0.049 A 
ATOM     53  H   UNL A   1      40.285  30.151  31.922  1.00  0.00     0.167 HD
ATOM     54  C   UNL A   1      44.174  30.988  29.019  1.00  0.00     0.037 A 
ATOM     55  C   UNL A   1      37.932  31.157  33.292  1.00  0.00     0.037 A 
ATOM     56  C   UNL A   1      44.341  30.565  30.378  1.00  0.00     0.049 A 
ATOM     57  C   UNL A   1      39.250  31.845  33.345  1.00  0.00     0.074 A 
ATOM     58  C   UNL A   1      45.006  29.498  30.949  1.00  0.00     0.029 A 
ATOM     59  N   UNL A   1      43.204  30.764  31.103  1.00  0.00    -0.354 N 
ATOM     60  N   UNL A   1      40.239  31.328  34.029  1.00  0.00    -0.248 NA
ATOM     61  C   UNL A   1      39.554  32.520  32.079  1.00  0.00     0.031 C 
ATOM     62  C   UNL A   1      44.159  28.997  31.977  1.00  0.00     0.029 A 
ATOM     63  C   UNL A   1      43.102  29.881  32.131  1.00  0.00     0.049 A 
ATOM     64  H   UNL A   1      42.539  31.462  30.908  1.00  0.00     0.167 HD
ATOM     65  C   UNL A   1      41.216  31.130  33.070  1.00  0.00     0.074 A 
ATOM     66  C   UNL A   1      40.734  31.916  31.870  1.00  0.00     0.031 C 
ATOM     67  C   UNL A   1      42.062  30.034  33.103  1.00  0.00     0.037 A 
BRANCH  54  68
ATOM     68  C   UNL A   1      44.108  32.432  28.612  1.00  0.00     0.064 A 
ATOM     69  C   UNL A   1      45.287  32.963  28.078  1.00  0.00     0.173 A 
ATOM     70  C   UNL A   1      43.064  33.360  28.863  1.00  0.00     0.173 A 
ATOM     71  F   UNL A   1      46.339  32.163  27.857  1.00  0.00    -0.203 F 
ATOM     72  C   UNL A   1      45.418  34.314  27.779  1.00  0.00     0.198 A 
ATOM     73  C   UNL A   1      43.184  34.711  28.523  1.00  0.00     0.198 A 
ATOM     74  F   UNL A   1      41.931  33.016  29.491  1.00  0.00    -0.203 F 
ATOM     75  F   UNL A   1      46.580  34.766  27.292  1.00  0.00    -0.200 F 
ATOM     76  C   UNL A   1      44.365  35.186  27.986  1.00  0.00     0.200 A 
ATOM     77  F   UNL A   1      42.161  35.553  28.741  1.00  0.00    -0.200 F 
ATOM     78  F   UNL A   1      44.493  36.483  27.680  1.00  0.00    -0.200 F 
ENDBRANCH  54  68
BRANCH  55  79
ATOM     79  C   UNL A   1      36.636  32.048  33.383  1.00  0.00     0.064 A 
ATOM     80  C   UNL A   1      36.278  33.134  34.264  1.00  0.00     0.173 A 
ATOM     81  C   UNL A   1      35.833  31.990  32.239  1.00  0.00     0.173 A 
ATOM     82  F   UNL A   1      36.909  33.335  35.435  1.00  0.00    -0.203 F 
ATOM     83  C   UNL A   1      35.243  34.077  33.949  1.00  0.00     0.198 A 
ATOM     84  C   UNL A   1      34.842  32.930  31.917  1.00  0.00     0.198 A 
ATOM     85  F   UNL A   1      36.065  31.038  31.332  1.00  0.00    -0.203 F 
ATOM     86  F   UNL A   1      34.941  35.097  34.776  1.00  0.00    -0.200 F 
ATOM     87  C   UNL A   1      34.555  33.987  32.754  1.00  0.00     0.200 A 
ATOM     88  F   UNL A   1      34.211  32.820  30.742  1.00  0.00    -0.200 F 
ATOM     89  F   UNL A   1      33.646  34.907  32.390  1.00  0.00    -0.200 F 
ENDBRANCH  55  79
BRANCH  67  90
ATOM     90  C   UNL A   1      42.078  29.006  34.239  1.00  0.00     0.064 A 
ATOM     91  C   UNL A   1      41.593  27.674  34.235  1.00  0.00     0.173 A 
ATOM     92  C   UNL A   1      42.881  29.333  35.331  1.00  0.00     0.173 A 
ATOM     93  F   UNL A   1      41.043  27.136  33.145  1.00  0.00    -0.203 F 
ATOM     94  C   UNL A   1      41.757  26.804  35.328  1.00  0.00     0.198 A 
ATOM     95  C   UNL A   1      43.108  28.448  36.386  1.00  0.00     0.198 A 
ATOM     96  F   UNL A   1      43.542  30.500  35.330  1.00  0.00    -0.203 F 
ATOM     97  F   UNL A   1      41.216  25.573  35.311  1.00  0.00    -0.200 F 
ATOM     98  C   UNL A   1      42.512  27.201  36.411  1.00  0.00     0.200 A 
ATOM     99  F   UNL A   1      43.941  28.808  37.369  1.00  0.00    -0.200 F 
ATOM    100  F   UNL A   1      42.698  26.379  37.453  1.00  0.00    -0.200 F 
ENDBRANCH  67  90
ENDBRANCH  41  42
ENDBRANCH  33  36
ENDBRANCH  31  32
ENDBRANCH  30  31
ENDBRANCH   1  30
TORSDOF 13
ENDMDL
MODEL 3
REMARK VINA RESULT:     -13.2      4.613      7.868
REMARK SMILES Cn1c(=O)c2c(nc(Nc3cccc(Cl)c3Cl)n2CC(=O)NCCCNC(=O)c2ccc(-c3c4nc(c(-c5c(F)c(F)c(F)c(F)c5F)c5ccc([nH]5)c(-c5c(F)c(F)c(F)c(F)c5F)c5nc(c(-c6c(F)c(F)c(F)c(F)c6F)c6ccc3[nH]6)C=C5)C=C4)cc2)n(C)c1=O
REMARK SMILES IDX 23 1 22 2 20 3 21 4 19 6 18 7 1 8 2 9 3 10 94 11 4 12 5 13
REMARK SMILES IDX 92 14 95 15 6 16 93 17 7 18 8 19 9 20 10 22 11 23 16 24
REMARK SMILES IDX 12 25 14 26 17 27 13 28 15 29 24 30 25 31 26 32 27 33 28 35
REMARK SMILES IDX 29 36 30 37 91 38 31 39 90 40 32 41 33 42 34 43 84 44 35 45
REMARK SMILES IDX 89 46 83 47 85 48 36 49 88 50 82 51 81 52 37 54 69 55 49 56
REMARK SMILES IDX 68 57 50 58 53 59 67 60 86 61 51 62 52 63 66 65 87 66 54 67
REMARK SMILES IDX 38 68 39 69 47 70 40 71 41 72 45 73 48 74 42 75 43 76 46 77
REMARK SMILES IDX 44 78 70 79 71 80 79 81 72 82 73 83 77 84 80 85 74 86 75 87
REMARK SMILES IDX 78 88 76 89 55 90 56 91 64 92 57 93 58 94 62 95 65 96 59 97
REMARK SMILES IDX 60 98 63 99 61 100
REMARK H PARENT 22 5 9 21 26 34 85 53 53 64
REMARK Flexibility Score: inf
ROOT
ATOM      1  C   UNL A   1      33.710  27.190  26.132  1.00  0.00     0.117 C 
ENDROOT
BRANCH   1   2
ATOM      2  N   UNL A   1      33.811  26.452  24.895  1.00  0.00    -0.354 N 
ATOM      3  C   UNL A   1      34.350  25.210  24.722  1.00  0.00     0.240 C 
ATOM      4  O   UNL A   1      34.234  24.688  23.614  1.00  0.00    -0.273 OA
ATOM      5  H   UNL A   1      33.453  26.891  24.091  1.00  0.00     0.163 HD
BRANCH   3   6
ATOM      6  C   UNL A   1      34.900  24.472  25.924  1.00  0.00     0.226 C 
BRANCH   6   7
ATOM      7  N   UNL A   1      35.663  23.255  25.658  1.00  0.00    -0.295 N 
ATOM      8  C   UNL A   1      32.334  19.549  24.978  1.00  0.00     0.159 C 
ATOM      9  N   UNL A   1      33.653  20.158  25.056  1.00  0.00    -0.261 N 
ATOM     10  C   UNL A   1      33.751  21.525  25.364  1.00  0.00     0.282 A 
ATOM     11  C   UNL A   1      34.738  19.290  24.852  1.00  0.00     0.332 A 
ATOM     12  O   UNL A   1      32.779  22.243  25.565  1.00  0.00    -0.267 OA
ATOM     13  C   UNL A   1      35.101  22.005  25.421  1.00  0.00     0.154 A 
ATOM     14  N   UNL A   1      36.012  19.840  24.927  1.00  0.00    -0.279 N 
ATOM     15  O   UNL A   1      34.563  18.091  24.614  1.00  0.00    -0.247 OA
ATOM     16  C   UNL A   1      36.159  21.176  25.211  1.00  0.00     0.170 A 
ATOM     17  C   UNL A   1      37.175  18.998  24.719  1.00  0.00     0.157 C 
ATOM     18  N   UNL A   1      37.342  21.827  25.298  1.00  0.00    -0.194 NA
ATOM     19  C   UNL A   1      37.059  23.079  25.609  1.00  0.00     0.210 A 
BRANCH  19  20
ATOM     20  N   UNL A   1      38.062  23.997  25.703  1.00  0.00    -0.324 N 
ATOM     21  H   UNL A   1      37.991  24.710  25.027  1.00  0.00     0.170 HD
BRANCH  20  22
ATOM     22  C   UNL A   1      39.180  24.154  26.554  1.00  0.00     0.061 A 
ATOM     23  C   UNL A   1      39.359  25.411  27.179  1.00  0.00     0.028 A 
ATOM     24  C   UNL A   1      40.098  23.129  26.848  1.00  0.00     0.083 A 
ATOM     25  C   UNL A   1      40.333  25.600  28.163  1.00  0.00     0.004 A 
ATOM     26  C   UNL A   1      41.048  23.313  27.866  1.00  0.00     0.061 A 
ATOM     27  Cl  UNL A   1      40.063  21.652  25.932  1.00  0.00    -0.080 Cl
ATOM     28  C   UNL A   1      41.154  24.539  28.529  1.00  0.00     0.022 A 
ATOM     29  Cl  UNL A   1      42.089  22.036  28.390  1.00  0.00    -0.083 Cl
ENDBRANCH  20  22
ENDBRANCH  19  20
ENDBRANCH   6   7
ENDBRANCH   3   6
ENDBRANCH   1   2
BRANCH   1  30
ATOM     30  C   UNL A   1      33.884  28.672  25.909  1.00  0.00     0.042 C 
BRANCH  30  31
ATOM     31  C   UNL A   1      34.485  29.273  27.138  1.00  0.00     0.118 C 
BRANCH  31  32
ATOM     32  N   UNL A   1      34.769  30.696  26.981  1.00  0.00    -0.352 N 
ATOM     33  C   UNL A   1      35.646  31.469  27.758  1.00  0.00     0.251 C 
ATOM     34  H   UNL A   1      34.297  31.163  26.254  1.00  0.00     0.163 HD
ATOM     35  O   UNL A   1      35.622  32.644  27.754  1.00  0.00    -0.269 OA
BRANCH  33  36
ATOM     36  C   UNL A   1      36.735  30.675  28.407  1.00  0.00     0.039 A 
ATOM     37  C   UNL A   1      37.103  30.631  29.741  1.00  0.00     0.014 A 
ATOM     38  C   UNL A   1      37.625  30.087  27.532  1.00  0.00     0.014 A 
ATOM     39  C   UNL A   1      38.476  30.181  29.986  1.00  0.00     0.010 A 
ATOM     40  C   UNL A   1      38.511  29.199  28.007  1.00  0.00     0.010 A 
ATOM     41  C   UNL A   1      39.355  29.821  28.865  1.00  0.00    -0.014 A 
BRANCH  41  42
ATOM     42  C   UNL A   1      40.796  29.079  28.646  1.00  0.00     0.031 A 
ATOM     43  C   UNL A   1      40.968  28.785  30.364  1.00  0.00     0.074 A 
ATOM     44  C   UNL A   1      41.612  28.667  27.386  1.00  0.00     0.049 A 
ATOM     45  N   UNL A   1      41.476  29.679  31.178  1.00  0.00    -0.248 NA
ATOM     46  C   UNL A   1      40.111  27.898  31.347  1.00  0.00     0.031 C 
ATOM     47  C   UNL A   1      41.552  28.719  25.741  1.00  0.00     0.029 A 
ATOM     48  N   UNL A   1      42.943  28.083  27.261  1.00  0.00    -0.354 N 
ATOM     49  C   UNL A   1      41.673  29.013  32.398  1.00  0.00     0.074 A 
ATOM     50  C   UNL A   1      40.602  28.130  32.577  1.00  0.00     0.031 C 
ATOM     51  C   UNL A   1      42.462  27.872  25.085  1.00  0.00     0.029 A 
ATOM     52  C   UNL A   1      43.379  27.313  26.048  1.00  0.00     0.049 A 
ATOM     53  H   UNL A   1      43.581  28.198  28.002  1.00  0.00     0.167 HD
ATOM     54  C   UNL A   1      42.937  28.841  32.842  1.00  0.00     0.037 A 
ATOM     55  C   UNL A   1      44.573  26.573  25.811  1.00  0.00     0.037 A 
ATOM     56  C   UNL A   1      43.762  29.731  32.079  1.00  0.00     0.049 A 
ATOM     57  C   UNL A   1      45.381  26.867  27.026  1.00  0.00     0.074 A 
ATOM     58  C   UNL A   1      43.745  31.101  31.902  1.00  0.00     0.029 A 
ATOM     59  N   UNL A   1      44.120  29.177  30.886  1.00  0.00    -0.354 N 
ATOM     60  N   UNL A   1      45.862  28.067  27.226  1.00  0.00    -0.248 NA
ATOM     61  C   UNL A   1      44.904  26.104  28.184  1.00  0.00     0.031 C 
ATOM     62  C   UNL A   1      43.996  31.333  30.521  1.00  0.00     0.029 A 
ATOM     63  C   UNL A   1      44.348  30.124  29.939  1.00  0.00     0.049 A 
ATOM     64  H   UNL A   1      44.204  28.209  30.730  1.00  0.00     0.167 HD
ATOM     65  C   UNL A   1      45.285  28.444  28.425  1.00  0.00     0.074 A 
ATOM     66  C   UNL A   1      44.710  27.161  28.988  1.00  0.00     0.031 C 
ATOM     67  C   UNL A   1      44.892  29.748  28.670  1.00  0.00     0.037 A 
BRANCH  54  68
ATOM     68  C   UNL A   1      43.467  27.609  33.517  1.00  0.00     0.064 A 
ATOM     69  C   UNL A   1      43.855  27.771  34.851  1.00  0.00     0.173 A 
ATOM     70  C   UNL A   1      43.781  26.359  32.924  1.00  0.00     0.173 A 
ATOM     71  F   UNL A   1      43.640  28.939  35.472  1.00  0.00    -0.203 F 
ATOM     72  C   UNL A   1      44.484  26.757  35.564  1.00  0.00     0.198 A 
ATOM     73  C   UNL A   1      44.377  25.327  33.656  1.00  0.00     0.198 A 
ATOM     74  F   UNL A   1      43.587  26.111  31.621  1.00  0.00    -0.203 F 
ATOM     75  F   UNL A   1      44.853  26.981  36.832  1.00  0.00    -0.200 F 
ATOM     76  C   UNL A   1      44.731  25.531  34.975  1.00  0.00     0.200 A 
ATOM     77  F   UNL A   1      44.626  24.145  33.070  1.00  0.00    -0.200 F 
ATOM     78  F   UNL A   1      45.322  24.553  35.674  1.00  0.00    -0.200 F 
ENDBRANCH  54  68
BRANCH  55  79
ATOM     79  C   UNL A   1      44.816  25.197  25.085  1.00  0.00     0.064 A 
ATOM     80  C   UNL A   1      46.029  24.526  24.681  1.00  0.00     0.173 A 
ATOM     81  C   UNL A   1      43.708  24.344  25.111  1.00  0.00     0.173 A 
ATOM     82  F   UNL A   1      47.196  25.183  24.558  1.00  0.00    -0.203 F 
ATOM     83  C   UNL A   1      46.078  23.119  24.398  1.00  0.00     0.198 A 
ATOM     84  C   UNL A   1      43.763  22.964  24.864  1.00  0.00     0.198 A 
ATOM     85  F   UNL A   1      42.522  24.834  25.480  1.00  0.00    -0.203 F 
ATOM     86  F   UNL A   1      47.227  22.509  24.045  1.00  0.00    -0.200 F 
ATOM     87  C   UNL A   1      44.945  22.339  24.529  1.00  0.00     0.200 A 
ATOM     88  F   UNL A   1      42.648  22.239  25.020  1.00  0.00    -0.200 F 
ATOM     89  F   UNL A   1      44.980  21.007  24.361  1.00  0.00    -0.200 F 
ENDBRANCH  55  79
BRANCH  67  90
ATOM     90  C   UNL A   1      45.148  30.909  27.703  1.00  0.00     0.064 A 
ATOM     91  C   UNL A   1      44.219  31.611  26.895  1.00  0.00     0.173 A 
ATOM     92  C   UNL A   1      46.403  31.509  27.808  1.00  0.00     0.173 A 
ATOM     93  F   UNL A   1      42.918  31.314  26.912  1.00  0.00    -0.203 F 
ATOM     94  C   UNL A   1      44.580  32.726  26.118  1.00  0.00     0.198 A 
ATOM     95  C   UNL A   1      46.745  32.658  27.094  1.00  0.00     0.198 A 
ATOM     96  F   UNL A   1      47.284  31.029  28.697  1.00  0.00    -0.203 F 
ATOM     97  F   UNL A   1      43.683  33.317  25.309  1.00  0.00    -0.200 F 
ATOM     98  C   UNL A   1      45.854  33.243  26.214  1.00  0.00     0.200 A 
ATOM     99  F   UNL A   1      47.946  33.214  27.293  1.00  0.00    -0.200 F 
ATOM    100  F   UNL A   1      46.211  34.318  25.498  1.00  0.00    -0.200 F 
ENDBRANCH  67  90
ENDBRANCH  41  42
ENDBRANCH  33  36
ENDBRANCH  31  32
ENDBRANCH  30  31
ENDBRANCH   1  30
TORSDOF 13
ENDMDL
