MODEL 1
REMARK VINA RESULT:     -10.7      0.000      0.000
REMARK SMILES Cn1ccnc1NCCOCC(=O)NCCCNC(=O)c1ccc(-c2c3nc(c(-c4c(F)c(F)c(F)c(F)c4F)c4ccc([nH]4)c(-c4c(F)c(F)c(F)c(F)c4F)c4nc(c(-c5c(F)c(F)c(F)c(F)c5F)c5ccc2[nH]5)C=C4)C=C3)cc1
REMARK SMILES IDX 12 1 13 2 14 3 11 5 10 6 9 7 8 8 7 9 6 11 1 12 2 13 3 14
REMARK SMILES IDX 4 15 5 16 15 17 16 18 17 19 18 20 19 21 20 23 21 24 22 25
REMARK SMILES IDX 83 26 23 27 82 28 24 29 25 30 26 31 76 32 27 33 81 34 75 35
REMARK SMILES IDX 77 36 28 37 80 38 74 39 73 40 29 42 61 43 41 44 60 45 42 46
REMARK SMILES IDX 45 47 59 48 78 49 43 50 44 51 58 53 79 54 46 55 30 56 31 57
REMARK SMILES IDX 39 58 32 59 33 60 37 61 40 62 34 63 35 64 38 65 36 66 62 67
REMARK SMILES IDX 63 68 71 69 64 70 65 71 69 72 72 73 66 74 67 75 70 76 68 77
REMARK SMILES IDX 47 78 48 79 56 80 49 81 50 82 54 83 57 84 51 85 52 86 55 87
REMARK SMILES IDX 53 88
REMARK H PARENT 14 4 7 10 18 22 77 41 45 52
REMARK Flexibility Score: inf
ROOT
ATOM      1  C   UNL A   1      33.482  29.239  26.036  1.00  0.00     0.245 C 
ATOM      2  O   UNL A   1      34.481  28.852  26.644  1.00  0.00    -0.272 OA
ATOM      3  N   UNL A   1      32.650  30.141  26.637  1.00  0.00    -0.354 N 
ATOM      4  H   UNL A   1      32.852  30.356  27.576  1.00  0.00     0.163 HD
ENDROOT
BRANCH   1   5
ATOM      5  C   UNL A   1      33.159  28.761  24.617  1.00  0.00     0.260 C 
BRANCH   5   6
ATOM      6  O   UNL A   1      33.224  27.364  24.379  1.00  0.00    -0.370 OA
BRANCH   6   7
ATOM      7  C   UNL A   1      31.978  26.763  23.985  1.00  0.00     0.182 C 
BRANCH   7   8
ATOM      8  C   UNL A   1      30.745  27.637  24.274  1.00  0.00     0.144 C 
BRANCH   8   9
ATOM      9  N   UNL A   1      29.791  27.603  23.177  1.00  0.00    -0.353 N 
ATOM     10  H   UNL A   1      29.442  26.737  22.863  1.00  0.00     0.163 HD
BRANCH   9  11
ATOM     11  C   UNL A   1      29.379  28.737  22.582  1.00  0.00     0.202 A 
ATOM     12  C   UNL A   1      26.977  28.582  23.370  1.00  0.00     0.153 C 
ATOM     13  N   UNL A   1      28.064  29.141  22.607  1.00  0.00    -0.321 N 
ATOM     14  C   UNL A   1      27.953  30.258  21.819  1.00  0.00     0.109 A 
ATOM     15  C   UNL A   1      29.233  30.520  21.399  1.00  0.00     0.133 A 
ATOM     16  N   UNL A   1      30.109  29.594  21.904  1.00  0.00    -0.222 NA
ENDBRANCH   9  11
ENDBRANCH   8   9
ENDBRANCH   7   8
ENDBRANCH   6   7
ENDBRANCH   5   6
ENDBRANCH   1   5
BRANCH   3  17
ATOM     17  C   UNL A   1      31.505  30.820  26.061  1.00  0.00     0.117 C 
BRANCH  17  18
ATOM     18  C   UNL A   1      31.331  32.240  26.581  1.00  0.00     0.042 C 
BRANCH  18  19
ATOM     19  C   UNL A   1      32.578  32.840  27.225  1.00  0.00     0.118 C 
BRANCH  19  20
ATOM     20  N   UNL A   1      32.392  34.217  27.664  1.00  0.00    -0.352 N 
ATOM     21  C   UNL A   1      33.019  34.946  28.643  1.00  0.00     0.251 C 
ATOM     22  H   UNL A   1      31.695  34.710  27.173  1.00  0.00     0.163 HD
ATOM     23  O   UNL A   1      32.581  36.052  28.944  1.00  0.00    -0.269 OA
BRANCH  21  24
ATOM     24  C   UNL A   1      34.201  34.412  29.356  1.00  0.00     0.039 A 
ATOM     25  C   UNL A   1      34.002  33.744  30.569  1.00  0.00     0.014 A 
ATOM     26  C   UNL A   1      35.496  34.596  28.868  1.00  0.00     0.014 A 
ATOM     27  C   UNL A   1      35.092  33.201  31.253  1.00  0.00     0.010 A 
ATOM     28  C   UNL A   1      36.574  33.989  29.509  1.00  0.00     0.010 A 
ATOM     29  C   UNL A   1      36.383  33.286  30.708  1.00  0.00    -0.014 A 
BRANCH  29  30
ATOM     30  C   UNL A   1      37.541  32.635  31.373  1.00  0.00     0.031 A 
ATOM     31  C   UNL A   1      38.249  31.484  30.717  1.00  0.00     0.074 A 
ATOM     32  C   UNL A   1      37.909  33.038  32.605  1.00  0.00     0.049 A 
ATOM     33  N   UNL A   1      39.231  30.747  31.173  1.00  0.00    -0.248 NA
ATOM     34  C   UNL A   1      37.770  31.090  29.384  1.00  0.00     0.031 C 
ATOM     35  C   UNL A   1      37.263  34.103  33.372  1.00  0.00     0.029 A 
ATOM     36  N   UNL A   1      38.906  32.587  33.433  1.00  0.00    -0.354 N 
ATOM     37  C   UNL A   1      39.478  29.799  30.190  1.00  0.00     0.074 A 
ATOM     38  C   UNL A   1      38.506  30.016  29.140  1.00  0.00     0.031 C 
ATOM     39  C   UNL A   1      37.886  34.232  34.554  1.00  0.00     0.029 A 
ATOM     40  C   UNL A   1      38.952  33.239  34.640  1.00  0.00     0.049 A 
ATOM     41  H   UNL A   1      39.527  31.864  33.186  1.00  0.00     0.167 HD
ATOM     42  C   UNL A   1      40.443  28.848  30.154  1.00  0.00     0.037 A 
ATOM     43  C   UNL A   1      39.758  33.052  35.703  1.00  0.00     0.037 A 
ATOM     44  C   UNL A   1      41.419  28.643  31.193  1.00  0.00     0.049 A 
ATOM     45  C   UNL A   1      40.829  31.999  35.638  1.00  0.00     0.074 A 
ATOM     46  C   UNL A   1      42.471  27.745  31.227  1.00  0.00     0.029 A 
ATOM     47  N   UNL A   1      41.456  29.346  32.389  1.00  0.00    -0.354 N 
ATOM     48  N   UNL A   1      41.099  31.154  34.674  1.00  0.00    -0.248 NA
ATOM     49  C   UNL A   1      41.714  31.883  36.804  1.00  0.00     0.031 C 
ATOM     50  C   UNL A   1      43.121  27.877  32.460  1.00  0.00     0.029 A 
ATOM     51  C   UNL A   1      42.502  28.890  33.175  1.00  0.00     0.049 A 
ATOM     52  H   UNL A   1      40.832  30.065  32.641  1.00  0.00     0.167 HD
ATOM     53  C   UNL A   1      42.191  30.416  35.107  1.00  0.00     0.074 A 
ATOM     54  C   UNL A   1      42.548  30.928  36.414  1.00  0.00     0.031 C 
ATOM     55  C   UNL A   1      42.840  29.404  34.479  1.00  0.00     0.037 A 
BRANCH  42  56
ATOM     56  C   UNL A   1      40.489  27.959  28.944  1.00  0.00     0.064 A 
ATOM     57  C   UNL A   1      41.266  28.286  27.821  1.00  0.00     0.173 A 
ATOM     58  C   UNL A   1      39.757  26.763  28.906  1.00  0.00     0.173 A 
ATOM     59  F   UNL A   1      41.976  29.424  27.801  1.00  0.00    -0.203 F 
ATOM     60  C   UNL A   1      41.278  27.470  26.693  1.00  0.00     0.198 A 
ATOM     61  C   UNL A   1      39.795  25.933  27.789  1.00  0.00     0.198 A 
ATOM     62  F   UNL A   1      39.003  26.398  29.954  1.00  0.00    -0.203 F 
ATOM     63  F   UNL A   1      41.981  27.834  25.613  1.00  0.00    -0.200 F 
ATOM     64  C   UNL A   1      40.547  26.292  26.680  1.00  0.00     0.200 A 
ATOM     65  F   UNL A   1      39.098  24.787  27.781  1.00  0.00    -0.200 F 
ATOM     66  F   UNL A   1      40.558  25.507  25.593  1.00  0.00    -0.200 F 
ENDBRANCH  42  56
BRANCH  43  67
ATOM     67  C   UNL A   1      39.589  33.903  36.907  1.00  0.00     0.064 A 
ATOM     68  C   UNL A   1      40.180  35.172  36.980  1.00  0.00     0.173 A 
ATOM     69  C   UNL A   1      38.812  33.480  37.995  1.00  0.00     0.173 A 
ATOM     70  F   UNL A   1      40.948  35.612  35.972  1.00  0.00    -0.203 F 
ATOM     71  C   UNL A   1      40.009  35.981  38.101  1.00  0.00     0.198 A 
ATOM     72  C   UNL A   1      38.620  34.300  39.104  1.00  0.00     0.198 A 
ATOM     73  F   UNL A   1      38.219  32.278  37.969  1.00  0.00    -0.203 F 
ATOM     74  F   UNL A   1      40.610  37.177  38.160  1.00  0.00    -0.200 F 
ATOM     75  C   UNL A   1      39.222  35.548  39.158  1.00  0.00     0.200 A 
ATOM     76  F   UNL A   1      37.846  33.885  40.116  1.00  0.00    -0.200 F 
ATOM     77  F   UNL A   1      39.047  36.332  40.231  1.00  0.00    -0.200 F 
ENDBRANCH  43  67
BRANCH  55  78
ATOM     78  C   UNL A   1      44.011  28.795  35.192  1.00  0.00     0.064 A 
ATOM     79  C   UNL A   1      45.315  29.283  35.013  1.00  0.00     0.173 A 
ATOM     80  C   UNL A   1      43.824  27.731  36.088  1.00  0.00     0.173 A 
ATOM     81  F   UNL A   1      45.547  30.287  34.156  1.00  0.00    -0.203 F 
ATOM     82  C   UNL A   1      46.390  28.712  35.688  1.00  0.00     0.198 A 
ATOM     83  C   UNL A   1      44.899  27.182  36.782  1.00  0.00     0.198 A 
ATOM     84  F   UNL A   1      42.597  27.231  36.298  1.00  0.00    -0.203 F 
ATOM     85  F   UNL A   1      47.633  29.164  35.468  1.00  0.00    -0.200 F 
ATOM     86  C   UNL A   1      46.181  27.668  36.576  1.00  0.00     0.200 A 
ATOM     87  F   UNL A   1      44.693  26.180  37.648  1.00  0.00    -0.200 F 
ATOM     88  F   UNL A   1      47.218  27.123  37.228  1.00  0.00    -0.200 F 
ENDBRANCH  55  78
ENDBRANCH  29  30
ENDBRANCH  21  24
ENDBRANCH  19  20
ENDBRANCH  18  19
ENDBRANCH  17  18
ENDBRANCH   3  17
TORSDOF 15
ENDMDL
MODEL 2
REMARK VINA RESULT:     -10.7      4.472     10.387
REMARK SMILES Cn1ccnc1NCCOCC(=O)NCCCNC(=O)c1ccc(-c2c3nc(c(-c4c(F)c(F)c(F)c(F)c4F)c4ccc([nH]4)c(-c4c(F)c(F)c(F)c(F)c4F)c4nc(c(-c5c(F)c(F)c(F)c(F)c5F)c5ccc2[nH]5)C=C4)C=C3)cc1
REMARK SMILES IDX 12 1 13 2 14 3 11 5 10 6 9 7 8 8 7 9 6 11 1 12 2 13 3 14
REMARK SMILES IDX 4 15 5 16 15 17 16 18 17 19 18 20 19 21 20 23 21 24 22 25
REMARK SMILES IDX 83 26 23 27 82 28 24 29 25 30 26 31 76 32 27 33 81 34 75 35
REMARK SMILES IDX 77 36 28 37 80 38 74 39 73 40 29 42 61 43 41 44 60 45 42 46
REMARK SMILES IDX 45 47 59 48 78 49 43 50 44 51 58 53 79 54 46 55 30 56 31 57
REMARK SMILES IDX 39 58 32 59 33 60 37 61 40 62 34 63 35 64 38 65 36 66 62 67
REMARK SMILES IDX 63 68 71 69 64 70 65 71 69 72 72 73 66 74 67 75 70 76 68 77
REMARK SMILES IDX 47 78 48 79 56 80 49 81 50 82 54 83 57 84 51 85 52 86 55 87
REMARK SMILES IDX 53 88
REMARK H PARENT 14 4 7 10 18 22 77 41 45 52
REMARK Flexibility Score: inf
ROOT
ATOM      1  C   UNL A   1      33.008  36.585  29.372  1.00  0.00     0.245 C 
ATOM      2  O   UNL A   1      33.278  37.760  29.117  1.00  0.00    -0.272 OA
ATOM      3  N   UNL A   1      33.091  35.656  28.373  1.00  0.00    -0.354 N 
ATOM      4  H   UNL A   1      33.269  36.006  27.472  1.00  0.00     0.163 HD
ENDROOT
BRANCH   1   5
ATOM      5  C   UNL A   1      32.609  36.130  30.780  1.00  0.00     0.260 C 
BRANCH   5   6
ATOM      6  O   UNL A   1      32.537  37.132  31.782  1.00  0.00    -0.370 OA
BRANCH   6   7
ATOM      7  C   UNL A   1      33.769  37.367  32.485  1.00  0.00     0.182 C 
BRANCH   7   8
ATOM      8  C   UNL A   1      34.315  36.130  33.220  1.00  0.00     0.144 C 
BRANCH   8   9
ATOM      9  N   UNL A   1      35.486  35.582  32.555  1.00  0.00    -0.353 N 
ATOM     10  H   UNL A   1      36.197  36.188  32.243  1.00  0.00     0.163 HD
BRANCH   9  11
ATOM     11  C   UNL A   1      35.613  34.257  32.357  1.00  0.00     0.202 A 
ATOM     12  C   UNL A   1      38.028  34.341  31.598  1.00  0.00     0.153 C 
ATOM     13  N   UNL A   1      36.760  33.701  31.840  1.00  0.00    -0.321 N 
ATOM     14  C   UNL A   1      36.530  32.362  31.652  1.00  0.00     0.109 A 
ATOM     15  C   UNL A   1      35.260  32.154  32.130  1.00  0.00     0.133 A 
ATOM     16  N   UNL A   1      34.717  33.324  32.593  1.00  0.00    -0.222 NA
ENDBRANCH   9  11
ENDBRANCH   8   9
ENDBRANCH   7   8
ENDBRANCH   6   7
ENDBRANCH   5   6
ENDBRANCH   1   5
BRANCH   3  17
ATOM     17  C   UNL A   1      32.946  34.217  28.480  1.00  0.00     0.117 C 
BRANCH  17  18
ATOM     18  C   UNL A   1      34.203  33.529  28.995  1.00  0.00     0.042 C 
BRANCH  18  19
ATOM     19  C   UNL A   1      34.878  32.601  27.989  1.00  0.00     0.118 C 
BRANCH  19  20
ATOM     20  N   UNL A   1      34.231  31.300  27.883  1.00  0.00    -0.352 N 
ATOM     21  C   UNL A   1      34.749  30.029  27.897  1.00  0.00     0.251 C 
ATOM     22  H   UNL A   1      33.253  31.339  27.782  1.00  0.00     0.163 HD
ATOM     23  O   UNL A   1      34.020  29.079  27.630  1.00  0.00    -0.269 OA
BRANCH  21  24
ATOM     24  C   UNL A   1      36.176  29.788  28.209  1.00  0.00     0.039 A 
ATOM     25  C   UNL A   1      36.510  29.328  29.488  1.00  0.00     0.014 A 
ATOM     26  C   UNL A   1      37.184  30.045  27.278  1.00  0.00     0.014 A 
ATOM     27  C   UNL A   1      37.844  29.061  29.806  1.00  0.00     0.010 A 
ATOM     28  C   UNL A   1      38.503  29.706  27.569  1.00  0.00     0.010 A 
ATOM     29  C   UNL A   1      38.847  29.211  28.835  1.00  0.00    -0.014 A 
BRANCH  29  30
ATOM     30  C   UNL A   1      40.257  28.844  29.125  1.00  0.00     0.031 A 
ATOM     31  C   UNL A   1      41.170  29.813  29.819  1.00  0.00     0.074 A 
ATOM     32  C   UNL A   1      40.733  27.659  28.696  1.00  0.00     0.049 A 
ATOM     33  N   UNL A   1      42.446  29.698  30.094  1.00  0.00    -0.248 NA
ATOM     34  C   UNL A   1      40.580  31.095  30.231  1.00  0.00     0.031 C 
ATOM     35  C   UNL A   1      39.962  26.656  27.958  1.00  0.00     0.029 A 
ATOM     36  N   UNL A   1      41.983  27.105  28.805  1.00  0.00    -0.354 N 
ATOM     37  C   UNL A   1      42.810  30.892  30.699  1.00  0.00     0.074 A 
ATOM     38  C   UNL A   1      41.637  31.741  30.699  1.00  0.00     0.031 C 
ATOM     39  C   UNL A   1      40.753  25.606  27.691  1.00  0.00     0.029 A 
ATOM     40  C   UNL A   1      42.091  25.873  28.208  1.00  0.00     0.049 A 
ATOM     41  H   UNL A   1      42.732  27.548  29.266  1.00  0.00     0.167 HD
ATOM     42  C   UNL A   1      44.007  31.242  31.230  1.00  0.00     0.037 A 
ATOM     43  C   UNL A   1      43.152  25.053  28.084  1.00  0.00     0.037 A 
ATOM     44  C   UNL A   1      45.169  30.391  31.242  1.00  0.00     0.049 A 
ATOM     45  C   UNL A   1      44.468  25.456  28.690  1.00  0.00     0.074 A 
ATOM     46  C   UNL A   1      46.411  30.630  31.804  1.00  0.00     0.029 A 
ATOM     47  N   UNL A   1      45.231  29.134  30.657  1.00  0.00    -0.354 N 
ATOM     48  N   UNL A   1      44.783  26.558  29.323  1.00  0.00    -0.248 NA
ATOM     49  C   UNL A   1      45.572  24.493  28.573  1.00  0.00     0.031 C 
ATOM     50  C   UNL A   1      47.237  29.535  31.524  1.00  0.00     0.029 A 
ATOM     51  C   UNL A   1      46.496  28.593  30.828  1.00  0.00     0.049 A 
ATOM     52  H   UNL A   1      44.486  28.691  30.190  1.00  0.00     0.167 HD
ATOM     53  C   UNL A   1      46.113  26.420  29.693  1.00  0.00     0.074 A 
ATOM     54  C   UNL A   1      46.540  25.115  29.231  1.00  0.00     0.031 C 
ATOM     55  C   UNL A   1      46.909  27.296  30.356  1.00  0.00     0.037 A 
BRANCH  42  56
ATOM     56  C   UNL A   1      44.114  32.609  31.845  1.00  0.00     0.064 A 
ATOM     57  C   UNL A   1      43.813  32.830  33.198  1.00  0.00     0.173 A 
ATOM     58  C   UNL A   1      44.531  33.708  31.079  1.00  0.00     0.173 A 
ATOM     59  F   UNL A   1      43.398  31.816  33.972  1.00  0.00    -0.203 F 
ATOM     60  C   UNL A   1      43.887  34.106  33.751  1.00  0.00     0.198 A 
ATOM     61  C   UNL A   1      44.635  34.977  31.643  1.00  0.00     0.198 A 
ATOM     62  F   UNL A   1      44.839  33.551  29.783  1.00  0.00    -0.203 F 
ATOM     63  F   UNL A   1      43.537  34.302  35.029  1.00  0.00    -0.200 F 
ATOM     64  C   UNL A   1      44.303  35.177  32.974  1.00  0.00     0.200 A 
ATOM     65  F   UNL A   1      45.049  36.010  30.896  1.00  0.00    -0.200 F 
ATOM     66  F   UNL A   1      44.373  36.405  33.508  1.00  0.00    -0.200 F 
ENDBRANCH  42  56
BRANCH  43  67
ATOM     67  C   UNL A   1      42.996  23.759  27.374  1.00  0.00     0.064 A 
ATOM     68  C   UNL A   1      42.469  22.637  28.028  1.00  0.00     0.173 A 
ATOM     69  C   UNL A   1      43.344  23.624  26.021  1.00  0.00     0.173 A 
ATOM     70  F   UNL A   1      42.141  22.712  29.327  1.00  0.00    -0.203 F 
ATOM     71  C   UNL A   1      42.305  21.426  27.359  1.00  0.00     0.198 A 
ATOM     72  C   UNL A   1      43.155  22.421  25.347  1.00  0.00     0.198 A 
ATOM     73  F   UNL A   1      43.844  24.671  25.350  1.00  0.00    -0.203 F 
ATOM     74  F   UNL A   1      41.829  20.360  28.016  1.00  0.00    -0.200 F 
ATOM     75  C   UNL A   1      42.640  21.321  26.017  1.00  0.00     0.200 A 
ATOM     76  F   UNL A   1      43.464  22.328  24.046  1.00  0.00    -0.200 F 
ATOM     77  F   UNL A   1      42.470  20.160  25.371  1.00  0.00    -0.200 F 
ENDBRANCH  43  67
BRANCH  55  78
ATOM     78  C   UNL A   1      48.319  26.864  30.633  1.00  0.00     0.064 A 
ATOM     79  C   UNL A   1      48.640  26.079  31.751  1.00  0.00     0.173 A 
ATOM     80  C   UNL A   1      49.356  27.213  29.754  1.00  0.00     0.173 A 
ATOM     81  F   UNL A   1      47.687  25.734  32.629  1.00  0.00    -0.203 F 
ATOM     82  C   UNL A   1      49.952  25.680  31.991  1.00  0.00     0.198 A 
ATOM     83  C   UNL A   1      50.661  26.787  29.983  1.00  0.00     0.198 A 
ATOM     84  F   UNL A   1      49.101  27.957  28.668  1.00  0.00    -0.203 F 
ATOM     85  F   UNL A   1      50.243  24.969  33.090  1.00  0.00    -0.200 F 
ATOM     86  C   UNL A   1      50.959  26.028  31.105  1.00  0.00     0.200 A 
ATOM     87  F   UNL A   1      51.633  27.116  29.119  1.00  0.00    -0.200 F 
ATOM     88  F   UNL A   1      52.221  25.638  31.336  1.00  0.00    -0.200 F 
ENDBRANCH  55  78
ENDBRANCH  29  30
ENDBRANCH  21  24
ENDBRANCH  19  20
ENDBRANCH  18  19
ENDBRANCH  17  18
ENDBRANCH   3  17
TORSDOF 15
ENDMDL
MODEL 3
REMARK VINA RESULT:     -10.5      4.290     10.375
REMARK SMILES Cn1ccnc1NCCOCC(=O)NCCCNC(=O)c1ccc(-c2c3nc(c(-c4c(F)c(F)c(F)c(F)c4F)c4ccc([nH]4)c(-c4c(F)c(F)c(F)c(F)c4F)c4nc(c(-c5c(F)c(F)c(F)c(F)c5F)c5ccc2[nH]5)C=C4)C=C3)cc1
REMARK SMILES IDX 12 1 13 2 14 3 11 5 10 6 9 7 8 8 7 9 6 11 1 12 2 13 3 14
REMARK SMILES IDX 4 15 5 16 15 17 16 18 17 19 18 20 19 21 20 23 21 24 22 25
REMARK SMILES IDX 83 26 23 27 82 28 24 29 25 30 26 31 76 32 27 33 81 34 75 35
REMARK SMILES IDX 77 36 28 37 80 38 74 39 73 40 29 42 61 43 41 44 60 45 42 46
REMARK SMILES IDX 45 47 59 48 78 49 43 50 44 51 58 53 79 54 46 55 30 56 31 57
REMARK SMILES IDX 39 58 32 59 33 60 37 61 40 62 34 63 35 64 38 65 36 66 62 67
REMARK SMILES IDX 63 68 71 69 64 70 65 71 69 72 72 73 66 74 67 75 70 76 68 77
REMARK SMILES IDX 47 78 48 79 56 80 49 81 50 82 54 83 57 84 51 85 52 86 55 87
REMARK SMILES IDX 53 88
REMARK H PARENT 14 4 7 10 18 22 77 41 45 52
REMARK Flexibility Score: inf
ROOT
ATOM      1  C   UNL A   1      33.149  36.826  29.387  1.00  0.00     0.245 C 
ATOM      2  O   UNL A   1      33.267  38.031  29.161  1.00  0.00    -0.272 OA
ATOM      3  N   UNL A   1      33.421  35.935  28.387  1.00  0.00    -0.354 N 
ATOM      4  H   UNL A   1      33.603  36.323  27.502  1.00  0.00     0.163 HD
ENDROOT
BRANCH   1   5
ATOM      5  C   UNL A   1      32.734  36.295  30.763  1.00  0.00     0.260 C 
BRANCH   5   6
ATOM      6  O   UNL A   1      32.685  37.234  31.826  1.00  0.00    -0.370 OA
BRANCH   6   7
ATOM      7  C   UNL A   1      33.929  37.418  32.523  1.00  0.00     0.182 C 
BRANCH   7   8
ATOM      8  C   UNL A   1      34.436  36.155  33.240  1.00  0.00     0.144 C 
BRANCH   8   9
ATOM      9  N   UNL A   1      35.537  35.533  32.523  1.00  0.00    -0.353 N 
ATOM     10  H   UNL A   1      35.736  35.814  31.600  1.00  0.00     0.163 HD
BRANCH   9  11
ATOM     11  C   UNL A   1      36.289  34.578  33.101  1.00  0.00     0.202 A 
ATOM     12  C   UNL A   1      34.825  32.635  32.394  1.00  0.00     0.153 C 
ATOM     13  N   UNL A   1      35.914  33.255  33.107  1.00  0.00    -0.321 N 
ATOM     14  C   UNL A   1      36.822  32.565  33.868  1.00  0.00     0.109 A 
ATOM     15  C   UNL A   1      37.753  33.502  34.240  1.00  0.00     0.133 A 
ATOM     16  N   UNL A   1      37.431  34.734  33.732  1.00  0.00    -0.222 NA
ENDBRANCH   9  11
ENDBRANCH   8   9
ENDBRANCH   7   8
ENDBRANCH   6   7
ENDBRANCH   5   6
ENDBRANCH   1   5
BRANCH   3  17
ATOM     17  C   UNL A   1      33.473  34.488  28.472  1.00  0.00     0.117 C 
BRANCH  17  18
ATOM     18  C   UNL A   1      34.823  33.967  28.944  1.00  0.00     0.042 C 
BRANCH  18  19
ATOM     19  C   UNL A   1      35.429  32.878  28.065  1.00  0.00     0.118 C 
BRANCH  19  20
ATOM     20  N   UNL A   1      34.582  31.697  27.947  1.00  0.00    -0.352 N 
ATOM     21  C   UNL A   1      34.891  30.361  27.943  1.00  0.00     0.251 C 
ATOM     22  H   UNL A   1      33.622  31.894  27.854  1.00  0.00     0.163 HD
ATOM     23  O   UNL A   1      34.018  29.542  27.669  1.00  0.00    -0.269 OA
BRANCH  21  24
ATOM     24  C   UNL A   1      36.262  29.891  28.242  1.00  0.00     0.039 A 
ATOM     25  C   UNL A   1      37.229  29.972  27.234  1.00  0.00     0.014 A 
ATOM     26  C   UNL A   1      36.594  29.338  29.480  1.00  0.00     0.014 A 
ATOM     27  C   UNL A   1      38.540  29.565  27.492  1.00  0.00     0.010 A 
ATOM     28  C   UNL A   1      37.917  29.006  29.762  1.00  0.00     0.010 A 
ATOM     29  C   UNL A   1      38.903  29.115  28.771  1.00  0.00    -0.014 A 
BRANCH  29  30
ATOM     30  C   UNL A   1      40.312  28.767  29.091  1.00  0.00     0.031 A 
ATOM     31  C   UNL A   1      41.186  29.736  29.833  1.00  0.00     0.074 A 
ATOM     32  C   UNL A   1      40.823  27.603  28.646  1.00  0.00     0.049 A 
ATOM     33  N   UNL A   1      42.456  29.638  30.141  1.00  0.00    -0.248 NA
ATOM     34  C   UNL A   1      40.560  30.995  30.261  1.00  0.00     0.031 C 
ATOM     35  C   UNL A   1      40.093  26.605  27.863  1.00  0.00     0.029 A 
ATOM     36  N   UNL A   1      42.080  27.070  28.777  1.00  0.00    -0.354 N 
ATOM     37  C   UNL A   1      42.780  30.824  30.786  1.00  0.00     0.074 A 
ATOM     38  C   UNL A   1      41.591  31.649  30.774  1.00  0.00     0.031 C 
ATOM     39  C   UNL A   1      40.911  25.576  27.592  1.00  0.00     0.029 A 
ATOM     40  C   UNL A   1      42.229  25.856  28.153  1.00  0.00     0.049 A 
ATOM     41  H   UNL A   1      42.807  27.516  29.269  1.00  0.00     0.167 HD
ATOM     42  C   UNL A   1      43.955  31.183  31.358  1.00  0.00     0.037 A 
ATOM     43  C   UNL A   1      43.309  25.059  28.039  1.00  0.00     0.037 A 
ATOM     44  C   UNL A   1      45.132  30.354  31.382  1.00  0.00     0.049 A 
ATOM     45  C   UNL A   1      44.599  25.471  28.691  1.00  0.00     0.074 A 
ATOM     46  C   UNL A   1      46.353  30.602  31.985  1.00  0.00     0.029 A 
ATOM     47  N   UNL A   1      45.235  29.113  30.768  1.00  0.00    -0.354 N 
ATOM     48  N   UNL A   1      44.875  26.564  29.359  1.00  0.00    -0.248 NA
ATOM     49  C   UNL A   1      45.725  24.533  28.582  1.00  0.00     0.031 C 
ATOM     50  C   UNL A   1      47.208  29.530  31.701  1.00  0.00     0.029 A 
ATOM     51  C   UNL A   1      46.505  28.592  30.962  1.00  0.00     0.049 A 
ATOM     52  H   UNL A   1      44.512  28.668  30.270  1.00  0.00     0.167 HD
ATOM     53  C   UNL A   1      46.196  26.441  29.764  1.00  0.00     0.074 A 
ATOM     54  C   UNL A   1      46.662  25.157  29.282  1.00  0.00     0.031 C 
ATOM     55  C   UNL A   1      46.957  27.315  30.469  1.00  0.00     0.037 A 
BRANCH  42  56
ATOM     56  C   UNL A   1      44.018  32.535  32.010  1.00  0.00     0.064 A 
ATOM     57  C   UNL A   1      44.519  33.656  31.328  1.00  0.00     0.173 A 
ATOM     58  C   UNL A   1      43.565  32.718  33.324  1.00  0.00     0.173 A 
ATOM     59  F   UNL A   1      44.976  33.533  30.073  1.00  0.00    -0.203 F 
ATOM     60  C   UNL A   1      44.600  34.898  31.951  1.00  0.00     0.198 A 
ATOM     61  C   UNL A   1      43.617  33.969  33.934  1.00  0.00     0.198 A 
ATOM     62  F   UNL A   1      43.070  31.683  34.019  1.00  0.00    -0.203 F 
ATOM     63  F   UNL A   1      45.137  35.939  31.300  1.00  0.00    -0.200 F 
ATOM     64  C   UNL A   1      44.144  35.055  33.252  1.00  0.00     0.200 A 
ATOM     65  F   UNL A   1      43.165  34.122  35.187  1.00  0.00    -0.200 F 
ATOM     66  F   UNL A   1      44.224  36.251  33.851  1.00  0.00    -0.200 F 
ENDBRANCH  42  56
BRANCH  43  67
ATOM     67  C   UNL A   1      43.198  23.781  27.293  1.00  0.00     0.064 A 
ATOM     68  C   UNL A   1      43.593  23.692  25.952  1.00  0.00     0.173 A 
ATOM     69  C   UNL A   1      42.723  22.615  27.913  1.00  0.00     0.173 A 
ATOM     70  F   UNL A   1      44.036  24.784  25.311  1.00  0.00    -0.203 F 
ATOM     71  C   UNL A   1      43.506  22.489  25.255  1.00  0.00     0.198 A 
ATOM     72  C   UNL A   1      42.662  21.408  27.224  1.00  0.00     0.198 A 
ATOM     73  F   UNL A   1      42.341  22.647  29.198  1.00  0.00    -0.203 F 
ATOM     74  F   UNL A   1      43.860  22.439  23.963  1.00  0.00    -0.200 F 
ATOM     75  C   UNL A   1      43.049  21.346  25.893  1.00  0.00     0.200 A 
ATOM     76  F   UNL A   1      42.234  20.302  27.848  1.00  0.00    -0.200 F 
ATOM     77  F   UNL A   1      42.978  20.186  25.226  1.00  0.00    -0.200 F 
ENDBRANCH  43  67
BRANCH  55  78
ATOM     78  C   UNL A   1      48.367  26.903  30.776  1.00  0.00     0.064 A 
ATOM     79  C   UNL A   1      49.438  27.289  29.956  1.00  0.00     0.173 A 
ATOM     80  C   UNL A   1      48.653  26.141  31.918  1.00  0.00     0.173 A 
ATOM     81  F   UNL A   1      49.214  28.005  28.844  1.00  0.00    -0.203 F 
ATOM     82  C   UNL A   1      50.742  26.905  30.257  1.00  0.00     0.198 A 
ATOM     83  C   UNL A   1      49.962  25.784  32.230  1.00  0.00     0.198 A 
ATOM     84  F   UNL A   1      47.665  25.751  32.737  1.00  0.00    -0.203 F 
ATOM     85  F   UNL A   1      51.745  27.246  29.436  1.00  0.00    -0.200 F 
ATOM     86  C   UNL A   1      51.004  26.160  31.396  1.00  0.00     0.200 A 
ATOM     87  F   UNL A   1      50.214  25.072  33.338  1.00  0.00    -0.200 F 
ATOM     88  F   UNL A   1      52.261  25.795  31.686  1.00  0.00    -0.200 F 
ENDBRANCH  55  78
ENDBRANCH  29  30
ENDBRANCH  21  24
ENDBRANCH  19  20
ENDBRANCH  18  19
ENDBRANCH  17  18
ENDBRANCH   3  17
TORSDOF 15
ENDMDL
