MODEL 1
REMARK VINA RESULT:     -12.3      0.000      0.000
REMARK SMILES COC(=O)c1cc(-c2ccc(C(=O)NCCCNC(=O)c3ccc(-c4c5nc(c(-c6c(F)c(F)c(F)c(F)c6F)c6ccc([nH]6)c(-c6c(F)c(F)c(F)c(F)c6F)c6nc(c(-c7c(F)c(F)c(F)c(F)c7F)c7ccc4[nH]7)C=C6)C=C5)cc3)nc2)cs1
REMARK SMILES IDX 15 1 14 2 12 3 13 4 11 6 8 7 9 8 85 9 10 10 84 11 7 12 5 13
REMARK SMILES IDX 6 14 87 15 86 16 3 17 4 18 2 19 1 20 16 21 17 22 18 23 19 24
REMARK SMILES IDX 20 26 21 27 22 28 83 29 23 30 82 31 24 32 25 33 26 34 76 35
REMARK SMILES IDX 27 36 81 37 75 38 77 39 28 40 80 41 74 42 73 43 29 45 61 46
REMARK SMILES IDX 41 47 60 48 42 49 45 50 59 51 78 52 43 53 44 54 58 56 79 57
REMARK SMILES IDX 46 58 30 59 31 60 39 61 32 62 33 63 37 64 40 65 34 66 35 67
REMARK SMILES IDX 38 68 36 69 62 70 63 71 71 72 64 73 65 74 69 75 72 76 66 77
REMARK SMILES IDX 67 78 70 79 68 80 47 81 48 82 56 83 49 84 50 85 54 86 57 87
REMARK SMILES IDX 51 88 52 89 55 90 53 91
REMARK H PARENT 14 5 18 25 77 44 45 55
REMARK Flexibility Score: inf
ROOT
ATOM      1  C   UNL A   1      31.462  30.819  26.336  1.00  0.00     0.118 C 
ENDROOT
BRANCH   1   2
ATOM      2  N   UNL A   1      31.027  30.451  25.003  1.00  0.00    -0.351 N 
ATOM      3  C   UNL A   1      31.080  29.279  24.283  1.00  0.00     0.269 C 
ATOM      4  O   UNL A   1      30.584  29.320  23.155  1.00  0.00    -0.268 OA
ATOM      5  H   UNL A   1      30.605  31.192  24.511  1.00  0.00     0.163 HD
BRANCH   3   6
ATOM      6  C   UNL A   1      31.668  27.991  24.801  1.00  0.00     0.128 A 
ATOM      7  C   UNL A   1      32.903  25.641  25.570  1.00  0.00     0.001 A 
ATOM      8  C   UNL A   1      31.673  25.987  26.121  1.00  0.00     0.013 A 
ATOM      9  C   UNL A   1      33.475  26.523  24.666  1.00  0.00     0.120 A 
ATOM     10  C   UNL A   1      31.065  27.188  25.761  1.00  0.00     0.035 A 
ATOM     11  N   UNL A   1      32.881  27.672  24.266  1.00  0.00    -0.250 NA
BRANCH   7  12
ATOM     12  C   UNL A   1      33.526  24.390  25.946  1.00  0.00    -0.005 A 
ATOM     13  C   UNL A   1      35.070  22.631  25.937  1.00  0.00     0.113 A 
ATOM     14  C   UNL A   1      34.820  23.935  25.549  1.00  0.00     0.036 A 
ATOM     15  S   UNL A   1      33.748  21.983  26.813  1.00  0.00    -0.136 S 
ATOM     16  C   UNL A   1      32.847  23.431  26.668  1.00  0.00     0.074 A 
BRANCH  13  17
ATOM     17  C   UNL A   1      36.239  21.810  25.690  1.00  0.00     0.348 C 
ATOM     18  O   UNL A   1      36.246  20.627  25.379  1.00  0.00    -0.245 OA
BRANCH  17  19
ATOM     19  O   UNL A   1      37.366  22.564  25.866  1.00  0.00    -0.465 OA
ATOM     20  C   UNL A   1      38.590  21.837  25.752  1.00  0.00     0.282 C 
ENDBRANCH  17  19
ENDBRANCH  13  17
ENDBRANCH   7  12
ENDBRANCH   3   6
ENDBRANCH   1   2
BRANCH   1  21
ATOM     21  C   UNL A   1      31.410  32.335  26.525  1.00  0.00     0.042 C 
BRANCH  21  22
ATOM     22  C   UNL A   1      32.636  32.885  27.250  1.00  0.00     0.118 C 
BRANCH  22  23
ATOM     23  N   UNL A   1      32.449  34.275  27.650  1.00  0.00    -0.352 N 
ATOM     24  C   UNL A   1      33.004  34.976  28.689  1.00  0.00     0.251 C 
ATOM     25  H   UNL A   1      31.827  34.789  27.086  1.00  0.00     0.163 HD
ATOM     26  O   UNL A   1      32.528  36.060  29.017  1.00  0.00    -0.269 OA
BRANCH  24  27
ATOM     27  C   UNL A   1      34.167  34.432  29.419  1.00  0.00     0.039 A 
ATOM     28  C   UNL A   1      33.959  33.790  30.642  1.00  0.00     0.014 A 
ATOM     29  C   UNL A   1      35.460  34.585  28.916  1.00  0.00     0.014 A 
ATOM     30  C   UNL A   1      35.045  33.246  31.331  1.00  0.00     0.010 A 
ATOM     31  C   UNL A   1      36.529  33.973  29.560  1.00  0.00     0.010 A 
ATOM     32  C   UNL A   1      36.334  33.302  30.776  1.00  0.00    -0.014 A 
BRANCH  32  33
ATOM     33  C   UNL A   1      37.494  32.664  31.446  1.00  0.00     0.031 A 
ATOM     34  C   UNL A   1      38.193  31.502  30.797  1.00  0.00     0.074 A 
ATOM     35  C   UNL A   1      37.859  33.076  32.676  1.00  0.00     0.049 A 
ATOM     36  N   UNL A   1      39.153  30.745  31.266  1.00  0.00    -0.248 NA
ATOM     37  C   UNL A   1      37.727  31.118  29.455  1.00  0.00     0.031 C 
ATOM     38  C   UNL A   1      37.224  34.160  33.426  1.00  0.00     0.029 A 
ATOM     39  N   UNL A   1      38.841  32.620  33.518  1.00  0.00    -0.354 N 
ATOM     40  C   UNL A   1      39.389  29.787  30.288  1.00  0.00     0.074 A 
ATOM     41  C   UNL A   1      38.436  30.023  29.225  1.00  0.00     0.031 C 
ATOM     42  C   UNL A   1      37.842  34.296  34.609  1.00  0.00     0.029 A 
ATOM     43  C   UNL A   1      38.886  33.282  34.720  1.00  0.00     0.049 A 
ATOM     44  H   UNL A   1      39.456  31.887  33.283  1.00  0.00     0.167 HD
ATOM     45  C   UNL A   1      40.330  28.813  30.271  1.00  0.00     0.037 A 
ATOM     46  C   UNL A   1      39.668  33.082  35.798  1.00  0.00     0.037 A 
ATOM     47  C   UNL A   1      41.289  28.602  31.325  1.00  0.00     0.049 A 
ATOM     48  C   UNL A   1      40.703  31.991  35.756  1.00  0.00     0.074 A 
ATOM     49  C   UNL A   1      42.326  27.688  31.377  1.00  0.00     0.029 A 
ATOM     50  N   UNL A   1      41.320  29.310  32.518  1.00  0.00    -0.354 N 
ATOM     51  N   UNL A   1      40.968  31.139  34.796  1.00  0.00    -0.248 NA
ATOM     52  C   UNL A   1      41.554  31.839  36.944  1.00  0.00     0.031 C 
ATOM     53  C   UNL A   1      42.947  27.803  32.624  1.00  0.00     0.029 A 
ATOM     54  C   UNL A   1      42.341  28.835  33.324  1.00  0.00     0.049 A 
ATOM     55  H   UNL A   1      40.707  30.044  32.755  1.00  0.00     0.167 HD
ATOM     56  C   UNL A   1      42.033  30.371  35.249  1.00  0.00     0.074 A 
ATOM     57  C   UNL A   1      42.373  30.870  36.566  1.00  0.00     0.031 C 
ATOM     58  C   UNL A   1      42.672  29.348  34.630  1.00  0.00     0.037 A 
BRANCH  45  59
ATOM     59  C   UNL A   1      40.365  27.898  29.079  1.00  0.00     0.064 A 
ATOM     60  C   UNL A   1      39.636  26.699  29.045  1.00  0.00     0.173 A 
ATOM     61  C   UNL A   1      41.115  28.239  27.943  1.00  0.00     0.173 A 
ATOM     62  F   UNL A   1      38.910  26.319  30.107  1.00  0.00    -0.203 F 
ATOM     63  C   UNL A   1      39.686  25.859  27.935  1.00  0.00     0.198 A 
ATOM     64  C   UNL A   1      41.134  27.414  26.820  1.00  0.00     0.198 A 
ATOM     65  F   UNL A   1      41.825  29.376  27.917  1.00  0.00    -0.203 F 
ATOM     66  F   UNL A   1      39.029  24.691  27.951  1.00  0.00    -0.200 F 
ATOM     67  C   UNL A   1      40.428  26.221  26.821  1.00  0.00     0.200 A 
ATOM     68  F   UNL A   1      41.839  27.774  25.739  1.00  0.00    -0.200 F 
ATOM     69  F   UNL A   1      40.470  25.416  25.750  1.00  0.00    -0.200 F 
ENDBRANCH  45  59
BRANCH  46  70
ATOM     70  C   UNL A   1      39.513  33.948  36.996  1.00  0.00     0.064 A 
ATOM     71  C   UNL A   1      40.119  35.211  37.056  1.00  0.00     0.173 A 
ATOM     72  C   UNL A   1      38.753  33.538  38.101  1.00  0.00     0.173 A 
ATOM     73  F   UNL A   1      40.871  35.642  36.032  1.00  0.00    -0.203 F 
ATOM     74  C   UNL A   1      39.989  36.020  38.183  1.00  0.00     0.198 A 
ATOM     75  C   UNL A   1      38.597  34.361  39.214  1.00  0.00     0.198 A 
ATOM     76  F   UNL A   1      38.144  32.343  38.092  1.00  0.00    -0.203 F 
ATOM     77  F   UNL A   1      40.618  37.203  38.232  1.00  0.00    -0.200 F 
ATOM     78  C   UNL A   1      39.223  35.598  39.258  1.00  0.00     0.200 A 
ATOM     79  F   UNL A   1      37.840  33.957  40.243  1.00  0.00    -0.200 F 
ATOM     80  F   UNL A   1      39.091  36.380  40.339  1.00  0.00    -0.200 F 
ENDBRANCH  46  70
BRANCH  58  81
ATOM     81  C   UNL A   1      43.836  28.726  35.348  1.00  0.00     0.064 A 
ATOM     82  C   UNL A   1      45.151  29.173  35.154  1.00  0.00     0.173 A 
ATOM     83  C   UNL A   1      43.623  27.698  36.279  1.00  0.00     0.173 A 
ATOM     84  F   UNL A   1      45.411  30.143  34.263  1.00  0.00    -0.203 F 
ATOM     85  C   UNL A   1      46.213  28.595  35.845  1.00  0.00     0.198 A 
ATOM     86  C   UNL A   1      44.681  27.147  36.994  1.00  0.00     0.198 A 
ATOM     87  F   UNL A   1      42.384  27.239  36.509  1.00  0.00    -0.203 F 
ATOM     88  F   UNL A   1      47.466  29.002  35.604  1.00  0.00    -0.200 F 
ATOM     89  C   UNL A   1      45.977  27.589  36.770  1.00  0.00     0.200 A 
ATOM     90  F   UNL A   1      44.450  26.188  37.901  1.00  0.00    -0.200 F 
ATOM     91  F   UNL A   1      46.998  27.042  37.443  1.00  0.00    -0.200 F 
ENDBRANCH  58  81
ENDBRANCH  32  33
ENDBRANCH  24  27
ENDBRANCH  22  23
ENDBRANCH  21  22
ENDBRANCH   1  21
TORSDOF 13
ENDMDL
MODEL 2
REMARK VINA RESULT:     -12.1      4.454     10.311
REMARK SMILES COC(=O)c1cc(-c2ccc(C(=O)NCCCNC(=O)c3ccc(-c4c5nc(c(-c6c(F)c(F)c(F)c(F)c6F)c6ccc([nH]6)c(-c6c(F)c(F)c(F)c(F)c6F)c6nc(c(-c7c(F)c(F)c(F)c(F)c7F)c7ccc4[nH]7)C=C6)C=C5)cc3)nc2)cs1
REMARK SMILES IDX 15 1 14 2 12 3 13 4 11 6 8 7 9 8 85 9 10 10 84 11 7 12 5 13
REMARK SMILES IDX 6 14 87 15 86 16 3 17 4 18 2 19 1 20 16 21 17 22 18 23 19 24
REMARK SMILES IDX 20 26 21 27 22 28 83 29 23 30 82 31 24 32 25 33 26 34 76 35
REMARK SMILES IDX 27 36 81 37 75 38 77 39 28 40 80 41 74 42 73 43 29 45 61 46
REMARK SMILES IDX 41 47 60 48 42 49 45 50 59 51 78 52 43 53 44 54 58 56 79 57
REMARK SMILES IDX 46 58 30 59 31 60 39 61 32 62 33 63 37 64 40 65 34 66 35 67
REMARK SMILES IDX 38 68 36 69 62 70 63 71 71 72 64 73 65 74 69 75 72 76 66 77
REMARK SMILES IDX 67 78 70 79 68 80 47 81 48 82 56 83 49 84 50 85 54 86 57 87
REMARK SMILES IDX 51 88 52 89 55 90 53 91
REMARK H PARENT 14 5 18 25 77 44 45 55
REMARK Flexibility Score: inf
ROOT
ATOM      1  C   UNL A   1      34.020  35.062  28.509  1.00  0.00     0.118 C 
ENDROOT
BRANCH   1   2
ATOM      2  N   UNL A   1      33.073  35.677  29.419  1.00  0.00    -0.351 N 
ATOM      3  C   UNL A   1      33.002  35.763  30.791  1.00  0.00     0.269 C 
ATOM      4  O   UNL A   1      32.044  36.396  31.239  1.00  0.00    -0.268 OA
ATOM      5  H   UNL A   1      32.327  36.126  28.960  1.00  0.00     0.163 HD
BRANCH   3   6
ATOM      6  C   UNL A   1      34.019  35.167  31.731  1.00  0.00     0.128 A 
ATOM      7  C   UNL A   1      35.794  33.858  33.397  1.00  0.00     0.001 A 
ATOM      8  C   UNL A   1      35.629  35.235  33.510  1.00  0.00     0.013 A 
ATOM      9  C   UNL A   1      35.068  33.200  32.417  1.00  0.00     0.120 A 
ATOM     10  C   UNL A   1      34.760  35.902  32.648  1.00  0.00     0.035 A 
ATOM     11  N   UNL A   1      34.184  33.820  31.599  1.00  0.00    -0.250 NA
BRANCH   7  12
ATOM     12  C   UNL A   1      36.695  33.173  34.298  1.00  0.00    -0.005 A 
ATOM     13  C   UNL A   1      38.104  31.492  35.115  1.00  0.00     0.113 A 
ATOM     14  C   UNL A   1      37.463  32.005  34.002  1.00  0.00     0.036 A 
ATOM     15  S   UNL A   1      37.800  32.451  36.501  1.00  0.00    -0.136 S 
ATOM     16  C   UNL A   1      36.814  33.539  35.622  1.00  0.00     0.074 A 
BRANCH  13  17
ATOM     17  C   UNL A   1      38.935  30.309  35.229  1.00  0.00     0.348 C 
ATOM     18  O   UNL A   1      39.440  29.870  36.253  1.00  0.00    -0.245 OA
BRANCH  17  19
ATOM     19  O   UNL A   1      39.084  29.741  33.995  1.00  0.00    -0.465 OA
ATOM     20  C   UNL A   1      40.412  29.307  33.697  1.00  0.00     0.282 C 
ENDBRANCH  17  19
ENDBRANCH  13  17
ENDBRANCH   7  12
ENDBRANCH   3   6
ENDBRANCH   1   2
BRANCH   1  21
ATOM     21  C   UNL A   1      33.489  33.723  27.996  1.00  0.00     0.042 C 
BRANCH  21  22
ATOM     22  C   UNL A   1      34.442  32.563  28.271  1.00  0.00     0.118 C 
BRANCH  22  23
ATOM     23  N   UNL A   1      33.817  31.274  27.998  1.00  0.00    -0.352 N 
ATOM     24  C   UNL A   1      34.384  30.038  27.818  1.00  0.00     0.251 C 
ATOM     25  H   UNL A   1      32.835  31.294  27.932  1.00  0.00     0.163 HD
ATOM     26  O   UNL A   1      33.716  29.123  27.344  1.00  0.00    -0.269 OA
BRANCH  24  27
ATOM     27  C   UNL A   1      35.795  29.805  28.187  1.00  0.00     0.039 A 
ATOM     28  C   UNL A   1      36.097  29.398  29.489  1.00  0.00     0.014 A 
ATOM     29  C   UNL A   1      36.818  30.020  27.262  1.00  0.00     0.014 A 
ATOM     30  C   UNL A   1      37.424  29.147  29.845  1.00  0.00     0.010 A 
ATOM     31  C   UNL A   1      38.129  29.692  27.593  1.00  0.00     0.010 A 
ATOM     32  C   UNL A   1      38.445  29.258  28.889  1.00  0.00    -0.014 A 
BRANCH  32  33
ATOM     33  C   UNL A   1      39.853  28.922  29.216  1.00  0.00     0.031 A 
ATOM     34  C   UNL A   1      40.713  29.912  29.950  1.00  0.00     0.074 A 
ATOM     35  C   UNL A   1      40.378  27.762  28.775  1.00  0.00     0.049 A 
ATOM     36  N   UNL A   1      41.989  29.851  30.235  1.00  0.00    -0.248 NA
ATOM     37  C   UNL A   1      40.058  31.154  30.392  1.00  0.00     0.031 C 
ATOM     38  C   UNL A   1      39.655  26.745  28.010  1.00  0.00     0.029 A 
ATOM     39  N   UNL A   1      41.646  27.252  28.891  1.00  0.00    -0.354 N 
ATOM     40  C   UNL A   1      42.292  31.050  30.870  1.00  0.00     0.074 A 
ATOM     41  C   UNL A   1      41.081  31.842  30.877  1.00  0.00     0.031 C 
ATOM     42  C   UNL A   1      40.485  25.726  27.740  1.00  0.00     0.029 A 
ATOM     43  C   UNL A   1      41.808  26.037  28.272  1.00  0.00     0.049 A 
ATOM     44  H   UNL A   1      42.371  27.712  29.372  1.00  0.00     0.167 HD
ATOM     45  C   UNL A   1      43.468  31.443  31.413  1.00  0.00     0.037 A 
ATOM     46  C   UNL A   1      42.905  25.267  28.133  1.00  0.00     0.037 A 
ATOM     47  C   UNL A   1      44.661  30.637  31.419  1.00  0.00     0.049 A 
ATOM     48  C   UNL A   1      44.201  25.729  28.743  1.00  0.00     0.074 A 
ATOM     49  C   UNL A   1      45.886  30.912  32.002  1.00  0.00     0.029 A 
ATOM     50  N   UNL A   1      44.781  29.399  30.804  1.00  0.00    -0.354 N 
ATOM     51  N   UNL A   1      44.458  26.831  29.405  1.00  0.00    -0.248 NA
ATOM     52  C   UNL A   1      45.358  24.836  28.593  1.00  0.00     0.031 C 
ATOM     53  C   UNL A   1      46.762  29.869  31.689  1.00  0.00     0.029 A 
ATOM     54  C   UNL A   1      46.066  28.910  30.970  1.00  0.00     0.049 A 
ATOM     55  H   UNL A   1      44.057  28.935  30.322  1.00  0.00     0.167 HD
ATOM     56  C   UNL A   1      45.794  26.750  29.778  1.00  0.00     0.074 A 
ATOM     57  C   UNL A   1      46.288  25.484  29.278  1.00  0.00     0.031 C 
ATOM     58  C   UNL A   1      46.541  27.643  30.472  1.00  0.00     0.037 A 
BRANCH  45  59
ATOM     59  C   UNL A   1      43.524  32.807  32.041  1.00  0.00     0.064 A 
ATOM     60  C   UNL A   1      43.301  33.002  33.413  1.00  0.00     0.173 A 
ATOM     61  C   UNL A   1      43.834  33.935  31.264  1.00  0.00     0.173 A 
ATOM     62  F   UNL A   1      42.992  31.961  34.201  1.00  0.00    -0.203 F 
ATOM     63  C   UNL A   1      43.350  34.275  33.976  1.00  0.00     0.198 A 
ATOM     64  C   UNL A   1      43.918  35.202  31.837  1.00  0.00     0.198 A 
ATOM     65  F   UNL A   1      44.063  33.808  29.948  1.00  0.00    -0.203 F 
ATOM     66  F   UNL A   1      43.074  34.441  35.277  1.00  0.00    -0.200 F 
ATOM     67  C   UNL A   1      43.666  35.372  33.190  1.00  0.00     0.200 A 
ATOM     68  F   UNL A   1      44.238  36.258  31.078  1.00  0.00    -0.200 F 
ATOM     69  F   UNL A   1      43.719  36.596  33.733  1.00  0.00    -0.200 F 
ENDBRANCH  45  59
BRANCH  46  70
ATOM     70  C   UNL A   1      42.816  23.976  27.403  1.00  0.00     0.064 A 
ATOM     71  C   UNL A   1      42.350  22.818  28.041  1.00  0.00     0.173 A 
ATOM     72  C   UNL A   1      43.187  23.872  26.054  1.00  0.00     0.173 A 
ATOM     73  F   UNL A   1      42.000  22.862  29.335  1.00  0.00    -0.203 F 
ATOM     74  C   UNL A   1      42.280  21.602  27.365  1.00  0.00     0.198 A 
ATOM     75  C   UNL A   1      43.085  22.663  25.370  1.00  0.00     0.198 A 
ATOM     76  F   UNL A   1      43.630  24.952  25.393  1.00  0.00    -0.203 F 
ATOM     77  F   UNL A   1      41.874  20.500  28.013  1.00  0.00    -0.200 F 
ATOM     78  C   UNL A   1      42.640  21.526  26.029  1.00  0.00     0.200 A 
ATOM     79  F   UNL A   1      43.416  22.598  24.073  1.00  0.00    -0.200 F 
ATOM     80  F   UNL A   1      42.564  20.358  25.376  1.00  0.00    -0.200 F 
ENDBRANCH  46  70
BRANCH  58  81
ATOM     81  C   UNL A   1      47.963  27.265  30.774  1.00  0.00     0.064 A 
ATOM     82  C   UNL A   1      48.294  26.429  31.850  1.00  0.00     0.173 A 
ATOM     83  C   UNL A   1      49.004  27.710  29.945  1.00  0.00     0.173 A 
ATOM     84  F   UNL A   1      47.339  25.988  32.683  1.00  0.00    -0.203 F 
ATOM     85  C   UNL A   1      49.619  26.075  32.100  1.00  0.00     0.198 A 
ATOM     86  C   UNL A   1      50.321  27.326  30.176  1.00  0.00     0.198 A 
ATOM     87  F   UNL A   1      48.741  28.506  28.897  1.00  0.00    -0.203 F 
ATOM     88  F   UNL A   1      49.917  25.318  33.165  1.00  0.00    -0.200 F 
ATOM     89  C   UNL A   1      50.628  26.516  31.259  1.00  0.00     0.200 A 
ATOM     90  F   UNL A   1      51.293  27.739  29.352  1.00  0.00    -0.200 F 
ATOM     91  F   UNL A   1      51.900  26.165  31.494  1.00  0.00    -0.200 F 
ENDBRANCH  58  81
ENDBRANCH  32  33
ENDBRANCH  24  27
ENDBRANCH  22  23
ENDBRANCH  21  22
ENDBRANCH   1  21
TORSDOF 13
ENDMDL
MODEL 3
REMARK VINA RESULT:     -12.1      0.452      2.062
REMARK SMILES COC(=O)c1cc(-c2ccc(C(=O)NCCCNC(=O)c3ccc(-c4c5nc(c(-c6c(F)c(F)c(F)c(F)c6F)c6ccc([nH]6)c(-c6c(F)c(F)c(F)c(F)c6F)c6nc(c(-c7c(F)c(F)c(F)c(F)c7F)c7ccc4[nH]7)C=C6)C=C5)cc3)nc2)cs1
REMARK SMILES IDX 15 1 14 2 12 3 13 4 11 6 8 7 9 8 85 9 10 10 84 11 7 12 5 13
REMARK SMILES IDX 6 14 87 15 86 16 3 17 4 18 2 19 1 20 16 21 17 22 18 23 19 24
REMARK SMILES IDX 20 26 21 27 22 28 83 29 23 30 82 31 24 32 25 33 26 34 76 35
REMARK SMILES IDX 27 36 81 37 75 38 77 39 28 40 80 41 74 42 73 43 29 45 61 46
REMARK SMILES IDX 41 47 60 48 42 49 45 50 59 51 78 52 43 53 44 54 58 56 79 57
REMARK SMILES IDX 46 58 30 59 31 60 39 61 32 62 33 63 37 64 40 65 34 66 35 67
REMARK SMILES IDX 38 68 36 69 62 70 63 71 71 72 64 73 65 74 69 75 72 76 66 77
REMARK SMILES IDX 67 78 70 79 68 80 47 81 48 82 56 83 49 84 50 85 54 86 57 87
REMARK SMILES IDX 51 88 52 89 55 90 53 91
REMARK H PARENT 14 5 18 25 77 44 45 55
REMARK Flexibility Score: inf
ROOT
ATOM      1  C   UNL A   1      31.560  30.778  26.252  1.00  0.00     0.118 C 
ENDROOT
BRANCH   1   2
ATOM      2  N   UNL A   1      31.015  30.444  24.951  1.00  0.00    -0.351 N 
ATOM      3  C   UNL A   1      31.050  29.307  24.176  1.00  0.00     0.269 C 
ATOM      4  O   UNL A   1      30.446  29.370  23.103  1.00  0.00    -0.268 OA
ATOM      5  H   UNL A   1      30.515  31.184  24.535  1.00  0.00     0.163 HD
BRANCH   3   6
ATOM      6  C   UNL A   1      31.742  28.029  24.577  1.00  0.00     0.128 A 
ATOM      7  C   UNL A   1      32.802  25.616  25.410  1.00  0.00     0.001 A 
ATOM      8  C   UNL A   1      33.652  26.634  24.987  1.00  0.00     0.013 A 
ATOM      9  C   UNL A   1      31.438  25.855  25.365  1.00  0.00     0.120 A 
ATOM     10  C   UNL A   1      33.118  27.839  24.534  1.00  0.00     0.035 A 
ATOM     11  N   UNL A   1      30.898  27.034  24.973  1.00  0.00    -0.250 NA
BRANCH   7  12
ATOM     12  C   UNL A   1      33.365  24.370  25.882  1.00  0.00    -0.005 A 
ATOM     13  C   UNL A   1      34.609  22.387  25.852  1.00  0.00     0.113 A 
ATOM     14  C   UNL A   1      34.399  23.614  25.249  1.00  0.00     0.036 A 
ATOM     15  S   UNL A   1      33.578  22.178  27.204  1.00  0.00    -0.136 S 
ATOM     16  C   UNL A   1      32.852  23.711  26.980  1.00  0.00     0.074 A 
BRANCH  13  17
ATOM     17  C   UNL A   1      35.532  21.331  25.484  1.00  0.00     0.348 C 
ATOM     18  O   UNL A   1      35.257  20.296  24.893  1.00  0.00    -0.245 OA
BRANCH  17  19
ATOM     19  O   UNL A   1      36.789  21.663  25.907  1.00  0.00    -0.465 OA
ATOM     20  C   UNL A   1      37.844  21.162  25.084  1.00  0.00     0.282 C 
ENDBRANCH  17  19
ENDBRANCH  13  17
ENDBRANCH   7  12
ENDBRANCH   3   6
ENDBRANCH   1   2
BRANCH   1  21
ATOM     21  C   UNL A   1      31.441  32.278  26.523  1.00  0.00     0.042 C 
BRANCH  21  22
ATOM     22  C   UNL A   1      32.679  32.858  27.202  1.00  0.00     0.118 C 
BRANCH  22  23
ATOM     23  N   UNL A   1      32.470  34.240  27.617  1.00  0.00    -0.352 N 
ATOM     24  C   UNL A   1      33.023  34.943  28.657  1.00  0.00     0.251 C 
ATOM     25  H   UNL A   1      31.833  34.747  27.064  1.00  0.00     0.163 HD
ATOM     26  O   UNL A   1      32.530  36.014  28.999  1.00  0.00    -0.269 OA
BRANCH  24  27
ATOM     27  C   UNL A   1      34.203  34.414  29.370  1.00  0.00     0.039 A 
ATOM     28  C   UNL A   1      34.023  33.777  30.600  1.00  0.00     0.014 A 
ATOM     29  C   UNL A   1      35.486  34.578  28.843  1.00  0.00     0.014 A 
ATOM     30  C   UNL A   1      35.126  33.248  31.273  1.00  0.00     0.010 A 
ATOM     31  C   UNL A   1      36.572  33.980  29.472  1.00  0.00     0.010 A 
ATOM     32  C   UNL A   1      36.405  33.314  30.696  1.00  0.00    -0.014 A 
BRANCH  32  33
ATOM     33  C   UNL A   1      37.583  32.692  31.349  1.00  0.00     0.031 A 
ATOM     34  C   UNL A   1      38.300  31.552  30.681  1.00  0.00     0.074 A 
ATOM     35  C   UNL A   1      37.949  33.096  32.581  1.00  0.00     0.049 A 
ATOM     36  N   UNL A   1      39.278  30.809  31.133  1.00  0.00    -0.248 NA
ATOM     37  C   UNL A   1      37.831  31.175  29.338  1.00  0.00     0.031 C 
ATOM     38  C   UNL A   1      37.298  34.159  33.349  1.00  0.00     0.029 A 
ATOM     39  N   UNL A   1      38.946  32.650  33.410  1.00  0.00    -0.354 N 
ATOM     40  C   UNL A   1      39.526  29.868  30.142  1.00  0.00     0.074 A 
ATOM     41  C   UNL A   1      38.560  30.096  29.090  1.00  0.00     0.031 C 
ATOM     42  C   UNL A   1      37.923  34.293  34.529  1.00  0.00     0.029 A 
ATOM     43  C   UNL A   1      38.987  33.299  34.620  1.00  0.00     0.049 A 
ATOM     44  H   UNL A   1      39.574  31.933  33.162  1.00  0.00     0.167 HD
ATOM     45  C   UNL A   1      40.486  28.913  30.107  1.00  0.00     0.037 A 
ATOM     46  C   UNL A   1      39.782  33.102  35.689  1.00  0.00     0.037 A 
ATOM     47  C   UNL A   1      41.457  28.708  31.151  1.00  0.00     0.049 A 
ATOM     48  C   UNL A   1      40.838  32.033  35.626  1.00  0.00     0.074 A 
ATOM     49  C   UNL A   1      42.513  27.815  31.184  1.00  0.00     0.029 A 
ATOM     50  N   UNL A   1      41.483  29.403  32.351  1.00  0.00    -0.354 N 
ATOM     51  N   UNL A   1      41.112  31.197  34.654  1.00  0.00    -0.248 NA
ATOM     52  C   UNL A   1      41.701  31.884  36.806  1.00  0.00     0.031 C 
ATOM     53  C   UNL A   1      43.141  27.928  32.427  1.00  0.00     0.029 A 
ATOM     54  C   UNL A   1      42.520  28.939  33.144  1.00  0.00     0.049 A 
ATOM     55  H   UNL A   1      40.857  30.121  32.602  1.00  0.00     0.167 HD
ATOM     56  C   UNL A   1      42.196  30.446  35.090  1.00  0.00     0.074 A 
ATOM     57  C   UNL A   1      42.536  30.936  36.410  1.00  0.00     0.031 C 
ATOM     58  C   UNL A   1      42.851  29.443  34.454  1.00  0.00     0.037 A 
BRANCH  45  59
ATOM     59  C   UNL A   1      40.530  28.013  28.904  1.00  0.00     0.064 A 
ATOM     60  C   UNL A   1      41.318  28.314  27.782  1.00  0.00     0.173 A 
ATOM     61  C   UNL A   1      39.795  26.818  28.883  1.00  0.00     0.173 A 
ATOM     62  F   UNL A   1      42.033  29.448  27.743  1.00  0.00    -0.203 F 
ATOM     63  C   UNL A   1      41.340  27.471  26.672  1.00  0.00     0.198 A 
ATOM     64  C   UNL A   1      39.848  25.960  27.787  1.00  0.00     0.198 A 
ATOM     65  F   UNL A   1      39.029  26.475  29.931  1.00  0.00    -0.203 F 
ATOM     66  F   UNL A   1      42.054  27.812  25.590  1.00  0.00    -0.200 F 
ATOM     67  C   UNL A   1      40.612  26.292  26.679  1.00  0.00     0.200 A 
ATOM     68  F   UNL A   1      39.155  24.813  27.803  1.00  0.00    -0.200 F 
ATOM     69  F   UNL A   1      40.639  25.479  25.614  1.00  0.00    -0.200 F 
ENDBRANCH  45  59
BRANCH  46  70
ATOM     70  C   UNL A   1      39.619  33.951  36.899  1.00  0.00     0.064 A 
ATOM     71  C   UNL A   1      38.844  33.518  37.984  1.00  0.00     0.173 A 
ATOM     72  C   UNL A   1      40.237  35.206  37.000  1.00  0.00     0.173 A 
ATOM     73  F   UNL A   1      38.218  32.333  37.929  1.00  0.00    -0.203 F 
ATOM     74  C   UNL A   1      38.676  34.317  39.113  1.00  0.00     0.198 A 
ATOM     75  C   UNL A   1      40.095  35.990  38.142  1.00  0.00     0.198 A 
ATOM     76  F   UNL A   1      40.998  35.664  35.994  1.00  0.00    -0.203 F 
ATOM     77  F   UNL A   1      37.892  33.898  40.116  1.00  0.00    -0.200 F 
ATOM     78  C   UNL A   1      39.307  35.548  39.195  1.00  0.00     0.200 A 
ATOM     79  F   UNL A   1      40.722  37.171  38.225  1.00  0.00    -0.200 F 
ATOM     80  F   UNL A   1      39.151  36.313  40.285  1.00  0.00    -0.200 F 
ENDBRANCH  46  70
BRANCH  58  81
ATOM     81  C   UNL A   1      44.032  28.836  35.155  1.00  0.00     0.064 A 
ATOM     82  C   UNL A   1      43.898  27.734  36.013  1.00  0.00     0.173 A 
ATOM     83  C   UNL A   1      45.323  29.338  34.928  1.00  0.00     0.173 A 
ATOM     84  F   UNL A   1      42.684  27.226  36.276  1.00  0.00    -0.203 F 
ATOM     85  C   UNL A   1      45.011  27.175  36.638  1.00  0.00     0.198 A 
ATOM     86  C   UNL A   1      46.435  28.755  35.525  1.00  0.00     0.198 A 
ATOM     87  F   UNL A   1      45.507  30.386  34.111  1.00  0.00    -0.203 F 
ATOM     88  F   UNL A   1      44.852  26.156  37.493  1.00  0.00    -0.200 F 
ATOM     89  C   UNL A   1      46.277  27.679  36.387  1.00  0.00     0.200 A 
ATOM     90  F   UNL A   1      47.661  29.232  35.269  1.00  0.00    -0.200 F 
ATOM     91  F   UNL A   1      47.347  27.132  36.980  1.00  0.00    -0.200 F 
ENDBRANCH  58  81
ENDBRANCH  32  33
ENDBRANCH  24  27
ENDBRANCH  22  23
ENDBRANCH  21  22
ENDBRANCH   1  21
TORSDOF 13
ENDMDL
