MODEL 1
REMARK VINA RESULT:     -12.3      0.000      0.000
REMARK SMILES C[C@@H]1CCCN(C(=O)NC2(CC(=O)NCCCNC(=O)c3ccc(-c4c5nc(c(-c6c(F)c(F)c(F)c(F)c6F)c6ccc([nH]6)c(-c6c(F)c(F)c(F)c(F)c6F)c6nc(c(-c7c(F)c(F)c(F)c(F)c7F)c7ccc4[nH]7)C=C6)C=C5)cc3)CCC2)[C@@H]1C
REMARK SMILES IDX 15 1 14 2 12 3 13 4 11 6 10 7 84 8 86 9 85 10 9 11 7 12 8 13
REMARK SMILES IDX 6 15 1 16 2 17 3 18 87 19 4 20 88 21 5 22 16 23 17 24 18 25
REMARK SMILES IDX 19 26 20 28 21 29 22 30 83 31 23 32 82 33 24 34 25 35 26 36
REMARK SMILES IDX 76 37 27 38 81 39 75 40 77 41 28 42 80 43 74 44 73 45 29 47
REMARK SMILES IDX 61 48 41 49 60 50 42 51 45 52 59 53 78 54 43 55 44 56 58 58
REMARK SMILES IDX 79 59 46 60 30 61 31 62 39 63 32 64 33 65 37 66 40 67 34 68
REMARK SMILES IDX 35 69 38 70 36 71 62 72 63 73 71 74 64 75 65 76 69 77 72 78
REMARK SMILES IDX 66 79 67 80 70 81 68 82 47 83 48 84 56 85 49 86 50 87 54 88
REMARK SMILES IDX 57 89 51 90 52 91 55 92 53 93
REMARK H PARENT 14 5 9 14 18 27 77 46 45 57
REMARK Flexibility Score: inf
ROOT
ATOM      1  C   UNL A   1      31.403  30.798  26.339  1.00  0.00     0.117 C 
ENDROOT
BRANCH   1   2
ATOM      2  N   UNL A   1      32.428  30.414  25.390  1.00  0.00    -0.356 N 
ATOM      3  C   UNL A   1      32.606  29.216  24.774  1.00  0.00     0.222 C 
ATOM      4  O   UNL A   1      33.705  28.970  24.275  1.00  0.00    -0.275 OA
ATOM      5  H   UNL A   1      33.082  31.113  25.160  1.00  0.00     0.163 HD
BRANCH   3   6
ATOM      6  C   UNL A   1      31.478  28.221  24.678  1.00  0.00     0.128 C 
BRANCH   6   7
ATOM      7  C   UNL A   1      31.031  27.777  23.256  1.00  0.00     0.051 C 
ATOM      8  C   UNL A   1      30.539  29.068  22.556  1.00  0.00     0.029 C 
ATOM      9  C   UNL A   1      29.585  27.227  23.130  1.00  0.00     0.029 C 
ATOM     10  C   UNL A   1      29.094  28.669  22.919  1.00  0.00     0.005 C 
BRANCH   7  11
ATOM     11  N   UNL A   1      32.093  26.931  22.672  1.00  0.00    -0.332 N 
ATOM     12  C   UNL A   1      32.725  25.745  22.692  1.00  0.00     0.318 C 
ATOM     13  O   UNL A   1      33.653  25.721  21.873  1.00  0.00    -0.249 OA
ATOM     14  H   UNL A   1      32.520  27.465  21.963  1.00  0.00     0.165 HD
BRANCH  12  15
ATOM     15  N   UNL A   1      32.435  24.666  23.464  1.00  0.00    -0.322 N 
ATOM     16  C   UNL A   1      35.318  23.512  23.471  1.00  0.00     0.010 C 
ATOM     17  C   UNL A   1      34.171  23.163  24.429  1.00  0.00     0.008 C 
ATOM     18  C   UNL A   1      33.358  21.958  23.912  1.00  0.00     0.007 C 
ATOM     19  C   UNL A   1      33.220  24.364  24.698  1.00  0.00     0.086 C 
ATOM     20  C   UNL A   1      32.427  22.336  22.762  1.00  0.00     0.022 C 
ATOM     21  C   UNL A   1      33.929  25.505  25.435  1.00  0.00     0.031 C 
ATOM     22  C   UNL A   1      31.571  23.550  23.126  1.00  0.00     0.121 C 
ENDBRANCH  12  15
ENDBRANCH   7  11
ENDBRANCH   6   7
ENDBRANCH   3   6
ENDBRANCH   1   2
BRANCH   1  23
ATOM     23  C   UNL A   1      31.403  32.313  26.524  1.00  0.00     0.042 C 
BRANCH  23  24
ATOM     24  C   UNL A   1      32.688  32.843  27.139  1.00  0.00     0.118 C 
BRANCH  24  25
ATOM     25  N   UNL A   1      32.527  34.203  27.626  1.00  0.00    -0.352 N 
ATOM     26  C   UNL A   1      33.066  34.825  28.724  1.00  0.00     0.251 C 
ATOM     27  H   UNL A   1      31.935  34.769  27.080  1.00  0.00     0.163 HD
ATOM     28  O   UNL A   1      32.584  35.889  29.103  1.00  0.00    -0.269 OA
BRANCH  26  29
ATOM     29  C   UNL A   1      34.211  34.239  29.460  1.00  0.00     0.039 A 
ATOM     30  C   UNL A   1      35.506  34.490  28.993  1.00  0.00     0.014 A 
ATOM     31  C   UNL A   1      34.028  33.384  30.549  1.00  0.00     0.014 A 
ATOM     32  C   UNL A   1      36.607  33.917  29.635  1.00  0.00     0.010 A 
ATOM     33  C   UNL A   1      35.127  32.893  31.248  1.00  0.00     0.010 A 
ATOM     34  C   UNL A   1      36.428  33.130  30.784  1.00  0.00    -0.014 A 
BRANCH  34  35
ATOM     35  C   UNL A   1      37.579  32.506  31.483  1.00  0.00     0.031 A 
ATOM     36  C   UNL A   1      38.304  31.347  30.852  1.00  0.00     0.074 A 
ATOM     37  C   UNL A   1      37.931  32.931  32.710  1.00  0.00     0.049 A 
ATOM     38  N   UNL A   1      39.270  30.609  31.337  1.00  0.00    -0.248 NA
ATOM     39  C   UNL A   1      37.859  30.944  29.509  1.00  0.00     0.031 C 
ATOM     40  C   UNL A   1      37.272  34.007  33.452  1.00  0.00     0.029 A 
ATOM     41  N   UNL A   1      38.918  32.497  33.557  1.00  0.00    -0.354 N 
ATOM     42  C   UNL A   1      39.529  29.644  30.371  1.00  0.00     0.074 A 
ATOM     43  C   UNL A   1      38.581  29.854  29.299  1.00  0.00     0.031 C 
ATOM     44  C   UNL A   1      37.880  34.156  34.639  1.00  0.00     0.029 A 
ATOM     45  C   UNL A   1      38.949  33.168  34.755  1.00  0.00     0.049 A 
ATOM     46  H   UNL A   1      39.546  31.774  33.329  1.00  0.00     0.167 HD
ATOM     47  C   UNL A   1      40.485  28.685  30.366  1.00  0.00     0.037 A 
ATOM     48  C   UNL A   1      39.742  32.999  35.829  1.00  0.00     0.037 A 
ATOM     49  C   UNL A   1      41.448  28.498  31.420  1.00  0.00     0.049 A 
ATOM     50  C   UNL A   1      40.815  31.947  35.793  1.00  0.00     0.074 A 
ATOM     51  C   UNL A   1      42.500  27.602  31.483  1.00  0.00     0.029 A 
ATOM     52  N   UNL A   1      41.474  29.228  32.600  1.00  0.00    -0.354 N 
ATOM     53  N   UNL A   1      41.093  31.084  34.848  1.00  0.00    -0.248 NA
ATOM     54  C   UNL A   1      41.691  31.854  36.969  1.00  0.00     0.031 C 
ATOM     55  C   UNL A   1      43.139  27.763  32.716  1.00  0.00     0.029 A 
ATOM     56  C   UNL A   1      42.514  28.790  33.404  1.00  0.00     0.049 A 
ATOM     57  H   UNL A   1      40.846  29.951  32.831  1.00  0.00     0.167 HD
ATOM     58  C   UNL A   1      42.183  30.355  35.303  1.00  0.00     0.074 A 
ATOM     59  C   UNL A   1      42.528  30.892  36.604  1.00  0.00     0.031 C 
ATOM     60  C   UNL A   1      42.839  29.334  34.699  1.00  0.00     0.037 A 
BRANCH  47  61
ATOM     61  C   UNL A   1      40.534  27.768  29.177  1.00  0.00     0.064 A 
ATOM     62  C   UNL A   1      41.384  28.020  28.088  1.00  0.00     0.173 A 
ATOM     63  C   UNL A   1      39.727  26.622  29.126  1.00  0.00     0.173 A 
ATOM     64  F   UNL A   1      42.168  29.109  28.081  1.00  0.00    -0.203 F 
ATOM     65  C   UNL A   1      41.391  27.184  26.975  1.00  0.00     0.198 A 
ATOM     66  C   UNL A   1      39.761  25.771  28.024  1.00  0.00     0.198 A 
ATOM     67  F   UNL A   1      38.903  26.329  30.143  1.00  0.00    -0.203 F 
ATOM     68  F   UNL A   1      42.163  27.483  25.921  1.00  0.00    -0.200 F 
ATOM     69  C   UNL A   1      40.583  26.058  26.945  1.00  0.00     0.200 A 
ATOM     70  F   UNL A   1      38.988  24.675  28.003  1.00  0.00    -0.200 F 
ATOM     71  F   UNL A   1      40.589  25.255  25.873  1.00  0.00    -0.200 F 
ENDBRANCH  47  61
BRANCH  48  72
ATOM     72  C   UNL A   1      39.559  33.872  37.015  1.00  0.00     0.064 A 
ATOM     73  C   UNL A   1      40.134  35.149  37.065  1.00  0.00     0.173 A 
ATOM     74  C   UNL A   1      38.774  33.465  38.105  1.00  0.00     0.173 A 
ATOM     75  F   UNL A   1      40.906  35.575  36.054  1.00  0.00    -0.203 F 
ATOM     76  C   UNL A   1      39.940  35.983  38.164  1.00  0.00     0.198 A 
ATOM     77  C   UNL A   1      38.561  34.309  39.192  1.00  0.00     0.198 A 
ATOM     78  F   UNL A   1      38.196  32.255  38.100  1.00  0.00    -0.203 F 
ATOM     79  F   UNL A   1      40.524  37.188  38.200  1.00  0.00    -0.200 F 
ATOM     80  C   UNL A   1      39.147  35.566  39.222  1.00  0.00     0.200 A 
ATOM     81  F   UNL A   1      37.781  33.908  40.205  1.00  0.00    -0.200 F 
ATOM     82  F   UNL A   1      38.948  36.374  40.272  1.00  0.00    -0.200 F 
ENDBRANCH  48  72
BRANCH  60  83
ATOM     83  C   UNL A   1      44.007  28.741  35.431  1.00  0.00     0.064 A 
ATOM     84  C   UNL A   1      43.846  27.668  36.319  1.00  0.00     0.173 A 
ATOM     85  C   UNL A   1      45.304  29.224  35.209  1.00  0.00     0.173 A 
ATOM     86  F   UNL A   1      42.623  27.181  36.576  1.00  0.00    -0.203 F 
ATOM     87  C   UNL A   1      44.942  27.114  36.975  1.00  0.00     0.198 A 
ATOM     88  C   UNL A   1      46.401  28.652  35.846  1.00  0.00     0.198 A 
ATOM     89  F   UNL A   1      45.511  30.247  34.364  1.00  0.00    -0.203 F 
ATOM     90  F   UNL A   1      44.761  26.117  37.852  1.00  0.00    -0.200 F 
ATOM     91  C   UNL A   1      46.218  27.601  36.734  1.00  0.00     0.200 A 
ATOM     92  F   UNL A   1      47.634  29.115  35.603  1.00  0.00    -0.200 F 
ATOM     93  F   UNL A   1      47.272  27.062  37.362  1.00  0.00    -0.200 F 
ENDBRANCH  60  83
ENDBRANCH  34  35
ENDBRANCH  26  29
ENDBRANCH  24  25
ENDBRANCH  23  24
ENDBRANCH   1  23
TORSDOF 13
ENDMDL
MODEL 2
REMARK VINA RESULT:     -12.3      0.154      1.609
REMARK SMILES C[C@@H]1CCCN(C(=O)NC2(CC(=O)NCCCNC(=O)c3ccc(-c4c5nc(c(-c6c(F)c(F)c(F)c(F)c6F)c6ccc([nH]6)c(-c6c(F)c(F)c(F)c(F)c6F)c6nc(c(-c7c(F)c(F)c(F)c(F)c7F)c7ccc4[nH]7)C=C6)C=C5)cc3)CCC2)[C@@H]1C
REMARK SMILES IDX 15 1 14 2 12 3 13 4 11 6 10 7 84 8 86 9 85 10 9 11 7 12 8 13
REMARK SMILES IDX 6 15 1 16 2 17 3 18 87 19 4 20 88 21 5 22 16 23 17 24 18 25
REMARK SMILES IDX 19 26 20 28 21 29 22 30 83 31 23 32 82 33 24 34 25 35 26 36
REMARK SMILES IDX 76 37 27 38 81 39 75 40 77 41 28 42 80 43 74 44 73 45 29 47
REMARK SMILES IDX 61 48 41 49 60 50 42 51 45 52 59 53 78 54 43 55 44 56 58 58
REMARK SMILES IDX 79 59 46 60 30 61 31 62 39 63 32 64 33 65 37 66 40 67 34 68
REMARK SMILES IDX 35 69 38 70 36 71 62 72 63 73 71 74 64 75 65 76 69 77 72 78
REMARK SMILES IDX 66 79 67 80 70 81 68 82 47 83 48 84 56 85 49 86 50 87 54 88
REMARK SMILES IDX 57 89 51 90 52 91 55 92 53 93
REMARK H PARENT 14 5 9 14 18 27 77 46 45 57
REMARK Flexibility Score: inf
ROOT
ATOM      1  C   UNL A   1      31.358  30.789  26.335  1.00  0.00     0.117 C 
ENDROOT
BRANCH   1   2
ATOM      2  N   UNL A   1      32.386  30.376  25.401  1.00  0.00    -0.356 N 
ATOM      3  C   UNL A   1      32.586  29.152  24.848  1.00  0.00     0.222 C 
ATOM      4  O   UNL A   1      33.687  28.902  24.356  1.00  0.00    -0.275 OA
ATOM      5  H   UNL A   1      33.025  31.075  25.131  1.00  0.00     0.163 HD
BRANCH   3   6
ATOM      6  C   UNL A   1      31.478  28.131  24.811  1.00  0.00     0.128 C 
BRANCH   6   7
ATOM      7  C   UNL A   1      31.010  27.630  23.415  1.00  0.00     0.051 C 
ATOM      8  C   UNL A   1      30.431  28.876  22.701  1.00  0.00     0.029 C 
ATOM      9  C   UNL A   1      29.590  27.006  23.348  1.00  0.00     0.029 C 
ATOM     10  C   UNL A   1      29.021  28.416  23.120  1.00  0.00     0.005 C 
BRANCH   7  11
ATOM     11  N   UNL A   1      32.094  26.823  22.816  1.00  0.00    -0.332 N 
ATOM     12  C   UNL A   1      32.762  25.657  22.820  1.00  0.00     0.318 C 
ATOM     13  O   UNL A   1      33.687  25.671  21.997  1.00  0.00    -0.249 OA
ATOM     14  H   UNL A   1      32.502  27.378  22.113  1.00  0.00     0.165 HD
BRANCH  12  15
ATOM     15  N   UNL A   1      32.507  24.560  23.579  1.00  0.00    -0.322 N 
ATOM     16  C   UNL A   1      35.413  23.466  23.519  1.00  0.00     0.010 C 
ATOM     17  C   UNL A   1      34.291  23.079  24.491  1.00  0.00     0.008 C 
ATOM     18  C   UNL A   1      33.494  21.865  23.969  1.00  0.00     0.007 C 
ATOM     19  C   UNL A   1      33.319  24.255  24.795  1.00  0.00     0.086 C 
ATOM     20  C   UNL A   1      32.535  22.241  22.841  1.00  0.00     0.022 C 
ATOM     21  C   UNL A   1      34.018  25.400  25.537  1.00  0.00     0.031 C 
ATOM     22  C   UNL A   1      31.661  23.431  23.238  1.00  0.00     0.121 C 
ENDBRANCH  12  15
ENDBRANCH   7  11
ENDBRANCH   6   7
ENDBRANCH   3   6
ENDBRANCH   1   2
BRANCH   1  23
ATOM     23  C   UNL A   1      31.381  32.305  26.502  1.00  0.00     0.042 C 
BRANCH  23  24
ATOM     24  C   UNL A   1      32.656  32.819  27.150  1.00  0.00     0.118 C 
BRANCH  24  25
ATOM     25  N   UNL A   1      32.515  34.197  27.592  1.00  0.00    -0.352 N 
ATOM     26  C   UNL A   1      33.068  34.849  28.666  1.00  0.00     0.251 C 
ATOM     27  H   UNL A   1      31.927  34.752  27.031  1.00  0.00     0.163 HD
ATOM     28  O   UNL A   1      32.600  35.931  29.011  1.00  0.00    -0.269 OA
BRANCH  26  29
ATOM     29  C   UNL A   1      34.209  34.274  29.415  1.00  0.00     0.039 A 
ATOM     30  C   UNL A   1      35.506  34.509  28.944  1.00  0.00     0.014 A 
ATOM     31  C   UNL A   1      34.021  33.444  30.522  1.00  0.00     0.014 A 
ATOM     32  C   UNL A   1      36.604  33.944  29.599  1.00  0.00     0.010 A 
ATOM     33  C   UNL A   1      35.117  32.963  31.233  1.00  0.00     0.010 A 
ATOM     34  C   UNL A   1      36.420  33.184  30.764  1.00  0.00    -0.014 A 
BRANCH  34  35
ATOM     35  C   UNL A   1      37.567  32.569  31.478  1.00  0.00     0.031 A 
ATOM     36  C   UNL A   1      38.297  31.403  30.866  1.00  0.00     0.074 A 
ATOM     37  C   UNL A   1      37.912  33.011  32.701  1.00  0.00     0.049 A 
ATOM     38  N   UNL A   1      39.261  30.672  31.366  1.00  0.00    -0.248 NA
ATOM     39  C   UNL A   1      37.859  30.982  29.526  1.00  0.00     0.031 C 
ATOM     40  C   UNL A   1      37.249  34.096  33.425  1.00  0.00     0.029 A 
ATOM     41  N   UNL A   1      38.896  32.589  33.559  1.00  0.00    -0.354 N 
ATOM     42  C   UNL A   1      39.526  29.695  30.415  1.00  0.00     0.074 A 
ATOM     43  C   UNL A   1      38.583  29.890  29.334  1.00  0.00     0.031 C 
ATOM     44  C   UNL A   1      37.850  34.261  34.614  1.00  0.00     0.029 A 
ATOM     45  C   UNL A   1      38.919  33.275  34.748  1.00  0.00     0.049 A 
ATOM     46  H   UNL A   1      39.525  31.863  33.344  1.00  0.00     0.167 HD
ATOM     47  C   UNL A   1      40.483  28.736  30.427  1.00  0.00     0.037 A 
ATOM     48  C   UNL A   1      39.707  33.121  35.829  1.00  0.00     0.037 A 
ATOM     49  C   UNL A   1      41.440  28.564  31.489  1.00  0.00     0.049 A 
ATOM     50  C   UNL A   1      40.781  32.070  35.812  1.00  0.00     0.074 A 
ATOM     51  C   UNL A   1      42.492  27.669  31.569  1.00  0.00     0.029 A 
ATOM     52  N   UNL A   1      41.459  29.309  32.659  1.00  0.00    -0.354 N 
ATOM     53  N   UNL A   1      41.065  31.194  34.880  1.00  0.00    -0.248 NA
ATOM     54  C   UNL A   1      41.651  31.993  36.994  1.00  0.00     0.031 C 
ATOM     55  C   UNL A   1      43.124  27.847  32.803  1.00  0.00     0.029 A 
ATOM     56  C   UNL A   1      42.494  28.883  33.475  1.00  0.00     0.049 A 
ATOM     57  H   UNL A   1      40.829  30.034  32.877  1.00  0.00     0.167 HD
ATOM     58  C   UNL A   1      42.153  30.472  35.351  1.00  0.00     0.074 A 
ATOM     59  C   UNL A   1      42.490  31.027  36.647  1.00  0.00     0.031 C 
ATOM     60  C   UNL A   1      42.812  29.443  34.764  1.00  0.00     0.037 A 
BRANCH  47  61
ATOM     61  C   UNL A   1      40.539  27.804  29.251  1.00  0.00     0.064 A 
ATOM     62  C   UNL A   1      41.428  28.016  28.185  1.00  0.00     0.173 A 
ATOM     63  C   UNL A   1      39.697  26.683  29.187  1.00  0.00     0.173 A 
ATOM     64  F   UNL A   1      42.246  29.080  28.190  1.00  0.00    -0.203 F 
ATOM     65  C   UNL A   1      41.443  27.167  27.083  1.00  0.00     0.198 A 
ATOM     66  C   UNL A   1      39.738  25.818  28.097  1.00  0.00     0.198 A 
ATOM     67  F   UNL A   1      38.833  26.428  30.181  1.00  0.00    -0.203 F 
ATOM     68  F   UNL A   1      42.256  27.428  26.049  1.00  0.00    -0.200 F 
ATOM     69  C   UNL A   1      40.601  26.066  27.041  1.00  0.00     0.200 A 
ATOM     70  F   UNL A   1      38.931  24.747  28.064  1.00  0.00    -0.200 F 
ATOM     71  F   UNL A   1      40.614  25.250  25.978  1.00  0.00    -0.200 F 
ENDBRANCH  47  61
BRANCH  48  72
ATOM     72  C   UNL A   1      39.517  34.010  37.002  1.00  0.00     0.064 A 
ATOM     73  C   UNL A   1      38.752  33.598  38.102  1.00  0.00     0.173 A 
ATOM     74  C   UNL A   1      40.126  35.272  37.064  1.00  0.00     0.173 A 
ATOM     75  F   UNL A   1      38.137  32.407  38.080  1.00  0.00    -0.203 F 
ATOM     76  C   UNL A   1      38.596  34.419  39.217  1.00  0.00     0.198 A 
ATOM     77  C   UNL A   1      39.990  36.082  38.190  1.00  0.00     0.198 A 
ATOM     78  F   UNL A   1      40.874  35.707  36.040  1.00  0.00    -0.203 F 
ATOM     79  F   UNL A   1      37.837  34.013  40.243  1.00  0.00    -0.200 F 
ATOM     80  C   UNL A   1      39.222  35.656  39.264  1.00  0.00     0.200 A 
ATOM     81  F   UNL A   1      40.609  37.269  38.238  1.00  0.00    -0.200 F 
ATOM     82  F   UNL A   1      39.084  36.438  40.343  1.00  0.00    -0.200 F 
ENDBRANCH  48  72
BRANCH  60  83
ATOM     83  C   UNL A   1      43.977  28.861  35.509  1.00  0.00     0.064 A 
ATOM     84  C   UNL A   1      45.282  29.335  35.315  1.00  0.00     0.173 A 
ATOM     85  C   UNL A   1      43.778  27.847  36.457  1.00  0.00     0.173 A 
ATOM     86  F   UNL A   1      45.523  30.293  34.408  1.00  0.00    -0.203 F 
ATOM     87  C   UNL A   1      46.350  28.799  36.029  1.00  0.00     0.198 A 
ATOM     88  C   UNL A   1      44.845  27.331  37.189  1.00  0.00     0.198 A 
ATOM     89  F   UNL A   1      42.547  27.362  36.683  1.00  0.00    -0.203 F 
ATOM     90  F   UNL A   1      47.595  29.238  35.797  1.00  0.00    -0.200 F 
ATOM     91  C   UNL A   1      46.130  27.803  36.969  1.00  0.00     0.200 A 
ATOM     92  F   UNL A   1      44.629  26.378  38.104  1.00  0.00    -0.200 F 
ATOM     93  F   UNL A   1      47.159  27.294  37.659  1.00  0.00    -0.200 F 
ENDBRANCH  60  83
ENDBRANCH  34  35
ENDBRANCH  26  29
ENDBRANCH  24  25
ENDBRANCH  23  24
ENDBRANCH   1  23
TORSDOF 13
ENDMDL
MODEL 3
REMARK VINA RESULT:     -12.2      0.162      1.967
REMARK SMILES C[C@@H]1CCCN(C(=O)NC2(CC(=O)NCCCNC(=O)c3ccc(-c4c5nc(c(-c6c(F)c(F)c(F)c(F)c6F)c6ccc([nH]6)c(-c6c(F)c(F)c(F)c(F)c6F)c6nc(c(-c7c(F)c(F)c(F)c(F)c7F)c7ccc4[nH]7)C=C6)C=C5)cc3)CCC2)[C@@H]1C
REMARK SMILES IDX 15 1 14 2 12 3 13 4 11 6 10 7 84 8 86 9 85 10 9 11 7 12 8 13
REMARK SMILES IDX 6 15 1 16 2 17 3 18 87 19 4 20 88 21 5 22 16 23 17 24 18 25
REMARK SMILES IDX 19 26 20 28 21 29 22 30 83 31 23 32 82 33 24 34 25 35 26 36
REMARK SMILES IDX 76 37 27 38 81 39 75 40 77 41 28 42 80 43 74 44 73 45 29 47
REMARK SMILES IDX 61 48 41 49 60 50 42 51 45 52 59 53 78 54 43 55 44 56 58 58
REMARK SMILES IDX 79 59 46 60 30 61 31 62 39 63 32 64 33 65 37 66 40 67 34 68
REMARK SMILES IDX 35 69 38 70 36 71 62 72 63 73 71 74 64 75 65 76 69 77 72 78
REMARK SMILES IDX 66 79 67 80 70 81 68 82 47 83 48 84 56 85 49 86 50 87 54 88
REMARK SMILES IDX 57 89 51 90 52 91 55 92 53 93
REMARK H PARENT 14 5 9 14 18 27 77 46 45 57
REMARK Flexibility Score: inf
ROOT
ATOM      1  C   UNL A   1      31.303  30.770  26.293  1.00  0.00     0.117 C 
ENDROOT
BRANCH   1   2
ATOM      2  N   UNL A   1      32.352  30.360  25.380  1.00  0.00    -0.356 N 
ATOM      3  C   UNL A   1      32.565  29.137  24.830  1.00  0.00     0.222 C 
ATOM      4  O   UNL A   1      33.677  28.890  24.361  1.00  0.00    -0.275 OA
ATOM      5  H   UNL A   1      32.995  31.061  25.125  1.00  0.00     0.163 HD
BRANCH   3   6
ATOM      6  C   UNL A   1      31.460  28.114  24.768  1.00  0.00     0.128 C 
BRANCH   6   7
ATOM      7  C   UNL A   1      30.998  27.641  23.360  1.00  0.00     0.051 C 
ATOM      8  C   UNL A   1      30.437  28.905  22.663  1.00  0.00     0.029 C 
ATOM      9  C   UNL A   1      29.572  27.032  23.273  1.00  0.00     0.029 C 
ATOM     10  C   UNL A   1      29.019  28.451  23.063  1.00  0.00     0.005 C 
BRANCH   7  11
ATOM     11  N   UNL A   1      32.079  26.833  22.757  1.00  0.00    -0.332 N 
ATOM     12  C   UNL A   1      32.741  25.664  22.753  1.00  0.00     0.318 C 
ATOM     13  O   UNL A   1      33.667  25.679  21.931  1.00  0.00    -0.249 OA
ATOM     14  H   UNL A   1      32.490  27.392  22.058  1.00  0.00     0.165 HD
BRANCH  12  15
ATOM     15  N   UNL A   1      32.480  24.562  23.504  1.00  0.00    -0.322 N 
ATOM     16  C   UNL A   1      35.369  23.428  23.394  1.00  0.00     0.010 C 
ATOM     17  C   UNL A   1      34.254  23.047  24.377  1.00  0.00     0.008 C 
ATOM     18  C   UNL A   1      33.433  21.850  23.853  1.00  0.00     0.007 C 
ATOM     19  C   UNL A   1      33.304  24.234  24.706  1.00  0.00     0.086 C 
ATOM     20  C   UNL A   1      32.465  22.252  22.741  1.00  0.00     0.022 C 
ATOM     21  C   UNL A   1      34.029  25.360  25.451  1.00  0.00     0.031 C 
ATOM     22  C   UNL A   1      31.613  23.450  23.163  1.00  0.00     0.121 C 
ENDBRANCH  12  15
ENDBRANCH   7  11
ENDBRANCH   6   7
ENDBRANCH   3   6
ENDBRANCH   1   2
BRANCH   1  23
ATOM     23  C   UNL A   1      31.343  32.283  26.488  1.00  0.00     0.042 C 
BRANCH  23  24
ATOM     24  C   UNL A   1      32.596  32.765  27.200  1.00  0.00     0.118 C 
BRANCH  24  25
ATOM     25  N   UNL A   1      32.475  34.153  27.616  1.00  0.00    -0.352 N 
ATOM     26  C   UNL A   1      33.046  34.818  28.672  1.00  0.00     0.251 C 
ATOM     27  H   UNL A   1      31.890  34.704  27.049  1.00  0.00     0.163 HD
ATOM     28  O   UNL A   1      32.594  35.913  29.001  1.00  0.00    -0.269 OA
BRANCH  26  29
ATOM     29  C   UNL A   1      34.187  34.243  29.424  1.00  0.00     0.039 A 
ATOM     30  C   UNL A   1      35.483  34.464  28.943  1.00  0.00     0.014 A 
ATOM     31  C   UNL A   1      33.998  33.427  30.540  1.00  0.00     0.014 A 
ATOM     32  C   UNL A   1      36.580  33.899  29.600  1.00  0.00     0.010 A 
ATOM     33  C   UNL A   1      35.094  32.946  31.251  1.00  0.00     0.010 A 
ATOM     34  C   UNL A   1      36.395  33.153  30.775  1.00  0.00    -0.014 A 
BRANCH  34  35
ATOM     35  C   UNL A   1      37.542  32.538  31.490  1.00  0.00     0.031 A 
ATOM     36  C   UNL A   1      38.265  31.365  30.885  1.00  0.00     0.074 A 
ATOM     37  C   UNL A   1      37.892  32.987  32.709  1.00  0.00     0.049 A 
ATOM     38  N   UNL A   1      39.227  30.632  31.387  1.00  0.00    -0.248 NA
ATOM     39  C   UNL A   1      37.823  30.937  29.548  1.00  0.00     0.031 C 
ATOM     40  C   UNL A   1      37.234  34.079  33.428  1.00  0.00     0.029 A 
ATOM     41  N   UNL A   1      38.875  32.566  33.568  1.00  0.00    -0.354 N 
ATOM     42  C   UNL A   1      39.485  29.648  30.442  1.00  0.00     0.074 A 
ATOM     43  C   UNL A   1      38.541  29.840  29.362  1.00  0.00     0.031 C 
ATOM     44  C   UNL A   1      37.839  34.250  34.613  1.00  0.00     0.029 A 
ATOM     45  C   UNL A   1      38.904  33.260  34.753  1.00  0.00     0.049 A 
ATOM     46  H   UNL A   1      39.501  31.836  33.356  1.00  0.00     0.167 HD
ATOM     47  C   UNL A   1      40.438  28.685  30.459  1.00  0.00     0.037 A 
ATOM     48  C   UNL A   1      39.693  33.110  35.833  1.00  0.00     0.037 A 
ATOM     49  C   UNL A   1      41.397  28.516  31.519  1.00  0.00     0.049 A 
ATOM     50  C   UNL A   1      40.762  32.054  35.820  1.00  0.00     0.074 A 
ATOM     51  C   UNL A   1      42.445  27.617  31.603  1.00  0.00     0.029 A 
ATOM     52  N   UNL A   1      41.422  29.269  32.684  1.00  0.00    -0.354 N 
ATOM     53  N   UNL A   1      41.041  31.171  34.894  1.00  0.00    -0.248 NA
ATOM     54  C   UNL A   1      41.635  31.981  37.001  1.00  0.00     0.031 C 
ATOM     55  C   UNL A   1      43.081  27.801  32.835  1.00  0.00     0.029 A 
ATOM     56  C   UNL A   1      42.457  28.844  33.501  1.00  0.00     0.049 A 
ATOM     57  H   UNL A   1      40.796  29.999  32.899  1.00  0.00     0.167 HD
ATOM     58  C   UNL A   1      42.127  30.447  35.367  1.00  0.00     0.074 A 
ATOM     59  C   UNL A   1      42.469  31.009  36.658  1.00  0.00     0.031 C 
ATOM     60  C   UNL A   1      42.780  29.412  34.785  1.00  0.00     0.037 A 
BRANCH  47  61
ATOM     61  C   UNL A   1      40.488  27.745  29.288  1.00  0.00     0.064 A 
ATOM     62  C   UNL A   1      39.633  26.634  29.200  1.00  0.00     0.173 A 
ATOM     63  C   UNL A   1      41.395  27.957  28.240  1.00  0.00     0.173 A 
ATOM     64  F   UNL A   1      38.754  26.379  30.182  1.00  0.00    -0.203 F 
ATOM     65  C   UNL A   1      39.716  25.748  28.130  1.00  0.00     0.198 A 
ATOM     66  C   UNL A   1      41.453  27.086  27.155  1.00  0.00     0.198 A 
ATOM     67  F   UNL A   1      42.230  29.007  28.270  1.00  0.00    -0.203 F 
ATOM     68  F   UNL A   1      38.934  24.660  28.101  1.00  0.00    -0.200 F 
ATOM     69  C   UNL A   1      40.623  25.977  27.106  1.00  0.00     0.200 A 
ATOM     70  F   UNL A   1      42.322  27.315  26.160  1.00  0.00    -0.200 F 
ATOM     71  F   UNL A   1      40.703  25.122  26.077  1.00  0.00    -0.200 F 
ENDBRANCH  47  61
BRANCH  48  72
ATOM     72  C   UNL A   1      39.510  34.008  37.000  1.00  0.00     0.064 A 
ATOM     73  C   UNL A   1      38.742  33.609  38.102  1.00  0.00     0.173 A 
ATOM     74  C   UNL A   1      40.129  35.266  37.054  1.00  0.00     0.173 A 
ATOM     75  F   UNL A   1      38.117  32.422  38.087  1.00  0.00    -0.203 F 
ATOM     76  C   UNL A   1      38.591  34.438  39.211  1.00  0.00     0.198 A 
ATOM     77  C   UNL A   1      39.998  36.083  38.175  1.00  0.00     0.198 A 
ATOM     78  F   UNL A   1      40.881  35.688  36.028  1.00  0.00    -0.203 F 
ATOM     79  F   UNL A   1      37.828  34.044  40.240  1.00  0.00    -0.200 F 
ATOM     80  C   UNL A   1      39.227  35.670  39.251  1.00  0.00     0.200 A 
ATOM     81  F   UNL A   1      40.627  37.266  38.216  1.00  0.00    -0.200 F 
ATOM     82  F   UNL A   1      39.094  36.460  40.325  1.00  0.00    -0.200 F 
ENDBRANCH  48  72
BRANCH  60  83
ATOM     83  C   UNL A   1      43.944  28.829  35.532  1.00  0.00     0.064 A 
ATOM     84  C   UNL A   1      45.252  29.294  35.328  1.00  0.00     0.173 A 
ATOM     85  C   UNL A   1      43.743  27.826  36.491  1.00  0.00     0.173 A 
ATOM     86  F   UNL A   1      45.496  30.241  34.411  1.00  0.00    -0.203 F 
ATOM     87  C   UNL A   1      46.319  28.758  36.044  1.00  0.00     0.198 A 
ATOM     88  C   UNL A   1      44.809  27.311  37.223  1.00  0.00     0.198 A 
ATOM     89  F   UNL A   1      42.509  27.352  36.726  1.00  0.00    -0.203 F 
ATOM     90  F   UNL A   1      47.566  29.187  35.803  1.00  0.00    -0.200 F 
ATOM     91  C   UNL A   1      46.096  27.773  36.994  1.00  0.00     0.200 A 
ATOM     92  F   UNL A   1      44.591  26.368  38.149  1.00  0.00    -0.200 F 
ATOM     93  F   UNL A   1      47.125  27.263  37.686  1.00  0.00    -0.200 F 
ENDBRANCH  60  83
ENDBRANCH  34  35
ENDBRANCH  26  29
ENDBRANCH  24  25
ENDBRANCH  23  24
ENDBRANCH   1  23
TORSDOF 13
ENDMDL
