MODEL 1
REMARK VINA RESULT:     -11.3      0.000      0.000
REMARK SMILES COCCCC(=O)N[C@H]1CC[C@@H](C(=O)NCCCNC(=O)c2ccc(-c3c4nc(c(-c5c(F)c(F)c(F)c(F)c5F)c5ccc([nH]5)c(-c5c(F)c(F)c(F)c(F)c5F)c5nc(c(-c6c(F)c(F)c(F)c(F)c6F)c6ccc3[nH]6)C=C5)C=C4)cc2)CC1
REMARK SMILES IDX 13 1 14 2 15 3 12 5 9 6 10 7 86 8 11 9 85 10 8 11 6 12 7 13
REMARK SMILES IDX 5 15 4 16 3 17 2 18 1 19 16 20 17 21 18 22 19 23 20 24 21 26
REMARK SMILES IDX 22 27 23 28 84 29 24 30 83 31 25 32 26 33 27 34 77 35 28 36
REMARK SMILES IDX 82 37 76 38 78 39 29 40 81 41 75 42 74 43 30 45 62 46 42 47
REMARK SMILES IDX 61 48 43 49 46 50 60 51 79 52 44 53 45 54 59 56 80 57 47 58
REMARK SMILES IDX 31 59 32 60 40 61 33 62 34 63 38 64 41 65 35 66 36 67 39 68
REMARK SMILES IDX 37 69 63 70 64 71 72 72 65 73 66 74 70 75 73 76 67 77 68 78
REMARK SMILES IDX 71 79 69 80 48 81 49 82 57 83 50 84 51 85 55 86 58 87 52 88
REMARK SMILES IDX 53 89 56 90 54 91
REMARK H PARENT 15 4 8 14 19 25 78 44 46 55
REMARK Flexibility Score: inf
ROOT
ATOM      1  C   UNL A   1      32.236  24.573  25.581  1.00  0.00     0.223 C 
ATOM      2  O   UNL A   1      31.515  23.921  26.344  1.00  0.00    -0.275 OA
ATOM      3  N   UNL A   1      31.634  25.587  24.908  1.00  0.00    -0.356 N 
ATOM      4  H   UNL A   1      30.697  25.436  24.641  1.00  0.00     0.163 HD
ENDROOT
BRANCH   1   5
ATOM      5  C   UNL A   1      33.720  24.194  25.419  1.00  0.00     0.078 C 
ATOM      6  C   UNL A   1      34.627  21.289  25.481  1.00  0.00     0.082 C 
ATOM      7  C   UNL A   1      34.683  22.083  24.182  1.00  0.00     0.026 C 
ATOM      8  C   UNL A   1      34.633  22.156  26.762  1.00  0.00     0.026 C 
ATOM      9  C   UNL A   1      34.121  23.512  24.119  1.00  0.00     0.015 C 
ATOM     10  C   UNL A   1      34.446  23.663  26.643  1.00  0.00     0.015 C 
BRANCH   6  11
ATOM     11  N   UNL A   1      33.626  20.211  25.674  1.00  0.00    -0.353 N 
ATOM     12  C   UNL A   1      33.055  19.118  25.133  1.00  0.00     0.220 C 
ATOM     13  O   UNL A   1      32.230  18.570  25.875  1.00  0.00    -0.275 OA
ATOM     14  H   UNL A   1      33.209  20.351  26.555  1.00  0.00     0.163 HD
BRANCH  12  15
ATOM     15  C   UNL A   1      33.317  18.526  23.767  1.00  0.00     0.102 C 
BRANCH  15  16
ATOM     16  C   UNL A   1      34.335  17.376  23.702  1.00  0.00     0.038 C 
BRANCH  16  17
ATOM     17  C   UNL A   1      33.732  15.985  23.797  1.00  0.00     0.160 C 
BRANCH  17  18
ATOM     18  O   UNL A   1      33.765  15.358  25.071  1.00  0.00    -0.385 OA
ATOM     19  C   UNL A   1      32.519  15.054  25.670  1.00  0.00     0.194 C 
ENDBRANCH  17  18
ENDBRANCH  16  17
ENDBRANCH  15  16
ENDBRANCH  12  15
ENDBRANCH   6  11
ENDBRANCH   1   5
BRANCH   3  20
ATOM     20  C   UNL A   1      32.202  26.855  24.541  1.00  0.00     0.117 C 
BRANCH  20  21
ATOM     21  C   UNL A   1      32.817  27.632  25.691  1.00  0.00     0.042 C 
BRANCH  21  22
ATOM     22  C   UNL A   1      33.407  28.969  25.269  1.00  0.00     0.118 C 
BRANCH  22  23
ATOM     23  N   UNL A   1      32.748  30.134  25.857  1.00  0.00    -0.352 N 
ATOM     24  C   UNL A   1      33.131  30.966  26.889  1.00  0.00     0.251 C 
ATOM     25  H   UNL A   1      31.882  30.362  25.448  1.00  0.00     0.163 HD
ATOM     26  O   UNL A   1      32.402  31.859  27.278  1.00  0.00    -0.269 OA
BRANCH  24  27
ATOM     27  C   UNL A   1      34.456  30.765  27.507  1.00  0.00     0.039 A 
ATOM     28  C   UNL A   1      35.333  31.841  27.655  1.00  0.00     0.014 A 
ATOM     29  C   UNL A   1      34.801  29.501  27.979  1.00  0.00     0.014 A 
ATOM     30  C   UNL A   1      36.526  31.660  28.359  1.00  0.00     0.010 A 
ATOM     31  C   UNL A   1      35.905  29.359  28.796  1.00  0.00     0.010 A 
ATOM     32  C   UNL A   1      36.796  30.428  28.977  1.00  0.00    -0.014 A 
BRANCH  32  33
ATOM     33  C   UNL A   1      38.016  30.179  29.782  1.00  0.00     0.031 A 
ATOM     34  C   UNL A   1      39.081  29.270  29.226  1.00  0.00     0.074 A 
ATOM     35  C   UNL A   1      38.104  30.645  31.042  1.00  0.00     0.049 A 
ATOM     36  N   UNL A   1      40.109  28.727  29.825  1.00  0.00    -0.248 NA
ATOM     37  C   UNL A   1      38.921  28.855  27.821  1.00  0.00     0.031 C 
ATOM     38  C   UNL A   1      37.102  31.470  31.718  1.00  0.00     0.029 A 
ATOM     39  N   UNL A   1      39.082  30.470  31.987  1.00  0.00    -0.354 N 
ATOM     40  C   UNL A   1      40.670  27.863  28.891  1.00  0.00     0.074 A 
ATOM     41  C   UNL A   1      39.829  27.900  27.716  1.00  0.00     0.031 C 
ATOM     42  C   UNL A   1      37.534  31.762  32.956  1.00  0.00     0.029 A 
ATOM     43  C   UNL A   1      38.822  31.111  33.173  1.00  0.00     0.049 A 
ATOM     44  H   UNL A   1      39.894  29.937  31.830  1.00  0.00     0.167 HD
ATOM     45  C   UNL A   1      41.806  27.134  28.992  1.00  0.00     0.037 A 
ATOM     46  C   UNL A   1      39.550  31.165  34.304  1.00  0.00     0.037 A 
ATOM     47  C   UNL A   1      42.680  27.181  30.132  1.00  0.00     0.049 A 
ATOM     48  C   UNL A   1      40.863  30.433  34.355  1.00  0.00     0.074 A 
ATOM     49  C   UNL A   1      43.899  26.555  30.317  1.00  0.00     0.029 A 
ATOM     50  N   UNL A   1      42.433  27.928  31.275  1.00  0.00    -0.354 N 
ATOM     51  N   UNL A   1      41.413  29.656  33.452  1.00  0.00    -0.248 NA
ATOM     52  C   UNL A   1      41.663  30.594  35.575  1.00  0.00     0.031 C 
ATOM     53  C   UNL A   1      44.382  26.911  31.579  1.00  0.00     0.029 A 
ATOM     54  C   UNL A   1      43.483  27.788  32.166  1.00  0.00     0.049 A 
ATOM     55  H   UNL A   1      41.630  28.476  31.429  1.00  0.00     0.167 HD
ATOM     56  C   UNL A   1      42.637  29.266  33.977  1.00  0.00     0.074 A 
ATOM     57  C   UNL A   1      42.752  29.900  35.275  1.00  0.00     0.031 C 
ATOM     58  C   UNL A   1      43.580  28.456  33.438  1.00  0.00     0.037 A 
BRANCH  45  59
ATOM     59  C   UNL A   1      42.169  26.254  27.829  1.00  0.00     0.064 A 
ATOM     60  C   UNL A   1      42.999  26.707  26.792  1.00  0.00     0.173 A 
ATOM     61  C   UNL A   1      41.675  24.944  27.745  1.00  0.00     0.173 A 
ATOM     62  F   UNL A   1      43.488  27.957  26.814  1.00  0.00    -0.203 F 
ATOM     63  C   UNL A   1      43.279  25.902  25.691  1.00  0.00     0.198 A 
ATOM     64  C   UNL A   1      41.989  24.127  26.660  1.00  0.00     0.198 A 
ATOM     65  F   UNL A   1      40.882  24.455  28.710  1.00  0.00    -0.203 F 
ATOM     66  F   UNL A   1      44.012  26.386  24.678  1.00  0.00    -0.200 F 
ATOM     67  C   UNL A   1      42.778  24.610  25.628  1.00  0.00     0.200 A 
ATOM     68  F   UNL A   1      41.515  22.874  26.608  1.00  0.00    -0.200 F 
ATOM     69  F   UNL A   1      43.048  23.837  24.569  1.00  0.00    -0.200 F 
ENDBRANCH  45  59
BRANCH  46  70
ATOM     70  C   UNL A   1      39.090  31.999  35.444  1.00  0.00     0.064 A 
ATOM     71  C   UNL A   1      39.404  33.365  35.499  1.00  0.00     0.173 A 
ATOM     72  C   UNL A   1      38.326  31.464  36.490  1.00  0.00     0.173 A 
ATOM     73  F   UNL A   1      40.146  33.919  34.528  1.00  0.00    -0.203 F 
ATOM     74  C   UNL A   1      38.990  34.160  36.565  1.00  0.00     0.198 A 
ATOM     75  C   UNL A   1      37.891  32.266  37.545  1.00  0.00     0.198 A 
ATOM     76  F   UNL A   1      37.988  30.167  36.481  1.00  0.00    -0.203 F 
ATOM     77  F   UNL A   1      39.340  35.452  36.611  1.00  0.00    -0.200 F 
ATOM     78  C   UNL A   1      38.229  33.610  37.585  1.00  0.00     0.200 A 
ATOM     79  F   UNL A   1      37.142  31.736  38.522  1.00  0.00    -0.200 F 
ATOM     80  F   UNL A   1      37.827  34.374  38.609  1.00  0.00    -0.200 F 
ENDBRANCH  46  70
BRANCH  58  81
ATOM     81  C   UNL A   1      44.841  28.259  34.223  1.00  0.00     0.064 A 
ATOM     82  C   UNL A   1      44.988  27.199  35.129  1.00  0.00     0.173 A 
ATOM     83  C   UNL A   1      45.931  29.121  34.031  1.00  0.00     0.173 A 
ATOM     84  F   UNL A   1      43.968  26.359  35.355  1.00  0.00    -0.203 F 
ATOM     85  C   UNL A   1      46.175  27.025  35.834  1.00  0.00     0.198 A 
ATOM     86  C   UNL A   1      47.126  28.926  34.717  1.00  0.00     0.198 A 
ATOM     87  F   UNL A   1      45.841  30.145  33.168  1.00  0.00    -0.203 F 
ATOM     88  F   UNL A   1      46.279  26.034  36.730  1.00  0.00    -0.200 F 
ATOM     89  C   UNL A   1      47.244  27.884  35.624  1.00  0.00     0.200 A 
ATOM     90  F   UNL A   1      48.162  29.749  34.503  1.00  0.00    -0.200 F 
ATOM     91  F   UNL A   1      48.388  27.710  36.300  1.00  0.00    -0.200 F 
ENDBRANCH  58  81
ENDBRANCH  32  33
ENDBRANCH  24  27
ENDBRANCH  22  23
ENDBRANCH  21  22
ENDBRANCH  20  21
ENDBRANCH   3  20
TORSDOF 15
ENDMDL
MODEL 2
REMARK VINA RESULT:     -11.3      1.697      3.280
REMARK SMILES COCCCC(=O)N[C@H]1CC[C@@H](C(=O)NCCCNC(=O)c2ccc(-c3c4nc(c(-c5c(F)c(F)c(F)c(F)c5F)c5ccc([nH]5)c(-c5c(F)c(F)c(F)c(F)c5F)c5nc(c(-c6c(F)c(F)c(F)c(F)c6F)c6ccc3[nH]6)C=C5)C=C4)cc2)CC1
REMARK SMILES IDX 13 1 14 2 15 3 12 5 9 6 10 7 86 8 11 9 85 10 8 11 6 12 7 13
REMARK SMILES IDX 5 15 4 16 3 17 2 18 1 19 16 20 17 21 18 22 19 23 20 24 21 26
REMARK SMILES IDX 22 27 23 28 84 29 24 30 83 31 25 32 26 33 27 34 77 35 28 36
REMARK SMILES IDX 82 37 76 38 78 39 29 40 81 41 75 42 74 43 30 45 62 46 42 47
REMARK SMILES IDX 61 48 43 49 46 50 60 51 79 52 44 53 45 54 59 56 80 57 47 58
REMARK SMILES IDX 31 59 32 60 40 61 33 62 34 63 38 64 41 65 35 66 36 67 39 68
REMARK SMILES IDX 37 69 63 70 64 71 72 72 65 73 66 74 70 75 73 76 67 77 68 78
REMARK SMILES IDX 71 79 69 80 48 81 49 82 57 83 50 84 51 85 55 86 58 87 52 88
REMARK SMILES IDX 53 89 56 90 54 91
REMARK H PARENT 15 4 8 14 19 25 78 44 46 55
REMARK Flexibility Score: inf
ROOT
ATOM      1  C   UNL A   1      34.162  24.896  23.632  1.00  0.00     0.223 C 
ATOM      2  O   UNL A   1      33.752  24.787  22.471  1.00  0.00    -0.275 OA
ATOM      3  N   UNL A   1      33.976  26.105  24.221  1.00  0.00    -0.356 N 
ATOM      4  H   UNL A   1      34.047  26.892  23.632  1.00  0.00     0.163 HD
ENDROOT
BRANCH   1   5
ATOM      5  C   UNL A   1      34.862  23.704  24.313  1.00  0.00     0.078 C 
ATOM      6  C   UNL A   1      33.485  22.104  26.505  1.00  0.00     0.082 C 
ATOM      7  C   UNL A   1      33.736  21.477  25.140  1.00  0.00     0.026 C 
ATOM      8  C   UNL A   1      34.418  23.290  26.846  1.00  0.00     0.026 C 
ATOM      9  C   UNL A   1      34.327  22.315  23.994  1.00  0.00     0.015 C 
ATOM     10  C   UNL A   1      35.302  23.881  25.756  1.00  0.00     0.015 C 
BRANCH   6  11
ATOM     11  N   UNL A   1      32.113  22.474  26.934  1.00  0.00    -0.353 N 
ATOM     12  C   UNL A   1      31.052  23.265  26.692  1.00  0.00     0.220 C 
ATOM     13  O   UNL A   1      30.092  23.054  27.446  1.00  0.00    -0.275 OA
ATOM     14  H   UNL A   1      31.888  21.914  27.712  1.00  0.00     0.163 HD
BRANCH  12  15
ATOM     15  C   UNL A   1      30.929  24.339  25.635  1.00  0.00     0.102 C 
BRANCH  15  16
ATOM     16  C   UNL A   1      30.656  23.859  24.200  1.00  0.00     0.038 C 
BRANCH  16  17
ATOM     17  C   UNL A   1      30.478  24.971  23.179  1.00  0.00     0.160 C 
BRANCH  17  18
ATOM     18  O   UNL A   1      30.281  26.282  23.687  1.00  0.00    -0.385 OA
ATOM     19  C   UNL A   1      28.943  26.702  23.876  1.00  0.00     0.194 C 
ENDBRANCH  17  18
ENDBRANCH  16  17
ENDBRANCH  15  16
ENDBRANCH  12  15
ENDBRANCH   6  11
ENDBRANCH   1   5
BRANCH   3  20
ATOM     20  C   UNL A   1      33.689  26.372  25.604  1.00  0.00     0.117 C 
BRANCH  20  21
ATOM     21  C   UNL A   1      32.793  27.573  25.846  1.00  0.00     0.042 C 
BRANCH  21  22
ATOM     22  C   UNL A   1      33.382  28.879  25.334  1.00  0.00     0.118 C 
BRANCH  22  23
ATOM     23  N   UNL A   1      32.753  30.081  25.878  1.00  0.00    -0.352 N 
ATOM     24  C   UNL A   1      33.160  30.941  26.879  1.00  0.00     0.251 C 
ATOM     25  H   UNL A   1      31.892  30.316  25.462  1.00  0.00     0.163 HD
ATOM     26  O   UNL A   1      32.454  31.866  27.235  1.00  0.00    -0.269 OA
BRANCH  24  27
ATOM     27  C   UNL A   1      34.480  30.730  27.502  1.00  0.00     0.039 A 
ATOM     28  C   UNL A   1      35.377  31.793  27.626  1.00  0.00     0.014 A 
ATOM     29  C   UNL A   1      34.802  29.471  28.003  1.00  0.00     0.014 A 
ATOM     30  C   UNL A   1      36.566  31.606  28.335  1.00  0.00     0.010 A 
ATOM     31  C   UNL A   1      35.903  29.328  28.825  1.00  0.00     0.010 A 
ATOM     32  C   UNL A   1      36.813  30.384  28.981  1.00  0.00    -0.014 A 
BRANCH  32  33
ATOM     33  C   UNL A   1      38.028  30.131  29.792  1.00  0.00     0.031 A 
ATOM     34  C   UNL A   1      39.095  29.222  29.240  1.00  0.00     0.074 A 
ATOM     35  C   UNL A   1      38.110  30.594  31.054  1.00  0.00     0.049 A 
ATOM     36  N   UNL A   1      40.119  28.676  29.844  1.00  0.00    -0.248 NA
ATOM     37  C   UNL A   1      38.943  28.811  27.833  1.00  0.00     0.031 C 
ATOM     38  C   UNL A   1      37.105  31.418  31.727  1.00  0.00     0.029 A 
ATOM     39  N   UNL A   1      39.082  30.415  32.005  1.00  0.00    -0.354 N 
ATOM     40  C   UNL A   1      40.684  27.814  28.911  1.00  0.00     0.074 A 
ATOM     41  C   UNL A   1      39.850  27.855  27.732  1.00  0.00     0.031 C 
ATOM     42  C   UNL A   1      37.530  31.706  32.968  1.00  0.00     0.029 A 
ATOM     43  C   UNL A   1      38.816  31.054  33.190  1.00  0.00     0.049 A 
ATOM     44  H   UNL A   1      39.894  29.882  31.851  1.00  0.00     0.167 HD
ATOM     45  C   UNL A   1      41.818  27.083  29.017  1.00  0.00     0.037 A 
ATOM     46  C   UNL A   1      39.537  31.104  34.326  1.00  0.00     0.037 A 
ATOM     47  C   UNL A   1      42.686  27.126  30.162  1.00  0.00     0.049 A 
ATOM     48  C   UNL A   1      40.849  30.369  34.383  1.00  0.00     0.074 A 
ATOM     49  C   UNL A   1      43.903  26.497  30.352  1.00  0.00     0.029 A 
ATOM     50  N   UNL A   1      42.434  27.870  31.306  1.00  0.00    -0.354 N 
ATOM     51  N   UNL A   1      41.403  29.594  33.481  1.00  0.00    -0.248 NA
ATOM     52  C   UNL A   1      41.642  30.526  35.608  1.00  0.00     0.031 C 
ATOM     53  C   UNL A   1      44.379  26.850  31.619  1.00  0.00     0.029 A 
ATOM     54  C   UNL A   1      43.478  27.727  32.202  1.00  0.00     0.049 A 
ATOM     55  H   UNL A   1      41.630  28.419  31.457  1.00  0.00     0.167 HD
ATOM     56  C   UNL A   1      42.623  29.201  34.012  1.00  0.00     0.074 A 
ATOM     57  C   UNL A   1      42.732  29.831  35.313  1.00  0.00     0.031 C 
ATOM     58  C   UNL A   1      43.569  28.391  33.477  1.00  0.00     0.037 A 
BRANCH  45  59
ATOM     59  C   UNL A   1      42.187  26.205  27.854  1.00  0.00     0.064 A 
ATOM     60  C   UNL A   1      41.612  24.938  27.675  1.00  0.00     0.173 A 
ATOM     61  C   UNL A   1      43.134  26.631  26.911  1.00  0.00     0.173 A 
ATOM     62  F   UNL A   1      40.710  24.474  28.555  1.00  0.00    -0.203 F 
ATOM     63  C   UNL A   1      42.006  24.110  26.627  1.00  0.00     0.198 A 
ATOM     64  C   UNL A   1      43.499  25.816  25.841  1.00  0.00     0.198 A 
ATOM     65  F   UNL A   1      43.714  27.835  27.029  1.00  0.00    -0.203 F 
ATOM     66  F   UNL A   1      41.496  22.875  26.522  1.00  0.00    -0.200 F 
ATOM     67  C   UNL A   1      42.946  24.552  25.708  1.00  0.00     0.200 A 
ATOM     68  F   UNL A   1      44.397  26.250  24.946  1.00  0.00    -0.200 F 
ATOM     69  F   UNL A   1      43.324  23.755  24.700  1.00  0.00    -0.200 F 
ENDBRANCH  45  59
BRANCH  46  70
ATOM     70  C   UNL A   1      39.072  31.935  35.466  1.00  0.00     0.064 A 
ATOM     71  C   UNL A   1      38.292  31.371  36.486  1.00  0.00     0.173 A 
ATOM     72  C   UNL A   1      39.399  33.294  35.571  1.00  0.00     0.173 A 
ATOM     73  F   UNL A   1      37.941  30.078  36.421  1.00  0.00    -0.203 F 
ATOM     74  C   UNL A   1      37.839  32.138  37.557  1.00  0.00     0.198 A 
ATOM     75  C   UNL A   1      38.966  34.055  36.657  1.00  0.00     0.198 A 
ATOM     76  F   UNL A   1      40.153  33.879  34.630  1.00  0.00    -0.203 F 
ATOM     77  F   UNL A   1      37.060  31.582  38.495  1.00  0.00    -0.200 F 
ATOM     78  C   UNL A   1      38.181  33.479  37.643  1.00  0.00     0.200 A 
ATOM     79  F   UNL A   1      39.311  35.347  36.747  1.00  0.00    -0.200 F 
ATOM     80  F   UNL A   1      37.748  34.216  38.675  1.00  0.00    -0.200 F 
ENDBRANCH  46  70
BRANCH  58  81
ATOM     81  C   UNL A   1      44.825  28.191  34.269  1.00  0.00     0.064 A 
ATOM     82  C   UNL A   1      45.925  29.050  34.136  1.00  0.00     0.173 A 
ATOM     83  C   UNL A   1      44.908  27.149  35.205  1.00  0.00     0.173 A 
ATOM     84  F   UNL A   1      45.895  30.051  33.244  1.00  0.00    -0.203 F 
ATOM     85  C   UNL A   1      47.075  28.856  34.895  1.00  0.00     0.198 A 
ATOM     86  C   UNL A   1      46.049  26.977  35.982  1.00  0.00     0.198 A 
ATOM     87  F   UNL A   1      43.878  26.306  35.373  1.00  0.00    -0.203 F 
ATOM     88  F   UNL A   1      48.133  29.660  34.720  1.00  0.00    -0.200 F 
ATOM     89  C   UNL A   1      47.134  27.825  35.821  1.00  0.00     0.200 A 
ATOM     90  F   UNL A   1      46.100  25.988  36.885  1.00  0.00    -0.200 F 
ATOM     91  F   UNL A   1      48.241  27.645  36.555  1.00  0.00    -0.200 F 
ENDBRANCH  58  81
ENDBRANCH  32  33
ENDBRANCH  24  27
ENDBRANCH  22  23
ENDBRANCH  21  22
ENDBRANCH  20  21
ENDBRANCH   3  20
TORSDOF 15
ENDMDL
MODEL 3
REMARK VINA RESULT:     -11.2      5.158     10.958
REMARK SMILES COCCCC(=O)N[C@H]1CC[C@@H](C(=O)NCCCNC(=O)c2ccc(-c3c4nc(c(-c5c(F)c(F)c(F)c(F)c5F)c5ccc([nH]5)c(-c5c(F)c(F)c(F)c(F)c5F)c5nc(c(-c6c(F)c(F)c(F)c(F)c6F)c6ccc3[nH]6)C=C5)C=C4)cc2)CC1
REMARK SMILES IDX 13 1 14 2 15 3 12 5 9 6 10 7 86 8 11 9 85 10 8 11 6 12 7 13
REMARK SMILES IDX 5 15 4 16 3 17 2 18 1 19 16 20 17 21 18 22 19 23 20 24 21 26
REMARK SMILES IDX 22 27 23 28 84 29 24 30 83 31 25 32 26 33 27 34 77 35 28 36
REMARK SMILES IDX 82 37 76 38 78 39 29 40 81 41 75 42 74 43 30 45 62 46 42 47
REMARK SMILES IDX 61 48 43 49 46 50 60 51 79 52 44 53 45 54 59 56 80 57 47 58
REMARK SMILES IDX 31 59 32 60 40 61 33 62 34 63 38 64 41 65 35 66 36 67 39 68
REMARK SMILES IDX 37 69 63 70 64 71 72 72 65 73 66 74 70 75 73 76 67 77 68 78
REMARK SMILES IDX 71 79 69 80 48 81 49 82 57 83 50 84 51 85 55 86 58 87 52 88
REMARK SMILES IDX 53 89 56 90 54 91
REMARK H PARENT 15 4 8 14 19 25 78 44 46 55
REMARK Flexibility Score: inf
ROOT
ATOM      1  C   UNL A   1      38.127  34.165  30.565  1.00  0.00     0.223 C 
ATOM      2  O   UNL A   1      38.959  34.704  29.828  1.00  0.00    -0.275 OA
ATOM      3  N   UNL A   1      36.860  34.088  30.083  1.00  0.00    -0.356 N 
ATOM      4  H   UNL A   1      36.560  34.843  29.525  1.00  0.00     0.163 HD
ENDROOT
BRANCH   1   5
ATOM      5  C   UNL A   1      38.552  33.653  31.954  1.00  0.00     0.078 C 
ATOM      6  C   UNL A   1      36.489  32.949  34.079  1.00  0.00     0.082 C 
ATOM      7  C   UNL A   1      37.315  31.852  33.418  1.00  0.00     0.026 C 
ATOM      8  C   UNL A   1      37.131  34.356  34.022  1.00  0.00     0.026 C 
ATOM      9  C   UNL A   1      38.275  32.189  32.265  1.00  0.00     0.015 C 
ATOM     10  C   UNL A   1      38.349  34.584  33.137  1.00  0.00     0.015 C 
BRANCH   6  11
ATOM     11  N   UNL A   1      35.044  33.102  33.780  1.00  0.00    -0.353 N 
ATOM     12  C   UNL A   1      34.099  33.908  33.261  1.00  0.00     0.220 C 
ATOM     13  O   UNL A   1      32.967  33.406  33.255  1.00  0.00    -0.275 OA
ATOM     14  H   UNL A   1      34.593  32.281  34.084  1.00  0.00     0.163 HD
BRANCH  12  15
ATOM     15  C   UNL A   1      34.283  35.304  32.711  1.00  0.00     0.102 C 
BRANCH  15  16
ATOM     16  C   UNL A   1      33.008  36.145  32.535  1.00  0.00     0.038 C 
BRANCH  16  17
ATOM     17  C   UNL A   1      32.481  36.213  31.112  1.00  0.00     0.160 C 
BRANCH  17  18
ATOM     18  O   UNL A   1      33.115  37.135  30.237  1.00  0.00    -0.385 OA
ATOM     19  C   UNL A   1      33.441  36.668  28.941  1.00  0.00     0.194 C 
ENDBRANCH  17  18
ENDBRANCH  16  17
ENDBRANCH  15  16
ENDBRANCH  12  15
ENDBRANCH   6  11
ENDBRANCH   1   5
BRANCH   3  20
ATOM     20  C   UNL A   1      35.904  33.035  30.291  1.00  0.00     0.117 C 
BRANCH  20  21
ATOM     21  C   UNL A   1      34.651  33.138  29.440  1.00  0.00     0.042 C 
BRANCH  21  22
ATOM     22  C   UNL A   1      34.825  32.575  28.038  1.00  0.00     0.118 C 
BRANCH  22  23
ATOM     23  N   UNL A   1      34.207  31.267  27.830  1.00  0.00    -0.352 N 
ATOM     24  C   UNL A   1      34.750  29.998  27.840  1.00  0.00     0.251 C 
ATOM     25  H   UNL A   1      33.239  31.296  27.650  1.00  0.00     0.163 HD
ATOM     26  O   UNL A   1      34.070  29.023  27.579  1.00  0.00    -0.269 OA
BRANCH  24  27
ATOM     27  C   UNL A   1      36.174  29.839  28.191  1.00  0.00     0.039 A 
ATOM     28  C   UNL A   1      36.540  29.433  29.476  1.00  0.00     0.014 A 
ATOM     29  C   UNL A   1      37.143  30.056  27.215  1.00  0.00     0.014 A 
ATOM     30  C   UNL A   1      37.883  29.161  29.751  1.00  0.00     0.010 A 
ATOM     31  C   UNL A   1      38.443  29.648  27.445  1.00  0.00     0.010 A 
ATOM     32  C   UNL A   1      38.836  29.220  28.721  1.00  0.00    -0.014 A 
BRANCH  32  33
ATOM     33  C   UNL A   1      40.268  28.896  28.928  1.00  0.00     0.031 A 
ATOM     34  C   UNL A   1      41.168  29.937  29.542  1.00  0.00     0.074 A 
ATOM     35  C   UNL A   1      40.780  27.747  28.447  1.00  0.00     0.049 A 
ATOM     36  N   UNL A   1      42.473  29.974  29.612  1.00  0.00    -0.248 NA
ATOM     37  C   UNL A   1      40.507  31.136  30.087  1.00  0.00     0.031 C 
ATOM     38  C   UNL A   1      40.024  26.697  27.763  1.00  0.00     0.029 A 
ATOM     39  N   UNL A   1      42.070  27.282  28.445  1.00  0.00    -0.354 N 
ATOM     40  C   UNL A   1      42.782  31.221  30.141  1.00  0.00     0.074 A 
ATOM     41  C   UNL A   1      41.537  31.935  30.307  1.00  0.00     0.031 C 
ATOM     42  C   UNL A   1      40.856  25.693  27.441  1.00  0.00     0.029 A 
ATOM     43  C   UNL A   1      42.208  26.048  27.860  1.00  0.00     0.049 A 
ATOM     44  H   UNL A   1      42.825  27.784  28.828  1.00  0.00     0.167 HD
ATOM     45  C   UNL A   1      43.994  31.712  30.492  1.00  0.00     0.037 A 
ATOM     46  C   UNL A   1      43.309  25.292  27.687  1.00  0.00     0.037 A 
ATOM     47  C   UNL A   1      45.212  30.954  30.408  1.00  0.00     0.049 A 
ATOM     48  C   UNL A   1      44.630  25.813  28.183  1.00  0.00     0.074 A 
ATOM     49  C   UNL A   1      46.485  31.310  30.810  1.00  0.00     0.029 A 
ATOM     50  N   UNL A   1      45.295  29.662  29.905  1.00  0.00    -0.354 N 
ATOM     51  N   UNL A   1      44.910  26.974  28.727  1.00  0.00    -0.248 NA
ATOM     52  C   UNL A   1      45.785  24.917  28.054  1.00  0.00     0.031 C 
ATOM     53  C   UNL A   1      47.342  30.239  30.537  1.00  0.00     0.029 A 
ATOM     54  C   UNL A   1      46.596  29.202  29.998  1.00  0.00     0.049 A 
ATOM     55  H   UNL A   1      44.539  29.150  29.537  1.00  0.00     0.167 HD
ATOM     56  C   UNL A   1      46.262  26.934  29.039  1.00  0.00     0.074 A 
ATOM     57  C   UNL A   1      46.743  25.629  28.630  1.00  0.00     0.031 C 
ATOM     58  C   UNL A   1      47.037  27.888  29.609  1.00  0.00     0.037 A 
BRANCH  45  59
ATOM     59  C   UNL A   1      44.045  33.117  31.022  1.00  0.00     0.064 A 
ATOM     60  C   UNL A   1      43.958  33.392  32.396  1.00  0.00     0.173 A 
ATOM     61  C   UNL A   1      44.172  34.205  30.146  1.00  0.00     0.173 A 
ATOM     62  F   UNL A   1      43.820  32.390  33.278  1.00  0.00    -0.203 F 
ATOM     63  C   UNL A   1      43.946  34.702  32.869  1.00  0.00     0.198 A 
ATOM     64  C   UNL A   1      44.199  35.514  30.625  1.00  0.00     0.198 A 
ATOM     65  F   UNL A   1      44.265  34.003  28.823  1.00  0.00    -0.203 F 
ATOM     66  F   UNL A   1      43.786  34.939  34.178  1.00  0.00    -0.200 F 
ATOM     67  C   UNL A   1      44.072  35.762  31.983  1.00  0.00     0.200 A 
ATOM     68  F   UNL A   1      44.334  36.536  29.769  1.00  0.00    -0.200 F 
ATOM     69  F   UNL A   1      44.060  37.021  32.439  1.00  0.00    -0.200 F 
ENDBRANCH  45  59
BRANCH  46  70
ATOM     70  C   UNL A   1      43.193  23.938  27.086  1.00  0.00     0.064 A 
ATOM     71  C   UNL A   1      43.562  23.718  25.751  1.00  0.00     0.173 A 
ATOM     72  C   UNL A   1      42.729  22.840  27.823  1.00  0.00     0.173 A 
ATOM     73  F   UNL A   1      43.998  24.742  25.002  1.00  0.00    -0.203 F 
ATOM     74  C   UNL A   1      43.451  22.458  25.169  1.00  0.00     0.198 A 
ATOM     75  C   UNL A   1      42.642  21.573  27.246  1.00  0.00     0.198 A 
ATOM     76  F   UNL A   1      42.375  22.992  29.107  1.00  0.00    -0.203 F 
ATOM     77  F   UNL A   1      43.771  22.287  23.879  1.00  0.00    -0.200 F 
ATOM     78  C   UNL A   1      42.995  21.385  25.919  1.00  0.00     0.200 A 
ATOM     79  F   UNL A   1      42.216  20.534  27.978  1.00  0.00    -0.200 F 
ATOM     80  F   UNL A   1      42.891  20.172  25.360  1.00  0.00    -0.200 F 
ENDBRANCH  46  70
BRANCH  58  81
ATOM     81  C   UNL A   1      48.468  27.534  29.878  1.00  0.00     0.064 A 
ATOM     82  C   UNL A   1      48.864  26.925  31.078  1.00  0.00     0.173 A 
ATOM     83  C   UNL A   1      49.447  27.770  28.902  1.00  0.00     0.173 A 
ATOM     84  F   UNL A   1      47.964  26.692  32.045  1.00  0.00    -0.203 F 
ATOM     85  C   UNL A   1      50.195  26.588  31.300  1.00  0.00     0.198 A 
ATOM     86  C   UNL A   1      50.772  27.405  29.117  1.00  0.00     0.198 A 
ATOM     87  F   UNL A   1      49.115  28.343  27.735  1.00  0.00    -0.203 F 
ATOM     88  F   UNL A   1      50.560  26.049  32.471  1.00  0.00    -0.200 F 
ATOM     89  C   UNL A   1      51.147  26.822  30.318  1.00  0.00     0.200 A 
ATOM     90  F   UNL A   1      51.688  27.621  28.162  1.00  0.00    -0.200 F 
ATOM     91  F   UNL A   1      52.427  26.491  30.532  1.00  0.00    -0.200 F 
ENDBRANCH  58  81
ENDBRANCH  32  33
ENDBRANCH  24  27
ENDBRANCH  22  23
ENDBRANCH  21  22
ENDBRANCH  20  21
ENDBRANCH   3  20
TORSDOF 15
ENDMDL
