MODEL 1
REMARK VINA RESULT:     -12.9      0.000      0.000
REMARK SMILES COc1cc(C(=O)NCCCNC(=O)c2ccc(-c3c4nc(c(-c5c(F)c(F)c(F)c(F)c5F)c5ccc([nH]5)c(-c5c(F)c(F)c(F)c(F)c5F)c5nc(c(-c6c(F)c(F)c(F)c(F)c6F)c6ccc3[nH]6)C=C5)C=C4)cc2)cc(-c2cc(Cl)ccc2OC)c1
REMARK SMILES IDX 10 1 9 2 8 3 6 4 7 5 5 7 3 8 4 9 89 10 79 11 78 12 2 13 1 14
REMARK SMILES IDX 80 15 81 16 86 17 82 18 85 19 83 20 84 21 87 22 88 23 11 24
REMARK SMILES IDX 12 25 13 26 14 28 15 29 16 30 77 31 17 32 76 33 18 34 19 35
REMARK SMILES IDX 20 36 70 37 21 38 75 39 69 40 71 41 22 42 74 43 68 44 67 45
REMARK SMILES IDX 23 47 55 48 35 49 54 50 36 51 39 52 53 53 72 54 37 55 38 56
REMARK SMILES IDX 52 58 73 59 40 60 24 61 25 62 33 63 26 64 27 65 31 66 34 67
REMARK SMILES IDX 28 68 29 69 32 70 30 71 56 72 57 73 65 74 58 75 59 76 63 77
REMARK SMILES IDX 66 78 60 79 61 80 64 81 62 82 41 83 42 84 50 85 43 86 44 87
REMARK SMILES IDX 48 88 51 89 45 90 46 91 49 92 47 93
REMARK H PARENT 8 6 12 27 71 46 39 57
REMARK Flexibility Score: inf
ROOT
ATOM      1  C   UNL A   1      31.678  31.969  26.846  1.00  0.00     0.042 C 
ENDROOT
BRANCH   1   2
ATOM      2  C   UNL A   1      31.985  30.482  26.790  1.00  0.00     0.118 C 
BRANCH   2   3
ATOM      3  N   UNL A   1      33.347  30.113  27.159  1.00  0.00    -0.352 N 
ATOM      4  C   UNL A   1      34.180  29.077  26.787  1.00  0.00     0.251 C 
ATOM      5  O   UNL A   1      35.312  29.056  27.270  1.00  0.00    -0.269 OA
ATOM      6  H   UNL A   1      33.757  30.730  27.807  1.00  0.00     0.163 HD
BRANCH   4   7
ATOM      7  C   UNL A   1      33.757  27.962  25.892  1.00  0.00     0.044 A 
ATOM      8  C   UNL A   1      33.467  27.100  23.639  1.00  0.00     0.120 A 
ATOM      9  C   UNL A   1      33.746  28.161  24.508  1.00  0.00     0.060 A 
ATOM     10  C   UNL A   1      33.332  25.803  24.149  1.00  0.00     0.055 A 
ATOM     11  C   UNL A   1      33.418  25.582  25.525  1.00  0.00    -0.010 A 
ATOM     12  C   UNL A   1      33.434  26.700  26.371  1.00  0.00     0.023 A 
BRANCH   8  13
ATOM     13  O   UNL A   1      33.472  27.413  22.307  1.00  0.00    -0.497 OA
ATOM     14  C   UNL A   1      32.992  26.394  21.435  1.00  0.00     0.278 C 
ENDBRANCH   8  13
BRANCH  11  15
ATOM     15  C   UNL A   1      33.673  24.259  26.129  1.00  0.00     0.025 A 
ATOM     16  C   UNL A   1      34.910  23.634  25.841  1.00  0.00     0.033 A 
ATOM     17  C   UNL A   1      32.712  23.505  26.847  1.00  0.00     0.126 A 
ATOM     18  C   UNL A   1      35.174  22.316  26.215  1.00  0.00     0.041 A 
ATOM     19  C   UNL A   1      33.011  22.184  27.235  1.00  0.00     0.048 A 
ATOM     20  Cl  UNL A   1      36.670  21.587  25.782  1.00  0.00    -0.084 Cl
ATOM     21  C   UNL A   1      34.224  21.583  26.909  1.00  0.00     0.024 A 
BRANCH  17  22
ATOM     22  O   UNL A   1      31.474  23.874  27.299  1.00  0.00    -0.496 OA
ATOM     23  C   UNL A   1      30.305  23.192  26.874  1.00  0.00     0.278 C 
ENDBRANCH  17  22
ENDBRANCH  11  15
ENDBRANCH   4   7
ENDBRANCH   2   3
ENDBRANCH   1   2
BRANCH   1  24
ATOM     24  C   UNL A   1      32.863  32.872  27.134  1.00  0.00     0.118 C 
BRANCH  24  25
ATOM     25  N   UNL A   1      32.484  34.195  27.606  1.00  0.00    -0.352 N 
ATOM     26  C   UNL A   1      32.983  34.983  28.620  1.00  0.00     0.251 C 
ATOM     27  H   UNL A   1      31.737  34.601  27.112  1.00  0.00     0.163 HD
ATOM     28  O   UNL A   1      32.396  36.016  28.920  1.00  0.00    -0.269 OA
BRANCH  26  29
ATOM     29  C   UNL A   1      34.186  34.581  29.388  1.00  0.00     0.039 A 
ATOM     30  C   UNL A   1      34.014  34.034  30.664  1.00  0.00     0.014 A 
ATOM     31  C   UNL A   1      35.474  34.742  28.880  1.00  0.00     0.014 A 
ATOM     32  C   UNL A   1      35.118  33.546  31.370  1.00  0.00     0.010 A 
ATOM     33  C   UNL A   1      36.559  34.163  29.533  1.00  0.00     0.010 A 
ATOM     34  C   UNL A   1      36.391  33.543  30.779  1.00  0.00    -0.014 A 
BRANCH  34  35
ATOM     35  C   UNL A   1      37.543  32.854  31.419  1.00  0.00     0.031 A 
ATOM     36  C   UNL A   1      38.182  31.659  30.768  1.00  0.00     0.074 A 
ATOM     37  C   UNL A   1      37.955  33.255  32.638  1.00  0.00     0.049 A 
ATOM     38  N   UNL A   1      39.127  30.875  31.222  1.00  0.00    -0.248 NA
ATOM     39  C   UNL A   1      37.674  31.278  29.440  1.00  0.00     0.031 C 
ATOM     40  C   UNL A   1      37.383  34.367  33.400  1.00  0.00     0.029 A 
ATOM     41  N   UNL A   1      38.939  32.763  33.461  1.00  0.00    -0.354 N 
ATOM     42  C   UNL A   1      39.317  29.905  30.247  1.00  0.00     0.074 A 
ATOM     43  C   UNL A   1      38.353  30.165  29.200  1.00  0.00     0.031 C 
ATOM     44  C   UNL A   1      38.038  34.488  34.565  1.00  0.00     0.029 A 
ATOM     45  C   UNL A   1      39.042  33.433  34.657  1.00  0.00     0.049 A 
ATOM     46  H   UNL A   1      39.516  32.005  33.218  1.00  0.00     0.167 HD
ATOM     47  C   UNL A   1      40.227  28.901  30.219  1.00  0.00     0.037 A 
ATOM     48  C   UNL A   1      39.841  33.212  35.718  1.00  0.00     0.037 A 
ATOM     49  C   UNL A   1      41.196  28.656  31.255  1.00  0.00     0.049 A 
ATOM     50  C   UNL A   1      40.823  32.074  35.673  1.00  0.00     0.074 A 
ATOM     51  C   UNL A   1      42.205  27.710  31.286  1.00  0.00     0.029 A 
ATOM     52  N   UNL A   1      41.270  29.357  32.451  1.00  0.00    -0.354 N 
ATOM     53  N   UNL A   1      41.046  31.213  34.710  1.00  0.00    -0.248 NA
ATOM     54  C   UNL A   1      41.663  31.875  36.861  1.00  0.00     0.031 C 
ATOM     55  C   UNL A   1      42.852  27.799  32.523  1.00  0.00     0.029 A 
ATOM     56  C   UNL A   1      42.285  28.838  33.241  1.00  0.00     0.049 A 
ATOM     57  H   UNL A   1      40.689  30.111  32.701  1.00  0.00     0.167 HD
ATOM     58  C   UNL A   1      42.061  30.384  35.167  1.00  0.00     0.074 A 
ATOM     59  C   UNL A   1      42.428  30.862  36.484  1.00  0.00     0.031 C 
ATOM     60  C   UNL A   1      42.636  29.321  34.553  1.00  0.00     0.037 A 
BRANCH  47  61
ATOM     61  C   UNL A   1      40.221  27.988  29.026  1.00  0.00     0.064 A 
ATOM     62  C   UNL A   1      40.948  28.289  27.863  1.00  0.00     0.173 A 
ATOM     63  C   UNL A   1      39.520  26.773  29.062  1.00  0.00     0.173 A 
ATOM     64  F   UNL A   1      41.629  29.441  27.772  1.00  0.00    -0.203 F 
ATOM     65  C   UNL A   1      40.948  27.423  26.772  1.00  0.00     0.198 A 
ATOM     66  C   UNL A   1      39.548  25.895  27.982  1.00  0.00     0.198 A 
ATOM     67  F   UNL A   1      38.814  26.431  30.150  1.00  0.00    -0.203 F 
ATOM     68  F   UNL A   1      41.610  27.756  25.655  1.00  0.00    -0.200 F 
ATOM     69  C   UNL A   1      40.255  26.224  26.835  1.00  0.00     0.200 A 
ATOM     70  F   UNL A   1      38.890  24.729  28.050  1.00  0.00    -0.200 F 
ATOM     71  F   UNL A   1      40.265  25.387  25.789  1.00  0.00    -0.200 F 
ENDBRANCH  47  61
BRANCH  48  72
ATOM     72  C   UNL A   1      39.750  34.092  36.914  1.00  0.00     0.064 A 
ATOM     73  C   UNL A   1      38.926  33.751  37.997  1.00  0.00     0.173 A 
ATOM     74  C   UNL A   1      40.476  35.289  37.000  1.00  0.00     0.173 A 
ATOM     75  F   UNL A   1      38.195  32.628  37.954  1.00  0.00    -0.203 F 
ATOM     76  C   UNL A   1      38.816  34.584  39.109  1.00  0.00     0.198 A 
ATOM     77  C   UNL A   1      40.390  36.106  38.126  1.00  0.00     0.198 A 
ATOM     78  F   UNL A   1      41.282  35.660  35.994  1.00  0.00    -0.203 F 
ATOM     79  F   UNL A   1      37.985  34.258  40.108  1.00  0.00    -0.200 F 
ATOM     80  C   UNL A   1      39.553  35.757  39.175  1.00  0.00     0.200 A 
ATOM     81  F   UNL A   1      41.117  37.229  38.194  1.00  0.00    -0.200 F 
ATOM     82  F   UNL A   1      39.451  36.554  40.247  1.00  0.00    -0.200 F 
ENDBRANCH  48  72
BRANCH  60  83
ATOM     83  C   UNL A   1      43.731  28.609  35.293  1.00  0.00     0.064 A 
ATOM     84  C   UNL A   1      45.077  28.972  35.139  1.00  0.00     0.173 A 
ATOM     85  C   UNL A   1      43.429  27.577  36.196  1.00  0.00     0.173 A 
ATOM     86  F   UNL A   1      45.421  29.940  34.275  1.00  0.00    -0.203 F 
ATOM     87  C   UNL A   1      46.082  28.312  35.842  1.00  0.00     0.198 A 
ATOM     88  C   UNL A   1      44.433  26.942  36.921  1.00  0.00     0.198 A 
ATOM     89  F   UNL A   1      42.157  27.195  36.384  1.00  0.00    -0.203 F 
ATOM     90  F   UNL A   1      47.366  28.642  35.639  1.00  0.00    -0.200 F 
ATOM     91  C   UNL A   1      45.759  27.304  36.738  1.00  0.00     0.200 A 
ATOM     92  F   UNL A   1      44.117  25.979  37.798  1.00  0.00    -0.200 F 
ATOM     93  F   UNL A   1      46.727  26.676  37.420  1.00  0.00    -0.200 F 
ENDBRANCH  60  83
ENDBRANCH  34  35
ENDBRANCH  26  29
ENDBRANCH  24  25
ENDBRANCH   1  24
TORSDOF 13
ENDMDL
MODEL 2
REMARK VINA RESULT:     -12.8      0.298      1.621
REMARK SMILES COc1cc(C(=O)NCCCNC(=O)c2ccc(-c3c4nc(c(-c5c(F)c(F)c(F)c(F)c5F)c5ccc([nH]5)c(-c5c(F)c(F)c(F)c(F)c5F)c5nc(c(-c6c(F)c(F)c(F)c(F)c6F)c6ccc3[nH]6)C=C5)C=C4)cc2)cc(-c2cc(Cl)ccc2OC)c1
REMARK SMILES IDX 10 1 9 2 8 3 6 4 7 5 5 7 3 8 4 9 89 10 79 11 78 12 2 13 1 14
REMARK SMILES IDX 80 15 81 16 86 17 82 18 85 19 83 20 84 21 87 22 88 23 11 24
REMARK SMILES IDX 12 25 13 26 14 28 15 29 16 30 77 31 17 32 76 33 18 34 19 35
REMARK SMILES IDX 20 36 70 37 21 38 75 39 69 40 71 41 22 42 74 43 68 44 67 45
REMARK SMILES IDX 23 47 55 48 35 49 54 50 36 51 39 52 53 53 72 54 37 55 38 56
REMARK SMILES IDX 52 58 73 59 40 60 24 61 25 62 33 63 26 64 27 65 31 66 34 67
REMARK SMILES IDX 28 68 29 69 32 70 30 71 56 72 57 73 65 74 58 75 59 76 63 77
REMARK SMILES IDX 66 78 60 79 61 80 64 81 62 82 41 83 42 84 50 85 43 86 44 87
REMARK SMILES IDX 48 88 51 89 45 90 46 91 49 92 47 93
REMARK H PARENT 8 6 12 27 71 46 39 57
REMARK Flexibility Score: inf
ROOT
ATOM      1  C   UNL A   1      31.648  31.943  26.881  1.00  0.00     0.042 C 
ENDROOT
BRANCH   1   2
ATOM      2  C   UNL A   1      31.918  30.448  26.851  1.00  0.00     0.118 C 
BRANCH   2   3
ATOM      3  N   UNL A   1      33.251  30.047  27.287  1.00  0.00    -0.352 N 
ATOM      4  C   UNL A   1      34.076  28.990  26.958  1.00  0.00     0.251 C 
ATOM      5  O   UNL A   1      35.181  28.943  27.497  1.00  0.00    -0.269 OA
ATOM      6  H   UNL A   1      33.643  30.656  27.954  1.00  0.00     0.163 HD
BRANCH   4   7
ATOM      7  C   UNL A   1      33.670  27.884  26.045  1.00  0.00     0.044 A 
ATOM      8  C   UNL A   1      33.365  27.065  23.777  1.00  0.00     0.120 A 
ATOM      9  C   UNL A   1      33.627  28.115  24.666  1.00  0.00     0.060 A 
ATOM     10  C   UNL A   1      33.279  25.754  24.258  1.00  0.00     0.055 A 
ATOM     11  C   UNL A   1      33.397  25.504  25.627  1.00  0.00    -0.010 A 
ATOM     12  C   UNL A   1      33.395  26.601  26.499  1.00  0.00     0.023 A 
BRANCH   8  13
ATOM     13  O   UNL A   1      33.336  27.410  22.454  1.00  0.00    -0.497 OA
ATOM     14  C   UNL A   1      34.123  28.543  22.097  1.00  0.00     0.278 C 
ENDBRANCH   8  13
BRANCH  11  15
ATOM     15  C   UNL A   1      33.704  24.175  26.195  1.00  0.00     0.025 A 
ATOM     16  C   UNL A   1      34.946  23.587  25.854  1.00  0.00     0.033 A 
ATOM     17  C   UNL A   1      32.786  23.383  26.927  1.00  0.00     0.126 A 
ATOM     18  C   UNL A   1      35.253  22.269  26.192  1.00  0.00     0.041 A 
ATOM     19  C   UNL A   1      33.129  22.063  27.279  1.00  0.00     0.048 A 
ATOM     20  Cl  UNL A   1      36.751  21.585  25.695  1.00  0.00    -0.084 Cl
ATOM     21  C   UNL A   1      34.345  21.499  26.901  1.00  0.00     0.024 A 
BRANCH  17  22
ATOM     22  O   UNL A   1      31.554  23.713  27.427  1.00  0.00    -0.496 OA
ATOM     23  C   UNL A   1      30.365  23.350  26.744  1.00  0.00     0.278 C 
ENDBRANCH  17  22
ENDBRANCH  11  15
ENDBRANCH   4   7
ENDBRANCH   2   3
ENDBRANCH   1   2
BRANCH   1  24
ATOM     24  C   UNL A   1      32.846  32.818  27.197  1.00  0.00     0.118 C 
BRANCH  24  25
ATOM     25  N   UNL A   1      32.487  34.159  27.636  1.00  0.00    -0.352 N 
ATOM     26  C   UNL A   1      33.004  34.969  28.623  1.00  0.00     0.251 C 
ATOM     27  H   UNL A   1      31.739  34.559  27.137  1.00  0.00     0.163 HD
ATOM     28  O   UNL A   1      32.432  36.016  28.899  1.00  0.00    -0.269 OA
BRANCH  26  29
ATOM     29  C   UNL A   1      34.210  34.574  29.390  1.00  0.00     0.039 A 
ATOM     30  C   UNL A   1      34.048  34.111  30.701  1.00  0.00     0.014 A 
ATOM     31  C   UNL A   1      35.491  34.660  28.849  1.00  0.00     0.014 A 
ATOM     32  C   UNL A   1      35.150  33.630  31.414  1.00  0.00     0.010 A 
ATOM     33  C   UNL A   1      36.571  34.087  29.515  1.00  0.00     0.010 A 
ATOM     34  C   UNL A   1      36.410  33.549  30.800  1.00  0.00    -0.014 A 
BRANCH  34  35
ATOM     35  C   UNL A   1      37.553  32.862  31.458  1.00  0.00     0.031 A 
ATOM     36  C   UNL A   1      38.213  31.677  30.810  1.00  0.00     0.074 A 
ATOM     37  C   UNL A   1      37.936  33.255  32.689  1.00  0.00     0.049 A 
ATOM     38  N   UNL A   1      39.154  30.895  31.278  1.00  0.00    -0.248 NA
ATOM     39  C   UNL A   1      37.737  31.304  29.469  1.00  0.00     0.031 C 
ATOM     40  C   UNL A   1      37.341  34.357  33.448  1.00  0.00     0.029 A 
ATOM     41  N   UNL A   1      38.906  32.763  33.528  1.00  0.00    -0.354 N 
ATOM     42  C   UNL A   1      39.371  29.935  30.299  1.00  0.00     0.074 A 
ATOM     43  C   UNL A   1      38.427  30.197  29.234  1.00  0.00     0.031 C 
ATOM     44  C   UNL A   1      37.970  34.472  34.628  1.00  0.00     0.029 A 
ATOM     45  C   UNL A   1      38.979  33.423  34.732  1.00  0.00     0.049 A 
ATOM     46  H   UNL A   1      39.493  32.010  33.291  1.00  0.00     0.167 HD
ATOM     47  C   UNL A   1      40.287  28.937  30.282  1.00  0.00     0.037 A 
ATOM     48  C   UNL A   1      39.757  33.199  35.807  1.00  0.00     0.037 A 
ATOM     49  C   UNL A   1      41.237  28.690  31.336  1.00  0.00     0.049 A 
ATOM     50  C   UNL A   1      40.747  32.067  35.773  1.00  0.00     0.074 A 
ATOM     51  C   UNL A   1      42.251  27.750  31.380  1.00  0.00     0.029 A 
ATOM     52  N   UNL A   1      41.281  29.381  32.539  1.00  0.00    -0.354 N 
ATOM     53  N   UNL A   1      40.996  31.215  34.809  1.00  0.00    -0.248 NA
ATOM     54  C   UNL A   1      41.563  31.864  36.978  1.00  0.00     0.031 C 
ATOM     55  C   UNL A   1      42.871  27.832  32.631  1.00  0.00     0.029 A 
ATOM     56  C   UNL A   1      42.282  28.862  33.346  1.00  0.00     0.049 A 
ATOM     57  H   UNL A   1      40.689  30.129  32.783  1.00  0.00     0.167 HD
ATOM     58  C   UNL A   1      42.007  30.390  35.279  1.00  0.00     0.074 A 
ATOM     59  C   UNL A   1      42.343  30.859  36.608  1.00  0.00     0.031 C 
ATOM     60  C   UNL A   1      42.602  29.335  34.669  1.00  0.00     0.037 A 
BRANCH  47  61
ATOM     61  C   UNL A   1      40.313  28.034  29.082  1.00  0.00     0.064 A 
ATOM     62  C   UNL A   1      39.583  26.836  29.044  1.00  0.00     0.173 A 
ATOM     63  C   UNL A   1      41.039  28.393  27.935  1.00  0.00     0.173 A 
ATOM     64  F   UNL A   1      38.878  26.441  30.114  1.00  0.00    -0.203 F 
ATOM     65  C   UNL A   1      39.602  26.018  27.916  1.00  0.00     0.198 A 
ATOM     66  C   UNL A   1      41.030  27.589  26.799  1.00  0.00     0.198 A 
ATOM     67  F   UNL A   1      41.750  29.531  27.913  1.00  0.00    -0.203 F 
ATOM     68  F   UNL A   1      38.935  24.856  27.922  1.00  0.00    -0.200 F 
ATOM     69  C   UNL A   1      40.319  26.399  26.792  1.00  0.00     0.200 A 
ATOM     70  F   UNL A   1      41.712  27.967  25.707  1.00  0.00    -0.200 F 
ATOM     71  F   UNL A   1      40.328  25.617  25.705  1.00  0.00    -0.200 F 
ENDBRANCH  47  61
BRANCH  48  72
ATOM     72  C   UNL A   1      39.634  34.067  37.009  1.00  0.00     0.064 A 
ATOM     73  C   UNL A   1      38.842  33.680  38.099  1.00  0.00     0.173 A 
ATOM     74  C   UNL A   1      40.299  35.300  37.092  1.00  0.00     0.173 A 
ATOM     75  F   UNL A   1      38.169  32.521  38.059  1.00  0.00    -0.203 F 
ATOM     76  C   UNL A   1      38.702  34.502  39.216  1.00  0.00     0.198 A 
ATOM     77  C   UNL A   1      40.185  36.106  38.223  1.00  0.00     0.198 A 
ATOM     78  F   UNL A   1      41.074  35.716  36.079  1.00  0.00    -0.203 F 
ATOM     79  F   UNL A   1      37.900  34.129  40.223  1.00  0.00    -0.200 F 
ATOM     80  C   UNL A   1      39.379  35.710  39.279  1.00  0.00     0.200 A 
ATOM     81  F   UNL A   1      40.854  37.265  38.288  1.00  0.00    -0.200 F 
ATOM     82  F   UNL A   1      39.249  36.497  40.357  1.00  0.00    -0.200 F 
ENDBRANCH  48  72
BRANCH  60  83
ATOM     83  C   UNL A   1      43.686  28.625  35.426  1.00  0.00     0.064 A 
ATOM     84  C   UNL A   1      43.396  27.585  36.322  1.00  0.00     0.173 A 
ATOM     85  C   UNL A   1      45.034  28.960  35.224  1.00  0.00     0.173 A 
ATOM     86  F   UNL A   1      42.123  27.238  36.565  1.00  0.00    -0.203 F 
ATOM     87  C   UNL A   1      44.413  26.926  37.008  1.00  0.00     0.198 A 
ATOM     88  C   UNL A   1      46.050  28.277  35.887  1.00  0.00     0.198 A 
ATOM     89  F   UNL A   1      45.366  29.942  34.374  1.00  0.00    -0.203 F 
ATOM     90  F   UNL A   1      44.108  25.971  37.899  1.00  0.00    -0.200 F 
ATOM     91  C   UNL A   1      45.739  27.266  36.784  1.00  0.00     0.200 A 
ATOM     92  F   UNL A   1      47.331  28.596  35.657  1.00  0.00    -0.200 F 
ATOM     93  F   UNL A   1      46.716  26.624  37.438  1.00  0.00    -0.200 F 
ENDBRANCH  60  83
ENDBRANCH  34  35
ENDBRANCH  26  29
ENDBRANCH  24  25
ENDBRANCH   1  24
TORSDOF 13
ENDMDL
MODEL 3
REMARK VINA RESULT:     -12.7      5.971     11.298
REMARK SMILES COc1cc(C(=O)NCCCNC(=O)c2ccc(-c3c4nc(c(-c5c(F)c(F)c(F)c(F)c5F)c5ccc([nH]5)c(-c5c(F)c(F)c(F)c(F)c5F)c5nc(c(-c6c(F)c(F)c(F)c(F)c6F)c6ccc3[nH]6)C=C5)C=C4)cc2)cc(-c2cc(Cl)ccc2OC)c1
REMARK SMILES IDX 10 1 9 2 8 3 6 4 7 5 5 7 3 8 4 9 89 10 79 11 78 12 2 13 1 14
REMARK SMILES IDX 80 15 81 16 86 17 82 18 85 19 83 20 84 21 87 22 88 23 11 24
REMARK SMILES IDX 12 25 13 26 14 28 15 29 16 30 77 31 17 32 76 33 18 34 19 35
REMARK SMILES IDX 20 36 70 37 21 38 75 39 69 40 71 41 22 42 74 43 68 44 67 45
REMARK SMILES IDX 23 47 55 48 35 49 54 50 36 51 39 52 53 53 72 54 37 55 38 56
REMARK SMILES IDX 52 58 73 59 40 60 24 61 25 62 33 63 26 64 27 65 31 66 34 67
REMARK SMILES IDX 28 68 29 69 32 70 30 71 56 72 57 73 65 74 58 75 59 76 63 77
REMARK SMILES IDX 66 78 60 79 61 80 64 81 62 82 41 83 42 84 50 85 43 86 44 87
REMARK SMILES IDX 48 88 51 89 45 90 46 91 49 92 47 93
REMARK H PARENT 8 6 12 27 71 46 39 57
REMARK Flexibility Score: inf
ROOT
ATOM      1  C   UNL A   1      38.265  19.920  25.004  1.00  0.00     0.042 C 
ENDROOT
BRANCH   1   2
ATOM      2  C   UNL A   1      37.457  21.175  24.718  1.00  0.00     0.118 C 
BRANCH   2   3
ATOM      3  N   UNL A   1      37.915  22.379  25.403  1.00  0.00    -0.352 N 
ATOM      4  C   UNL A   1      37.267  23.503  25.874  1.00  0.00     0.251 C 
ATOM      5  O   UNL A   1      37.949  24.355  26.442  1.00  0.00    -0.269 OA
ATOM      6  H   UNL A   1      38.886  22.393  25.561  1.00  0.00     0.163 HD
BRANCH   4   7
ATOM      7  C   UNL A   1      35.812  23.760  25.670  1.00  0.00     0.044 A 
ATOM      8  C   UNL A   1      33.518  23.412  26.391  1.00  0.00     0.120 A 
ATOM      9  C   UNL A   1      34.880  23.103  26.480  1.00  0.00     0.060 A 
ATOM     10  C   UNL A   1      33.100  24.478  25.587  1.00  0.00     0.055 A 
ATOM     11  C   UNL A   1      34.033  25.190  24.832  1.00  0.00    -0.010 A 
ATOM     12  C   UNL A   1      35.338  24.683  24.748  1.00  0.00     0.023 A 
BRANCH   8  13
ATOM     13  O   UNL A   1      32.699  22.698  27.223  1.00  0.00    -0.497 OA
ATOM     14  C   UNL A   1      31.308  22.984  27.107  1.00  0.00     0.278 C 
ENDBRANCH   8  13
BRANCH  11  15
ATOM     15  C   UNL A   1      33.781  26.532  24.269  1.00  0.00     0.025 A 
ATOM     16  C   UNL A   1      33.557  27.594  25.178  1.00  0.00     0.033 A 
ATOM     17  C   UNL A   1      33.595  26.803  22.891  1.00  0.00     0.126 A 
ATOM     18  C   UNL A   1      33.137  28.854  24.750  1.00  0.00     0.041 A 
ATOM     19  C   UNL A   1      33.195  28.090  22.481  1.00  0.00     0.048 A 
ATOM     20  Cl  UNL A   1      32.817  30.087  25.905  1.00  0.00    -0.084 Cl
ATOM     21  C   UNL A   1      32.949  29.106  23.401  1.00  0.00     0.024 A 
BRANCH  17  22
ATOM     22  O   UNL A   1      33.792  25.989  21.807  1.00  0.00    -0.496 OA
ATOM     23  C   UNL A   1      32.712  25.612  20.968  1.00  0.00     0.278 C 
ENDBRANCH  17  22
ENDBRANCH  11  15
ENDBRANCH   4   7
ENDBRANCH   2   3
ENDBRANCH   1   2
BRANCH   1  24
ATOM     24  C   UNL A   1      39.363  20.070  26.040  1.00  0.00     0.118 C 
BRANCH  24  25
ATOM     25  N   UNL A   1      40.404  19.058  25.934  1.00  0.00    -0.352 N 
ATOM     26  C   UNL A   1      41.775  19.140  26.035  1.00  0.00     0.251 C 
ATOM     27  H   UNL A   1      40.067  18.150  25.759  1.00  0.00     0.163 HD
ATOM     28  O   UNL A   1      42.456  18.157  25.765  1.00  0.00    -0.269 OA
BRANCH  26  29
ATOM     29  C   UNL A   1      42.445  20.407  26.416  1.00  0.00     0.039 A 
ATOM     30  C   UNL A   1      43.121  21.130  25.428  1.00  0.00     0.014 A 
ATOM     31  C   UNL A   1      42.428  20.887  27.724  1.00  0.00     0.014 A 
ATOM     32  C   UNL A   1      43.671  22.380  25.729  1.00  0.00     0.010 A 
ATOM     33  C   UNL A   1      42.881  22.174  28.001  1.00  0.00     0.010 A 
ATOM     34  C   UNL A   1      43.494  22.943  27.002  1.00  0.00    -0.014 A 
BRANCH  34  35
ATOM     35  C   UNL A   1      43.891  24.346  27.294  1.00  0.00     0.031 A 
ATOM     36  C   UNL A   1      42.868  25.359  27.728  1.00  0.00     0.074 A 
ATOM     37  C   UNL A   1      45.165  24.728  27.076  1.00  0.00     0.049 A 
ATOM     38  N   UNL A   1      43.011  26.645  27.931  1.00  0.00    -0.248 NA
ATOM     39  C   UNL A   1      41.497  24.868  27.938  1.00  0.00     0.031 C 
ATOM     40  C   UNL A   1      46.240  23.854  26.603  1.00  0.00     0.029 A 
ATOM     41  N   UNL A   1      45.770  25.954  27.207  1.00  0.00    -0.354 N 
ATOM     42  C   UNL A   1      41.752  27.116  28.277  1.00  0.00     0.074 A 
ATOM     43  C   UNL A   1      40.845  25.991  28.206  1.00  0.00     0.031 C 
ATOM     44  C   UNL A   1      47.376  24.563  26.505  1.00  0.00     0.029 A 
ATOM     45  C   UNL A   1      47.100  25.952  26.859  1.00  0.00     0.049 A 
ATOM     46  H   UNL A   1      45.298  26.758  27.521  1.00  0.00     0.167 HD
ATOM     47  C   UNL A   1      41.390  28.370  28.642  1.00  0.00     0.037 A 
ATOM     48  C   UNL A   1      47.994  26.957  26.811  1.00  0.00     0.037 A 
ATOM     49  C   UNL A   1      42.298  29.484  28.730  1.00  0.00     0.049 A 
ATOM     50  C   UNL A   1      47.560  28.344  27.194  1.00  0.00     0.074 A 
ATOM     51  C   UNL A   1      42.042  30.774  29.158  1.00  0.00     0.029 A 
ATOM     52  N   UNL A   1      43.638  29.441  28.371  1.00  0.00    -0.354 N 
ATOM     53  N   UNL A   1      46.383  28.760  27.596  1.00  0.00    -0.248 NA
ATOM     54  C   UNL A   1      48.575  29.403  27.115  1.00  0.00     0.031 C 
ATOM     55  C   UNL A   1      43.211  31.527  29.003  1.00  0.00     0.029 A 
ATOM     56  C   UNL A   1      44.212  30.693  28.533  1.00  0.00     0.049 A 
ATOM     57  H   UNL A   1      44.112  28.640  28.049  1.00  0.00     0.167 HD
ATOM     58  C   UNL A   1      46.521  30.120  27.836  1.00  0.00     0.074 A 
ATOM     59  C   UNL A   1      47.903  30.455  27.558  1.00  0.00     0.031 C 
ATOM     60  C   UNL A   1      45.587  31.014  28.246  1.00  0.00     0.037 A 
BRANCH  47  61
ATOM     61  C   UNL A   1      39.945  28.609  28.979  1.00  0.00     0.064 A 
ATOM     62  C   UNL A   1      39.446  28.400  30.275  1.00  0.00     0.173 A 
ATOM     63  C   UNL A   1      39.058  29.097  28.007  1.00  0.00     0.173 A 
ATOM     64  F   UNL A   1      40.248  27.928  31.240  1.00  0.00    -0.203 F 
ATOM     65  C   UNL A   1      38.108  28.644  30.576  1.00  0.00     0.198 A 
ATOM     66  C   UNL A   1      37.729  29.369  28.321  1.00  0.00     0.198 A 
ATOM     67  F   UNL A   1      39.483  29.320  26.755  1.00  0.00    -0.203 F 
ATOM     68  F   UNL A   1      37.644  28.392  31.808  1.00  0.00    -0.200 F 
ATOM     69  C   UNL A   1      37.253  29.135  29.601  1.00  0.00     0.200 A 
ATOM     70  F   UNL A   1      36.908  29.859  27.381  1.00  0.00    -0.200 F 
ATOM     71  F   UNL A   1      35.969  29.379  29.896  1.00  0.00    -0.200 F 
ENDBRANCH  47  61
BRANCH  48  72
ATOM     72  C   UNL A   1      49.394  26.687  26.387  1.00  0.00     0.064 A 
ATOM     73  C   UNL A   1      49.787  26.855  25.051  1.00  0.00     0.173 A 
ATOM     74  C   UNL A   1      50.366  26.254  27.301  1.00  0.00     0.173 A 
ATOM     75  F   UNL A   1      48.889  27.246  24.134  1.00  0.00    -0.203 F 
ATOM     76  C   UNL A   1      51.090  26.579  24.643  1.00  0.00     0.198 A 
ATOM     77  C   UNL A   1      51.677  26.009  26.898  1.00  0.00     0.198 A 
ATOM     78  F   UNL A   1      50.045  26.083  28.592  1.00  0.00    -0.203 F 
ATOM     79  F   UNL A   1      51.425  26.700  23.351  1.00  0.00    -0.200 F 
ATOM     80  C   UNL A   1      52.035  26.163  25.568  1.00  0.00     0.200 A 
ATOM     81  F   UNL A   1      52.592  25.625  27.798  1.00  0.00    -0.200 F 
ATOM     82  F   UNL A   1      53.290  25.903  25.175  1.00  0.00    -0.200 F 
ENDBRANCH  48  72
BRANCH  60  83
ATOM     83  C   UNL A   1      46.031  32.436  28.432  1.00  0.00     0.064 A 
ATOM     84  C   UNL A   1      45.929  33.378  27.398  1.00  0.00     0.173 A 
ATOM     85  C   UNL A   1      46.528  32.872  29.671  1.00  0.00     0.173 A 
ATOM     86  F   UNL A   1      45.478  33.007  26.189  1.00  0.00    -0.203 F 
ATOM     87  C   UNL A   1      46.332  34.697  27.588  1.00  0.00     0.198 A 
ATOM     88  C   UNL A   1      46.899  34.199  29.867  1.00  0.00     0.198 A 
ATOM     89  F   UNL A   1      46.640  32.013  30.694  1.00  0.00    -0.203 F 
ATOM     90  F   UNL A   1      46.274  35.567  26.569  1.00  0.00    -0.200 F 
ATOM     91  C   UNL A   1      46.808  35.109  28.824  1.00  0.00     0.200 A 
ATOM     92  F   UNL A   1      47.344  34.599  31.066  1.00  0.00    -0.200 F 
ATOM     93  F   UNL A   1      47.187  36.381  29.008  1.00  0.00    -0.200 F 
ENDBRANCH  60  83
ENDBRANCH  34  35
ENDBRANCH  26  29
ENDBRANCH  24  25
ENDBRANCH   1  24
TORSDOF 13
ENDMDL
