MODEL 1
REMARK VINA RESULT:     -12.5      0.000      0.000
REMARK SMILES Cc1cc([C@@H](C)NC(=O)N[C@H]2C=C[C@@H](C(=O)NCCCNC(=O)c3ccc(-c4c5nc(c(-c6c(F)c(F)c(F)c(F)c6F)c6ccc([nH]6)c(-c6c(F)c(F)c(F)c(F)c6F)c6nc(c(-c7c(F)c(F)c(F)c(F)c7F)c7ccc4[nH]7)C=C6)C=C5)cc3)C2)c(C)s1
REMARK SMILES IDX 18 1 17 2 15 3 16 4 14 6 11 7 12 8 87 9 13 10 10 11 7 12
REMARK SMILES IDX 8 13 9 15 5 17 6 18 4 19 1 20 2 21 3 22 90 23 88 24 89 25
REMARK SMILES IDX 19 26 20 27 21 28 22 29 23 31 24 32 25 33 86 34 26 35 85 36
REMARK SMILES IDX 27 37 28 38 29 39 79 40 30 41 84 42 78 43 80 44 31 45 83 46
REMARK SMILES IDX 77 47 76 48 32 50 64 51 44 52 63 53 45 54 48 55 62 56 81 57
REMARK SMILES IDX 46 58 47 59 61 61 82 62 49 63 33 64 34 65 42 66 35 67 36 68
REMARK SMILES IDX 40 69 43 70 37 71 38 72 41 73 39 74 65 75 66 76 74 77 67 78
REMARK SMILES IDX 68 79 72 80 75 81 69 82 70 83 73 84 71 85 50 86 51 87 59 88
REMARK SMILES IDX 52 89 53 90 57 91 60 92 54 93 55 94 58 95 56 96
REMARK H PARENT 17 5 7 14 10 16 21 30 80 49 48 60
REMARK Flexibility Score: inf
ROOT
ATOM      1  C   UNL A   1      31.724  30.724  26.258  1.00  0.00     0.117 C 
ENDROOT
BRANCH   1   2
ATOM      2  N   UNL A   1      31.542  29.681  27.249  1.00  0.00    -0.356 N 
ATOM      3  C   UNL A   1      31.727  28.338  27.156  1.00  0.00     0.227 C 
ATOM      4  O   UNL A   1      31.532  27.673  28.178  1.00  0.00    -0.274 OA
ATOM      5  H   UNL A   1      31.237  29.997  28.129  1.00  0.00     0.163 HD
BRANCH   3   6
ATOM      6  C   UNL A   1      32.059  27.635  25.836  1.00  0.00     0.103 C 
ATOM      7  C   UNL A   1      31.830  25.261  25.139  1.00  0.00     0.107 C 
ATOM      8  C   UNL A   1      30.879  26.176  24.425  1.00  0.00    -0.006 C 
ATOM      9  C   UNL A   1      32.565  26.217  26.083  1.00  0.00     0.047 C 
ATOM     10  C   UNL A   1      30.985  27.453  24.817  1.00  0.00    -0.016 C 
BRANCH   7  11
ATOM     11  N   UNL A   1      31.064  24.250  25.833  1.00  0.00    -0.332 N 
ATOM     12  N   UNL A   1      31.552  22.156  24.823  1.00  0.00    -0.332 N 
ATOM     13  C   UNL A   1      30.923  22.926  25.713  1.00  0.00     0.315 C 
ATOM     14  H   UNL A   1      31.310  21.206  24.926  1.00  0.00     0.165 HD
ATOM     15  O   UNL A   1      30.150  22.370  26.501  1.00  0.00    -0.249 OA
ATOM     16  H   UNL A   1      30.520  24.623  26.564  1.00  0.00     0.165 HD
BRANCH  12  17
ATOM     17  C   UNL A   1      32.503  22.356  23.743  1.00  0.00     0.112 C 
ATOM     18  C   UNL A   1      32.153  21.506  22.526  1.00  0.00     0.036 C 
BRANCH  17  19
ATOM     19  C   UNL A   1      33.902  22.125  24.295  1.00  0.00    -0.012 A 
ATOM     20  C   UNL A   1      37.155  23.703  25.489  1.00  0.00     0.056 C 
ATOM     21  C   UNL A   1      36.019  22.826  25.084  1.00  0.00     0.002 A 
ATOM     22  C   UNL A   1      34.858  23.194  24.446  1.00  0.00     0.021 A 
ATOM     23  S   UNL A   1      36.051  21.156  25.376  1.00  0.00    -0.146 S 
ATOM     24  C   UNL A   1      34.472  20.932  24.730  1.00  0.00     0.007 A 
ATOM     25  C   UNL A   1      33.936  19.537  24.709  1.00  0.00     0.057 C 
ENDBRANCH  17  19
ENDBRANCH  12  17
ENDBRANCH   7  11
ENDBRANCH   3   6
ENDBRANCH   1   2
BRANCH   1  26
ATOM     26  C   UNL A   1      31.491  32.118  26.820  1.00  0.00     0.042 C 
BRANCH  26  27
ATOM     27  C   UNL A   1      32.752  32.961  26.926  1.00  0.00     0.118 C 
BRANCH  27  28
ATOM     28  N   UNL A   1      32.528  34.219  27.626  1.00  0.00    -0.352 N 
ATOM     29  C   UNL A   1      33.059  34.688  28.798  1.00  0.00     0.251 C 
ATOM     30  H   UNL A   1      31.893  34.829  27.187  1.00  0.00     0.163 HD
ATOM     31  O   UNL A   1      32.566  35.685  29.330  1.00  0.00    -0.269 OA
BRANCH  29  32
ATOM     32  C   UNL A   1      34.216  34.020  29.426  1.00  0.00     0.039 A 
ATOM     33  C   UNL A   1      35.505  34.466  29.119  1.00  0.00     0.014 A 
ATOM     34  C   UNL A   1      34.041  32.918  30.266  1.00  0.00     0.014 A 
ATOM     35  C   UNL A   1      36.612  33.827  29.681  1.00  0.00     0.010 A 
ATOM     36  C   UNL A   1      35.137  32.346  30.901  1.00  0.00     0.010 A 
ATOM     37  C   UNL A   1      36.435  32.772  30.590  1.00  0.00    -0.014 A 
BRANCH  37  38
ATOM     38  C   UNL A   1      37.594  32.053  31.174  1.00  0.00     0.031 A 
ATOM     39  C   UNL A   1      38.058  32.396  32.564  1.00  0.00     0.074 A 
ATOM     40  C   UNL A   1      38.253  31.137  30.443  1.00  0.00     0.049 A 
ATOM     41  N   UNL A   1      39.085  31.935  33.234  1.00  0.00    -0.248 NA
ATOM     42  C   UNL A   1      37.285  33.421  33.285  1.00  0.00     0.031 C 
ATOM     43  C   UNL A   1      37.928  30.756  29.068  1.00  0.00     0.029 A 
ATOM     44  N   UNL A   1      39.342  30.363  30.754  1.00  0.00    -0.354 N 
ATOM     45  C   UNL A   1      39.090  32.629  34.438  1.00  0.00     0.074 A 
ATOM     46  C   UNL A   1      38.008  33.586  34.383  1.00  0.00     0.031 C 
ATOM     47  C   UNL A   1      38.782  29.801  28.664  1.00  0.00     0.029 A 
ATOM     48  C   UNL A   1      39.731  29.527  29.737  1.00  0.00     0.049 A 
ATOM     49  H   UNL A   1      39.801  30.403  31.624  1.00  0.00     0.167 HD
ATOM     50  C   UNL A   1      39.907  32.464  35.506  1.00  0.00     0.037 A 
ATOM     51  C   UNL A   1      40.741  28.639  29.682  1.00  0.00     0.037 A 
ATOM     52  C   UNL A   1      40.961  31.487  35.568  1.00  0.00     0.049 A 
ATOM     53  C   UNL A   1      41.618  28.456  30.893  1.00  0.00     0.074 A 
ATOM     54  C   UNL A   1      41.817  31.203  36.617  1.00  0.00     0.029 A 
ATOM     55  N   UNL A   1      41.297  30.625  34.533  1.00  0.00    -0.354 N 
ATOM     56  N   UNL A   1      41.579  29.074  32.048  1.00  0.00    -0.248 NA
ATOM     57  C   UNL A   1      42.670  27.435  30.795  1.00  0.00     0.031 C 
ATOM     58  C   UNL A   1      42.697  30.197  36.203  1.00  0.00     0.029 A 
ATOM     59  C   UNL A   1      42.352  29.814  34.916  1.00  0.00     0.049 A 
ATOM     60  H   UNL A   1      40.851  30.596  33.656  1.00  0.00     0.167 HD
ATOM     61  C   UNL A   1      42.570  28.493  32.827  1.00  0.00     0.074 A 
ATOM     62  C   UNL A   1      43.186  27.463  32.015  1.00  0.00     0.031 C 
ATOM     63  C   UNL A   1      42.938  28.781  34.100  1.00  0.00     0.037 A 
BRANCH  50  64
ATOM     64  C   UNL A   1      39.682  33.356  36.694  1.00  0.00     0.064 A 
ATOM     65  C   UNL A   1      38.803  32.998  37.729  1.00  0.00     0.173 A 
ATOM     66  C   UNL A   1      40.363  34.577  36.808  1.00  0.00     0.173 A 
ATOM     67  F   UNL A   1      38.116  31.847  37.664  1.00  0.00    -0.203 F 
ATOM     68  C   UNL A   1      38.589  33.843  38.814  1.00  0.00     0.198 A 
ATOM     69  C   UNL A   1      40.172  35.404  37.912  1.00  0.00     0.198 A 
ATOM     70  F   UNL A   1      41.217  34.968  35.851  1.00  0.00    -0.203 F 
ATOM     71  F   UNL A   1      37.700  33.506  39.759  1.00  0.00    -0.200 F 
ATOM     72  C   UNL A   1      39.278  35.042  38.908  1.00  0.00     0.200 A 
ATOM     73  F   UNL A   1      40.848  36.557  38.008  1.00  0.00    -0.200 F 
ATOM     74  F   UNL A   1      39.074  35.853  39.956  1.00  0.00    -0.200 F 
ENDBRANCH  50  64
BRANCH  51  75
ATOM     75  C   UNL A   1      40.947  27.820  28.460  1.00  0.00     0.064 A 
ATOM     76  C   UNL A   1      41.766  28.280  27.418  1.00  0.00     0.173 A 
ATOM     77  C   UNL A   1      40.328  26.572  28.302  1.00  0.00     0.173 A 
ATOM     78  F   UNL A   1      42.365  29.475  27.515  1.00  0.00    -0.203 F 
ATOM     79  C   UNL A   1      41.935  27.534  26.254  1.00  0.00     0.198 A 
ATOM     80  C   UNL A   1      40.523  25.815  27.149  1.00  0.00     0.198 A 
ATOM     81  F   UNL A   1      39.540  26.086  29.271  1.00  0.00    -0.203 F 
ATOM     82  F   UNL A   1      42.682  28.021  25.252  1.00  0.00    -0.200 F 
ATOM     83  C   UNL A   1      41.317  26.300  26.122  1.00  0.00     0.200 A 
ATOM     84  F   UNL A   1      39.934  24.617  27.030  1.00  0.00    -0.200 F 
ATOM     85  F   UNL A   1      41.481  25.583  25.001  1.00  0.00    -0.200 F 
ENDBRANCH  51  75
BRANCH  63  86
ATOM     86  C   UNL A   1      44.011  27.931  34.712  1.00  0.00     0.064 A 
ATOM     87  C   UNL A   1      43.718  26.741  35.395  1.00  0.00     0.173 A 
ATOM     88  C   UNL A   1      45.359  28.306  34.596  1.00  0.00     0.173 A 
ATOM     89  F   UNL A   1      42.445  26.344  35.544  1.00  0.00    -0.203 F 
ATOM     90  C   UNL A   1      44.731  25.978  35.971  1.00  0.00     0.198 A 
ATOM     91  C   UNL A   1      46.372  27.524  35.144  1.00  0.00     0.198 A 
ATOM     92  F   UNL A   1      45.695  29.429  33.945  1.00  0.00    -0.203 F 
ATOM     93  F   UNL A   1      44.422  24.879  36.671  1.00  0.00    -0.200 F 
ATOM     94  C   UNL A   1      46.055  26.367  35.841  1.00  0.00     0.200 A 
ATOM     95  F   UNL A   1      47.652  27.894  35.004  1.00  0.00    -0.200 F 
ATOM     96  F   UNL A   1      47.029  25.633  36.396  1.00  0.00    -0.200 F 
ENDBRANCH  63  86
ENDBRANCH  37  38
ENDBRANCH  29  32
ENDBRANCH  27  28
ENDBRANCH  26  27
ENDBRANCH   1  26
TORSDOF 13
ENDMDL
MODEL 2
REMARK VINA RESULT:     -12.5      0.790      7.483
REMARK SMILES Cc1cc([C@@H](C)NC(=O)N[C@H]2C=C[C@@H](C(=O)NCCCNC(=O)c3ccc(-c4c5nc(c(-c6c(F)c(F)c(F)c(F)c6F)c6ccc([nH]6)c(-c6c(F)c(F)c(F)c(F)c6F)c6nc(c(-c7c(F)c(F)c(F)c(F)c7F)c7ccc4[nH]7)C=C6)C=C5)cc3)C2)c(C)s1
REMARK SMILES IDX 18 1 17 2 15 3 16 4 14 6 11 7 12 8 87 9 13 10 10 11 7 12
REMARK SMILES IDX 8 13 9 15 5 17 6 18 4 19 1 20 2 21 3 22 90 23 88 24 89 25
REMARK SMILES IDX 19 26 20 27 21 28 22 29 23 31 24 32 25 33 86 34 26 35 85 36
REMARK SMILES IDX 27 37 28 38 29 39 79 40 30 41 84 42 78 43 80 44 31 45 83 46
REMARK SMILES IDX 77 47 76 48 32 50 64 51 44 52 63 53 45 54 48 55 62 56 81 57
REMARK SMILES IDX 46 58 47 59 61 61 82 62 49 63 33 64 34 65 42 66 35 67 36 68
REMARK SMILES IDX 40 69 43 70 37 71 38 72 41 73 39 74 65 75 66 76 74 77 67 78
REMARK SMILES IDX 68 79 72 80 75 81 69 82 70 83 73 84 71 85 50 86 51 87 59 88
REMARK SMILES IDX 52 89 53 90 57 91 60 92 54 93 55 94 58 95 56 96
REMARK H PARENT 17 5 7 14 10 16 21 30 80 49 48 60
REMARK Flexibility Score: inf
ROOT
ATOM      1  C   UNL A   1      31.557  30.854  25.981  1.00  0.00     0.117 C 
ENDROOT
BRANCH   1   2
ATOM      2  N   UNL A   1      31.452  29.850  27.020  1.00  0.00    -0.356 N 
ATOM      3  C   UNL A   1      31.690  28.513  26.979  1.00  0.00     0.227 C 
ATOM      4  O   UNL A   1      31.556  27.886  28.035  1.00  0.00    -0.274 OA
ATOM      5  H   UNL A   1      31.161  30.191  27.896  1.00  0.00     0.163 HD
BRANCH   3   6
ATOM      6  C   UNL A   1      32.011  27.765  25.681  1.00  0.00     0.103 C 
ATOM      7  C   UNL A   1      31.793  25.366  25.072  1.00  0.00     0.107 C 
ATOM      8  C   UNL A   1      30.824  26.247  24.339  1.00  0.00    -0.006 C 
ATOM      9  C   UNL A   1      32.532  26.361  25.970  1.00  0.00     0.047 C 
ATOM     10  C   UNL A   1      30.924  27.538  24.684  1.00  0.00    -0.016 C 
BRANCH   7  11
ATOM     11  N   UNL A   1      31.046  24.374  25.812  1.00  0.00    -0.332 N 
ATOM     12  N   UNL A   1      31.548  22.248  24.877  1.00  0.00    -0.332 N 
ATOM     13  C   UNL A   1      30.919  23.045  25.744  1.00  0.00     0.315 C 
ATOM     14  H   UNL A   1      31.318  21.301  25.018  1.00  0.00     0.165 HD
ATOM     15  O   UNL A   1      30.161  22.511  26.561  1.00  0.00    -0.249 OA
ATOM     16  H   UNL A   1      30.505  24.768  26.534  1.00  0.00     0.165 HD
BRANCH  12  17
ATOM     17  C   UNL A   1      32.485  22.418  23.780  1.00  0.00     0.112 C 
ATOM     18  C   UNL A   1      32.103  21.557  22.581  1.00  0.00     0.036 C 
BRANCH  17  19
ATOM     19  C   UNL A   1      33.889  22.172  24.314  1.00  0.00    -0.012 A 
ATOM     20  C   UNL A   1      37.174  23.716  25.462  1.00  0.00     0.056 C 
ATOM     21  C   UNL A   1      36.024  22.851  25.073  1.00  0.00     0.002 A 
ATOM     22  C   UNL A   1      34.858  23.231  24.450  1.00  0.00     0.021 A 
ATOM     23  S   UNL A   1      36.041  21.181  25.368  1.00  0.00    -0.146 S 
ATOM     24  C   UNL A   1      34.450  20.973  24.744  1.00  0.00     0.007 A 
ATOM     25  C   UNL A   1      33.899  19.584  24.733  1.00  0.00     0.057 C 
ENDBRANCH  17  19
ENDBRANCH  12  17
ENDBRANCH   7  11
ENDBRANCH   3   6
ENDBRANCH   1   2
BRANCH   1  26
ATOM     26  C   UNL A   1      31.398  32.270  26.510  1.00  0.00     0.042 C 
BRANCH  26  27
ATOM     27  C   UNL A   1      32.620  32.797  27.247  1.00  0.00     0.118 C 
BRANCH  27  28
ATOM     28  N   UNL A   1      32.466  34.183  27.669  1.00  0.00    -0.352 N 
ATOM     29  C   UNL A   1      33.050  34.866  28.702  1.00  0.00     0.251 C 
ATOM     30  H   UNL A   1      31.841  34.714  27.124  1.00  0.00     0.163 HD
ATOM     31  O   UNL A   1      32.612  35.973  29.021  1.00  0.00    -0.269 OA
BRANCH  29  32
ATOM     32  C   UNL A   1      34.199  34.296  29.432  1.00  0.00     0.039 A 
ATOM     33  C   UNL A   1      35.489  34.505  28.936  1.00  0.00     0.014 A 
ATOM     34  C   UNL A   1      34.009  33.505  30.567  1.00  0.00     0.014 A 
ATOM     35  C   UNL A   1      36.585  33.948  29.597  1.00  0.00     0.010 A 
ATOM     36  C   UNL A   1      35.105  33.034  31.280  1.00  0.00     0.010 A 
ATOM     37  C   UNL A   1      36.403  33.221  30.784  1.00  0.00    -0.014 A 
BRANCH  37  38
ATOM     38  C   UNL A   1      37.546  32.590  31.487  1.00  0.00     0.031 A 
ATOM     39  C   UNL A   1      38.293  31.461  30.828  1.00  0.00     0.074 A 
ATOM     40  C   UNL A   1      37.879  32.995  32.726  1.00  0.00     0.049 A 
ATOM     41  N   UNL A   1      39.277  30.732  31.295  1.00  0.00    -0.248 NA
ATOM     42  C   UNL A   1      37.852  31.075  29.478  1.00  0.00     0.031 C 
ATOM     43  C   UNL A   1      37.198  34.044  33.485  1.00  0.00     0.029 A 
ATOM     44  N   UNL A   1      38.871  32.563  33.569  1.00  0.00    -0.354 N 
ATOM     45  C   UNL A   1      39.551  29.795  30.306  1.00  0.00     0.074 A 
ATOM     46  C   UNL A   1      38.592  30.002  29.245  1.00  0.00     0.031 C 
ATOM     47  C   UNL A   1      37.810  34.194  34.671  1.00  0.00     0.029 A 
ATOM     48  C   UNL A   1      38.903  33.232  34.767  1.00  0.00     0.049 A 
ATOM     49  H   UNL A   1      39.501  31.844  33.336  1.00  0.00     0.167 HD
ATOM     50  C   UNL A   1      40.533  28.863  30.274  1.00  0.00     0.037 A 
ATOM     51  C   UNL A   1      39.726  33.083  35.822  1.00  0.00     0.037 A 
ATOM     52  C   UNL A   1      41.505  28.683  31.319  1.00  0.00     0.049 A 
ATOM     53  C   UNL A   1      40.826  32.057  35.751  1.00  0.00     0.074 A 
ATOM     54  C   UNL A   1      42.570  27.801  31.368  1.00  0.00     0.029 A 
ATOM     55  N   UNL A   1      41.533  29.411  32.501  1.00  0.00    -0.354 N 
ATOM     56  N   UNL A   1      41.115  31.215  34.788  1.00  0.00    -0.248 NA
ATOM     57  C   UNL A   1      41.726  31.975  36.908  1.00  0.00     0.031 C 
ATOM     58  C   UNL A   1      43.219  27.968  32.596  1.00  0.00     0.029 A 
ATOM     59  C   UNL A   1      42.593  28.992  33.289  1.00  0.00     0.049 A 
ATOM     60  H   UNL A   1      40.894  30.118  32.743  1.00  0.00     0.167 HD
ATOM     61  C   UNL A   1      42.250  30.533  35.204  1.00  0.00     0.074 A 
ATOM     62  C   UNL A   1      42.603  31.068  36.503  1.00  0.00     0.031 C 
ATOM     63  C   UNL A   1      42.940  29.553  34.570  1.00  0.00     0.037 A 
BRANCH  50  64
ATOM     64  C   UNL A   1      40.604  27.974  29.065  1.00  0.00     0.064 A 
ATOM     65  C   UNL A   1      41.439  28.275  27.977  1.00  0.00     0.173 A 
ATOM     66  C   UNL A   1      39.841  26.799  28.997  1.00  0.00     0.173 A 
ATOM     67  F   UNL A   1      42.180  29.394  27.984  1.00  0.00    -0.203 F 
ATOM     68  C   UNL A   1      41.480  27.454  26.854  1.00  0.00     0.198 A 
ATOM     69  C   UNL A   1      39.911  25.961  27.886  1.00  0.00     0.198 A 
ATOM     70  F   UNL A   1      39.029  26.459  30.009  1.00  0.00    -0.203 F 
ATOM     71  F   UNL A   1      42.240  27.795  25.803  1.00  0.00    -0.200 F 
ATOM     72  C   UNL A   1      40.722  26.295  26.811  1.00  0.00     0.200 A 
ATOM     73  F   UNL A   1      39.187  24.834  27.852  1.00  0.00    -0.200 F 
ATOM     74  F   UNL A   1      40.766  25.502  25.731  1.00  0.00    -0.200 F 
ENDBRANCH  50  64
BRANCH  51  75
ATOM     75  C   UNL A   1      39.574  33.957  37.014  1.00  0.00     0.064 A 
ATOM     76  C   UNL A   1      38.840  33.528  38.130  1.00  0.00     0.173 A 
ATOM     77  C   UNL A   1      40.149  35.234  37.062  1.00  0.00     0.173 A 
ATOM     78  F   UNL A   1      38.256  32.321  38.123  1.00  0.00    -0.203 F 
ATOM     79  C   UNL A   1      38.663  34.356  39.236  1.00  0.00     0.198 A 
ATOM     80  C   UNL A   1      39.996  36.049  38.182  1.00  0.00     0.198 A 
ATOM     81  F   UNL A   1      40.866  35.689  36.024  1.00  0.00    -0.203 F 
ATOM     82  F   UNL A   1      37.913  33.941  40.266  1.00  0.00    -0.200 F 
ATOM     83  C   UNL A   1      39.245  35.614  39.263  1.00  0.00     0.200 A 
ATOM     84  F   UNL A   1      40.570  37.259  38.211  1.00  0.00    -0.200 F 
ATOM     85  F   UNL A   1      39.075  36.409  40.328  1.00  0.00    -0.200 F 
ENDBRANCH  51  75
BRANCH  63  86
ATOM     86  C   UNL A   1      44.182  29.044  35.242  1.00  0.00     0.064 A 
ATOM     87  C   UNL A   1      45.437  29.632  35.028  1.00  0.00     0.173 A 
ATOM     88  C   UNL A   1      44.107  27.961  36.132  1.00  0.00     0.173 A 
ATOM     89  F   UNL A   1      45.564  30.662  34.178  1.00  0.00    -0.203 F 
ATOM     90  C   UNL A   1      46.578  29.129  35.649  1.00  0.00     0.198 A 
ATOM     91  C   UNL A   1      45.243  27.483  36.778  1.00  0.00     0.198 A 
ATOM     92  F   UNL A   1      42.929  27.369  36.381  1.00  0.00    -0.203 F 
ATOM     93  F   UNL A   1      47.774  29.667  35.381  1.00  0.00    -0.200 F 
ATOM     94  C   UNL A   1      46.479  28.060  36.526  1.00  0.00     0.200 A 
ATOM     95  F   UNL A   1      45.144  26.459  37.636  1.00  0.00    -0.200 F 
ATOM     96  F   UNL A   1      47.578  27.578  37.123  1.00  0.00    -0.200 F 
ENDBRANCH  63  86
ENDBRANCH  37  38
ENDBRANCH  29  32
ENDBRANCH  27  28
ENDBRANCH  26  27
ENDBRANCH   1  26
TORSDOF 13
ENDMDL
MODEL 3
REMARK VINA RESULT:     -12.5      1.483      7.681
REMARK SMILES Cc1cc([C@@H](C)NC(=O)N[C@H]2C=C[C@@H](C(=O)NCCCNC(=O)c3ccc(-c4c5nc(c(-c6c(F)c(F)c(F)c(F)c6F)c6ccc([nH]6)c(-c6c(F)c(F)c(F)c(F)c6F)c6nc(c(-c7c(F)c(F)c(F)c(F)c7F)c7ccc4[nH]7)C=C6)C=C5)cc3)C2)c(C)s1
REMARK SMILES IDX 18 1 17 2 15 3 16 4 14 6 11 7 12 8 87 9 13 10 10 11 7 12
REMARK SMILES IDX 8 13 9 15 5 17 6 18 4 19 1 20 2 21 3 22 90 23 88 24 89 25
REMARK SMILES IDX 19 26 20 27 21 28 22 29 23 31 24 32 25 33 86 34 26 35 85 36
REMARK SMILES IDX 27 37 28 38 29 39 79 40 30 41 84 42 78 43 80 44 31 45 83 46
REMARK SMILES IDX 77 47 76 48 32 50 64 51 44 52 63 53 45 54 48 55 62 56 81 57
REMARK SMILES IDX 46 58 47 59 61 61 82 62 49 63 33 64 34 65 42 66 35 67 36 68
REMARK SMILES IDX 40 69 43 70 37 71 38 72 41 73 39 74 65 75 66 76 74 77 67 78
REMARK SMILES IDX 68 79 72 80 75 81 69 82 70 83 73 84 71 85 50 86 51 87 59 88
REMARK SMILES IDX 52 89 53 90 57 91 60 92 54 93 55 94 58 95 56 96
REMARK H PARENT 17 5 7 14 10 16 21 30 80 49 48 60
REMARK Flexibility Score: inf
ROOT
ATOM      1  C   UNL A   1      31.368  30.875  26.353  1.00  0.00     0.117 C 
ENDROOT
BRANCH   1   2
ATOM      2  N   UNL A   1      31.106  30.448  24.993  1.00  0.00    -0.356 N 
ATOM      3  C   UNL A   1      31.205  29.219  24.422  1.00  0.00     0.227 C 
ATOM      4  O   UNL A   1      30.881  29.124  23.234  1.00  0.00    -0.274 OA
ATOM      5  H   UNL A   1      30.809  31.163  24.386  1.00  0.00     0.163 HD
BRANCH   3   6
ATOM      6  C   UNL A   1      31.786  28.007  25.156  1.00  0.00     0.103 C 
ATOM      7  C   UNL A   1      32.466  25.762  24.336  1.00  0.00     0.107 C 
ATOM      8  C   UNL A   1      33.629  26.602  24.778  1.00  0.00    -0.006 C 
ATOM      9  C   UNL A   1      31.278  26.703  24.551  1.00  0.00     0.047 C 
ATOM     10  C   UNL A   1      33.266  27.821  25.198  1.00  0.00    -0.016 C 
BRANCH   7  11
ATOM     11  N   UNL A   1      32.662  25.396  22.951  1.00  0.00    -0.332 N 
ATOM     12  N   UNL A   1      34.025  23.451  22.905  1.00  0.00    -0.332 N 
ATOM     13  C   UNL A   1      33.326  24.424  22.317  1.00  0.00     0.315 C 
ATOM     14  H   UNL A   1      34.419  22.834  22.245  1.00  0.00     0.165 HD
ATOM     15  O   UNL A   1      33.277  24.424  21.083  1.00  0.00    -0.249 OA
ATOM     16  H   UNL A   1      32.199  26.004  22.330  1.00  0.00     0.165 HD
BRANCH  12  17
ATOM     17  C   UNL A   1      34.356  23.067  24.267  1.00  0.00     0.112 C 
ATOM     18  C   UNL A   1      35.860  23.124  24.514  1.00  0.00     0.036 C 
BRANCH  17  19
ATOM     19  C   UNL A   1      33.720  21.713  24.545  1.00  0.00    -0.012 A 
ATOM     20  C   UNL A   1      32.157  18.568  23.074  1.00  0.00     0.056 C 
ATOM     21  C   UNL A   1      32.714  19.667  23.913  1.00  0.00     0.002 A 
ATOM     22  C   UNL A   1      33.117  20.917  23.505  1.00  0.00     0.021 A 
ATOM     23  S   UNL A   1      32.911  19.480  25.587  1.00  0.00    -0.146 S 
ATOM     24  C   UNL A   1      33.619  21.040  25.759  1.00  0.00     0.007 A 
ATOM     25  C   UNL A   1      34.010  21.462  27.138  1.00  0.00     0.057 C 
ENDBRANCH  17  19
ENDBRANCH  12  17
ENDBRANCH   7  11
ENDBRANCH   3   6
ENDBRANCH   1   2
BRANCH   1  26
ATOM     26  C   UNL A   1      31.386  32.388  26.503  1.00  0.00     0.042 C 
BRANCH  26  27
ATOM     27  C   UNL A   1      32.646  32.930  27.160  1.00  0.00     0.118 C 
BRANCH  27  28
ATOM     28  N   UNL A   1      32.488  34.299  27.632  1.00  0.00    -0.352 N 
ATOM     29  C   UNL A   1      33.053  34.940  28.702  1.00  0.00     0.251 C 
ATOM     30  H   UNL A   1      31.875  34.853  27.096  1.00  0.00     0.163 HD
ATOM     31  O   UNL A   1      32.613  36.035  29.055  1.00  0.00    -0.269 OA
BRANCH  29  32
ATOM     32  C   UNL A   1      34.186  34.338  29.432  1.00  0.00     0.039 A 
ATOM     33  C   UNL A   1      35.488  34.577  28.981  1.00  0.00     0.014 A 
ATOM     34  C   UNL A   1      33.972  33.489  30.520  1.00  0.00     0.014 A 
ATOM     35  C   UNL A   1      36.569  33.991  29.641  1.00  0.00     0.010 A 
ATOM     36  C   UNL A   1      35.052  32.987  31.236  1.00  0.00     0.010 A 
ATOM     37  C   UNL A   1      36.361  33.205  30.784  1.00  0.00    -0.014 A 
BRANCH  37  38
ATOM     38  C   UNL A   1      37.489  32.543  31.483  1.00  0.00     0.031 A 
ATOM     39  C   UNL A   1      38.194  31.386  30.828  1.00  0.00     0.074 A 
ATOM     40  C   UNL A   1      37.843  32.946  32.716  1.00  0.00     0.049 A 
ATOM     41  N   UNL A   1      39.158  30.630  31.292  1.00  0.00    -0.248 NA
ATOM     42  C   UNL A   1      37.731  31.004  29.484  1.00  0.00     0.031 C 
ATOM     43  C   UNL A   1      37.202  34.022  33.473  1.00  0.00     0.029 A 
ATOM     44  N   UNL A   1      38.828  32.490  33.555  1.00  0.00    -0.354 N 
ATOM     45  C   UNL A   1      39.395  29.677  30.310  1.00  0.00     0.074 A 
ATOM     46  C   UNL A   1      38.435  29.906  29.254  1.00  0.00     0.031 C 
ATOM     47  C   UNL A   1      37.828  34.162  34.653  1.00  0.00     0.029 A 
ATOM     48  C   UNL A   1      38.890  33.166  34.748  1.00  0.00     0.049 A 
ATOM     49  H   UNL A   1      39.433  31.749  33.324  1.00  0.00     0.167 HD
ATOM     50  C   UNL A   1      40.347  28.714  30.277  1.00  0.00     0.037 A 
ATOM     51  C   UNL A   1      39.716  32.999  35.798  1.00  0.00     0.037 A 
ATOM     52  C   UNL A   1      41.321  28.511  31.316  1.00  0.00     0.049 A 
ATOM     53  C   UNL A   1      40.783  31.938  35.726  1.00  0.00     0.074 A 
ATOM     54  C   UNL A   1      42.358  27.597  31.365  1.00  0.00     0.029 A 
ATOM     55  N   UNL A   1      41.381  29.247  32.492  1.00  0.00    -0.354 N 
ATOM     56  N   UNL A   1      41.037  31.081  34.768  1.00  0.00    -0.248 NA
ATOM     57  C   UNL A   1      41.688  31.837  36.878  1.00  0.00     0.031 C 
ATOM     58  C   UNL A   1      43.021  27.752  32.586  1.00  0.00     0.029 A 
ATOM     59  C   UNL A   1      42.433  28.801  33.275  1.00  0.00     0.049 A 
ATOM     60  H   UNL A   1      40.766  29.976  32.734  1.00  0.00     0.167 HD
ATOM     61  C   UNL A   1      42.153  30.366  35.181  1.00  0.00     0.074 A 
ATOM     62  C   UNL A   1      42.533  30.900  36.473  1.00  0.00     0.031 C 
ATOM     63  C   UNL A   1      42.808  29.360  34.549  1.00  0.00     0.037 A 
BRANCH  50  64
ATOM     64  C   UNL A   1      40.381  27.814  29.074  1.00  0.00     0.064 A 
ATOM     65  C   UNL A   1      41.143  28.131  27.938  1.00  0.00     0.173 A 
ATOM     66  C   UNL A   1      39.656  26.613  29.061  1.00  0.00     0.173 A 
ATOM     67  F   UNL A   1      41.845  29.274  27.893  1.00  0.00    -0.203 F 
ATOM     68  C   UNL A   1      41.149  27.298  26.823  1.00  0.00     0.198 A 
ATOM     69  C   UNL A   1      39.692  25.766  27.956  1.00  0.00     0.198 A 
ATOM     70  F   UNL A   1      38.914  26.258  30.120  1.00  0.00    -0.203 F 
ATOM     71  F   UNL A   1      41.837  27.653  25.728  1.00  0.00    -0.200 F 
ATOM     72  C   UNL A   1      40.430  26.114  26.834  1.00  0.00     0.200 A 
ATOM     73  F   UNL A   1      39.006  24.615  27.973  1.00  0.00    -0.200 F 
ATOM     74  F   UNL A   1      40.441  25.311  25.760  1.00  0.00    -0.200 F 
ENDBRANCH  50  64
BRANCH  51  75
ATOM     75  C   UNL A   1      39.601  33.886  36.984  1.00  0.00     0.064 A 
ATOM     76  C   UNL A   1      38.820  33.512  38.088  1.00  0.00     0.173 A 
ATOM     77  C   UNL A   1      40.259  35.123  37.039  1.00  0.00     0.173 A 
ATOM     78  F   UNL A   1      38.157  32.347  38.074  1.00  0.00    -0.203 F 
ATOM     79  C   UNL A   1      38.678  34.355  39.188  1.00  0.00     0.198 A 
ATOM     80  C   UNL A   1      40.139  35.951  38.153  1.00  0.00     0.198 A 
ATOM     81  F   UNL A   1      41.022  35.524  36.013  1.00  0.00    -0.203 F 
ATOM     82  F   UNL A   1      37.884  33.995  40.205  1.00  0.00    -0.200 F 
ATOM     83  C   UNL A   1      39.342  35.571  39.222  1.00  0.00     0.200 A 
ATOM     84  F   UNL A   1      40.792  37.121  38.189  1.00  0.00    -0.200 F 
ATOM     85  F   UNL A   1      39.205  36.381  40.281  1.00  0.00    -0.200 F 
ENDBRANCH  51  75
BRANCH  63  86
ATOM     86  C   UNL A   1      44.037  28.818  35.217  1.00  0.00     0.064 A 
ATOM     87  C   UNL A   1      45.312  29.347  34.969  1.00  0.00     0.173 A 
ATOM     88  C   UNL A   1      43.933  27.761  36.135  1.00  0.00     0.173 A 
ATOM     89  F   UNL A   1      45.468  30.350  34.091  1.00  0.00    -0.203 F 
ATOM     90  C   UNL A   1      46.441  28.814  35.586  1.00  0.00     0.198 A 
ATOM     91  C   UNL A   1      45.058  27.252  36.776  1.00  0.00     0.198 A 
ATOM     92  F   UNL A   1      42.736  27.224  36.415  1.00  0.00    -0.203 F 
ATOM     93  F   UNL A   1      47.655  29.295  35.288  1.00  0.00    -0.200 F 
ATOM     94  C   UNL A   1      46.313  27.772  36.492  1.00  0.00     0.200 A 
ATOM     95  F   UNL A   1      44.930  26.255  37.661  1.00  0.00    -0.200 F 
ATOM     96  F   UNL A   1      47.400  27.260  37.084  1.00  0.00    -0.200 F 
ENDBRANCH  63  86
ENDBRANCH  37  38
ENDBRANCH  29  32
ENDBRANCH  27  28
ENDBRANCH  26  27
ENDBRANCH   1  26
TORSDOF 13
ENDMDL
