MODEL 1
REMARK VINA RESULT:     -11.0      0.000      0.000
REMARK SMILES NS(=O)(=O)c1ccc(/N=N/c2ccc(O)c(C(=O)NCCCNC(=O)c3ccc(-c4c5nc(c(-c6c(F)c(F)c(F)c(F)c6F)c6ccc([nH]6)c(-c6c(F)c(F)c(F)c(F)c6F)c6nc(c(-c7c(F)c(F)c(F)c(F)c7F)c7ccc4[nH]7)C=C6)C=C5)cc3)c2)cc1
REMARK SMILES IDX 20 1 19 2 17 3 18 4 16 6 11 7 12 8 89 9 13 10 14 11 10 12
REMARK SMILES IDX 9 13 8 14 5 15 6 16 91 17 7 18 90 19 2 20 3 21 4 22 1 23
REMARK SMILES IDX 15 26 21 28 22 29 23 30 24 31 25 33 26 34 27 35 88 36 28 37
REMARK SMILES IDX 87 38 29 39 30 40 31 41 81 42 32 43 86 44 80 45 82 46 33 47
REMARK SMILES IDX 85 48 79 49 78 50 34 52 66 53 46 54 65 55 47 56 50 57 64 58
REMARK SMILES IDX 83 59 48 60 49 61 63 63 84 64 51 65 35 66 36 67 44 68 37 69
REMARK SMILES IDX 38 70 42 71 45 72 39 73 40 74 43 75 41 76 67 77 68 78 76 79
REMARK SMILES IDX 69 80 70 81 74 82 77 83 71 84 72 85 75 86 73 87 52 88 53 89
REMARK SMILES IDX 61 90 54 91 55 92 59 93 62 94 56 95 57 96 60 97 58 98
REMARK H PARENT 19 5 1 24 1 25 15 27 23 32 82 51 50 62
REMARK Flexibility Score: inf
ROOT
ATOM      1  C   UNL A   1      34.687  35.035  28.449  1.00  0.00     0.118 C 
ENDROOT
BRANCH   1   2
ATOM      2  N   UNL A   1      33.434  35.560  28.980  1.00  0.00    -0.352 N 
ATOM      3  C   UNL A   1      32.992  35.855  30.250  1.00  0.00     0.255 C 
ATOM      4  O   UNL A   1      31.825  36.234  30.380  1.00  0.00    -0.269 OA
ATOM      5  H   UNL A   1      32.762  35.740  28.284  1.00  0.00     0.163 HD
BRANCH   3   6
ATOM      6  C   UNL A   1      33.804  35.673  31.482  1.00  0.00     0.083 A 
ATOM      7  C   UNL A   1      35.376  34.359  32.805  1.00  0.00     0.087 A 
ATOM      8  C   UNL A   1      35.066  35.129  33.929  1.00  0.00     0.034 A 
ATOM      9  C   UNL A   1      34.830  34.735  31.568  1.00  0.00     0.048 A 
ATOM     10  C   UNL A   1      34.176  36.201  33.826  1.00  0.00     0.049 A 
ATOM     11  C   UNL A   1      33.529  36.452  32.616  1.00  0.00     0.128 A 
BRANCH   7  12
ATOM     12  N   UNL A   1      36.158  33.187  32.946  1.00  0.00    -0.151 NA
ATOM     13  N   UNL A   1      37.128  33.427  33.704  1.00  0.00    -0.151 NA
BRANCH  13  14
ATOM     14  C   UNL A   1      38.080  32.397  33.743  1.00  0.00     0.086 A 
ATOM     15  C   UNL A   1      39.830  30.232  34.083  1.00  0.00     0.082 A 
ATOM     16  C   UNL A   1      38.577  30.023  33.504  1.00  0.00     0.024 A 
ATOM     17  C   UNL A   1      40.216  31.511  34.497  1.00  0.00     0.024 A 
ATOM     18  C   UNL A   1      37.706  31.106  33.343  1.00  0.00     0.031 A 
ATOM     19  C   UNL A   1      39.341  32.586  34.326  1.00  0.00     0.031 A 
BRANCH  15  20
ATOM     20  S   UNL A   1      40.944  28.887  34.367  1.00  0.00     0.238 S 
ATOM     21  O   UNL A   1      40.948  28.587  35.780  1.00  0.00    -0.207 OA
ATOM     22  O   UNL A   1      42.148  29.127  33.610  1.00  0.00    -0.207 OA
BRANCH  20  23
ATOM     23  N   UNL A   1      40.199  27.561  33.647  1.00  0.00    -0.225 NA
ATOM     24  H   UNL A   1      39.476  27.198  34.268  1.00  0.00     0.137 HD
ATOM     25  H   UNL A   1      40.893  26.835  33.472  1.00  0.00     0.137 HD
ENDBRANCH  20  23
ENDBRANCH  15  20
ENDBRANCH  13  14
ENDBRANCH   7  12
BRANCH  11  26
ATOM     26  O   UNL A   1      32.629  37.484  32.616  1.00  0.00    -0.507 OA
ATOM     27  H   UNL A   1      31.889  37.460  32.041  1.00  0.00     0.293 HD
ENDBRANCH  11  26
ENDBRANCH   3   6
ENDBRANCH   1   2
BRANCH   1  28
ATOM     28  C   UNL A   1      34.579  33.630  27.876  1.00  0.00     0.042 C 
BRANCH  28  29
ATOM     29  C   UNL A   1      34.545  32.521  28.915  1.00  0.00     0.118 C 
BRANCH  29  30
ATOM     30  N   UNL A   1      34.020  31.266  28.388  1.00  0.00    -0.352 N 
ATOM     31  C   UNL A   1      34.645  30.098  28.027  1.00  0.00     0.251 C 
ATOM     32  H   UNL A   1      33.043  31.257  28.271  1.00  0.00     0.163 HD
ATOM     33  O   UNL A   1      34.014  29.250  27.402  1.00  0.00    -0.269 OA
BRANCH  31  34
ATOM     34  C   UNL A   1      36.066  29.849  28.359  1.00  0.00     0.039 A 
ATOM     35  C   UNL A   1      36.392  29.399  29.644  1.00  0.00     0.014 A 
ATOM     36  C   UNL A   1      37.083  30.101  27.440  1.00  0.00     0.014 A 
ATOM     37  C   UNL A   1      37.725  29.132  29.974  1.00  0.00     0.010 A 
ATOM     38  C   UNL A   1      38.394  29.737  27.731  1.00  0.00     0.010 A 
ATOM     39  C   UNL A   1      38.733  29.258  29.005  1.00  0.00    -0.014 A 
BRANCH  39  40
ATOM     40  C   UNL A   1      40.147  28.912  29.297  1.00  0.00     0.031 A 
ATOM     41  C   UNL A   1      41.027  29.890  30.030  1.00  0.00     0.074 A 
ATOM     42  C   UNL A   1      40.663  27.758  28.831  1.00  0.00     0.049 A 
ATOM     43  N   UNL A   1      42.309  29.824  30.284  1.00  0.00    -0.248 NA
ATOM     44  C   UNL A   1      40.385  31.124  30.510  1.00  0.00     0.031 C 
ATOM     45  C   UNL A   1      39.929  26.754  28.060  1.00  0.00     0.029 A 
ATOM     46  N   UNL A   1      41.932  27.242  28.922  1.00  0.00    -0.354 N 
ATOM     47  C   UNL A   1      42.629  31.012  30.928  1.00  0.00     0.074 A 
ATOM     48  C   UNL A   1      41.421  31.807  30.975  1.00  0.00     0.031 C 
ATOM     49  C   UNL A   1      40.751  25.733  27.770  1.00  0.00     0.029 A 
ATOM     50  C   UNL A   1      42.080  26.029  28.294  1.00  0.00     0.049 A 
ATOM     51  H   UNL A   1      42.667  27.699  29.392  1.00  0.00     0.167 HD
ATOM     52  C   UNL A   1      43.816  31.397  31.455  1.00  0.00     0.037 A 
ATOM     53  C   UNL A   1      43.168  25.250  28.151  1.00  0.00     0.037 A 
ATOM     54  C   UNL A   1      45.006  30.588  31.438  1.00  0.00     0.049 A 
ATOM     55  C   UNL A   1      44.474  25.696  28.751  1.00  0.00     0.074 A 
ATOM     56  C   UNL A   1      46.240  30.855  32.002  1.00  0.00     0.029 A 
ATOM     57  N   UNL A   1      45.108  29.350  30.819  1.00  0.00    -0.354 N 
ATOM     58  N   UNL A   1      44.746  26.791  29.418  1.00  0.00    -0.248 NA
ATOM     59  C   UNL A   1      45.621  24.793  28.585  1.00  0.00     0.031 C 
ATOM     60  C   UNL A   1      47.103  29.799  31.687  1.00  0.00     0.029 A 
ATOM     61  C   UNL A   1      46.392  28.850  30.972  1.00  0.00     0.049 A 
ATOM     62  H   UNL A   1      44.377  28.894  30.343  1.00  0.00     0.167 HD
ATOM     63  C   UNL A   1      46.084  26.697  29.776  1.00  0.00     0.074 A 
ATOM     64  C   UNL A   1      46.564  25.430  29.264  1.00  0.00     0.031 C 
ATOM     65  C   UNL A   1      46.848  27.581  30.464  1.00  0.00     0.037 A 
BRANCH  52  66
ATOM     66  C   UNL A   1      43.883  32.751  32.103  1.00  0.00     0.064 A 
ATOM     67  C   UNL A   1      44.133  33.913  31.358  1.00  0.00     0.173 A 
ATOM     68  C   UNL A   1      43.664  32.893  33.482  1.00  0.00     0.173 A 
ATOM     69  F   UNL A   1      44.361  33.833  30.038  1.00  0.00    -0.203 F 
ATOM     70  C   UNL A   1      44.195  35.161  31.972  1.00  0.00     0.198 A 
ATOM     71  C   UNL A   1      43.693  34.147  34.088  1.00  0.00     0.198 A 
ATOM     72  F   UNL A   1      43.414  31.816  34.243  1.00  0.00    -0.203 F 
ATOM     73  F   UNL A   1      44.490  36.249  31.247  1.00  0.00    -0.200 F 
ATOM     74  C   UNL A   1      43.968  35.278  33.335  1.00  0.00     0.200 A 
ATOM     75  F   UNL A   1      43.459  34.260  35.403  1.00  0.00    -0.200 F 
ATOM     76  F   UNL A   1      44.021  36.481  33.923  1.00  0.00    -0.200 F 
ENDBRANCH  52  66
BRANCH  53  77
ATOM     77  C   UNL A   1      43.063  23.953  27.430  1.00  0.00     0.064 A 
ATOM     78  C   UNL A   1      43.428  23.851  26.081  1.00  0.00     0.173 A 
ATOM     79  C   UNL A   1      42.597  22.795  28.070  1.00  0.00     0.173 A 
ATOM     80  F   UNL A   1      43.862  24.935  25.420  1.00  0.00    -0.203 F 
ATOM     81  C   UNL A   1      43.311  22.645  25.392  1.00  0.00     0.198 A 
ATOM     82  C   UNL A   1      42.508  21.584  27.387  1.00  0.00     0.198 A 
ATOM     83  F   UNL A   1      42.242  22.838  29.362  1.00  0.00    -0.203 F 
ATOM     84  F   UNL A   1      43.625  22.587  24.090  1.00  0.00    -0.200 F 
ATOM     85  C   UNL A   1      42.857  21.511  26.047  1.00  0.00     0.200 A 
ATOM     86  F   UNL A   1      42.083  20.486  28.029  1.00  0.00    -0.200 F 
ATOM     87  F   UNL A   1      42.750  20.351  25.385  1.00  0.00    -0.200 F 
ENDBRANCH  53  77
BRANCH  65  88
ATOM     88  C   UNL A   1      48.272  27.192  30.739  1.00  0.00     0.064 A 
ATOM     89  C   UNL A   1      49.320  27.591  29.899  1.00  0.00     0.173 A 
ATOM     90  C   UNL A   1      48.592  26.445  31.883  1.00  0.00     0.173 A 
ATOM     91  F   UNL A   1      49.063  28.293  28.785  1.00  0.00    -0.203 F 
ATOM     92  C   UNL A   1      50.636  27.234  30.179  1.00  0.00     0.198 A 
ATOM     93  C   UNL A   1      49.912  26.117  32.178  1.00  0.00     0.198 A 
ATOM     94  F   UNL A   1      47.626  26.046  32.723  1.00  0.00    -0.203 F 
ATOM     95  F   UNL A   1      51.617  27.585  29.337  1.00  0.00    -0.200 F 
ATOM     96  C   UNL A   1      50.932  26.504  31.322  1.00  0.00     0.200 A 
ATOM     97  F   UNL A   1      50.198  25.426  33.290  1.00  0.00    -0.200 F 
ATOM     98  F   UNL A   1      52.200  26.170  31.594  1.00  0.00    -0.200 F 
ENDBRANCH  65  88
ENDBRANCH  39  40
ENDBRANCH  31  34
ENDBRANCH  29  30
ENDBRANCH  28  29
ENDBRANCH   1  28
TORSDOF 15
ENDMDL
MODEL 2
REMARK VINA RESULT:     -10.9      4.903     13.338
REMARK SMILES NS(=O)(=O)c1ccc(/N=N/c2ccc(O)c(C(=O)NCCCNC(=O)c3ccc(-c4c5nc(c(-c6c(F)c(F)c(F)c(F)c6F)c6ccc([nH]6)c(-c6c(F)c(F)c(F)c(F)c6F)c6nc(c(-c7c(F)c(F)c(F)c(F)c7F)c7ccc4[nH]7)C=C6)C=C5)cc3)c2)cc1
REMARK SMILES IDX 20 1 19 2 17 3 18 4 16 6 11 7 12 8 89 9 13 10 14 11 10 12
REMARK SMILES IDX 9 13 8 14 5 15 6 16 91 17 7 18 90 19 2 20 3 21 4 22 1 23
REMARK SMILES IDX 15 26 21 28 22 29 23 30 24 31 25 33 26 34 27 35 88 36 28 37
REMARK SMILES IDX 87 38 29 39 30 40 31 41 81 42 32 43 86 44 80 45 82 46 33 47
REMARK SMILES IDX 85 48 79 49 78 50 34 52 66 53 46 54 65 55 47 56 50 57 64 58
REMARK SMILES IDX 83 59 48 60 49 61 63 63 84 64 51 65 35 66 36 67 44 68 37 69
REMARK SMILES IDX 38 70 42 71 45 72 39 73 40 74 43 75 41 76 67 77 68 78 76 79
REMARK SMILES IDX 69 80 70 81 74 82 77 83 71 84 72 85 75 86 73 87 52 88 53 89
REMARK SMILES IDX 61 90 54 91 55 92 59 93 62 94 56 95 57 96 60 97 58 98
REMARK H PARENT 19 5 1 24 1 25 15 27 23 32 82 51 50 62
REMARK Flexibility Score: inf
ROOT
ATOM      1  C   UNL A   1      48.692  25.533  32.308  1.00  0.00     0.118 C 
ENDROOT
BRANCH   1   2
ATOM      2  N   UNL A   1      47.829  26.693  32.114  1.00  0.00    -0.352 N 
ATOM      3  C   UNL A   1      47.392  27.374  31.001  1.00  0.00     0.255 C 
ATOM      4  O   UNL A   1      46.702  28.381  31.177  1.00  0.00    -0.269 OA
ATOM      5  H   UNL A   1      47.487  27.067  32.957  1.00  0.00     0.163 HD
BRANCH   3   6
ATOM      6  C   UNL A   1      47.762  27.020  29.605  1.00  0.00     0.083 A 
ATOM      7  C   UNL A   1      47.713  25.457  27.734  1.00  0.00     0.087 A 
ATOM      8  C   UNL A   1      48.738  26.175  27.114  1.00  0.00     0.034 A 
ATOM      9  C   UNL A   1      47.156  25.974  28.914  1.00  0.00     0.048 A 
ATOM     10  C   UNL A   1      49.238  27.340  27.699  1.00  0.00     0.049 A 
ATOM     11  C   UNL A   1      48.771  27.742  28.951  1.00  0.00     0.128 A 
BRANCH   7  12
ATOM     12  N   UNL A   1      47.315  24.201  27.214  1.00  0.00    -0.151 NA
ATOM     13  N   UNL A   1      46.540  24.382  26.245  1.00  0.00    -0.151 NA
BRANCH  13  14
ATOM     14  C   UNL A   1      45.922  23.208  25.790  1.00  0.00     0.086 A 
ATOM     15  C   UNL A   1      44.839  20.709  25.122  1.00  0.00     0.082 A 
ATOM     16  C   UNL A   1      44.295  21.436  26.182  1.00  0.00     0.024 A 
ATOM     17  C   UNL A   1      45.921  21.216  24.395  1.00  0.00     0.024 A 
ATOM     18  C   UNL A   1      44.844  22.680  26.514  1.00  0.00     0.031 A 
ATOM     19  C   UNL A   1      46.457  22.461  24.732  1.00  0.00     0.031 A 
BRANCH  15  20
ATOM     20  S   UNL A   1      44.222  19.105  24.700  1.00  0.00     0.238 S 
ATOM     21  O   UNL A   1      44.760  18.733  23.412  1.00  0.00    -0.207 OA
ATOM     22  O   UNL A   1      42.813  19.065  25.005  1.00  0.00    -0.207 OA
BRANCH  20  23
ATOM     23  N   UNL A   1      44.964  18.065  25.795  1.00  0.00    -0.225 NA
ATOM     24  H   UNL A   1      45.977  18.168  25.729  1.00  0.00     0.137 HD
ATOM     25  H   UNL A   1      44.705  17.102  25.577  1.00  0.00     0.137 HD
ENDBRANCH  20  23
ENDBRANCH  15  20
ENDBRANCH  13  14
ENDBRANCH   7  12
BRANCH  11  26
ATOM     26  O   UNL A   1      49.356  28.861  29.481  1.00  0.00    -0.507 OA
ATOM     27  H   UNL A   1      48.840  29.626  29.646  1.00  0.00     0.293 HD
ENDBRANCH  11  26
ENDBRANCH   3   6
ENDBRANCH   1   2
BRANCH   1  28
ATOM     28  C   UNL A   1      49.245  25.399  33.719  1.00  0.00     0.042 C 
BRANCH  28  29
ATOM     29  C   UNL A   1      48.491  24.422  34.607  1.00  0.00     0.118 C 
BRANCH  29  30
ATOM     30  N   UNL A   1      48.305  24.918  35.966  1.00  0.00    -0.352 N 
ATOM     31  C   UNL A   1      47.451  25.861  36.482  1.00  0.00     0.251 C 
ATOM     32  H   UNL A   1      48.899  24.502  36.631  1.00  0.00     0.163 HD
ATOM     33  O   UNL A   1      47.629  26.268  37.627  1.00  0.00    -0.269 OA
BRANCH  31  34
ATOM     34  C   UNL A   1      46.334  26.410  35.681  1.00  0.00     0.039 A 
ATOM     35  C   UNL A   1      45.163  25.655  35.544  1.00  0.00     0.014 A 
ATOM     36  C   UNL A   1      46.443  27.634  35.022  1.00  0.00     0.014 A 
ATOM     37  C   UNL A   1      44.084  26.163  34.813  1.00  0.00     0.010 A 
ATOM     38  C   UNL A   1      45.336  28.186  34.386  1.00  0.00     0.010 A 
ATOM     39  C   UNL A   1      44.147  27.452  34.264  1.00  0.00    -0.014 A 
BRANCH  39  40
ATOM     40  C   UNL A   1      42.993  28.054  33.547  1.00  0.00     0.031 A 
ATOM     41  C   UNL A   1      42.778  27.761  32.086  1.00  0.00     0.074 A 
ATOM     42  C   UNL A   1      42.191  28.928  34.185  1.00  0.00     0.049 A 
ATOM     43  N   UNL A   1      41.901  28.270  31.258  1.00  0.00    -0.248 NA
ATOM     44  C   UNL A   1      43.696  26.792  31.464  1.00  0.00     0.031 C 
ATOM     45  C   UNL A   1      42.329  29.336  35.584  1.00  0.00     0.029 A 
ATOM     46  N   UNL A   1      41.110  29.645  33.736  1.00  0.00    -0.354 N 
ATOM     47  C   UNL A   1      42.178  27.704  30.020  1.00  0.00     0.074 A 
ATOM     48  C   UNL A   1      43.338  26.857  30.190  1.00  0.00     0.031 C 
ATOM     49  C   UNL A   1      41.356  30.211  35.886  1.00  0.00     0.029 A 
ATOM     50  C   UNL A   1      40.553  30.459  34.692  1.00  0.00     0.049 A 
ATOM     51  H   UNL A   1      40.766  29.581  32.816  1.00  0.00     0.167 HD
ATOM     52  C   UNL A   1      41.510  27.855  28.851  1.00  0.00     0.037 A 
ATOM     53  C   UNL A   1      39.518  31.316  34.612  1.00  0.00     0.037 A 
ATOM     54  C   UNL A   1      40.334  28.671  28.694  1.00  0.00     0.049 A 
ATOM     55  C   UNL A   1      38.788  31.462  33.305  1.00  0.00     0.074 A 
ATOM     56  C   UNL A   1      39.544  28.840  27.572  1.00  0.00     0.029 A 
ATOM     57  N   UNL A   1      39.782  29.457  29.695  1.00  0.00    -0.354 N 
ATOM     58  N   UNL A   1      39.016  30.868  32.158  1.00  0.00    -0.248 NA
ATOM     59  C   UNL A   1      37.650  32.392  33.282  1.00  0.00     0.031 C 
ATOM     60  C   UNL A   1      38.538  29.763  27.881  1.00  0.00     0.029 A 
ATOM     61  C   UNL A   1      38.671  30.129  29.210  1.00  0.00     0.049 A 
ATOM     62  H   UNL A   1      40.127  29.527  30.615  1.00  0.00     0.167 HD
ATOM     63  C   UNL A   1      38.037  31.327  31.289  1.00  0.00     0.074 A 
ATOM     64  C   UNL A   1      37.203  32.240  32.044  1.00  0.00     0.031 C 
ATOM     65  C   UNL A   1      37.847  31.025  29.980  1.00  0.00     0.037 A 
BRANCH  52  66
ATOM     66  C   UNL A   1      42.031  27.117  27.651  1.00  0.00     0.064 A 
ATOM     67  C   UNL A   1      42.985  27.685  26.793  1.00  0.00     0.173 A 
ATOM     68  C   UNL A   1      41.595  25.813  27.372  1.00  0.00     0.173 A 
ATOM     69  F   UNL A   1      43.427  28.934  27.007  1.00  0.00    -0.203 F 
ATOM     70  C   UNL A   1      43.457  26.990  25.683  1.00  0.00     0.198 A 
ATOM     71  C   UNL A   1      42.095  25.108  26.279  1.00  0.00     0.198 A 
ATOM     72  F   UNL A   1      40.689  25.218  28.162  1.00  0.00    -0.203 F 
ATOM     73  F   UNL A   1      44.327  27.577  24.848  1.00  0.00    -0.200 F 
ATOM     74  C   UNL A   1      43.017  25.700  25.431  1.00  0.00     0.200 A 
ATOM     75  F   UNL A   1      41.680  23.855  26.045  1.00  0.00    -0.200 F 
ATOM     76  F   UNL A   1      43.478  25.030  24.366  1.00  0.00    -0.200 F 
ENDBRANCH  52  66
BRANCH  53  77
ATOM     77  C   UNL A   1      39.093  32.082  35.813  1.00  0.00     0.064 A 
ATOM     78  C   UNL A   1      39.548  33.390  36.028  1.00  0.00     0.173 A 
ATOM     79  C   UNL A   1      38.228  31.527  36.768  1.00  0.00     0.173 A 
ATOM     80  F   UNL A   1      40.392  33.957  35.153  1.00  0.00    -0.203 F 
ATOM     81  C   UNL A   1      39.173  34.107  37.162  1.00  0.00     0.198 A 
ATOM     82  C   UNL A   1      37.831  32.256  37.887  1.00  0.00     0.198 A 
ATOM     83  F   UNL A   1      37.758  30.282  36.606  1.00  0.00    -0.203 F 
ATOM     84  F   UNL A   1      39.660  35.339  37.365  1.00  0.00    -0.200 F 
ATOM     85  C   UNL A   1      38.310  33.542  38.089  1.00  0.00     0.200 A 
ATOM     86  F   UNL A   1      36.984  31.711  38.772  1.00  0.00    -0.200 F 
ATOM     87  F   UNL A   1      37.945  34.233  39.177  1.00  0.00    -0.200 F 
ENDBRANCH  53  77
BRANCH  65  88
ATOM     88  C   UNL A   1      36.669  31.653  29.293  1.00  0.00     0.064 A 
ATOM     89  C   UNL A   1      35.543  30.904  28.928  1.00  0.00     0.173 A 
ATOM     90  C   UNL A   1      36.655  33.032  29.035  1.00  0.00     0.173 A 
ATOM     91  F   UNL A   1      35.515  29.579  29.139  1.00  0.00    -0.203 F 
ATOM     92  C   UNL A   1      34.454  31.507  28.306  1.00  0.00     0.198 A 
ATOM     93  C   UNL A   1      35.551  33.639  28.442  1.00  0.00     0.198 A 
ATOM     94  F   UNL A   1      37.705  33.795  29.372  1.00  0.00    -0.203 F 
ATOM     95  F   UNL A   1      33.407  30.763  27.922  1.00  0.00    -0.200 F 
ATOM     96  C   UNL A   1      34.455  32.875  28.070  1.00  0.00     0.200 A 
ATOM     97  F   UNL A   1      35.547  34.962  28.230  1.00  0.00    -0.200 F 
ATOM     98  F   UNL A   1      33.402  33.454  27.480  1.00  0.00    -0.200 F 
ENDBRANCH  65  88
ENDBRANCH  39  40
ENDBRANCH  31  34
ENDBRANCH  29  30
ENDBRANCH  28  29
ENDBRANCH   1  28
TORSDOF 15
ENDMDL
MODEL 3
REMARK VINA RESULT:     -10.9      3.771      9.050
REMARK SMILES NS(=O)(=O)c1ccc(/N=N/c2ccc(O)c(C(=O)NCCCNC(=O)c3ccc(-c4c5nc(c(-c6c(F)c(F)c(F)c(F)c6F)c6ccc([nH]6)c(-c6c(F)c(F)c(F)c(F)c6F)c6nc(c(-c7c(F)c(F)c(F)c(F)c7F)c7ccc4[nH]7)C=C6)C=C5)cc3)c2)cc1
REMARK SMILES IDX 20 1 19 2 17 3 18 4 16 6 11 7 12 8 89 9 13 10 14 11 10 12
REMARK SMILES IDX 9 13 8 14 5 15 6 16 91 17 7 18 90 19 2 20 3 21 4 22 1 23
REMARK SMILES IDX 15 26 21 28 22 29 23 30 24 31 25 33 26 34 27 35 88 36 28 37
REMARK SMILES IDX 87 38 29 39 30 40 31 41 81 42 32 43 86 44 80 45 82 46 33 47
REMARK SMILES IDX 85 48 79 49 78 50 34 52 66 53 46 54 65 55 47 56 50 57 64 58
REMARK SMILES IDX 83 59 48 60 49 61 63 63 84 64 51 65 35 66 36 67 44 68 37 69
REMARK SMILES IDX 38 70 42 71 45 72 39 73 40 74 43 75 41 76 67 77 68 78 76 79
REMARK SMILES IDX 69 80 70 81 74 82 77 83 71 84 72 85 75 86 73 87 52 88 53 89
REMARK SMILES IDX 61 90 54 91 55 92 59 93 62 94 56 95 57 96 60 97 58 98
REMARK H PARENT 19 5 1 24 1 25 15 27 23 32 82 51 50 62
REMARK Flexibility Score: inf
ROOT
ATOM      1  C   UNL A   1      34.464  34.295  31.715  1.00  0.00     0.118 C 
ENDROOT
BRANCH   1   2
ATOM      2  N   UNL A   1      33.652  34.643  30.554  1.00  0.00    -0.352 N 
ATOM      3  C   UNL A   1      33.645  34.225  29.242  1.00  0.00     0.255 C 
ATOM      4  O   UNL A   1      32.854  34.771  28.468  1.00  0.00    -0.269 OA
ATOM      5  H   UNL A   1      32.963  35.318  30.749  1.00  0.00     0.163 HD
BRANCH   3   6
ATOM      6  C   UNL A   1      34.581  33.216  28.681  1.00  0.00     0.083 A 
ATOM      7  C   UNL A   1      35.025  30.956  27.878  1.00  0.00     0.087 A 
ATOM      8  C   UNL A   1      36.398  31.202  27.960  1.00  0.00     0.034 A 
ATOM      9  C   UNL A   1      34.142  32.020  28.119  1.00  0.00     0.048 A 
ATOM     10  C   UNL A   1      36.868  32.460  28.344  1.00  0.00     0.049 A 
ATOM     11  C   UNL A   1      35.964  33.450  28.729  1.00  0.00     0.128 A 
BRANCH   7  12
ATOM     12  N   UNL A   1      34.556  29.642  27.634  1.00  0.00    -0.151 NA
ATOM     13  N   UNL A   1      33.846  29.642  26.601  1.00  0.00    -0.151 NA
BRANCH  13  14
ATOM     14  C   UNL A   1      33.161  28.437  26.389  1.00  0.00     0.086 A 
ATOM     15  C   UNL A   1      31.767  26.006  26.284  1.00  0.00     0.082 A 
ATOM     16  C   UNL A   1      31.067  27.194  26.502  1.00  0.00     0.024 A 
ATOM     17  C   UNL A   1      33.156  26.019  26.122  1.00  0.00     0.024 A 
ATOM     18  C   UNL A   1      31.769  28.403  26.558  1.00  0.00     0.031 A 
ATOM     19  C   UNL A   1      33.846  27.233  26.175  1.00  0.00     0.031 A 
BRANCH  15  20
ATOM     20  S   UNL A   1      30.935  24.444  26.264  1.00  0.00     0.238 S 
ATOM     21  O   UNL A   1      31.418  23.655  27.375  1.00  0.00    -0.207 OA
ATOM     22  O   UNL A   1      30.911  23.958  24.907  1.00  0.00    -0.207 OA
BRANCH  20  23
ATOM     23  N   UNL A   1      29.339  24.809  26.655  1.00  0.00    -0.225 NA
ATOM     24  H   UNL A   1      28.712  24.237  26.091  1.00  0.00     0.137 HD
ATOM     25  H   UNL A   1      29.161  25.796  26.468  1.00  0.00     0.137 HD
ENDBRANCH  20  23
ENDBRANCH  15  20
ENDBRANCH  13  14
ENDBRANCH   7  12
BRANCH  11  26
ATOM     26  O   UNL A   1      36.509  34.634  29.148  1.00  0.00    -0.507 OA
ATOM     27  H   UNL A   1      37.314  34.937  28.776  1.00  0.00     0.293 HD
ENDBRANCH  11  26
ENDBRANCH   3   6
ENDBRANCH   1   2
BRANCH   1  28
ATOM     28  C   UNL A   1      34.261  32.872  32.211  1.00  0.00     0.042 C 
BRANCH  28  29
ATOM     29  C   UNL A   1      35.531  32.040  32.292  1.00  0.00     0.118 C 
BRANCH  29  30
ATOM     30  N   UNL A   1      36.216  32.174  33.573  1.00  0.00    -0.352 N 
ATOM     31  C   UNL A   1      37.466  31.779  33.983  1.00  0.00     0.251 C 
ATOM     32  H   UNL A   1      35.687  32.629  34.267  1.00  0.00     0.163 HD
ATOM     33  O   UNL A   1      37.741  31.809  35.179  1.00  0.00    -0.269 OA
BRANCH  31  34
ATOM     34  C   UNL A   1      38.479  31.302  33.015  1.00  0.00     0.039 A 
ATOM     35  C   UNL A   1      38.466  31.814  31.712  1.00  0.00     0.014 A 
ATOM     36  C   UNL A   1      39.409  30.322  33.359  1.00  0.00     0.014 A 
ATOM     37  C   UNL A   1      39.429  31.398  30.787  1.00  0.00     0.010 A 
ATOM     38  C   UNL A   1      40.430  29.987  32.475  1.00  0.00     0.010 A 
ATOM     39  C   UNL A   1      40.446  30.512  31.175  1.00  0.00    -0.014 A 
BRANCH  39  40
ATOM     40  C   UNL A   1      41.528  30.107  30.242  1.00  0.00     0.031 A 
ATOM     41  C   UNL A   1      41.455  28.780  29.533  1.00  0.00     0.074 A 
ATOM     42  C   UNL A   1      42.615  30.891  30.097  1.00  0.00     0.049 A 
ATOM     43  N   UNL A   1      42.344  28.198  28.768  1.00  0.00    -0.248 NA
ATOM     44  C   UNL A   1      40.233  27.987  29.741  1.00  0.00     0.031 C 
ATOM     45  C   UNL A   1      42.828  32.172  30.771  1.00  0.00     0.029 A 
ATOM     46  N   UNL A   1      43.752  30.717  29.348  1.00  0.00    -0.354 N 
ATOM     47  C   UNL A   1      41.801  26.966  28.428  1.00  0.00     0.074 A 
ATOM     48  C   UNL A   1      40.532  26.859  29.113  1.00  0.00     0.031 C 
ATOM     49  C   UNL A   1      44.011  32.680  30.388  1.00  0.00     0.029 A 
ATOM     50  C   UNL A   1      44.658  31.741  29.476  1.00  0.00     0.049 A 
ATOM     51  H   UNL A   1      43.904  29.932  28.773  1.00  0.00     0.167 HD
ATOM     52  C   UNL A   1      42.301  26.020  27.598  1.00  0.00     0.037 A 
ATOM     53  C   UNL A   1      45.877  31.901  28.928  1.00  0.00     0.037 A 
ATOM     54  C   UNL A   1      43.548  26.147  26.890  1.00  0.00     0.049 A 
ATOM     55  C   UNL A   1      46.408  30.839  28.004  1.00  0.00     0.074 A 
ATOM     56  C   UNL A   1      44.113  25.278  25.974  1.00  0.00     0.029 A 
ATOM     57  N   UNL A   1      44.424  27.215  27.022  1.00  0.00    -0.354 N 
ATOM     58  N   UNL A   1      45.854  29.709  27.635  1.00  0.00    -0.248 NA
ATOM     59  C   UNL A   1      47.733  31.077  27.414  1.00  0.00     0.031 C 
ATOM     60  C   UNL A   1      45.353  25.798  25.585  1.00  0.00     0.029 A 
ATOM     61  C   UNL A   1      45.536  27.017  26.218  1.00  0.00     0.049 A 
ATOM     62  H   UNL A   1      44.278  27.999  27.600  1.00  0.00     0.167 HD
ATOM     63  C   UNL A   1      46.744  29.118  26.750  1.00  0.00     0.074 A 
ATOM     64  C   UNL A   1      47.871  30.021  26.626  1.00  0.00     0.031 C 
ATOM     65  C   UNL A   1      46.642  27.932  26.100  1.00  0.00     0.037 A 
BRANCH  52  66
ATOM     66  C   UNL A   1      41.496  24.767  27.405  1.00  0.00     0.064 A 
ATOM     67  C   UNL A   1      40.341  24.748  26.608  1.00  0.00     0.173 A 
ATOM     68  C   UNL A   1      41.901  23.561  27.997  1.00  0.00     0.173 A 
ATOM     69  F   UNL A   1      39.903  25.876  26.028  1.00  0.00    -0.203 F 
ATOM     70  C   UNL A   1      39.603  23.580  26.440  1.00  0.00     0.198 A 
ATOM     71  C   UNL A   1      41.179  22.386  27.799  1.00  0.00     0.198 A 
ATOM     72  F   UNL A   1      43.001  23.518  28.764  1.00  0.00    -0.203 F 
ATOM     73  F   UNL A   1      38.473  23.601  25.719  1.00  0.00    -0.200 F 
ATOM     74  C   UNL A   1      40.026  22.399  27.029  1.00  0.00     0.200 A 
ATOM     75  F   UNL A   1      41.597  21.242  28.357  1.00  0.00    -0.200 F 
ATOM     76  F   UNL A   1      39.318  21.273  26.860  1.00  0.00    -0.200 F 
ENDBRANCH  52  66
BRANCH  53  77
ATOM     77  C   UNL A   1      46.667  33.127  29.215  1.00  0.00     0.064 A 
ATOM     78  C   UNL A   1      46.483  34.292  28.460  1.00  0.00     0.173 A 
ATOM     79  C   UNL A   1      47.619  33.160  30.245  1.00  0.00     0.173 A 
ATOM     80  F   UNL A   1      45.598  34.304  27.452  1.00  0.00    -0.203 F 
ATOM     81  C   UNL A   1      47.235  35.439  28.708  1.00  0.00     0.198 A 
ATOM     82  C   UNL A   1      48.350  34.316  30.511  1.00  0.00     0.198 A 
ATOM     83  F   UNL A   1      47.828  32.074  31.003  1.00  0.00    -0.203 F 
ATOM     84  F   UNL A   1      47.071  36.525  27.940  1.00  0.00    -0.200 F 
ATOM     85  C   UNL A   1      48.164  35.452  29.737  1.00  0.00     0.200 A 
ATOM     86  F   UNL A   1      49.236  34.329  31.517  1.00  0.00    -0.200 F 
ATOM     87  F   UNL A   1      48.884  36.556  29.978  1.00  0.00    -0.200 F 
ENDBRANCH  53  77
BRANCH  65  88
ATOM     88  C   UNL A   1      47.757  27.561  25.166  1.00  0.00     0.064 A 
ATOM     89  C   UNL A   1      48.917  26.920  25.621  1.00  0.00     0.173 A 
ATOM     90  C   UNL A   1      47.640  27.814  23.790  1.00  0.00     0.173 A 
ATOM     91  F   UNL A   1      49.082  26.671  26.929  1.00  0.00    -0.203 F 
ATOM     92  C   UNL A   1      49.933  26.570  24.737  1.00  0.00     0.198 A 
ATOM     93  C   UNL A   1      48.644  27.433  22.904  1.00  0.00     0.198 A 
ATOM     94  F   UNL A   1      46.546  28.417  23.303  1.00  0.00    -0.203 F 
ATOM     95  F   UNL A   1      51.056  26.002  25.200  1.00  0.00    -0.200 F 
ATOM     96  C   UNL A   1      49.793  26.819  23.379  1.00  0.00     0.200 A 
ATOM     97  F   UNL A   1      48.500  27.660  21.592  1.00  0.00    -0.200 F 
ATOM     98  F   UNL A   1      50.769  26.472  22.529  1.00  0.00    -0.200 F 
ENDBRANCH  65  88
ENDBRANCH  39  40
ENDBRANCH  31  34
ENDBRANCH  29  30
ENDBRANCH  28  29
ENDBRANCH   1  28
TORSDOF 15
ENDMDL
