MODEL 1
REMARK VINA RESULT:     -12.3      0.000      0.000
REMARK SMILES O=C(NCCCNC(=O)c1cccc(CS(=O)(=O)Nc2ncccn2)c1)c1ccc(-c2c3nc(c(-c4c(F)c(F)c(F)c(F)c4F)c4ccc([nH]4)c(-c4c(F)c(F)c(F)c(F)c4F)c4nc(c(-c5c(F)c(F)c(F)c(F)c5F)c5ccc2[nH]5)C=C4)C=C3)cc1
REMARK SMILES IDX 6 1 5 2 4 3 3 4 1 5 2 6 27 8 28 9 89 10 29 11 88 12 30 13
REMARK SMILES IDX 31 14 32 15 82 16 33 17 87 18 81 19 83 20 34 21 86 22 80 23
REMARK SMILES IDX 79 24 35 26 67 27 47 28 66 29 48 30 51 31 65 32 84 33 49 34
REMARK SMILES IDX 50 35 64 37 85 38 52 39 36 40 37 41 45 42 38 43 39 44 43 45
REMARK SMILES IDX 46 46 40 47 41 48 44 49 42 50 68 51 69 52 77 53 70 54 71 55
REMARK SMILES IDX 75 56 78 57 72 58 73 59 76 60 74 61 53 62 54 63 62 64 55 65
REMARK SMILES IDX 56 66 60 67 63 68 57 69 58 70 61 71 59 72 7 73 8 74 9 76
REMARK SMILES IDX 10 77 11 78 26 79 12 80 14 81 13 82 15 83 16 84 17 85 18 86
REMARK SMILES IDX 19 87 20 89 21 90 25 91 22 92 24 93 23 94
REMARK H PARENT 3 7 83 25 51 36 7 75 19 88
REMARK Flexibility Score: inf
ROOT
ATOM      1  C   UNL A   1      31.520  30.927  25.897  1.00  0.00     0.118 C 
ENDROOT
BRANCH   1   2
ATOM      2  C   UNL A   1      31.318  32.126  26.807  1.00  0.00     0.042 C 
BRANCH   2   3
ATOM      3  C   UNL A   1      32.615  32.799  27.221  1.00  0.00     0.118 C 
BRANCH   3   4
ATOM      4  N   UNL A   1      32.431  34.191  27.608  1.00  0.00    -0.352 N 
ATOM      5  O   UNL A   1      32.639  36.034  28.890  1.00  0.00    -0.269 OA
ATOM      6  C   UNL A   1      33.056  34.924  28.593  1.00  0.00     0.251 C 
ATOM      7  H   UNL A   1      31.757  34.684  27.087  1.00  0.00     0.163 HD
BRANCH   6   8
ATOM      8  C   UNL A   1      34.215  34.348  29.308  1.00  0.00     0.039 A 
ATOM      9  C   UNL A   1      35.515  34.640  28.899  1.00  0.00     0.014 A 
ATOM     10  C   UNL A   1      33.997  33.500  30.398  1.00  0.00     0.014 A 
ATOM     11  C   UNL A   1      36.581  33.936  29.441  1.00  0.00     0.010 A 
ATOM     12  C   UNL A   1      35.084  32.886  31.025  1.00  0.00     0.010 A 
ATOM     13  C   UNL A   1      36.383  33.067  30.525  1.00  0.00    -0.014 A 
BRANCH  13  14
ATOM     14  C   UNL A   1      37.562  32.412  31.145  1.00  0.00     0.031 A 
ATOM     15  C   UNL A   1      38.007  32.761  32.536  1.00  0.00     0.074 A 
ATOM     16  C   UNL A   1      38.207  31.459  30.445  1.00  0.00     0.049 A 
ATOM     17  N   UNL A   1      39.002  32.267  33.231  1.00  0.00    -0.248 NA
ATOM     18  C   UNL A   1      37.248  33.805  33.239  1.00  0.00     0.031 C 
ATOM     19  C   UNL A   1      37.866  31.042  29.083  1.00  0.00     0.029 A 
ATOM     20  N   UNL A   1      39.261  30.651  30.785  1.00  0.00    -0.354 N 
ATOM     21  C   UNL A   1      39.006  32.958  34.436  1.00  0.00     0.074 A 
ATOM     22  C   UNL A   1      37.929  33.922  34.370  1.00  0.00     0.031 C 
ATOM     23  C   UNL A   1      38.648  30.014  28.728  1.00  0.00     0.029 A 
ATOM     24  C   UNL A   1      39.596  29.751  29.803  1.00  0.00     0.049 A 
ATOM     25  H   UNL A   1      39.731  30.711  31.647  1.00  0.00     0.167 HD
ATOM     26  C   UNL A   1      39.832  32.796  35.498  1.00  0.00     0.037 A 
ATOM     27  C   UNL A   1      40.569  28.824  29.766  1.00  0.00     0.037 A 
ATOM     28  C   UNL A   1      40.889  31.818  35.561  1.00  0.00     0.049 A 
ATOM     29  C   UNL A   1      41.481  28.681  30.947  1.00  0.00     0.074 A 
ATOM     30  C   UNL A   1      41.755  31.546  36.607  1.00  0.00     0.029 A 
ATOM     31  N   UNL A   1      41.227  30.950  34.530  1.00  0.00    -0.354 N 
ATOM     32  N   UNL A   1      41.460  29.323  32.089  1.00  0.00    -0.248 NA
ATOM     33  C   UNL A   1      42.558  27.691  30.830  1.00  0.00     0.031 C 
ATOM     34  C   UNL A   1      42.647  30.550  36.191  1.00  0.00     0.029 A 
ATOM     35  C   UNL A   1      42.304  30.162  34.906  1.00  0.00     0.049 A 
ATOM     36  H   UNL A   1      40.768  30.902  33.660  1.00  0.00     0.167 HD
ATOM     37  C   UNL A   1      42.506  28.805  32.835  1.00  0.00     0.074 A 
ATOM     38  C   UNL A   1      43.132  27.782  32.021  1.00  0.00     0.031 C 
ATOM     39  C   UNL A   1      42.914  29.149  34.082  1.00  0.00     0.037 A 
BRANCH  26  40
ATOM     40  C   UNL A   1      39.647  33.717  36.670  1.00  0.00     0.064 A 
ATOM     41  C   UNL A   1      40.268  34.974  36.733  1.00  0.00     0.173 A 
ATOM     42  C   UNL A   1      38.815  33.345  37.738  1.00  0.00     0.173 A 
ATOM     43  F   UNL A   1      41.081  35.375  35.746  1.00  0.00    -0.203 F 
ATOM     44  C   UNL A   1      40.088  35.808  37.835  1.00  0.00     0.198 A 
ATOM     45  C   UNL A   1      38.616  34.193  38.825  1.00  0.00     0.198 A 
ATOM     46  F   UNL A   1      38.192  32.157  37.727  1.00  0.00    -0.203 F 
ATOM     47  F   UNL A   1      40.734  36.982  37.897  1.00  0.00    -0.200 F 
ATOM     48  C   UNL A   1      39.259  35.421  38.876  1.00  0.00     0.200 A 
ATOM     49  F   UNL A   1      37.804  33.821  39.824  1.00  0.00    -0.200 F 
ATOM     50  F   UNL A   1      39.088  36.225  39.935  1.00  0.00    -0.200 F 
ENDBRANCH  26  40
BRANCH  27  51
ATOM     51  C   UNL A   1      40.712  27.964  28.563  1.00  0.00     0.064 A 
ATOM     52  C   UNL A   1      40.005  26.760  28.454  1.00  0.00     0.173 A 
ATOM     53  C   UNL A   1      41.524  28.348  27.485  1.00  0.00     0.173 A 
ATOM     54  F   UNL A   1      39.229  26.345  29.466  1.00  0.00    -0.203 F 
ATOM     55  C   UNL A   1      40.106  25.970  27.311  1.00  0.00     0.198 A 
ATOM     56  C   UNL A   1      41.602  27.572  26.332  1.00  0.00     0.198 A 
ATOM     57  F   UNL A   1      42.213  29.497  27.540  1.00  0.00    -0.203 F 
ATOM     58  F   UNL A   1      39.441  24.809  27.242  1.00  0.00    -0.200 F 
ATOM     59  C   UNL A   1      40.897  26.381  26.248  1.00  0.00     0.200 A 
ATOM     60  F   UNL A   1      42.349  27.983  25.299  1.00  0.00    -0.200 F 
ATOM     61  F   UNL A   1      40.980  25.628  25.142  1.00  0.00    -0.200 F 
ENDBRANCH  27  51
BRANCH  39  62
ATOM     62  C   UNL A   1      44.074  28.386  34.651  1.00  0.00     0.064 A 
ATOM     63  C   UNL A   1      43.891  27.185  35.354  1.00  0.00     0.173 A 
ATOM     64  C   UNL A   1      45.385  28.851  34.473  1.00  0.00     0.173 A 
ATOM     65  F   UNL A   1      42.655  26.709  35.568  1.00  0.00    -0.203 F 
ATOM     66  C   UNL A   1      44.978  26.494  35.882  1.00  0.00     0.198 A 
ATOM     67  C   UNL A   1      46.471  28.142  34.977  1.00  0.00     0.198 A 
ATOM     68  F   UNL A   1      45.612  29.992  33.805  1.00  0.00    -0.203 F 
ATOM     69  F   UNL A   1      44.777  25.378  36.596  1.00  0.00    -0.200 F 
ATOM     70  C   UNL A   1      46.266  26.970  35.687  1.00  0.00     0.200 A 
ATOM     71  F   UNL A   1      47.715  28.597  34.778  1.00  0.00    -0.200 F 
ATOM     72  F   UNL A   1      47.311  26.301  36.194  1.00  0.00    -0.200 F 
ENDBRANCH  39  62
ENDBRANCH  13  14
ENDBRANCH   6   8
ENDBRANCH   3   4
ENDBRANCH   2   3
ENDBRANCH   1   2
BRANCH   1  73
ATOM     73  N   UNL A   1      32.743  30.205  26.222  1.00  0.00    -0.352 N 
ATOM     74  C   UNL A   1      32.995  28.860  26.265  1.00  0.00     0.251 C 
ATOM     75  H   UNL A   1      33.512  30.777  26.449  1.00  0.00     0.163 HD
ATOM     76  O   UNL A   1      34.028  28.463  26.800  1.00  0.00    -0.269 OA
BRANCH  74  77
ATOM     77  C   UNL A   1      32.085  27.893  25.616  1.00  0.00     0.040 A 
ATOM     78  C   UNL A   1      31.274  27.079  26.405  1.00  0.00     0.014 A 
ATOM     79  C   UNL A   1      32.150  27.682  24.235  1.00  0.00     0.018 A 
ATOM     80  C   UNL A   1      30.501  26.086  25.803  1.00  0.00     0.001 A 
ATOM     81  C   UNL A   1      31.404  26.674  23.619  1.00  0.00    -0.030 A 
ATOM     82  C   UNL A   1      30.557  25.894  24.419  1.00  0.00     0.005 A 
BRANCH  81  83
ATOM     83  C   UNL A   1      31.515  26.495  22.130  1.00  0.00     0.195 C 
BRANCH  83  84
ATOM     84  S   UNL A   1      33.021  25.649  21.603  1.00  0.00     0.239 S 
ATOM     85  O   UNL A   1      32.896  25.222  20.223  1.00  0.00    -0.206 OA
ATOM     86  O   UNL A   1      34.122  26.531  21.947  1.00  0.00    -0.206 OA
BRANCH  84  87
ATOM     87  N   UNL A   1      33.273  24.267  22.486  1.00  0.00    -0.251 N 
ATOM     88  H   UNL A   1      32.641  23.515  22.425  1.00  0.00     0.183 HD
BRANCH  87  89
ATOM     89  C   UNL A   1      34.390  24.182  23.313  1.00  0.00     0.236 A 
ATOM     90  N   UNL A   1      35.419  23.480  22.830  1.00  0.00    -0.221 NA
ATOM     91  N   UNL A   1      34.242  24.616  24.562  1.00  0.00    -0.221 NA
ATOM     92  C   UNL A   1      36.384  23.178  23.720  1.00  0.00     0.117 A 
ATOM     93  C   UNL A   1      35.265  24.340  25.398  1.00  0.00     0.117 A 
ATOM     94  C   UNL A   1      36.366  23.601  25.030  1.00  0.00     0.040 A 
ENDBRANCH  87  89
ENDBRANCH  84  87
ENDBRANCH  83  84
ENDBRANCH  81  83
ENDBRANCH  74  77
ENDBRANCH   1  73
TORSDOF 14
ENDMDL
MODEL 2
REMARK VINA RESULT:     -12.2      1.549      2.169
REMARK SMILES O=C(NCCCNC(=O)c1cccc(CS(=O)(=O)Nc2ncccn2)c1)c1ccc(-c2c3nc(c(-c4c(F)c(F)c(F)c(F)c4F)c4ccc([nH]4)c(-c4c(F)c(F)c(F)c(F)c4F)c4nc(c(-c5c(F)c(F)c(F)c(F)c5F)c5ccc2[nH]5)C=C4)C=C3)cc1
REMARK SMILES IDX 6 1 5 2 4 3 3 4 1 5 2 6 27 8 28 9 89 10 29 11 88 12 30 13
REMARK SMILES IDX 31 14 32 15 82 16 33 17 87 18 81 19 83 20 34 21 86 22 80 23
REMARK SMILES IDX 79 24 35 26 67 27 47 28 66 29 48 30 51 31 65 32 84 33 49 34
REMARK SMILES IDX 50 35 64 37 85 38 52 39 36 40 37 41 45 42 38 43 39 44 43 45
REMARK SMILES IDX 46 46 40 47 41 48 44 49 42 50 68 51 69 52 77 53 70 54 71 55
REMARK SMILES IDX 75 56 78 57 72 58 73 59 76 60 74 61 53 62 54 63 62 64 55 65
REMARK SMILES IDX 56 66 60 67 63 68 57 69 58 70 61 71 59 72 7 73 8 74 9 76
REMARK SMILES IDX 10 77 11 78 26 79 12 80 14 81 13 82 15 83 16 84 17 85 18 86
REMARK SMILES IDX 19 87 20 89 21 90 25 91 22 92 24 93 23 94
REMARK H PARENT 3 7 83 25 51 36 7 75 19 88
REMARK Flexibility Score: inf
ROOT
ATOM      1  C   UNL A   1      31.710  30.776  26.683  1.00  0.00     0.118 C 
ENDROOT
BRANCH   1   2
ATOM      2  C   UNL A   1      31.499  32.276  26.780  1.00  0.00     0.042 C 
BRANCH   2   3
ATOM      3  C   UNL A   1      32.752  33.041  27.169  1.00  0.00     0.118 C 
BRANCH   3   4
ATOM      4  N   UNL A   1      32.464  34.371  27.689  1.00  0.00    -0.352 N 
ATOM      5  O   UNL A   1      32.504  36.078  29.162  1.00  0.00    -0.269 OA
ATOM      6  C   UNL A   1      33.004  35.032  28.770  1.00  0.00     0.251 C 
ATOM      7  H   UNL A   1      31.780  34.874  27.192  1.00  0.00     0.163 HD
BRANCH   6   8
ATOM      8  C   UNL A   1      34.169  34.455  29.474  1.00  0.00     0.039 A 
ATOM      9  C   UNL A   1      35.457  34.628  28.969  1.00  0.00     0.014 A 
ATOM     10  C   UNL A   1      33.970  33.726  30.649  1.00  0.00     0.014 A 
ATOM     11  C   UNL A   1      36.512  33.914  29.516  1.00  0.00     0.010 A 
ATOM     12  C   UNL A   1      35.057  33.107  31.272  1.00  0.00     0.010 A 
ATOM     13  C   UNL A   1      36.331  33.161  30.687  1.00  0.00    -0.014 A 
BRANCH  13  14
ATOM     14  C   UNL A   1      37.507  32.496  31.302  1.00  0.00     0.031 A 
ATOM     15  C   UNL A   1      37.960  32.838  32.692  1.00  0.00     0.074 A 
ATOM     16  C   UNL A   1      38.142  31.539  30.597  1.00  0.00     0.049 A 
ATOM     17  N   UNL A   1      38.953  32.335  33.382  1.00  0.00    -0.248 NA
ATOM     18  C   UNL A   1      37.212  33.887  33.399  1.00  0.00     0.031 C 
ATOM     19  C   UNL A   1      37.793  31.127  29.236  1.00  0.00     0.029 A 
ATOM     20  N   UNL A   1      39.191  30.722  30.932  1.00  0.00    -0.354 N 
ATOM     21  C   UNL A   1      38.967  33.023  34.588  1.00  0.00     0.074 A 
ATOM     22  C   UNL A   1      37.898  33.996  34.529  1.00  0.00     0.031 C 
ATOM     23  C   UNL A   1      38.565  30.094  28.876  1.00  0.00     0.029 A 
ATOM     24  C   UNL A   1      39.515  29.821  29.947  1.00  0.00     0.049 A 
ATOM     25  H   UNL A   1      39.664  30.776  31.793  1.00  0.00     0.167 HD
ATOM     26  C   UNL A   1      39.796  32.852  35.647  1.00  0.00     0.037 A 
ATOM     27  C   UNL A   1      40.480  28.886  29.905  1.00  0.00     0.037 A 
ATOM     28  C   UNL A   1      40.845  31.866  35.705  1.00  0.00     0.049 A 
ATOM     29  C   UNL A   1      41.395  28.733  31.083  1.00  0.00     0.074 A 
ATOM     30  C   UNL A   1      41.713  31.585  36.747  1.00  0.00     0.029 A 
ATOM     31  N   UNL A   1      41.172  30.998  34.671  1.00  0.00    -0.354 N 
ATOM     32  N   UNL A   1      41.383  29.373  32.225  1.00  0.00    -0.248 NA
ATOM     33  C   UNL A   1      42.463  27.735  30.960  1.00  0.00     0.031 C 
ATOM     34  C   UNL A   1      42.594  30.583  36.326  1.00  0.00     0.029 A 
ATOM     35  C   UNL A   1      42.244  30.200  35.041  1.00  0.00     0.049 A 
ATOM     36  H   UNL A   1      40.710  30.955  33.803  1.00  0.00     0.167 HD
ATOM     37  C   UNL A   1      42.428  28.846  32.967  1.00  0.00     0.074 A 
ATOM     38  C   UNL A   1      43.042  27.819  32.149  1.00  0.00     0.031 C 
ATOM     39  C   UNL A   1      42.843  29.183  34.213  1.00  0.00     0.037 A 
BRANCH  26  40
ATOM     40  C   UNL A   1      39.622  33.773  36.822  1.00  0.00     0.064 A 
ATOM     41  C   UNL A   1      38.821  33.431  37.922  1.00  0.00     0.173 A 
ATOM     42  C   UNL A   1      40.286  35.010  36.857  1.00  0.00     0.173 A 
ATOM     43  F   UNL A   1      38.156  32.267  37.936  1.00  0.00    -0.203 F 
ATOM     44  C   UNL A   1      38.667  34.304  38.997  1.00  0.00     0.198 A 
ATOM     45  C   UNL A   1      40.151  35.868  37.945  1.00  0.00     0.198 A 
ATOM     46  F   UNL A   1      41.068  35.385  35.834  1.00  0.00    -0.203 F 
ATOM     47  F   UNL A   1      37.855  33.978  40.012  1.00  0.00    -0.200 F 
ATOM     48  C   UNL A   1      39.335  35.519  39.010  1.00  0.00     0.200 A 
ATOM     49  F   UNL A   1      40.809  37.036  37.961  1.00  0.00    -0.200 F 
ATOM     50  F   UNL A   1      39.185  36.358  40.045  1.00  0.00    -0.200 F 
ENDBRANCH  26  40
BRANCH  27  51
ATOM     51  C   UNL A   1      40.612  28.028  28.700  1.00  0.00     0.064 A 
ATOM     52  C   UNL A   1      39.934  26.805  28.613  1.00  0.00     0.173 A 
ATOM     53  C   UNL A   1      41.382  28.430  27.599  1.00  0.00     0.173 A 
ATOM     54  F   UNL A   1      39.198  26.372  29.647  1.00  0.00    -0.203 F 
ATOM     55  C   UNL A   1      40.024  26.015  27.468  1.00  0.00     0.198 A 
ATOM     56  C   UNL A   1      41.448  27.654  26.445  1.00  0.00     0.198 A 
ATOM     57  F   UNL A   1      42.043  29.597  27.633  1.00  0.00    -0.203 F 
ATOM     58  F   UNL A   1      39.388  24.837  27.420  1.00  0.00    -0.200 F 
ATOM     59  C   UNL A   1      40.773  26.445  26.383  1.00  0.00     0.200 A 
ATOM     60  F   UNL A   1      42.156  28.083  25.391  1.00  0.00    -0.200 F 
ATOM     61  F   UNL A   1      40.845  25.692  25.276  1.00  0.00    -0.200 F 
ENDBRANCH  27  51
BRANCH  39  62
ATOM     62  C   UNL A   1      43.998  28.410  34.776  1.00  0.00     0.064 A 
ATOM     63  C   UNL A   1      43.808  27.209  35.478  1.00  0.00     0.173 A 
ATOM     64  C   UNL A   1      45.313  28.865  34.596  1.00  0.00     0.173 A 
ATOM     65  F   UNL A   1      42.569  26.742  35.693  1.00  0.00    -0.203 F 
ATOM     66  C   UNL A   1      44.891  26.508  36.000  1.00  0.00     0.198 A 
ATOM     67  C   UNL A   1      46.395  28.146  35.094  1.00  0.00     0.198 A 
ATOM     68  F   UNL A   1      45.546  30.006  33.930  1.00  0.00    -0.203 F 
ATOM     69  F   UNL A   1      44.684  25.391  36.711  1.00  0.00    -0.200 F 
ATOM     70  C   UNL A   1      46.182  26.974  35.803  1.00  0.00     0.200 A 
ATOM     71  F   UNL A   1      47.642  28.592  34.894  1.00  0.00    -0.200 F 
ATOM     72  F   UNL A   1      47.224  26.296  36.304  1.00  0.00    -0.200 F 
ENDBRANCH  39  62
ENDBRANCH  13  14
ENDBRANCH   6   8
ENDBRANCH   3   4
ENDBRANCH   2   3
ENDBRANCH   1   2
BRANCH   1  73
ATOM     73  N   UNL A   1      33.054  30.393  27.095  1.00  0.00    -0.352 N 
ATOM     74  C   UNL A   1      33.698  29.188  27.014  1.00  0.00     0.251 C 
ATOM     75  H   UNL A   1      33.583  31.119  27.500  1.00  0.00     0.163 HD
ATOM     76  O   UNL A   1      34.740  29.024  27.644  1.00  0.00    -0.269 OA
BRANCH  74  77
ATOM     77  C   UNL A   1      33.199  28.116  26.127  1.00  0.00     0.040 A 
ATOM     78  C   UNL A   1      33.725  27.990  24.841  1.00  0.00     0.014 A 
ATOM     79  C   UNL A   1      32.102  27.338  26.511  1.00  0.00     0.018 A 
ATOM     80  C   UNL A   1      33.176  27.057  23.962  1.00  0.00     0.001 A 
ATOM     81  C   UNL A   1      31.523  26.418  25.633  1.00  0.00    -0.030 A 
ATOM     82  C   UNL A   1      32.091  26.268  24.360  1.00  0.00     0.005 A 
BRANCH  81  83
ATOM     83  C   UNL A   1      30.344  25.609  26.102  1.00  0.00     0.195 C 
BRANCH  83  84
ATOM     84  S   UNL A   1      30.742  23.893  26.497  1.00  0.00     0.239 S 
ATOM     85  O   UNL A   1      32.092  23.801  27.015  1.00  0.00    -0.206 OA
ATOM     86  O   UNL A   1      29.657  23.408  27.332  1.00  0.00    -0.206 OA
BRANCH  84  87
ATOM     87  N   UNL A   1      30.709  22.941  25.139  1.00  0.00    -0.251 N 
ATOM     88  H   UNL A   1      29.927  22.955  24.540  1.00  0.00     0.183 HD
BRANCH  87  89
ATOM     89  C   UNL A   1      31.798  22.121  24.854  1.00  0.00     0.236 A 
ATOM     90  N   UNL A   1      31.768  20.904  25.402  1.00  0.00    -0.221 NA
ATOM     91  N   UNL A   1      32.838  22.697  24.256  1.00  0.00    -0.221 NA
ATOM     92  C   UNL A   1      32.924  20.214  25.348  1.00  0.00     0.117 A 
ATOM     93  C   UNL A   1      33.952  21.940  24.175  1.00  0.00     0.117 A 
ATOM     94  C   UNL A   1      34.057  20.683  24.724  1.00  0.00     0.040 A 
ENDBRANCH  87  89
ENDBRANCH  84  87
ENDBRANCH  83  84
ENDBRANCH  81  83
ENDBRANCH  74  77
ENDBRANCH   1  73
TORSDOF 14
ENDMDL
MODEL 3
REMARK VINA RESULT:     -12.1      1.607      7.638
REMARK SMILES O=C(NCCCNC(=O)c1cccc(CS(=O)(=O)Nc2ncccn2)c1)c1ccc(-c2c3nc(c(-c4c(F)c(F)c(F)c(F)c4F)c4ccc([nH]4)c(-c4c(F)c(F)c(F)c(F)c4F)c4nc(c(-c5c(F)c(F)c(F)c(F)c5F)c5ccc2[nH]5)C=C4)C=C3)cc1
REMARK SMILES IDX 6 1 5 2 4 3 3 4 1 5 2 6 27 8 28 9 89 10 29 11 88 12 30 13
REMARK SMILES IDX 31 14 32 15 82 16 33 17 87 18 81 19 83 20 34 21 86 22 80 23
REMARK SMILES IDX 79 24 35 26 67 27 47 28 66 29 48 30 51 31 65 32 84 33 49 34
REMARK SMILES IDX 50 35 64 37 85 38 52 39 36 40 37 41 45 42 38 43 39 44 43 45
REMARK SMILES IDX 46 46 40 47 41 48 44 49 42 50 68 51 69 52 77 53 70 54 71 55
REMARK SMILES IDX 75 56 78 57 72 58 73 59 76 60 74 61 53 62 54 63 62 64 55 65
REMARK SMILES IDX 56 66 60 67 63 68 57 69 58 70 61 71 59 72 7 73 8 74 9 76
REMARK SMILES IDX 10 77 11 78 26 79 12 80 14 81 13 82 15 83 16 84 17 85 18 86
REMARK SMILES IDX 19 87 20 89 21 90 25 91 22 92 24 93 23 94
REMARK H PARENT 3 7 83 25 51 36 7 75 19 88
REMARK Flexibility Score: inf
ROOT
ATOM      1  C   UNL A   1      31.707  30.832  26.645  1.00  0.00     0.118 C 
ENDROOT
BRANCH   1   2
ATOM      2  C   UNL A   1      31.506  32.328  26.812  1.00  0.00     0.042 C 
BRANCH   2   3
ATOM      3  C   UNL A   1      32.768  33.068  27.220  1.00  0.00     0.118 C 
BRANCH   3   4
ATOM      4  N   UNL A   1      32.498  34.404  27.735  1.00  0.00    -0.352 N 
ATOM      5  O   UNL A   1      32.529  36.103  29.216  1.00  0.00    -0.269 OA
ATOM      6  C   UNL A   1      33.013  35.045  28.839  1.00  0.00     0.251 C 
ATOM      7  H   UNL A   1      31.848  34.929  27.214  1.00  0.00     0.163 HD
BRANCH   6   8
ATOM      8  C   UNL A   1      34.133  34.432  29.584  1.00  0.00     0.039 A 
ATOM      9  C   UNL A   1      35.445  34.571  29.132  1.00  0.00     0.014 A 
ATOM     10  C   UNL A   1      33.868  33.702  30.746  1.00  0.00     0.014 A 
ATOM     11  C   UNL A   1      36.457  33.825  29.716  1.00  0.00     0.010 A 
ATOM     12  C   UNL A   1      34.911  33.050  31.408  1.00  0.00     0.010 A 
ATOM     13  C   UNL A   1      36.209  33.072  30.874  1.00  0.00    -0.014 A 
BRANCH  13  14
ATOM     14  C   UNL A   1      37.341  32.370  31.531  1.00  0.00     0.031 A 
ATOM     15  C   UNL A   1      38.082  31.264  30.837  1.00  0.00     0.074 A 
ATOM     16  C   UNL A   1      37.720  32.778  32.758  1.00  0.00     0.049 A 
ATOM     17  N   UNL A   1      39.105  30.565  31.263  1.00  0.00    -0.248 NA
ATOM     18  C   UNL A   1      37.613  30.882  29.498  1.00  0.00     0.031 C 
ATOM     19  C   UNL A   1      37.069  33.839  33.529  1.00  0.00     0.029 A 
ATOM     20  N   UNL A   1      38.755  32.372  33.560  1.00  0.00    -0.354 N 
ATOM     21  C   UNL A   1      39.383  29.645  30.261  1.00  0.00     0.074 A 
ATOM     22  C   UNL A   1      38.406  29.858  29.214  1.00  0.00     0.031 C 
ATOM     23  C   UNL A   1      37.757  34.047  34.660  1.00  0.00     0.029 A 
ATOM     24  C   UNL A   1      38.847  33.083  34.731  1.00  0.00     0.049 A 
ATOM     25  H   UNL A   1      39.371  31.642  33.320  1.00  0.00     0.167 HD
ATOM     26  C   UNL A   1      40.365  28.712  30.220  1.00  0.00     0.037 A 
ATOM     27  C   UNL A   1      39.708  32.965  35.757  1.00  0.00     0.037 A 
ATOM     28  C   UNL A   1      41.346  28.522  31.259  1.00  0.00     0.049 A 
ATOM     29  C   UNL A   1      40.773  31.911  35.694  1.00  0.00     0.074 A 
ATOM     30  C   UNL A   1      42.406  27.633  31.296  1.00  0.00     0.029 A 
ATOM     31  N   UNL A   1      41.383  29.234  32.451  1.00  0.00    -0.354 N 
ATOM     32  N   UNL A   1      41.039  31.064  34.731  1.00  0.00    -0.248 NA
ATOM     33  C   UNL A   1      41.649  31.791  36.864  1.00  0.00     0.031 C 
ATOM     34  C   UNL A   1      43.054  27.772  32.529  1.00  0.00     0.029 A 
ATOM     35  C   UNL A   1      42.432  28.786  33.240  1.00  0.00     0.049 A 
ATOM     36  H   UNL A   1      40.756  29.952  32.699  1.00  0.00     0.167 HD
ATOM     37  C   UNL A   1      42.124  30.320  35.168  1.00  0.00     0.074 A 
ATOM     38  C   UNL A   1      42.477  30.831  36.478  1.00  0.00     0.031 C 
ATOM     39  C   UNL A   1      42.768  29.305  34.542  1.00  0.00     0.037 A 
BRANCH  26  40
ATOM     40  C   UNL A   1      40.412  27.804  29.025  1.00  0.00     0.064 A 
ATOM     41  C   UNL A   1      41.202  28.093  27.901  1.00  0.00     0.173 A 
ATOM     42  C   UNL A   1      39.671  26.611  29.012  1.00  0.00     0.173 A 
ATOM     43  F   UNL A   1      41.921  29.224  27.856  1.00  0.00    -0.203 F 
ATOM     44  C   UNL A   1      41.223  27.240  26.800  1.00  0.00     0.198 A 
ATOM     45  C   UNL A   1      39.716  25.747  27.921  1.00  0.00     0.198 A 
ATOM     46  F   UNL A   1      38.903  26.282  30.062  1.00  0.00    -0.203 F 
ATOM     47  F   UNL A   1      41.944  27.564  25.716  1.00  0.00    -0.200 F 
ATOM     48  C   UNL A   1      40.485  26.066  26.812  1.00  0.00     0.200 A 
ATOM     49  F   UNL A   1      39.012  24.606  27.941  1.00  0.00    -0.200 F 
ATOM     50  F   UNL A   1      40.507  25.247  25.751  1.00  0.00    -0.200 F 
ENDBRANCH  26  40
BRANCH  27  51
ATOM     51  C   UNL A   1      39.587  33.880  36.920  1.00  0.00     0.064 A 
ATOM     52  C   UNL A   1      40.202  35.139  36.910  1.00  0.00     0.173 A 
ATOM     53  C   UNL A   1      38.823  33.534  38.045  1.00  0.00     0.173 A 
ATOM     54  F   UNL A   1      40.955  35.507  35.864  1.00  0.00    -0.203 F 
ATOM     55  C   UNL A   1      40.058  36.016  37.983  1.00  0.00     0.198 A 
ATOM     56  C   UNL A   1      38.656  34.422  39.103  1.00  0.00     0.198 A 
ATOM     57  F   UNL A   1      38.208  32.342  38.096  1.00  0.00    -0.203 F 
ATOM     58  F   UNL A   1      40.679  37.203  37.961  1.00  0.00    -0.200 F 
ATOM     59  C   UNL A   1      39.279  35.660  39.074  1.00  0.00     0.200 A 
ATOM     60  F   UNL A   1      37.885  34.083  40.145  1.00  0.00    -0.200 F 
ATOM     61  F   UNL A   1      39.128  36.512  40.097  1.00  0.00    -0.200 F 
ENDBRANCH  27  51
BRANCH  39  62
ATOM     62  C   UNL A   1      43.941  28.702  35.257  1.00  0.00     0.064 A 
ATOM     63  C   UNL A   1      45.240  29.209  35.097  1.00  0.00     0.173 A 
ATOM     64  C   UNL A   1      43.760  27.617  36.127  1.00  0.00     0.173 A 
ATOM     65  F   UNL A   1      45.467  30.233  34.261  1.00  0.00    -0.203 F 
ATOM     66  C   UNL A   1      46.319  28.632  35.762  1.00  0.00     0.198 A 
ATOM     67  C   UNL A   1      44.837  27.062  36.813  1.00  0.00     0.198 A 
ATOM     68  F   UNL A   1      42.538  27.099  36.316  1.00  0.00    -0.203 F 
ATOM     69  F   UNL A   1      47.558  29.099  35.555  1.00  0.00    -0.200 F 
ATOM     70  C   UNL A   1      46.115  27.565  36.623  1.00  0.00     0.200 A 
ATOM     71  F   UNL A   1      44.637  26.038  37.653  1.00  0.00    -0.200 F 
ATOM     72  F   UNL A   1      47.154  27.013  37.265  1.00  0.00    -0.200 F 
ENDBRANCH  39  62
ENDBRANCH  13  14
ENDBRANCH   6   8
ENDBRANCH   3   4
ENDBRANCH   2   3
ENDBRANCH   1   2
BRANCH   1  73
ATOM     73  N   UNL A   1      33.040  30.418  27.065  1.00  0.00    -0.352 N 
ATOM     74  C   UNL A   1      33.655  29.197  26.991  1.00  0.00     0.251 C 
ATOM     75  H   UNL A   1      33.586  31.132  27.467  1.00  0.00     0.163 HD
ATOM     76  O   UNL A   1      34.691  29.011  27.625  1.00  0.00    -0.269 OA
BRANCH  74  77
ATOM     77  C   UNL A   1      33.133  28.134  26.107  1.00  0.00     0.040 A 
ATOM     78  C   UNL A   1      33.629  28.015  24.809  1.00  0.00     0.014 A 
ATOM     79  C   UNL A   1      32.042  27.356  26.509  1.00  0.00     0.018 A 
ATOM     80  C   UNL A   1      33.058  27.091  23.935  1.00  0.00     0.001 A 
ATOM     81  C   UNL A   1      31.440  26.445  25.637  1.00  0.00    -0.030 A 
ATOM     82  C   UNL A   1      31.979  26.303  24.351  1.00  0.00     0.005 A 
BRANCH  81  83
ATOM     83  C   UNL A   1      30.270  25.636  26.127  1.00  0.00     0.195 C 
BRANCH  83  84
ATOM     84  S   UNL A   1      30.670  23.915  26.497  1.00  0.00     0.239 S 
ATOM     85  O   UNL A   1      32.010  23.821  27.042  1.00  0.00    -0.206 OA
ATOM     86  O   UNL A   1      29.570  23.407  27.299  1.00  0.00    -0.206 OA
BRANCH  84  87
ATOM     87  N   UNL A   1      30.672  22.989  25.120  1.00  0.00    -0.251 N 
ATOM     88  H   UNL A   1      29.897  23.000  24.512  1.00  0.00     0.183 HD
BRANCH  87  89
ATOM     89  C   UNL A   1      31.780  22.197  24.833  1.00  0.00     0.236 A 
ATOM     90  N   UNL A   1      31.778  20.977  25.376  1.00  0.00    -0.221 NA
ATOM     91  N   UNL A   1      32.807  22.800  24.239  1.00  0.00    -0.221 NA
ATOM     92  C   UNL A   1      32.950  20.314  25.320  1.00  0.00     0.117 A 
ATOM     93  C   UNL A   1      33.939  22.069  24.155  1.00  0.00     0.117 A 
ATOM     94  C   UNL A   1      34.073  20.813  24.699  1.00  0.00     0.040 A 
ENDBRANCH  87  89
ENDBRANCH  84  87
ENDBRANCH  83  84
ENDBRANCH  81  83
ENDBRANCH  74  77
ENDBRANCH   1  73
TORSDOF 14
ENDMDL
