MODEL 1
REMARK VINA RESULT:     -11.3      0.000      0.000
REMARK SMILES C[C@@]1(C(=O)N[C@@H](CO)C(=O)NCCCNC(=O)c2ccc(-c3c4nc(c(-c5c(F)c(F)c(F)c(F)c5F)c5ccc([nH]5)c(-c5c(F)c(F)c(F)c(F)c5F)c5nc(c(-c6c(F)c(F)c(F)c(F)c6F)c6ccc3[nH]6)C=C5)C=C4)cc2)CCCO1
REMARK SMILES IDX 13 1 12 2 11 3 9 4 10 5 6 7 5 8 3 9 4 10 2 12 1 13 81 14
REMARK SMILES IDX 84 15 82 16 83 17 7 18 8 19 14 21 15 22 16 23 17 25 18 26
REMARK SMILES IDX 19 27 80 28 20 29 79 30 21 31 22 32 23 33 73 34 24 35 78 36
REMARK SMILES IDX 72 37 74 38 25 39 77 40 71 41 70 42 26 44 58 45 38 46 57 47
REMARK SMILES IDX 39 48 42 49 56 50 75 51 40 52 41 53 55 55 76 56 43 57 27 58
REMARK SMILES IDX 28 59 36 60 29 61 30 62 34 63 37 64 31 65 32 66 35 67 33 68
REMARK SMILES IDX 59 69 60 70 68 71 61 72 62 73 66 74 69 75 63 76 64 77 67 78
REMARK SMILES IDX 65 79 44 80 45 81 53 82 46 83 47 84 51 85 54 86 48 87 49 88
REMARK SMILES IDX 52 89 50 90
REMARK H PARENT 11 6 5 11 8 20 15 24 74 43 42 54
REMARK Flexibility Score: inf
ROOT
ATOM      1  C   UNL A   1      31.475  32.034  26.783  1.00  0.00     0.042 C 
ENDROOT
BRANCH   1   2
ATOM      2  C   UNL A   1      31.795  30.707  26.118  1.00  0.00     0.117 C 
BRANCH   2   3
ATOM      3  N   UNL A   1      33.039  30.145  26.604  1.00  0.00    -0.354 N 
ATOM      4  C   UNL A   1      33.475  28.860  26.643  1.00  0.00     0.244 C 
ATOM      5  O   UNL A   1      34.620  28.670  27.067  1.00  0.00    -0.273 OA
ATOM      6  H   UNL A   1      33.674  30.806  26.965  1.00  0.00     0.163 HD
BRANCH   4   7
ATOM      7  C   UNL A   1      32.616  27.681  26.168  1.00  0.00     0.197 C 
BRANCH   7   8
ATOM      8  N   UNL A   1      33.425  26.509  25.843  1.00  0.00    -0.340 N 
ATOM      9  C   UNL A   1      33.807  26.030  24.622  1.00  0.00     0.252 C 
ATOM     10  O   UNL A   1      34.662  25.140  24.632  1.00  0.00    -0.272 OA
ATOM     11  H   UNL A   1      33.742  25.989  26.617  1.00  0.00     0.164 HD
BRANCH   9  12
ATOM     12  C   UNL A   1      33.218  26.596  23.294  1.00  0.00     0.143 C 
ATOM     13  C   UNL A   1      33.436  25.556  22.184  1.00  0.00     0.053 C 
ATOM     14  C   UNL A   1      33.862  27.927  22.889  1.00  0.00     0.048 C 
ATOM     15  O   UNL A   1      31.800  26.816  23.394  1.00  0.00    -0.365 OA
ATOM     16  C   UNL A   1      32.728  28.924  22.823  1.00  0.00     0.032 C 
ATOM     17  C   UNL A   1      31.478  28.074  22.792  1.00  0.00     0.162 C 
ENDBRANCH   9  12
ENDBRANCH   7   8
BRANCH   7  18
ATOM     18  C   UNL A   1      31.390  27.405  27.047  1.00  0.00     0.191 C 
BRANCH  18  19
ATOM     19  O   UNL A   1      31.445  27.996  28.341  1.00  0.00    -0.394 OA
ATOM     20  H   UNL A   1      32.333  27.879  28.712  1.00  0.00     0.210 HD
ENDBRANCH  18  19
ENDBRANCH   7  18
ENDBRANCH   4   7
ENDBRANCH   2   3
ENDBRANCH   1   2
BRANCH   1  21
ATOM     21  C   UNL A   1      32.693  32.721  27.377  1.00  0.00     0.118 C 
BRANCH  21  22
ATOM     22  N   UNL A   1      32.459  34.132  27.659  1.00  0.00    -0.352 N 
ATOM     23  C   UNL A   1      33.017  34.940  28.620  1.00  0.00     0.251 C 
ATOM     24  H   UNL A   1      31.803  34.573  27.072  1.00  0.00     0.163 HD
ATOM     25  O   UNL A   1      32.550  36.051  28.846  1.00  0.00    -0.269 OA
BRANCH  23  26
ATOM     26  C   UNL A   1      34.174  34.451  29.394  1.00  0.00     0.039 A 
ATOM     27  C   UNL A   1      33.963  33.816  30.619  1.00  0.00     0.014 A 
ATOM     28  C   UNL A   1      35.465  34.604  28.889  1.00  0.00     0.014 A 
ATOM     29  C   UNL A   1      35.050  33.267  31.304  1.00  0.00     0.010 A 
ATOM     30  C   UNL A   1      36.523  33.959  29.509  1.00  0.00     0.010 A 
ATOM     31  C   UNL A   1      36.332  33.300  30.733  1.00  0.00    -0.014 A 
BRANCH  31  32
ATOM     32  C   UNL A   1      37.512  32.703  31.403  1.00  0.00     0.031 A 
ATOM     33  C   UNL A   1      38.241  31.572  30.732  1.00  0.00     0.074 A 
ATOM     34  C   UNL A   1      37.861  33.101  32.640  1.00  0.00     0.049 A 
ATOM     35  N   UNL A   1      39.188  30.800  31.199  1.00  0.00    -0.248 NA
ATOM     36  C   UNL A   1      37.810  31.234  29.365  1.00  0.00     0.031 C 
ATOM     37  C   UNL A   1      37.206  34.160  33.409  1.00  0.00     0.029 A 
ATOM     38  N   UNL A   1      38.847  32.643  33.477  1.00  0.00    -0.354 N 
ATOM     39  C   UNL A   1      39.436  29.868  30.200  1.00  0.00     0.074 A 
ATOM     40  C   UNL A   1      38.498  30.128  29.131  1.00  0.00     0.031 C 
ATOM     41  C   UNL A   1      37.823  34.287  34.595  1.00  0.00     0.029 A 
ATOM     42  C   UNL A   1      38.885  33.290  34.688  1.00  0.00     0.049 A 
ATOM     43  H   UNL A   1      39.469  31.921  33.233  1.00  0.00     0.167 HD
ATOM     44  C   UNL A   1      40.381  28.899  30.164  1.00  0.00     0.037 A 
ATOM     45  C   UNL A   1      39.681  33.089  35.755  1.00  0.00     0.037 A 
ATOM     46  C   UNL A   1      41.336  28.673  31.217  1.00  0.00     0.049 A 
ATOM     47  C   UNL A   1      40.723  32.006  35.696  1.00  0.00     0.074 A 
ATOM     48  C   UNL A   1      42.377  27.765  31.258  1.00  0.00     0.029 A 
ATOM     49  N   UNL A   1      41.361  29.370  32.417  1.00  0.00    -0.354 N 
ATOM     50  N   UNL A   1      40.992  31.166  34.726  1.00  0.00    -0.248 NA
ATOM     51  C   UNL A   1      41.577  31.845  36.882  1.00  0.00     0.031 C 
ATOM     52  C   UNL A   1      43.003  27.877  32.505  1.00  0.00     0.029 A 
ATOM     53  C   UNL A   1      42.389  28.897  33.215  1.00  0.00     0.049 A 
ATOM     54  H   UNL A   1      40.741  30.094  32.664  1.00  0.00     0.167 HD
ATOM     55  C   UNL A   1      42.066  30.405  35.164  1.00  0.00     0.074 A 
ATOM     56  C   UNL A   1      42.402  30.884  36.489  1.00  0.00     0.031 C 
ATOM     57  C   UNL A   1      42.719  29.402  34.525  1.00  0.00     0.037 A 
BRANCH  44  58
ATOM     58  C   UNL A   1      40.417  28.014  28.950  1.00  0.00     0.064 A 
ATOM     59  C   UNL A   1      41.164  28.351  27.811  1.00  0.00     0.173 A 
ATOM     60  C   UNL A   1      39.689  26.815  28.923  1.00  0.00     0.173 A 
ATOM     61  F   UNL A   1      41.869  29.493  27.778  1.00  0.00    -0.203 F 
ATOM     62  C   UNL A   1      41.142  27.548  26.674  1.00  0.00     0.198 A 
ATOM     63  C   UNL A   1      39.700  25.994  27.798  1.00  0.00     0.198 A 
ATOM     64  F   UNL A   1      38.962  26.440  29.986  1.00  0.00    -0.203 F 
ATOM     65  F   UNL A   1      41.803  27.930  25.572  1.00  0.00    -0.200 F 
ATOM     66  C   UNL A   1      40.414  26.367  26.669  1.00  0.00     0.200 A 
ATOM     67  F   UNL A   1      39.007  24.847  27.801  1.00  0.00    -0.200 F 
ATOM     68  F   UNL A   1      40.390  25.597  25.573  1.00  0.00    -0.200 F 
ENDBRANCH  44  58
BRANCH  45  69
ATOM     69  C   UNL A   1      39.548  33.963  36.950  1.00  0.00     0.064 A 
ATOM     70  C   UNL A   1      40.178  35.214  36.992  1.00  0.00     0.173 A 
ATOM     71  C   UNL A   1      38.781  33.580  38.061  1.00  0.00     0.173 A 
ATOM     72  F   UNL A   1      40.937  35.616  35.963  1.00  0.00    -0.203 F 
ATOM     73  C   UNL A   1      40.058  36.045  38.105  1.00  0.00     0.198 A 
ATOM     74  C   UNL A   1      38.640  34.423  39.162  1.00  0.00     0.198 A 
ATOM     75  F   UNL A   1      38.153  32.396  38.068  1.00  0.00    -0.203 F 
ATOM     76  F   UNL A   1      40.701  37.219  38.133  1.00  0.00    -0.200 F 
ATOM     77  C   UNL A   1      39.284  35.652  39.185  1.00  0.00     0.200 A 
ATOM     78  F   UNL A   1      37.879  34.047  40.198  1.00  0.00    -0.200 F 
ATOM     79  F   UNL A   1      39.162  36.454  40.251  1.00  0.00    -0.200 F 
ENDBRANCH  45  69
BRANCH  57  80
ATOM     80  C   UNL A   1      43.900  28.791  35.222  1.00  0.00     0.064 A 
ATOM     81  C   UNL A   1      43.765  27.696  36.086  1.00  0.00     0.173 A 
ATOM     82  C   UNL A   1      45.193  29.276  34.969  1.00  0.00     0.173 A 
ATOM     83  F   UNL A   1      42.550  27.206  36.371  1.00  0.00    -0.203 F 
ATOM     84  C   UNL A   1      44.882  27.121  36.689  1.00  0.00     0.198 A 
ATOM     85  C   UNL A   1      46.308  28.679  35.547  1.00  0.00     0.198 A 
ATOM     86  F   UNL A   1      45.376  30.317  34.143  1.00  0.00    -0.203 F 
ATOM     87  F   UNL A   1      44.727  26.102  37.545  1.00  0.00    -0.200 F 
ATOM     88  C   UNL A   1      46.152  27.606  36.411  1.00  0.00     0.200 A 
ATOM     89  F   UNL A   1      47.536  29.138  35.265  1.00  0.00    -0.200 F 
ATOM     90  F   UNL A   1      47.224  27.041  36.981  1.00  0.00    -0.200 F 
ENDBRANCH  57  80
ENDBRANCH  31  32
ENDBRANCH  23  26
ENDBRANCH  21  22
ENDBRANCH   1  21
TORSDOF 14
ENDMDL
MODEL 2
REMARK VINA RESULT:     -11.3      0.153      1.646
REMARK SMILES C[C@@]1(C(=O)N[C@@H](CO)C(=O)NCCCNC(=O)c2ccc(-c3c4nc(c(-c5c(F)c(F)c(F)c(F)c5F)c5ccc([nH]5)c(-c5c(F)c(F)c(F)c(F)c5F)c5nc(c(-c6c(F)c(F)c(F)c(F)c6F)c6ccc3[nH]6)C=C5)C=C4)cc2)CCCO1
REMARK SMILES IDX 13 1 12 2 11 3 9 4 10 5 6 7 5 8 3 9 4 10 2 12 1 13 81 14
REMARK SMILES IDX 84 15 82 16 83 17 7 18 8 19 14 21 15 22 16 23 17 25 18 26
REMARK SMILES IDX 19 27 80 28 20 29 79 30 21 31 22 32 23 33 73 34 24 35 78 36
REMARK SMILES IDX 72 37 74 38 25 39 77 40 71 41 70 42 26 44 58 45 38 46 57 47
REMARK SMILES IDX 39 48 42 49 56 50 75 51 40 52 41 53 55 55 76 56 43 57 27 58
REMARK SMILES IDX 28 59 36 60 29 61 30 62 34 63 37 64 31 65 32 66 35 67 33 68
REMARK SMILES IDX 59 69 60 70 68 71 61 72 62 73 66 74 69 75 63 76 64 77 67 78
REMARK SMILES IDX 65 79 44 80 45 81 53 82 46 83 47 84 51 85 54 86 48 87 49 88
REMARK SMILES IDX 52 89 50 90
REMARK H PARENT 11 6 5 11 8 20 15 24 74 43 42 54
REMARK Flexibility Score: inf
ROOT
ATOM      1  C   UNL A   1      31.497  32.082  26.810  1.00  0.00     0.042 C 
ENDROOT
BRANCH   1   2
ATOM      2  C   UNL A   1      31.802  30.741  26.167  1.00  0.00     0.117 C 
BRANCH   2   3
ATOM      3  N   UNL A   1      33.028  30.162  26.678  1.00  0.00    -0.354 N 
ATOM      4  C   UNL A   1      33.456  28.874  26.704  1.00  0.00     0.244 C 
ATOM      5  O   UNL A   1      34.587  28.669  27.159  1.00  0.00    -0.273 OA
ATOM      6  H   UNL A   1      33.655  30.812  27.071  1.00  0.00     0.163 HD
BRANCH   4   7
ATOM      7  C   UNL A   1      32.605  27.709  26.181  1.00  0.00     0.197 C 
BRANCH   7   8
ATOM      8  N   UNL A   1      33.426  26.575  25.765  1.00  0.00    -0.340 N 
ATOM      9  C   UNL A   1      33.692  26.111  24.508  1.00  0.00     0.252 C 
ATOM     10  O   UNL A   1      34.583  25.261  24.421  1.00  0.00    -0.272 OA
ATOM     11  H   UNL A   1      33.850  26.072  26.498  1.00  0.00     0.164 HD
BRANCH   9  12
ATOM     12  C   UNL A   1      32.935  26.647  23.254  1.00  0.00     0.143 C 
ATOM     13  C   UNL A   1      33.232  25.711  22.072  1.00  0.00     0.053 C 
ATOM     14  C   UNL A   1      33.342  28.081  22.894  1.00  0.00     0.048 C 
ATOM     15  O   UNL A   1      31.511  26.640  23.452  1.00  0.00    -0.365 OA
ATOM     16  C   UNL A   1      32.069  28.892  22.957  1.00  0.00     0.032 C 
ATOM     17  C   UNL A   1      30.962  27.862  22.949  1.00  0.00     0.162 C 
ENDBRANCH   9  12
ENDBRANCH   7   8
BRANCH   7  18
ATOM     18  C   UNL A   1      31.408  27.359  27.072  1.00  0.00     0.191 C 
BRANCH  18  19
ATOM     19  O   UNL A   1      31.401  28.011  28.337  1.00  0.00    -0.394 OA
ATOM     20  H   UNL A   1      31.465  27.348  29.042  1.00  0.00     0.210 HD
ENDBRANCH  18  19
ENDBRANCH   7  18
ENDBRANCH   4   7
ENDBRANCH   2   3
ENDBRANCH   1   2
BRANCH   1  21
ATOM     21  C   UNL A   1      32.738  32.820  27.285  1.00  0.00     0.118 C 
BRANCH  21  22
ATOM     22  N   UNL A   1      32.469  34.215  27.615  1.00  0.00    -0.352 N 
ATOM     23  C   UNL A   1      32.998  35.000  28.609  1.00  0.00     0.251 C 
ATOM     24  H   UNL A   1      31.808  34.661  27.037  1.00  0.00     0.163 HD
ATOM     25  O   UNL A   1      32.503  36.091  28.870  1.00  0.00    -0.269 OA
BRANCH  23  26
ATOM     26  C   UNL A   1      34.159  34.510  29.377  1.00  0.00     0.039 A 
ATOM     27  C   UNL A   1      33.957  33.908  30.620  1.00  0.00     0.014 A 
ATOM     28  C   UNL A   1      35.445  34.628  28.849  1.00  0.00     0.014 A 
ATOM     29  C   UNL A   1      35.044  33.356  31.301  1.00  0.00     0.010 A 
ATOM     30  C   UNL A   1      36.501  33.980  29.468  1.00  0.00     0.010 A 
ATOM     31  C   UNL A   1      36.318  33.354  30.710  1.00  0.00    -0.014 A 
BRANCH  31  32
ATOM     32  C   UNL A   1      37.498  32.754  31.376  1.00  0.00     0.031 A 
ATOM     33  C   UNL A   1      38.226  31.625  30.700  1.00  0.00     0.074 A 
ATOM     34  C   UNL A   1      37.849  33.145  32.615  1.00  0.00     0.049 A 
ATOM     35  N   UNL A   1      39.173  30.849  31.162  1.00  0.00    -0.248 NA
ATOM     36  C   UNL A   1      37.793  31.293  29.332  1.00  0.00     0.031 C 
ATOM     37  C   UNL A   1      37.195  34.201  33.390  1.00  0.00     0.029 A 
ATOM     38  N   UNL A   1      38.836  32.682  33.450  1.00  0.00    -0.354 N 
ATOM     39  C   UNL A   1      39.419  29.922  30.158  1.00  0.00     0.074 A 
ATOM     40  C   UNL A   1      38.480  30.188  29.092  1.00  0.00     0.031 C 
ATOM     41  C   UNL A   1      37.814  34.322  34.575  1.00  0.00     0.029 A 
ATOM     42  C   UNL A   1      38.874  33.323  34.663  1.00  0.00     0.049 A 
ATOM     43  H   UNL A   1      39.457  31.961  33.201  1.00  0.00     0.167 HD
ATOM     44  C   UNL A   1      40.363  28.952  30.118  1.00  0.00     0.037 A 
ATOM     45  C   UNL A   1      39.672  33.118  35.729  1.00  0.00     0.037 A 
ATOM     46  C   UNL A   1      41.319  28.721  31.169  1.00  0.00     0.049 A 
ATOM     47  C   UNL A   1      40.713  32.033  35.664  1.00  0.00     0.074 A 
ATOM     48  C   UNL A   1      42.359  27.812  31.205  1.00  0.00     0.029 A 
ATOM     49  N   UNL A   1      41.346  29.413  32.371  1.00  0.00    -0.354 N 
ATOM     50  N   UNL A   1      40.980  31.198  34.689  1.00  0.00    -0.248 NA
ATOM     51  C   UNL A   1      41.568  31.866  36.848  1.00  0.00     0.031 C 
ATOM     52  C   UNL A   1      42.987  27.918  32.451  1.00  0.00     0.029 A 
ATOM     53  C   UNL A   1      42.374  28.935  33.167  1.00  0.00     0.049 A 
ATOM     54  H   UNL A   1      40.726  30.136  32.623  1.00  0.00     0.167 HD
ATOM     55  C   UNL A   1      42.054  30.434  35.123  1.00  0.00     0.074 A 
ATOM     56  C   UNL A   1      42.392  30.907  36.450  1.00  0.00     0.031 C 
ATOM     57  C   UNL A   1      42.706  29.434  34.478  1.00  0.00     0.037 A 
BRANCH  44  58
ATOM     58  C   UNL A   1      40.397  28.073  28.900  1.00  0.00     0.064 A 
ATOM     59  C   UNL A   1      39.691  26.861  28.842  1.00  0.00     0.173 A 
ATOM     60  C   UNL A   1      41.152  28.443  27.777  1.00  0.00     0.173 A 
ATOM     61  F   UNL A   1      38.963  26.451  29.893  1.00  0.00    -0.203 F 
ATOM     62  C   UNL A   1      39.778  26.031  27.727  1.00  0.00     0.198 A 
ATOM     63  C   UNL A   1      41.206  27.629  26.648  1.00  0.00     0.198 A 
ATOM     64  F   UNL A   1      41.842  29.593  27.774  1.00  0.00    -0.203 F 
ATOM     65  F   UNL A   1      39.156  24.844  27.727  1.00  0.00    -0.200 F 
ATOM     66  C   UNL A   1      40.532  26.418  26.629  1.00  0.00     0.200 A 
ATOM     67  F   UNL A   1      41.923  28.011  25.583  1.00  0.00    -0.200 F 
ATOM     68  F   UNL A   1      40.618  25.617  25.558  1.00  0.00    -0.200 F 
ENDBRANCH  44  58
BRANCH  45  69
ATOM     69  C   UNL A   1      39.541  33.986  36.928  1.00  0.00     0.064 A 
ATOM     70  C   UNL A   1      38.776  33.572  38.027  1.00  0.00     0.173 A 
ATOM     71  C   UNL A   1      40.185  35.229  37.011  1.00  0.00     0.173 A 
ATOM     72  F   UNL A   1      38.126  32.400  37.988  1.00  0.00    -0.203 F 
ATOM     73  C   UNL A   1      38.649  34.375  39.160  1.00  0.00     0.198 A 
ATOM     74  C   UNL A   1      40.080  36.019  38.154  1.00  0.00     0.198 A 
ATOM     75  F   UNL A   1      40.934  35.667  35.989  1.00  0.00    -0.203 F 
ATOM     76  F   UNL A   1      37.882  33.971  40.181  1.00  0.00    -0.200 F 
ATOM     77  C   UNL A   1      39.306  35.594  39.225  1.00  0.00     0.200 A 
ATOM     78  F   UNL A   1      40.728  37.189  38.220  1.00  0.00    -0.200 F 
ATOM     79  F   UNL A   1      39.191  36.361  40.317  1.00  0.00    -0.200 F 
ENDBRANCH  45  69
BRANCH  57  80
ATOM     80  C   UNL A   1      43.887  28.819  35.172  1.00  0.00     0.064 A 
ATOM     81  C   UNL A   1      43.757  27.700  36.006  1.00  0.00     0.173 A 
ATOM     82  C   UNL A   1      45.176  29.325  34.944  1.00  0.00     0.173 A 
ATOM     83  F   UNL A   1      42.544  27.189  36.265  1.00  0.00    -0.203 F 
ATOM     84  C   UNL A   1      44.874  27.123  36.605  1.00  0.00     0.198 A 
ATOM     85  C   UNL A   1      46.293  28.725  35.519  1.00  0.00     0.198 A 
ATOM     86  F   UNL A   1      45.355  30.389  34.147  1.00  0.00    -0.203 F 
ATOM     87  F   UNL A   1      44.723  26.080  37.433  1.00  0.00    -0.200 F 
ATOM     88  C   UNL A   1      46.140  27.629  36.353  1.00  0.00     0.200 A 
ATOM     89  F   UNL A   1      47.518  29.206  35.260  1.00  0.00    -0.200 F 
ATOM     90  F   UNL A   1      47.214  27.062  36.919  1.00  0.00    -0.200 F 
ENDBRANCH  57  80
ENDBRANCH  31  32
ENDBRANCH  23  26
ENDBRANCH  21  22
ENDBRANCH   1  21
TORSDOF 14
ENDMDL
MODEL 3
REMARK VINA RESULT:     -11.2      1.061      2.177
REMARK SMILES C[C@@]1(C(=O)N[C@@H](CO)C(=O)NCCCNC(=O)c2ccc(-c3c4nc(c(-c5c(F)c(F)c(F)c(F)c5F)c5ccc([nH]5)c(-c5c(F)c(F)c(F)c(F)c5F)c5nc(c(-c6c(F)c(F)c(F)c(F)c6F)c6ccc3[nH]6)C=C5)C=C4)cc2)CCCO1
REMARK SMILES IDX 13 1 12 2 11 3 9 4 10 5 6 7 5 8 3 9 4 10 2 12 1 13 81 14
REMARK SMILES IDX 84 15 82 16 83 17 7 18 8 19 14 21 15 22 16 23 17 25 18 26
REMARK SMILES IDX 19 27 80 28 20 29 79 30 21 31 22 32 23 33 73 34 24 35 78 36
REMARK SMILES IDX 72 37 74 38 25 39 77 40 71 41 70 42 26 44 58 45 38 46 57 47
REMARK SMILES IDX 39 48 42 49 56 50 75 51 40 52 41 53 55 55 76 56 43 57 27 58
REMARK SMILES IDX 28 59 36 60 29 61 30 62 34 63 37 64 31 65 32 66 35 67 33 68
REMARK SMILES IDX 59 69 60 70 68 71 61 72 62 73 66 74 69 75 63 76 64 77 67 78
REMARK SMILES IDX 65 79 44 80 45 81 53 82 46 83 47 84 51 85 54 86 48 87 49 88
REMARK SMILES IDX 52 89 50 90
REMARK H PARENT 11 6 5 11 8 20 15 24 74 43 42 54
REMARK Flexibility Score: inf
ROOT
ATOM      1  C   UNL A   1      31.514  31.649  26.827  1.00  0.00     0.042 C 
ENDROOT
BRANCH   1   2
ATOM      2  C   UNL A   1      31.772  30.506  25.863  1.00  0.00     0.117 C 
BRANCH   2   3
ATOM      3  N   UNL A   1      30.843  30.515  24.751  1.00  0.00    -0.354 N 
ATOM      4  C   UNL A   1      30.492  29.534  23.882  1.00  0.00     0.244 C 
ATOM      5  O   UNL A   1      29.619  29.809  23.051  1.00  0.00    -0.273 OA
ATOM      6  H   UNL A   1      30.390  31.377  24.603  1.00  0.00     0.163 HD
BRANCH   4   7
ATOM      7  C   UNL A   1      31.116  28.133  23.919  1.00  0.00     0.197 C 
BRANCH   7   8
ATOM      8  N   UNL A   1      30.199  27.138  24.466  1.00  0.00    -0.340 N 
ATOM      9  C   UNL A   1      30.433  26.155  25.385  1.00  0.00     0.252 C 
ATOM     10  O   UNL A   1      29.435  25.580  25.830  1.00  0.00    -0.272 OA
ATOM     11  H   UNL A   1      29.277  27.182  24.123  1.00  0.00     0.164 HD
BRANCH   9  12
ATOM     12  C   UNL A   1      31.874  25.801  25.865  1.00  0.00     0.143 C 
ATOM     13  C   UNL A   1      31.797  24.544  26.746  1.00  0.00     0.053 C 
ATOM     14  C   UNL A   1      32.525  26.945  26.651  1.00  0.00     0.048 C 
ATOM     15  O   UNL A   1      32.739  25.490  24.760  1.00  0.00    -0.365 OA
ATOM     16  C   UNL A   1      33.781  27.297  25.889  1.00  0.00     0.032 C 
ATOM     17  C   UNL A   1      34.006  26.122  24.964  1.00  0.00     0.162 C 
ENDBRANCH   9  12
ENDBRANCH   7   8
BRANCH   7  18
ATOM     18  C   UNL A   1      31.822  27.728  22.619  1.00  0.00     0.191 C 
BRANCH  18  19
ATOM     19  O   UNL A   1      30.954  27.554  21.505  1.00  0.00    -0.394 OA
ATOM     20  H   UNL A   1      30.759  28.417  21.109  1.00  0.00     0.210 HD
ENDBRANCH  18  19
ENDBRANCH   7  18
ENDBRANCH   4   7
ENDBRANCH   2   3
ENDBRANCH   1   2
BRANCH   1  21
ATOM     21  C   UNL A   1      32.766  32.431  27.186  1.00  0.00     0.118 C 
BRANCH  21  22
ATOM     22  N   UNL A   1      32.488  33.830  27.485  1.00  0.00    -0.352 N 
ATOM     23  C   UNL A   1      33.014  34.643  28.459  1.00  0.00     0.251 C 
ATOM     24  H   UNL A   1      31.821  34.259  26.899  1.00  0.00     0.163 HD
ATOM     25  O   UNL A   1      32.512  35.736  28.697  1.00  0.00    -0.269 OA
BRANCH  23  26
ATOM     26  C   UNL A   1      34.181  34.179  29.234  1.00  0.00     0.039 A 
ATOM     27  C   UNL A   1      33.983  33.435  30.399  1.00  0.00     0.014 A 
ATOM     28  C   UNL A   1      35.472  34.465  28.789  1.00  0.00     0.014 A 
ATOM     29  C   UNL A   1      35.086  32.913  31.077  1.00  0.00     0.010 A 
ATOM     30  C   UNL A   1      36.556  33.851  29.395  1.00  0.00     0.010 A 
ATOM     31  C   UNL A   1      36.379  33.086  30.557  1.00  0.00    -0.014 A 
BRANCH  31  32
ATOM     32  C   UNL A   1      37.580  32.525  31.220  1.00  0.00     0.031 A 
ATOM     33  C   UNL A   1      38.343  31.420  30.543  1.00  0.00     0.074 A 
ATOM     34  C   UNL A   1      37.921  32.930  32.457  1.00  0.00     0.049 A 
ATOM     35  N   UNL A   1      39.316  30.676  31.004  1.00  0.00    -0.248 NA
ATOM     36  C   UNL A   1      37.917  31.071  29.178  1.00  0.00     0.031 C 
ATOM     37  C   UNL A   1      37.236  33.965  33.232  1.00  0.00     0.029 A 
ATOM     38  N   UNL A   1      38.925  32.502  33.289  1.00  0.00    -0.354 N 
ATOM     39  C   UNL A   1      39.589  29.756  30.002  1.00  0.00     0.074 A 
ATOM     40  C   UNL A   1      38.639  29.989  28.938  1.00  0.00     0.031 C 
ATOM     41  C   UNL A   1      37.853  34.110  34.415  1.00  0.00     0.029 A 
ATOM     42  C   UNL A   1      38.947  33.146  34.502  1.00  0.00     0.049 A 
ATOM     43  H   UNL A   1      39.569  31.800  33.040  1.00  0.00     0.167 HD
ATOM     44  C   UNL A   1      40.564  28.817  29.960  1.00  0.00     0.037 A 
ATOM     45  C   UNL A   1      39.753  32.968  35.565  1.00  0.00     0.037 A 
ATOM     46  C   UNL A   1      41.530  28.620  31.008  1.00  0.00     0.049 A 
ATOM     47  C   UNL A   1      40.829  31.919  35.499  1.00  0.00     0.074 A 
ATOM     48  C   UNL A   1      42.600  27.745  31.043  1.00  0.00     0.029 A 
ATOM     49  N   UNL A   1      41.538  29.314  32.210  1.00  0.00    -0.354 N 
ATOM     50  N   UNL A   1      41.121  31.091  34.526  1.00  0.00    -0.248 NA
ATOM     51  C   UNL A   1      41.693  31.782  36.681  1.00  0.00     0.031 C 
ATOM     52  C   UNL A   1      43.227  27.874  32.287  1.00  0.00     0.029 A 
ATOM     53  C   UNL A   1      42.584  28.872  33.003  1.00  0.00     0.049 A 
ATOM     54  H   UNL A   1      40.896  30.017  32.462  1.00  0.00     0.167 HD
ATOM     55  C   UNL A   1      42.221  30.363  34.957  1.00  0.00     0.074 A 
ATOM     56  C   UNL A   1      42.547  30.850  36.283  1.00  0.00     0.031 C 
ATOM     57  C   UNL A   1      42.903  29.384  34.312  1.00  0.00     0.037 A 
BRANCH  44  58
ATOM     58  C   UNL A   1      40.624  27.937  28.743  1.00  0.00     0.064 A 
ATOM     59  C   UNL A   1      41.384  28.284  27.615  1.00  0.00     0.173 A 
ATOM     60  C   UNL A   1      39.905  26.733  28.701  1.00  0.00     0.173 A 
ATOM     61  F   UNL A   1      42.081  29.431  27.596  1.00  0.00    -0.203 F 
ATOM     62  C   UNL A   1      41.384  27.485  26.475  1.00  0.00     0.198 A 
ATOM     63  C   UNL A   1      39.938  25.917  27.573  1.00  0.00     0.198 A 
ATOM     64  F   UNL A   1      39.166  26.349  29.752  1.00  0.00    -0.203 F 
ATOM     65  F   UNL A   1      42.057  27.876  25.384  1.00  0.00    -0.200 F 
ATOM     66  C   UNL A   1      40.664  26.299  26.456  1.00  0.00     0.200 A 
ATOM     67  F   UNL A   1      39.253  24.765  27.563  1.00  0.00    -0.200 F 
ATOM     68  F   UNL A   1      40.662  25.533  25.358  1.00  0.00    -0.200 F 
ENDBRANCH  44  58
BRANCH  45  69
ATOM     69  C   UNL A   1      39.598  33.834  36.763  1.00  0.00     0.064 A 
ATOM     70  C   UNL A   1      38.822  33.413  37.851  1.00  0.00     0.173 A 
ATOM     71  C   UNL A   1      40.229  35.083  36.856  1.00  0.00     0.173 A 
ATOM     72  F   UNL A   1      38.183  32.235  37.802  1.00  0.00    -0.203 F 
ATOM     73  C   UNL A   1      38.671  34.213  38.983  1.00  0.00     0.198 A 
ATOM     74  C   UNL A   1      40.100  35.871  37.999  1.00  0.00     0.198 A 
ATOM     75  F   UNL A   1      40.988  35.529  35.845  1.00  0.00    -0.203 F 
ATOM     76  F   UNL A   1      37.894  33.801  39.993  1.00  0.00    -0.200 F 
ATOM     77  C   UNL A   1      39.316  35.438  39.058  1.00  0.00     0.200 A 
ATOM     78  F   UNL A   1      40.737  37.047  38.075  1.00  0.00    -0.200 F 
ATOM     79  F   UNL A   1      39.178  36.203  40.149  1.00  0.00    -0.200 F 
ENDBRANCH  45  69
BRANCH  57  80
ATOM     80  C   UNL A   1      44.106  28.809  35.003  1.00  0.00     0.064 A 
ATOM     81  C   UNL A   1      44.021  27.666  35.810  1.00  0.00     0.173 A 
ATOM     82  C   UNL A   1      45.371  29.381  34.801  1.00  0.00     0.173 A 
ATOM     83  F   UNL A   1      42.832  27.090  36.044  1.00  0.00    -0.203 F 
ATOM     84  C   UNL A   1      45.159  27.128  36.407  1.00  0.00     0.198 A 
ATOM     85  C   UNL A   1      46.510  28.822  35.373  1.00  0.00     0.198 A 
ATOM     86  F   UNL A   1      45.506  30.472  34.032  1.00  0.00    -0.203 F 
ATOM     87  F   UNL A   1      45.050  26.058  37.208  1.00  0.00    -0.200 F 
ATOM     88  C   UNL A   1      46.402  27.700  36.180  1.00  0.00     0.200 A 
ATOM     89  F   UNL A   1      47.712  29.366  35.140  1.00  0.00    -0.200 F 
ATOM     90  F   UNL A   1      47.496  27.171  36.744  1.00  0.00    -0.200 F 
ENDBRANCH  57  80
ENDBRANCH  31  32
ENDBRANCH  23  26
ENDBRANCH  21  22
ENDBRANCH   1  21
TORSDOF 14
ENDMDL
