MODEL 1
REMARK VINA RESULT:     -13.9      0.000      0.000
REMARK SMILES COc1ccc(-c2ccc3n(c2=O)C[C@H]2C[C@@H]3CN(C(=O)CCCC(=O)NCCCNC(=O)c3ccc(-c4c5nc(c(-c6c(F)c(F)c(F)c(F)c6F)c6ccc([nH]6)c(-c6c(F)c(F)c(F)c(F)c6F)c6nc(c(-c7c(F)c(F)c(F)c(F)c7F)c7ccc4[nH]7)C=C6)C=C5)cc3)C2)cc1
REMARK SMILES IDX 25 1 26 2 27 3 24 5 23 6 22 7 20 8 21 9 19 10 7 11 8 12
REMARK SMILES IDX 12 13 9 14 11 15 13 16 10 17 14 18 17 19 15 20 16 21 18 22
REMARK SMILES IDX 97 23 6 24 3 25 4 26 99 27 5 28 98 29 2 30 1 31 28 32 29 33
REMARK SMILES IDX 30 34 31 35 32 36 33 38 34 39 35 40 96 41 36 42 95 43 37 44
REMARK SMILES IDX 38 45 39 46 89 47 40 48 94 49 88 50 90 51 41 52 93 53 87 54
REMARK SMILES IDX 86 55 42 57 74 58 54 59 73 60 55 61 58 62 72 63 91 64 56 65
REMARK SMILES IDX 57 66 71 68 92 69 59 70 43 71 44 72 52 73 45 74 46 75 50 76
REMARK SMILES IDX 53 77 47 78 48 79 51 80 49 81 75 82 76 83 84 84 77 85 78 86
REMARK SMILES IDX 82 87 85 88 79 89 80 90 83 91 81 92 60 93 61 94 69 95 62 96
REMARK SMILES IDX 63 97 67 98 70 99 64 100 65 101 68 102 66 103
REMARK H PARENT 27 4 31 37 90 56 58 67
REMARK Flexibility Score: inf
ROOT
ATOM      1  C   UNL A   1      31.981  28.541  27.267  1.00  0.00     0.220 C 
ATOM      2  O   UNL A   1      31.281  27.858  28.023  1.00  0.00    -0.275 OA
ATOM      3  N   UNL A   1      31.591  29.833  27.124  1.00  0.00    -0.356 N 
ATOM      4  H   UNL A   1      30.726  30.039  27.549  1.00  0.00     0.163 HD
ENDROOT
BRANCH   1   5
ATOM      5  C   UNL A   1      33.238  27.931  26.646  1.00  0.00     0.100 C 
BRANCH   5   6
ATOM      6  C   UNL A   1      33.243  26.494  26.135  1.00  0.00     0.020 C 
BRANCH   6   7
ATOM      7  C   UNL A   1      34.245  25.995  25.094  1.00  0.00     0.101 C 
BRANCH   7   8
ATOM      8  C   UNL A   1      34.810  24.569  25.099  1.00  0.00     0.222 C 
ATOM      9  O   UNL A   1      35.911  24.414  25.644  1.00  0.00    -0.275 OA
BRANCH   8  10
ATOM     10  N   UNL A   1      34.077  23.462  24.680  1.00  0.00    -0.342 N 
ATOM     11  C   UNL A   1      30.622  26.714  23.175  1.00  0.00     0.047 A 
ATOM     12  C   UNL A   1      31.417  26.484  22.117  1.00  0.00     0.016 A 
ATOM     13  C   UNL A   1      30.456  25.634  24.206  1.00  0.00     0.258 A 
ATOM     14  C   UNL A   1      32.084  25.225  21.944  1.00  0.00     0.023 A 
ATOM     15  N   UNL A   1      31.130  24.430  23.962  1.00  0.00    -0.311 N 
ATOM     16  O   UNL A   1      29.746  25.813  25.197  1.00  0.00    -0.269 OA
ATOM     17  C   UNL A   1      31.931  24.234  22.835  1.00  0.00     0.026 A 
ATOM     18  C   UNL A   1      30.895  23.358  24.925  1.00  0.00     0.131 C 
ATOM     19  C   UNL A   1      32.704  22.936  22.674  1.00  0.00     0.056 C 
ATOM     20  C   UNL A   1      31.882  22.191  24.856  1.00  0.00     0.029 C 
ATOM     21  C   UNL A   1      32.028  21.775  23.403  1.00  0.00     0.019 C 
ATOM     22  C   UNL A   1      34.119  23.126  23.252  1.00  0.00     0.129 C 
ATOM     23  C   UNL A   1      33.252  22.548  25.464  1.00  0.00     0.125 C 
BRANCH  11  24
ATOM     24  C   UNL A   1      29.888  27.982  23.278  1.00  0.00    -0.013 A 
ATOM     25  C   UNL A   1      28.562  30.450  23.365  1.00  0.00     0.118 A 
ATOM     26  C   UNL A   1      27.873  29.298  22.987  1.00  0.00     0.047 A 
ATOM     27  C   UNL A   1      29.901  30.366  23.747  1.00  0.00     0.047 A 
ATOM     28  C   UNL A   1      28.534  28.069  22.931  1.00  0.00     0.013 A 
ATOM     29  C   UNL A   1      30.561  29.138  23.698  1.00  0.00     0.013 A 
BRANCH  25  30
ATOM     30  O   UNL A   1      27.843  31.614  23.368  1.00  0.00    -0.497 OA
ATOM     31  C   UNL A   1      28.588  32.745  22.920  1.00  0.00     0.278 C 
ENDBRANCH  25  30
ENDBRANCH  11  24
ENDBRANCH   8  10
ENDBRANCH   7   8
ENDBRANCH   6   7
ENDBRANCH   5   6
ENDBRANCH   1   5
BRANCH   3  32
ATOM     32  C   UNL A   1      32.203  30.958  26.469  1.00  0.00     0.117 C 
BRANCH  32  33
ATOM     33  C   UNL A   1      31.751  32.302  27.000  1.00  0.00     0.042 C 
BRANCH  33  34
ATOM     34  C   UNL A   1      32.928  33.172  27.370  1.00  0.00     0.118 C 
BRANCH  34  35
ATOM     35  N   UNL A   1      32.529  34.504  27.830  1.00  0.00    -0.352 N 
ATOM     36  C   UNL A   1      33.009  35.228  28.900  1.00  0.00     0.251 C 
ATOM     37  H   UNL A   1      31.820  34.942  27.305  1.00  0.00     0.163 HD
ATOM     38  O   UNL A   1      32.483  36.285  29.228  1.00  0.00    -0.269 OA
BRANCH  36  39
ATOM     39  C   UNL A   1      34.141  34.679  29.675  1.00  0.00     0.039 A 
ATOM     40  C   UNL A   1      33.912  34.110  30.928  1.00  0.00     0.014 A 
ATOM     41  C   UNL A   1      35.411  34.634  29.099  1.00  0.00     0.014 A 
ATOM     42  C   UNL A   1      34.939  33.400  31.555  1.00  0.00     0.010 A 
ATOM     43  C   UNL A   1      36.377  33.812  29.651  1.00  0.00     0.010 A 
ATOM     44  C   UNL A   1      36.161  33.197  30.895  1.00  0.00    -0.014 A 
BRANCH  44  45
ATOM     45  C   UNL A   1      37.264  32.393  31.479  1.00  0.00     0.031 A 
ATOM     46  C   UNL A   1      37.777  32.754  32.849  1.00  0.00     0.074 A 
ATOM     47  C   UNL A   1      37.872  31.432  30.757  1.00  0.00     0.049 A 
ATOM     48  N   UNL A   1      38.854  32.347  33.469  1.00  0.00    -0.248 NA
ATOM     49  C   UNL A   1      36.999  33.758  33.599  1.00  0.00     0.031 C 
ATOM     50  C   UNL A   1      37.510  31.029  29.396  1.00  0.00     0.029 A 
ATOM     51  N   UNL A   1      38.944  30.631  31.062  1.00  0.00    -0.354 N 
ATOM     52  C   UNL A   1      38.900  33.072  34.652  1.00  0.00     0.074 A 
ATOM     53  C   UNL A   1      37.790  33.997  34.633  1.00  0.00     0.031 C 
ATOM     54  C   UNL A   1      38.330  30.044  28.994  1.00  0.00     0.029 A 
ATOM     55  C   UNL A   1      39.303  29.775  30.049  1.00  0.00     0.049 A 
ATOM     56  H   UNL A   1      39.413  30.667  31.928  1.00  0.00     0.167 HD
ATOM     57  C   UNL A   1      39.765  32.951  35.685  1.00  0.00     0.037 A 
ATOM     58  C   UNL A   1      40.311  28.886  29.980  1.00  0.00     0.037 A 
ATOM     59  C   UNL A   1      40.826  31.983  35.730  1.00  0.00     0.049 A 
ATOM     60  C   UNL A   1      41.235  28.739  31.161  1.00  0.00     0.074 A 
ATOM     61  C   UNL A   1      41.733  31.741  36.744  1.00  0.00     0.029 A 
ATOM     62  N   UNL A   1      41.102  31.078  34.715  1.00  0.00    -0.354 N 
ATOM     63  N   UNL A   1      41.244  29.403  32.291  1.00  0.00    -0.248 NA
ATOM     64  C   UNL A   1      42.283  27.714  31.061  1.00  0.00     0.031 C 
ATOM     65  C   UNL A   1      42.572  30.698  36.336  1.00  0.00     0.029 A 
ATOM     66  C   UNL A   1      42.161  30.269  35.085  1.00  0.00     0.049 A 
ATOM     67  H   UNL A   1      40.617  31.021  33.860  1.00  0.00     0.167 HD
ATOM     68  C   UNL A   1      42.271  28.853  33.048  1.00  0.00     0.074 A 
ATOM     69  C   UNL A   1      42.855  27.794  32.253  1.00  0.00     0.031 C 
ATOM     70  C   UNL A   1      42.696  29.196  34.288  1.00  0.00     0.037 A 
BRANCH  57  71
ATOM     71  C   UNL A   1      39.571  33.858  36.865  1.00  0.00     0.064 A 
ATOM     72  C   UNL A   1      38.820  33.455  37.980  1.00  0.00     0.173 A 
ATOM     73  C   UNL A   1      40.159  35.130  36.895  1.00  0.00     0.173 A 
ATOM     74  F   UNL A   1      38.221  32.255  37.992  1.00  0.00    -0.203 F 
ATOM     75  C   UNL A   1      38.641  34.303  39.069  1.00  0.00     0.198 A 
ATOM     76  C   UNL A   1      40.006  35.963  38.000  1.00  0.00     0.198 A 
ATOM     77  F   UNL A   1      40.889  35.564  35.856  1.00  0.00    -0.203 F 
ATOM     78  F   UNL A   1      37.874  33.916  40.097  1.00  0.00    -0.200 F 
ATOM     79  C   UNL A   1      39.242  35.553  39.082  1.00  0.00     0.200 A 
ATOM     80  F   UNL A   1      40.596  37.167  38.018  1.00  0.00    -0.200 F 
ATOM     81  F   UNL A   1      39.076  36.365  40.135  1.00  0.00    -0.200 F 
ENDBRANCH  57  71
BRANCH  58  82
ATOM     82  C   UNL A   1      40.494  28.045  28.766  1.00  0.00     0.064 A 
ATOM     83  C   UNL A   1      41.290  28.485  27.699  1.00  0.00     0.173 A 
ATOM     84  C   UNL A   1      39.854  26.804  28.630  1.00  0.00     0.173 A 
ATOM     85  F   UNL A   1      41.909  29.673  27.773  1.00  0.00    -0.203 F 
ATOM     86  C   UNL A   1      41.413  27.735  26.531  1.00  0.00     0.198 A 
ATOM     87  C   UNL A   1      40.001  26.041  27.472  1.00  0.00     0.198 A 
ATOM     88  F   UNL A   1      39.087  26.331  29.623  1.00  0.00    -0.203 F 
ATOM     89  F   UNL A   1      42.132  28.210  25.505  1.00  0.00    -0.200 F 
ATOM     90  C   UNL A   1      40.770  26.513  26.419  1.00  0.00     0.200 A 
ATOM     91  F   UNL A   1      39.389  24.852  27.374  1.00  0.00    -0.200 F 
ATOM     92  F   UNL A   1      40.881  25.795  25.293  1.00  0.00    -0.200 F 
ENDBRANCH  58  82
BRANCH  70  93
ATOM     93  C   UNL A   1      43.802  28.382  34.887  1.00  0.00     0.064 A 
ATOM     94  C   UNL A   1      45.146  28.757  34.757  1.00  0.00     0.173 A 
ATOM     95  C   UNL A   1      43.503  27.246  35.657  1.00  0.00     0.173 A 
ATOM     96  F   UNL A   1      45.480  29.827  34.021  1.00  0.00    -0.203 F 
ATOM     97  C   UNL A   1      46.155  28.012  35.360  1.00  0.00     0.198 A 
ATOM     98  C   UNL A   1      44.513  26.521  36.280  1.00  0.00     0.198 A 
ATOM     99  F   UNL A   1      42.231  26.854  35.817  1.00  0.00    -0.203 F 
ATOM    100  F   UNL A   1      47.437  28.365  35.191  1.00  0.00    -0.200 F 
ATOM    101  C   UNL A   1      45.838  26.900  36.127  1.00  0.00     0.200 A 
ATOM    102  F   UNL A   1      44.203  25.456  37.033  1.00  0.00    -0.200 F 
ATOM    103  F   UNL A   1      46.810  26.192  36.717  1.00  0.00    -0.200 F 
ENDBRANCH  70  93
ENDBRANCH  44  45
ENDBRANCH  36  39
ENDBRANCH  34  35
ENDBRANCH  33  34
ENDBRANCH  32  33
ENDBRANCH   3  32
TORSDOF 16
ENDMDL
MODEL 2
REMARK VINA RESULT:     -13.9      0.783      2.047
REMARK SMILES COc1ccc(-c2ccc3n(c2=O)C[C@H]2C[C@@H]3CN(C(=O)CCCC(=O)NCCCNC(=O)c3ccc(-c4c5nc(c(-c6c(F)c(F)c(F)c(F)c6F)c6ccc([nH]6)c(-c6c(F)c(F)c(F)c(F)c6F)c6nc(c(-c7c(F)c(F)c(F)c(F)c7F)c7ccc4[nH]7)C=C6)C=C5)cc3)C2)cc1
REMARK SMILES IDX 25 1 26 2 27 3 24 5 23 6 22 7 20 8 21 9 19 10 7 11 8 12
REMARK SMILES IDX 12 13 9 14 11 15 13 16 10 17 14 18 17 19 15 20 16 21 18 22
REMARK SMILES IDX 97 23 6 24 3 25 4 26 99 27 5 28 98 29 2 30 1 31 28 32 29 33
REMARK SMILES IDX 30 34 31 35 32 36 33 38 34 39 35 40 96 41 36 42 95 43 37 44
REMARK SMILES IDX 38 45 39 46 89 47 40 48 94 49 88 50 90 51 41 52 93 53 87 54
REMARK SMILES IDX 86 55 42 57 74 58 54 59 73 60 55 61 58 62 72 63 91 64 56 65
REMARK SMILES IDX 57 66 71 68 92 69 59 70 43 71 44 72 52 73 45 74 46 75 50 76
REMARK SMILES IDX 53 77 47 78 48 79 51 80 49 81 75 82 76 83 84 84 77 85 78 86
REMARK SMILES IDX 82 87 85 88 79 89 80 90 83 91 81 92 60 93 61 94 69 95 62 96
REMARK SMILES IDX 63 97 67 98 70 99 64 100 65 101 68 102 66 103
REMARK H PARENT 27 4 31 37 90 56 58 67
REMARK Flexibility Score: inf
ROOT
ATOM      1  C   UNL A   1      33.842  29.195  26.817  1.00  0.00     0.220 C 
ATOM      2  O   UNL A   1      34.812  29.126  27.581  1.00  0.00    -0.275 OA
ATOM      3  N   UNL A   1      32.936  30.161  27.114  1.00  0.00    -0.356 N 
ATOM      4  H   UNL A   1      33.101  30.614  27.973  1.00  0.00     0.163 HD
ENDROOT
BRANCH   1   5
ATOM      5  C   UNL A   1      33.783  28.285  25.589  1.00  0.00     0.100 C 
BRANCH   5   6
ATOM      6  C   UNL A   1      33.581  26.780  25.736  1.00  0.00     0.020 C 
BRANCH   6   7
ATOM      7  C   UNL A   1      34.289  25.765  24.840  1.00  0.00     0.101 C 
BRANCH   7   8
ATOM      8  C   UNL A   1      34.850  24.438  25.367  1.00  0.00     0.222 C 
ATOM      9  O   UNL A   1      36.034  24.444  25.731  1.00  0.00    -0.275 OA
BRANCH   8  10
ATOM     10  N   UNL A   1      34.055  23.319  25.601  1.00  0.00    -0.342 N 
ATOM     11  C   UNL A   1      30.264  26.042  23.872  1.00  0.00     0.047 A 
ATOM     12  C   UNL A   1      30.760  25.367  22.821  1.00  0.00     0.016 A 
ATOM     13  C   UNL A   1      30.393  25.446  25.244  1.00  0.00     0.258 A 
ATOM     14  C   UNL A   1      31.384  24.085  22.985  1.00  0.00     0.023 A 
ATOM     15  N   UNL A   1      31.005  24.187  25.322  1.00  0.00    -0.311 N 
ATOM     16  O   UNL A   1      29.963  26.041  26.233  1.00  0.00    -0.269 OA
ATOM     17  C   UNL A   1      31.488  23.517  24.196  1.00  0.00     0.026 A 
ATOM     18  C   UNL A   1      31.050  23.578  26.648  1.00  0.00     0.131 C 
ATOM     19  C   UNL A   1      32.217  22.194  24.359  1.00  0.00     0.056 C 
ATOM     20  C   UNL A   1      32.006  22.393  26.790  1.00  0.00     0.029 C 
ATOM     21  C   UNL A   1      31.777  21.452  25.621  1.00  0.00     0.019 C 
ATOM     22  C   UNL A   1      33.729  22.469  24.449  1.00  0.00     0.129 C 
ATOM     23  C   UNL A   1      33.481  22.837  26.854  1.00  0.00     0.125 C 
BRANCH  11  24
ATOM     24  C   UNL A   1      29.557  27.312  23.658  1.00  0.00    -0.013 A 
ATOM     25  C   UNL A   1      28.267  29.742  23.124  1.00  0.00     0.118 A 
ATOM     26  C   UNL A   1      27.525  28.568  23.247  1.00  0.00     0.047 A 
ATOM     27  C   UNL A   1      29.648  29.716  23.316  1.00  0.00     0.047 A 
ATOM     28  C   UNL A   1      28.167  27.353  23.501  1.00  0.00     0.013 A 
ATOM     29  C   UNL A   1      30.289  28.505  23.577  1.00  0.00     0.013 A 
BRANCH  25  30
ATOM     30  O   UNL A   1      27.560  30.881  22.849  1.00  0.00    -0.497 OA
ATOM     31  C   UNL A   1      28.287  32.080  23.109  1.00  0.00     0.278 C 
ENDBRANCH  25  30
ENDBRANCH  11  24
ENDBRANCH   8  10
ENDBRANCH   7   8
ENDBRANCH   6   7
ENDBRANCH   5   6
ENDBRANCH   1   5
BRANCH   3  32
ATOM     32  C   UNL A   1      31.779  30.647  26.410  1.00  0.00     0.117 C 
BRANCH  32  33
ATOM     33  C   UNL A   1      31.512  32.123  26.608  1.00  0.00     0.042 C 
BRANCH  33  34
ATOM     34  C   UNL A   1      32.672  32.806  27.295  1.00  0.00     0.118 C 
BRANCH  34  35
ATOM     35  N   UNL A   1      32.394  34.205  27.625  1.00  0.00    -0.352 N 
ATOM     36  C   UNL A   1      32.976  34.995  28.593  1.00  0.00     0.251 C 
ATOM     37  H   UNL A   1      31.697  34.641  27.083  1.00  0.00     0.163 HD
ATOM     38  O   UNL A   1      32.546  36.119  28.826  1.00  0.00    -0.269 OA
BRANCH  36  39
ATOM     39  C   UNL A   1      34.098  34.441  29.379  1.00  0.00     0.039 A 
ATOM     40  C   UNL A   1      33.838  33.728  30.550  1.00  0.00     0.014 A 
ATOM     41  C   UNL A   1      35.398  34.540  28.885  1.00  0.00     0.014 A 
ATOM     42  C   UNL A   1      34.875  33.024  31.167  1.00  0.00     0.010 A 
ATOM     43  C   UNL A   1      36.387  33.728  29.411  1.00  0.00     0.010 A 
ATOM     44  C   UNL A   1      36.144  32.971  30.569  1.00  0.00    -0.014 A 
BRANCH  44  45
ATOM     45  C   UNL A   1      37.267  32.183  31.138  1.00  0.00     0.031 A 
ATOM     46  C   UNL A   1      37.774  32.533  32.513  1.00  0.00     0.074 A 
ATOM     47  C   UNL A   1      37.894  31.249  30.398  1.00  0.00     0.049 A 
ATOM     48  N   UNL A   1      38.861  32.140  33.124  1.00  0.00    -0.248 NA
ATOM     49  C   UNL A   1      36.975  33.506  33.280  1.00  0.00     0.031 C 
ATOM     50  C   UNL A   1      37.539  30.860  29.032  1.00  0.00     0.029 A 
ATOM     51  N   UNL A   1      38.985  30.467  30.689  1.00  0.00    -0.354 N 
ATOM     52  C   UNL A   1      38.893  32.846  34.319  1.00  0.00     0.074 A 
ATOM     53  C   UNL A   1      37.762  33.745  34.317  1.00  0.00     0.031 C 
ATOM     54  C   UNL A   1      38.380  29.900  28.612  1.00  0.00     0.029 A 
ATOM     55  C   UNL A   1      39.361  29.636  29.661  1.00  0.00     0.049 A 
ATOM     56  H   UNL A   1      39.455  30.499  31.554  1.00  0.00     0.167 HD
ATOM     57  C   UNL A   1      39.763  32.727  35.349  1.00  0.00     0.037 A 
ATOM     58  C   UNL A   1      40.389  28.771  29.575  1.00  0.00     0.037 A 
ATOM     59  C   UNL A   1      40.845  31.783  35.375  1.00  0.00     0.049 A 
ATOM     60  C   UNL A   1      41.318  28.625  30.752  1.00  0.00     0.074 A 
ATOM     61  C   UNL A   1      41.759  31.545  36.384  1.00  0.00     0.029 A 
ATOM     62  N   UNL A   1      41.140  30.901  34.346  1.00  0.00    -0.354 N 
ATOM     63  N   UNL A   1      41.315  29.270  31.893  1.00  0.00    -0.248 NA
ATOM     64  C   UNL A   1      42.389  27.626  30.633  1.00  0.00     0.031 C 
ATOM     65  C   UNL A   1      42.621  30.528  35.958  1.00  0.00     0.029 A 
ATOM     66  C   UNL A   1      42.217  30.110  34.700  1.00  0.00     0.049 A 
ATOM     67  H   UNL A   1      40.654  30.847  33.491  1.00  0.00     0.167 HD
ATOM     68  C   UNL A   1      42.355  28.732  32.640  1.00  0.00     0.074 A 
ATOM     69  C   UNL A   1      42.961  27.699  31.826  1.00  0.00     0.031 C 
ATOM     70  C   UNL A   1      42.775  29.063  33.884  1.00  0.00     0.037 A 
BRANCH  57  71
ATOM     71  C   UNL A   1      39.550  33.610  36.543  1.00  0.00     0.064 A 
ATOM     72  C   UNL A   1      40.126  34.888  36.619  1.00  0.00     0.173 A 
ATOM     73  C   UNL A   1      38.745  33.189  37.611  1.00  0.00     0.173 A 
ATOM     74  F   UNL A   1      40.921  35.329  35.633  1.00  0.00    -0.203 F 
ATOM     75  C   UNL A   1      39.928  35.699  37.732  1.00  0.00     0.198 A 
ATOM     76  C   UNL A   1      38.521  34.018  38.708  1.00  0.00     0.198 A 
ATOM     77  F   UNL A   1      38.168  31.978  37.589  1.00  0.00    -0.203 F 
ATOM     78  F   UNL A   1      40.535  36.892  37.805  1.00  0.00    -0.200 F 
ATOM     79  C   UNL A   1      39.119  35.267  38.771  1.00  0.00     0.200 A 
ATOM     80  F   UNL A   1      37.729  33.605  39.708  1.00  0.00    -0.200 F 
ATOM     81  F   UNL A   1      38.921  36.054  39.839  1.00  0.00    -0.200 F 
ENDBRANCH  57  71
BRANCH  58  82
ATOM     82  C   UNL A   1      40.588  27.955  28.347  1.00  0.00     0.064 A 
ATOM     83  C   UNL A   1      40.029  26.674  28.237  1.00  0.00     0.173 A 
ATOM     84  C   UNL A   1      41.363  28.420  27.274  1.00  0.00     0.173 A 
ATOM     85  F   UNL A   1      39.295  26.176  29.243  1.00  0.00    -0.203 F 
ATOM     86  C   UNL A   1      40.266  25.875  27.119  1.00  0.00     0.198 A 
ATOM     87  C   UNL A   1      41.575  27.632  26.144  1.00  0.00     0.198 A 
ATOM     88  F   UNL A   1      41.914  29.641  27.323  1.00  0.00    -0.203 F 
ATOM     89  F   UNL A   1      39.770  24.632  27.070  1.00  0.00    -0.200 F 
ATOM     90  C   UNL A   1      41.037  26.356  26.073  1.00  0.00     0.200 A 
ATOM     91  F   UNL A   1      42.309  28.106  25.128  1.00  0.00    -0.200 F 
ATOM     92  F   UNL A   1      41.270  25.586  25.001  1.00  0.00    -0.200 F 
ENDBRANCH  58  82
BRANCH  70  93
ATOM     93  C   UNL A   1      43.900  28.265  34.468  1.00  0.00     0.064 A 
ATOM     94  C   UNL A   1      43.672  27.071  35.167  1.00  0.00     0.173 A 
ATOM     95  C   UNL A   1      45.229  28.671  34.268  1.00  0.00     0.173 A 
ATOM     96  F   UNL A   1      42.419  26.650  35.392  1.00  0.00    -0.203 F 
ATOM     97  C   UNL A   1      44.735  26.322  35.662  1.00  0.00     0.198 A 
ATOM     98  C   UNL A   1      46.289  27.904  34.740  1.00  0.00     0.198 A 
ATOM     99  F   UNL A   1      45.497  29.801  33.598  1.00  0.00    -0.203 F 
ATOM    100  F   UNL A   1      44.495  25.203  36.360  1.00  0.00    -0.200 F 
ATOM    101  C   UNL A   1      46.042  26.734  35.441  1.00  0.00     0.200 A 
ATOM    102  F   UNL A   1      47.550  28.297  34.514  1.00  0.00    -0.200 F 
ATOM    103  F   UNL A   1      47.063  26.004  35.907  1.00  0.00    -0.200 F 
ENDBRANCH  70  93
ENDBRANCH  44  45
ENDBRANCH  36  39
ENDBRANCH  34  35
ENDBRANCH  33  34
ENDBRANCH  32  33
ENDBRANCH   3  32
TORSDOF 16
ENDMDL
MODEL 3
REMARK VINA RESULT:     -13.9      0.707      6.900
REMARK SMILES COc1ccc(-c2ccc3n(c2=O)C[C@H]2C[C@@H]3CN(C(=O)CCCC(=O)NCCCNC(=O)c3ccc(-c4c5nc(c(-c6c(F)c(F)c(F)c(F)c6F)c6ccc([nH]6)c(-c6c(F)c(F)c(F)c(F)c6F)c6nc(c(-c7c(F)c(F)c(F)c(F)c7F)c7ccc4[nH]7)C=C6)C=C5)cc3)C2)cc1
REMARK SMILES IDX 25 1 26 2 27 3 24 5 23 6 22 7 20 8 21 9 19 10 7 11 8 12
REMARK SMILES IDX 12 13 9 14 11 15 13 16 10 17 14 18 17 19 15 20 16 21 18 22
REMARK SMILES IDX 97 23 6 24 3 25 4 26 99 27 5 28 98 29 2 30 1 31 28 32 29 33
REMARK SMILES IDX 30 34 31 35 32 36 33 38 34 39 35 40 96 41 36 42 95 43 37 44
REMARK SMILES IDX 38 45 39 46 89 47 40 48 94 49 88 50 90 51 41 52 93 53 87 54
REMARK SMILES IDX 86 55 42 57 74 58 54 59 73 60 55 61 58 62 72 63 91 64 56 65
REMARK SMILES IDX 57 66 71 68 92 69 59 70 43 71 44 72 52 73 45 74 46 75 50 76
REMARK SMILES IDX 53 77 47 78 48 79 51 80 49 81 75 82 76 83 84 84 77 85 78 86
REMARK SMILES IDX 82 87 85 88 79 89 80 90 83 91 81 92 60 93 61 94 69 95 62 96
REMARK SMILES IDX 63 97 67 98 70 99 64 100 65 101 68 102 66 103
REMARK H PARENT 27 4 31 37 90 56 58 67
REMARK Flexibility Score: inf
ROOT
ATOM      1  C   UNL A   1      34.312  29.047  26.732  1.00  0.00     0.220 C 
ATOM      2  O   UNL A   1      35.417  28.948  27.280  1.00  0.00    -0.275 OA
ATOM      3  N   UNL A   1      33.349  29.650  27.473  1.00  0.00    -0.356 N 
ATOM      4  H   UNL A   1      33.614  29.831  28.405  1.00  0.00     0.163 HD
ENDROOT
BRANCH   1   5
ATOM      5  C   UNL A   1      34.145  28.584  25.285  1.00  0.00     0.100 C 
BRANCH   5   6
ATOM      6  C   UNL A   1      33.650  27.178  24.961  1.00  0.00     0.020 C 
BRANCH   6   7
ATOM      7  C   UNL A   1      33.982  25.969  25.834  1.00  0.00     0.101 C 
BRANCH   7   8
ATOM      8  C   UNL A   1      34.674  24.713  25.288  1.00  0.00     0.222 C 
ATOM      9  O   UNL A   1      35.900  24.645  25.446  1.00  0.00    -0.275 OA
BRANCH   8  10
ATOM     10  N   UNL A   1      33.973  23.616  24.794  1.00  0.00    -0.342 N 
ATOM     11  C   UNL A   1      30.597  26.897  23.179  1.00  0.00     0.047 A 
ATOM     12  C   UNL A   1      31.454  26.701  22.164  1.00  0.00     0.016 A 
ATOM     13  C   UNL A   1      30.375  25.788  24.167  1.00  0.00     0.258 A 
ATOM     14  C   UNL A   1      32.137  25.449  21.996  1.00  0.00     0.023 A 
ATOM     15  N   UNL A   1      31.069  24.593  23.930  1.00  0.00    -0.311 N 
ATOM     16  O   UNL A   1      29.606  25.935  25.118  1.00  0.00    -0.269 OA
ATOM     17  C   UNL A   1      31.937  24.433  22.847  1.00  0.00     0.026 A 
ATOM     18  C   UNL A   1      30.783  23.494  24.845  1.00  0.00     0.131 C 
ATOM     19  C   UNL A   1      32.724  23.143  22.695  1.00  0.00     0.056 C 
ATOM     20  C   UNL A   1      31.777  22.333  24.803  1.00  0.00     0.029 C 
ATOM     21  C   UNL A   1      32.013  21.959  23.350  1.00  0.00     0.019 C 
ATOM     22  C   UNL A   1      34.101  23.321  23.362  1.00  0.00     0.129 C 
ATOM     23  C   UNL A   1      33.108  22.676  25.501  1.00  0.00     0.125 C 
BRANCH  11  24
ATOM     24  C   UNL A   1      29.851  28.159  23.274  1.00  0.00    -0.013 A 
ATOM     25  C   UNL A   1      28.512  30.620  23.355  1.00  0.00     0.118 A 
ATOM     26  C   UNL A   1      27.861  29.485  22.872  1.00  0.00     0.047 A 
ATOM     27  C   UNL A   1      29.814  30.521  23.844  1.00  0.00     0.047 A 
ATOM     28  C   UNL A   1      28.531  28.260  22.820  1.00  0.00     0.013 A 
ATOM     29  C   UNL A   1      30.481  29.297  23.798  1.00  0.00     0.013 A 
BRANCH  25  30
ATOM     30  O   UNL A   1      27.790  31.783  23.347  1.00  0.00    -0.497 OA
ATOM     31  C   UNL A   1      28.457  32.863  22.698  1.00  0.00     0.278 C 
ENDBRANCH  25  30
ENDBRANCH  11  24
ENDBRANCH   8  10
ENDBRANCH   7   8
ENDBRANCH   6   7
ENDBRANCH   5   6
ENDBRANCH   1   5
BRANCH   3  32
ATOM     32  C   UNL A   1      32.012  30.076  27.154  1.00  0.00     0.117 C 
BRANCH  32  33
ATOM     33  C   UNL A   1      31.910  31.529  26.742  1.00  0.00     0.042 C 
BRANCH  33  34
ATOM     34  C   UNL A   1      32.919  32.382  27.475  1.00  0.00     0.118 C 
BRANCH  34  35
ATOM     35  N   UNL A   1      32.496  33.778  27.606  1.00  0.00    -0.352 N 
ATOM     36  C   UNL A   1      32.976  34.748  28.458  1.00  0.00     0.251 C 
ATOM     37  H   UNL A   1      31.770  34.062  27.004  1.00  0.00     0.163 HD
ATOM     38  O   UNL A   1      32.431  35.844  28.530  1.00  0.00    -0.269 OA
BRANCH  36  39
ATOM     39  C   UNL A   1      34.131  34.425  29.321  1.00  0.00     0.039 A 
ATOM     40  C   UNL A   1      33.919  33.863  30.581  1.00  0.00     0.014 A 
ATOM     41  C   UNL A   1      35.425  34.580  28.825  1.00  0.00     0.014 A 
ATOM     42  C   UNL A   1      35.007  33.359  31.297  1.00  0.00     0.010 A 
ATOM     43  C   UNL A   1      36.477  33.953  29.467  1.00  0.00     0.010 A 
ATOM     44  C   UNL A   1      36.287  33.348  30.719  1.00  0.00    -0.014 A 
BRANCH  44  45
ATOM     45  C   UNL A   1      37.469  32.763  31.401  1.00  0.00     0.031 A 
ATOM     46  C   UNL A   1      38.203  31.629  30.733  1.00  0.00     0.074 A 
ATOM     47  C   UNL A   1      37.814  33.159  32.641  1.00  0.00     0.049 A 
ATOM     48  N   UNL A   1      39.114  30.827  31.219  1.00  0.00    -0.248 NA
ATOM     49  C   UNL A   1      37.813  31.320  29.346  1.00  0.00     0.031 C 
ATOM     50  C   UNL A   1      37.145  34.204  33.420  1.00  0.00     0.029 A 
ATOM     51  N   UNL A   1      38.806  32.710  33.478  1.00  0.00    -0.354 N 
ATOM     52  C   UNL A   1      39.371  29.902  30.215  1.00  0.00     0.074 A 
ATOM     53  C   UNL A   1      38.469  30.192  29.124  1.00  0.00     0.031 C 
ATOM     54  C   UNL A   1      37.759  34.330  34.609  1.00  0.00     0.029 A 
ATOM     55  C   UNL A   1      38.835  33.347  34.695  1.00  0.00     0.049 A 
ATOM     56  H   UNL A   1      39.438  31.997  33.228  1.00  0.00     0.167 HD
ATOM     57  C   UNL A   1      40.304  28.923  30.186  1.00  0.00     0.037 A 
ATOM     58  C   UNL A   1      39.633  33.147  35.761  1.00  0.00     0.037 A 
ATOM     59  C   UNL A   1      41.244  28.682  31.245  1.00  0.00     0.049 A 
ATOM     60  C   UNL A   1      40.693  32.079  35.686  1.00  0.00     0.074 A 
ATOM     61  C   UNL A   1      42.261  27.748  31.302  1.00  0.00     0.029 A 
ATOM     62  N   UNL A   1      41.292  29.406  32.427  1.00  0.00    -0.354 N 
ATOM     63  N   UNL A   1      40.952  31.237  34.715  1.00  0.00    -0.248 NA
ATOM     64  C   UNL A   1      41.577  31.939  36.851  1.00  0.00     0.031 C 
ATOM     65  C   UNL A   1      42.916  27.895  32.530  1.00  0.00     0.029 A 
ATOM     66  C   UNL A   1      42.330  28.945  33.217  1.00  0.00     0.049 A 
ATOM     67  H   UNL A   1      40.680  30.139  32.667  1.00  0.00     0.167 HD
ATOM     68  C   UNL A   1      42.048  30.495  35.136  1.00  0.00     0.074 A 
ATOM     69  C   UNL A   1      42.412  30.993  36.445  1.00  0.00     0.031 C 
ATOM     70  C   UNL A   1      42.693  29.488  34.500  1.00  0.00     0.037 A 
BRANCH  57  71
ATOM     71  C   UNL A   1      40.378  28.071  28.953  1.00  0.00     0.064 A 
ATOM     72  C   UNL A   1      39.675  26.860  28.858  1.00  0.00     0.173 A 
ATOM     73  C   UNL A   1      41.137  28.477  27.845  1.00  0.00     0.173 A 
ATOM     74  F   UNL A   1      38.951  26.417  29.897  1.00  0.00    -0.203 F 
ATOM     75  C   UNL A   1      39.752  26.073  27.713  1.00  0.00     0.198 A 
ATOM     76  C   UNL A   1      41.184  27.704  26.688  1.00  0.00     0.198 A 
ATOM     77  F   UNL A   1      41.826  29.627  27.882  1.00  0.00    -0.203 F 
ATOM     78  F   UNL A   1      39.116  24.894  27.669  1.00  0.00    -0.200 F 
ATOM     79  C   UNL A   1      40.499  26.500  26.626  1.00  0.00     0.200 A 
ATOM     80  F   UNL A   1      41.897  28.122  25.633  1.00  0.00    -0.200 F 
ATOM     81  F   UNL A   1      40.565  25.745  25.520  1.00  0.00    -0.200 F 
ENDBRANCH  57  71
BRANCH  58  82
ATOM     82  C   UNL A   1      39.485  33.985  36.982  1.00  0.00     0.064 A 
ATOM     83  C   UNL A   1      40.102  35.241  37.071  1.00  0.00     0.173 A 
ATOM     84  C   UNL A   1      38.756  33.539  38.094  1.00  0.00     0.173 A 
ATOM     85  F   UNL A   1      40.825  35.705  36.041  1.00  0.00    -0.203 F 
ATOM     86  C   UNL A   1      40.025  36.003  38.235  1.00  0.00     0.198 A 
ATOM     87  C   UNL A   1      38.655  34.315  39.247  1.00  0.00     0.198 A 
ATOM     88  F   UNL A   1      38.139  32.349  38.059  1.00  0.00    -0.203 F 
ATOM     89  F   UNL A   1      40.676  37.171  38.312  1.00  0.00    -0.200 F 
ATOM     90  C   UNL A   1      39.300  35.540  39.321  1.00  0.00     0.200 A 
ATOM     91  F   UNL A   1      37.941  33.870  40.291  1.00  0.00    -0.200 F 
ATOM     92  F   UNL A   1      39.232  36.270  40.444  1.00  0.00    -0.200 F 
ENDBRANCH  58  82
BRANCH  70  93
ATOM     93  C   UNL A   1      43.893  28.900  35.178  1.00  0.00     0.064 A 
ATOM     94  C   UNL A   1      45.184  29.394  34.948  1.00  0.00     0.173 A 
ATOM     95  C   UNL A   1      43.736  27.871  36.119  1.00  0.00     0.173 A 
ATOM     96  F   UNL A   1      45.384  30.369  34.049  1.00  0.00    -0.203 F 
ATOM     97  C   UNL A   1      46.280  28.864  35.622  1.00  0.00     0.198 A 
ATOM     98  C   UNL A   1      44.830  27.363  36.811  1.00  0.00     0.198 A 
ATOM     99  F   UNL A   1      42.518  27.372  36.379  1.00  0.00    -0.203 F 
ATOM    100  F   UNL A   1      47.512  29.323  35.360  1.00  0.00    -0.200 F 
ATOM    101  C   UNL A   1      46.102  27.855  36.558  1.00  0.00     0.200 A 
ATOM    102  F   UNL A   1      44.654  26.399  37.725  1.00  0.00    -0.200 F 
ATOM    103  F   UNL A   1      47.157  27.356  37.216  1.00  0.00    -0.200 F 
ENDBRANCH  70  93
ENDBRANCH  44  45
ENDBRANCH  36  39
ENDBRANCH  34  35
ENDBRANCH  33  34
ENDBRANCH  32  33
ENDBRANCH   3  32
TORSDOF 16
ENDMDL
