MODEL 1
REMARK VINA RESULT:     -11.4      0.000      0.000
REMARK SMILES CC(C)C[C@H](CNC(=O)Nc1ccccc1Br)C(=O)NCCCNC(=O)c1ccc(-c2c3nc(c(-c4c(F)c(F)c(F)c(F)c4F)c4ccc([nH]4)c(-c4c(F)c(F)c(F)c(F)c4F)c4nc(c(-c5c(F)c(F)c(F)c(F)c5F)c5ccc2[nH]5)C=C4)C=C3)cc1
REMARK SMILES IDX 21 1 20 2 18 3 19 4 5 6 4 7 2 8 1 9 3 10 6 11 7 12 8 13 9 15
REMARK SMILES IDX 10 16 11 18 12 19 16 20 13 21 15 22 17 23 14 24 22 25 23 26
REMARK SMILES IDX 24 27 25 28 26 30 27 31 28 32 89 33 29 34 88 35 30 36 31 37
REMARK SMILES IDX 32 38 82 39 33 40 87 41 81 42 83 43 34 44 86 45 80 46 79 47
REMARK SMILES IDX 35 49 67 50 47 51 66 52 48 53 51 54 65 55 84 56 49 57 50 58
REMARK SMILES IDX 64 60 85 61 52 62 36 63 37 64 45 65 38 66 39 67 43 68 46 69
REMARK SMILES IDX 40 70 41 71 44 72 42 73 68 74 69 75 77 76 70 77 71 78 75 79
REMARK SMILES IDX 78 80 72 81 73 82 76 83 74 84 53 85 54 86 62 87 55 88 56 89
REMARK SMILES IDX 60 90 63 91 57 92 58 93 61 94 59 95
REMARK H PARENT 20 5 7 14 10 17 24 29 83 48 51 59
REMARK Flexibility Score: inf
ROOT
ATOM      1  C   UNL A   1      34.870  23.367  23.943  1.00  0.00     0.117 C 
ENDROOT
BRANCH   1   2
ATOM      2  N   UNL A   1      33.860  22.485  23.379  1.00  0.00    -0.356 N 
ATOM      3  C   UNL A   1      32.505  22.586  23.311  1.00  0.00     0.224 C 
ATOM      4  O   UNL A   1      31.905  21.678  22.730  1.00  0.00    -0.275 OA
ATOM      5  H   UNL A   1      34.224  21.665  22.974  1.00  0.00     0.163 HD
BRANCH   3   6
ATOM      6  C   UNL A   1      31.734  23.745  23.936  1.00  0.00     0.098 C 
BRANCH   6   7
ATOM      7  C   UNL A   1      30.726  23.269  24.997  1.00  0.00     0.018 C 
BRANCH   7   8
ATOM      8  C   UNL A   1      30.793  24.076  26.309  1.00  0.00    -0.017 C 
ATOM      9  C   UNL A   1      32.236  24.376  26.718  1.00  0.00     0.007 C 
ATOM     10  C   UNL A   1      30.023  25.388  26.140  1.00  0.00     0.007 C 
ENDBRANCH   7   8
ENDBRANCH   6   7
BRANCH   6  11
ATOM     11  C   UNL A   1      31.132  24.600  22.818  1.00  0.00     0.131 C 
BRANCH  11  12
ATOM     12  N   UNL A   1      31.991  24.714  21.645  1.00  0.00    -0.337 N 
ATOM     13  C   UNL A   1      32.631  25.771  21.098  1.00  0.00     0.319 C 
ATOM     14  H   UNL A   1      32.128  23.867  21.162  1.00  0.00     0.165 HD
ATOM     15  O   UNL A   1      33.078  25.653  19.957  1.00  0.00    -0.249 OA
ATOM     16  N   UNL A   1      32.685  26.975  21.714  1.00  0.00    -0.307 N 
ATOM     17  H   UNL A   1      32.811  27.740  21.107  1.00  0.00     0.171 HD
BRANCH  16  18
ATOM     18  C   UNL A   1      32.592  27.316  23.072  1.00  0.00     0.057 A 
ATOM     19  C   UNL A   1      33.671  26.926  23.875  1.00  0.00     0.027 A 
ATOM     20  C   UNL A   1      31.536  28.041  23.649  1.00  0.00     0.041 A 
ATOM     21  C   UNL A   1      33.762  27.364  25.197  1.00  0.00     0.002 A 
ATOM     22  C   UNL A   1      31.623  28.460  24.982  1.00  0.00     0.018 A 
ATOM     23  Br  UNL A   1      29.903  28.397  22.742  1.00  0.00    -0.049 Br
ATOM     24  C   UNL A   1      32.748  28.145  25.745  1.00  0.00     0.001 A 
ENDBRANCH  16  18
ENDBRANCH  11  12
ENDBRANCH   6  11
ENDBRANCH   3   6
ENDBRANCH   1   2
BRANCH   1  25
ATOM     25  C   UNL A   1      35.398  22.873  25.283  1.00  0.00     0.042 C 
BRANCH  25  26
ATOM     26  C   UNL A   1      36.664  23.574  25.760  1.00  0.00     0.118 C 
BRANCH  26  27
ATOM     27  N   UNL A   1      37.767  22.653  25.985  1.00  0.00    -0.352 N 
ATOM     28  C   UNL A   1      39.038  22.878  26.448  1.00  0.00     0.251 C 
ATOM     29  H   UNL A   1      37.567  21.713  25.770  1.00  0.00     0.163 HD
ATOM     30  O   UNL A   1      39.868  21.976  26.389  1.00  0.00    -0.269 OA
BRANCH  28  31
ATOM     31  C   UNL A   1      39.426  24.193  27.006  1.00  0.00     0.039 A 
ATOM     32  C   UNL A   1      40.048  25.119  26.164  1.00  0.00     0.014 A 
ATOM     33  C   UNL A   1      39.244  24.497  28.358  1.00  0.00     0.014 A 
ATOM     34  C   UNL A   1      40.451  26.359  26.666  1.00  0.00     0.010 A 
ATOM     35  C   UNL A   1      39.568  25.763  28.839  1.00  0.00     0.010 A 
ATOM     36  C   UNL A   1      40.197  26.699  28.004  1.00  0.00    -0.014 A 
BRANCH  36  37
ATOM     37  C   UNL A   1      40.630  28.005  28.560  1.00  0.00     0.031 A 
ATOM     38  C   UNL A   1      42.080  28.239  28.886  1.00  0.00     0.074 A 
ATOM     39  C   UNL A   1      39.718  28.964  28.815  1.00  0.00     0.049 A 
ATOM     40  N   UNL A   1      42.651  29.283  29.431  1.00  0.00    -0.248 NA
ATOM     41  C   UNL A   1      43.009  27.137  28.589  1.00  0.00     0.031 C 
ATOM     42  C   UNL A   1      38.278  28.843  28.586  1.00  0.00     0.029 A 
ATOM     43  N   UNL A   1      39.869  30.227  29.328  1.00  0.00    -0.354 N 
ATOM     44  C   UNL A   1      43.995  28.956  29.559  1.00  0.00     0.074 A 
ATOM     45  C   UNL A   1      44.147  27.597  29.088  1.00  0.00     0.031 C 
ATOM     46  C   UNL A   1      37.680  29.994  28.934  1.00  0.00     0.029 A 
ATOM     47  C   UNL A   1      38.689  30.921  29.438  1.00  0.00     0.049 A 
ATOM     48  H   UNL A   1      40.740  30.600  29.595  1.00  0.00     0.167 HD
ATOM     49  C   UNL A   1      45.016  29.727  30.004  1.00  0.00     0.037 A 
ATOM     50  C   UNL A   1      38.452  32.166  29.894  1.00  0.00     0.037 A 
ATOM     51  C   UNL A   1      44.870  31.093  30.432  1.00  0.00     0.049 A 
ATOM     52  C   UNL A   1      39.606  33.011  30.358  1.00  0.00     0.074 A 
ATOM     53  C   UNL A   1      45.849  31.978  30.846  1.00  0.00     0.029 A 
ATOM     54  N   UNL A   1      43.662  31.773  30.494  1.00  0.00    -0.354 N 
ATOM     55  N   UNL A   1      40.880  32.711  30.418  1.00  0.00    -0.248 NA
ATOM     56  C   UNL A   1      39.289  34.374  30.808  1.00  0.00     0.031 C 
ATOM     57  C   UNL A   1      45.230  33.184  31.192  1.00  0.00     0.029 A 
ATOM     58  C   UNL A   1      43.871  33.065  30.950  1.00  0.00     0.049 A 
ATOM     59  H   UNL A   1      42.787  31.394  30.249  1.00  0.00     0.167 HD
ATOM     60  C   UNL A   1      41.520  33.853  30.879  1.00  0.00     0.074 A 
ATOM     61  C   UNL A   1      40.495  34.857  31.073  1.00  0.00     0.031 C 
ATOM     62  C   UNL A   1      42.839  34.054  31.120  1.00  0.00     0.037 A 
BRANCH  49  63
ATOM     63  C   UNL A   1      46.384  29.111  30.040  1.00  0.00     0.064 A 
ATOM     64  C   UNL A   1      47.245  29.167  28.933  1.00  0.00     0.173 A 
ATOM     65  C   UNL A   1      46.851  28.480  31.203  1.00  0.00     0.173 A 
ATOM     66  F   UNL A   1      46.842  29.747  27.793  1.00  0.00    -0.203 F 
ATOM     67  C   UNL A   1      48.510  28.586  28.979  1.00  0.00     0.198 A 
ATOM     68  C   UNL A   1      48.128  27.926  31.255  1.00  0.00     0.198 A 
ATOM     69  F   UNL A   1      46.070  28.402  32.290  1.00  0.00    -0.203 F 
ATOM     70  F   UNL A   1      49.294  28.604  27.892  1.00  0.00    -0.200 F 
ATOM     71  C   UNL A   1      48.952  27.972  30.141  1.00  0.00     0.200 A 
ATOM     72  F   UNL A   1      48.559  27.344  32.382  1.00  0.00    -0.200 F 
ATOM     73  F   UNL A   1      50.171  27.417  30.184  1.00  0.00    -0.200 F 
ENDBRANCH  49  63
BRANCH  50  74
ATOM     74  C   UNL A   1      37.067  32.704  29.892  1.00  0.00     0.064 A 
ATOM     75  C   UNL A   1      36.549  33.350  28.760  1.00  0.00     0.173 A 
ATOM     76  C   UNL A   1      36.236  32.588  31.015  1.00  0.00     0.173 A 
ATOM     77  F   UNL A   1      37.313  33.502  27.669  1.00  0.00    -0.203 F 
ATOM     78  C   UNL A   1      35.260  33.879  28.760  1.00  0.00     0.198 A 
ATOM     79  C   UNL A   1      34.937  33.093  31.005  1.00  0.00     0.198 A 
ATOM     80  F   UNL A   1      36.681  31.973  32.119  1.00  0.00    -0.203 F 
ATOM     81  F   UNL A   1      34.807  34.530  27.680  1.00  0.00    -0.200 F 
ATOM     82  C   UNL A   1      34.453  33.746  29.879  1.00  0.00     0.200 A 
ATOM     83  F   UNL A   1      34.156  32.952  32.083  1.00  0.00    -0.200 F 
ATOM     84  F   UNL A   1      33.213  34.252  29.878  1.00  0.00    -0.200 F 
ENDBRANCH  50  74
BRANCH  62  85
ATOM     85  C   UNL A   1      43.254  35.422  31.576  1.00  0.00     0.064 A 
ATOM     86  C   UNL A   1      43.673  36.405  30.668  1.00  0.00     0.173 A 
ATOM     87  C   UNL A   1      43.193  35.764  32.934  1.00  0.00     0.173 A 
ATOM     88  F   UNL A   1      43.762  36.122  29.359  1.00  0.00    -0.203 F 
ATOM     89  C   UNL A   1      44.040  37.674  31.106  1.00  0.00     0.198 A 
ATOM     90  C   UNL A   1      43.535  37.042  33.368  1.00  0.00     0.198 A 
ATOM     91  F   UNL A   1      42.792  34.861  33.842  1.00  0.00    -0.203 F 
ATOM     92  F   UNL A   1      44.482  38.584  30.228  1.00  0.00    -0.200 F 
ATOM     93  C   UNL A   1      43.965  37.994  32.454  1.00  0.00     0.200 A 
ATOM     94  F   UNL A   1      43.448  37.353  34.668  1.00  0.00    -0.200 F 
ATOM     95  F   UNL A   1      44.313  39.217  32.875  1.00  0.00    -0.200 F 
ENDBRANCH  62  85
ENDBRANCH  36  37
ENDBRANCH  28  31
ENDBRANCH  26  27
ENDBRANCH  25  26
ENDBRANCH   1  25
TORSDOF 15
ENDMDL
MODEL 2
REMARK VINA RESULT:     -11.3      3.280      8.495
REMARK SMILES CC(C)C[C@H](CNC(=O)Nc1ccccc1Br)C(=O)NCCCNC(=O)c1ccc(-c2c3nc(c(-c4c(F)c(F)c(F)c(F)c4F)c4ccc([nH]4)c(-c4c(F)c(F)c(F)c(F)c4F)c4nc(c(-c5c(F)c(F)c(F)c(F)c5F)c5ccc2[nH]5)C=C4)C=C3)cc1
REMARK SMILES IDX 21 1 20 2 18 3 19 4 5 6 4 7 2 8 1 9 3 10 6 11 7 12 8 13 9 15
REMARK SMILES IDX 10 16 11 18 12 19 16 20 13 21 15 22 17 23 14 24 22 25 23 26
REMARK SMILES IDX 24 27 25 28 26 30 27 31 28 32 89 33 29 34 88 35 30 36 31 37
REMARK SMILES IDX 32 38 82 39 33 40 87 41 81 42 83 43 34 44 86 45 80 46 79 47
REMARK SMILES IDX 35 49 67 50 47 51 66 52 48 53 51 54 65 55 84 56 49 57 50 58
REMARK SMILES IDX 64 60 85 61 52 62 36 63 37 64 45 65 38 66 39 67 43 68 46 69
REMARK SMILES IDX 40 70 41 71 44 72 42 73 68 74 69 75 77 76 70 77 71 78 75 79
REMARK SMILES IDX 78 80 72 81 73 82 76 83 74 84 53 85 54 86 62 87 55 88 56 89
REMARK SMILES IDX 60 90 63 91 57 92 58 93 61 94 59 95
REMARK H PARENT 20 5 7 14 10 17 24 29 83 48 51 59
REMARK Flexibility Score: inf
ROOT
ATOM      1  C   UNL A   1      36.617  20.200  25.001  1.00  0.00     0.117 C 
ENDROOT
BRANCH   1   2
ATOM      2  N   UNL A   1      36.753  21.625  25.260  1.00  0.00    -0.356 N 
ATOM      3  C   UNL A   1      35.829  22.596  25.494  1.00  0.00     0.224 C 
ATOM      4  O   UNL A   1      36.255  23.732  25.717  1.00  0.00    -0.275 OA
ATOM      5  H   UNL A   1      37.684  21.946  25.266  1.00  0.00     0.163 HD
BRANCH   3   6
ATOM      6  C   UNL A   1      34.327  22.326  25.463  1.00  0.00     0.098 C 
BRANCH   6   7
ATOM      7  C   UNL A   1      33.764  22.326  24.030  1.00  0.00     0.018 C 
BRANCH   7   8
ATOM      8  C   UNL A   1      32.588  21.350  23.835  1.00  0.00    -0.017 C 
ATOM      9  C   UNL A   1      32.153  21.271  22.370  1.00  0.00     0.007 C 
ATOM     10  C   UNL A   1      32.995  19.958  24.326  1.00  0.00     0.007 C 
ENDBRANCH   7   8
ENDBRANCH   6   7
BRANCH   6  11
ATOM     11  C   UNL A   1      33.629  23.290  26.425  1.00  0.00     0.131 C 
BRANCH  11  12
ATOM     12  N   UNL A   1      32.255  22.911  26.734  1.00  0.00    -0.337 N 
ATOM     13  C   UNL A   1      31.130  23.646  26.877  1.00  0.00     0.319 C 
ATOM     14  H   UNL A   1      32.123  21.944  26.863  1.00  0.00     0.165 HD
ATOM     15  O   UNL A   1      30.150  23.113  27.398  1.00  0.00    -0.249 OA
ATOM     16  N   UNL A   1      31.091  24.965  26.579  1.00  0.00    -0.307 N 
ATOM     17  H   UNL A   1      30.399  25.474  27.060  1.00  0.00     0.171 HD
BRANCH  16  18
ATOM     18  C   UNL A   1      31.872  25.731  25.699  1.00  0.00     0.057 A 
ATOM     19  C   UNL A   1      32.713  26.678  26.295  1.00  0.00     0.027 A 
ATOM     20  C   UNL A   1      31.893  25.578  24.301  1.00  0.00     0.041 A 
ATOM     21  C   UNL A   1      33.654  27.367  25.529  1.00  0.00     0.002 A 
ATOM     22  C   UNL A   1      32.825  26.288  23.537  1.00  0.00     0.018 A 
ATOM     23  Br  UNL A   1      30.623  24.529  23.352  1.00  0.00    -0.049 Br
ATOM     24  C   UNL A   1      33.723  27.160  24.154  1.00  0.00     0.001 A 
ENDBRANCH  16  18
ENDBRANCH  11  12
ENDBRANCH   6  11
ENDBRANCH   3   6
ENDBRANCH   1   2
BRANCH   1  25
ATOM     25  C   UNL A   1      37.961  19.499  24.858  1.00  0.00     0.042 C 
BRANCH  25  26
ATOM     26  C   UNL A   1      39.063  20.057  25.750  1.00  0.00     0.118 C 
BRANCH  26  27
ATOM     27  N   UNL A   1      40.161  19.122  25.940  1.00  0.00    -0.352 N 
ATOM     28  C   UNL A   1      41.501  19.346  26.136  1.00  0.00     0.251 C 
ATOM     29  H   UNL A   1      39.900  18.174  25.928  1.00  0.00     0.163 HD
ATOM     30  O   UNL A   1      42.280  18.400  26.094  1.00  0.00    -0.269 OA
BRANCH  28  31
ATOM     31  C   UNL A   1      42.019  20.710  26.385  1.00  0.00     0.039 A 
ATOM     32  C   UNL A   1      42.263  21.101  27.705  1.00  0.00     0.014 A 
ATOM     33  C   UNL A   1      42.205  21.625  25.345  1.00  0.00     0.014 A 
ATOM     34  C   UNL A   1      42.728  22.390  27.976  1.00  0.00     0.010 A 
ATOM     35  C   UNL A   1      42.747  22.880  25.607  1.00  0.00     0.010 A 
ATOM     36  C   UNL A   1      42.992  23.285  26.928  1.00  0.00    -0.014 A 
BRANCH  36  37
ATOM     37  C   UNL A   1      43.471  24.663  27.197  1.00  0.00     0.031 A 
ATOM     38  C   UNL A   1      42.525  25.692  27.755  1.00  0.00     0.074 A 
ATOM     39  C   UNL A   1      44.740  25.005  26.898  1.00  0.00     0.049 A 
ATOM     40  N   UNL A   1      42.731  26.961  28.003  1.00  0.00    -0.248 NA
ATOM     41  C   UNL A   1      41.154  25.241  28.041  1.00  0.00     0.031 C 
ATOM     42  C   UNL A   1      45.740  24.112  26.312  1.00  0.00     0.029 A 
ATOM     43  N   UNL A   1      45.402  26.197  27.043  1.00  0.00    -0.354 N 
ATOM     44  C   UNL A   1      41.515  27.459  28.454  1.00  0.00     0.074 A 
ATOM     45  C   UNL A   1      40.562  26.373  28.391  1.00  0.00     0.031 C 
ATOM     46  C   UNL A   1      46.895  24.781  26.169  1.00  0.00     0.029 A 
ATOM     47  C   UNL A   1      46.709  26.156  26.625  1.00  0.00     0.049 A 
ATOM     48  H   UNL A   1      44.979  27.007  27.410  1.00  0.00     0.167 HD
ATOM     49  C   UNL A   1      41.224  28.703  28.904  1.00  0.00     0.037 A 
ATOM     50  C   UNL A   1      47.650  27.119  26.614  1.00  0.00     0.037 A 
ATOM     51  C   UNL A   1      42.183  29.771  29.005  1.00  0.00     0.049 A 
ATOM     52  C   UNL A   1      47.309  28.485  27.144  1.00  0.00     0.074 A 
ATOM     53  C   UNL A   1      42.004  31.050  29.501  1.00  0.00     0.029 A 
ATOM     54  N   UNL A   1      43.509  29.677  28.606  1.00  0.00    -0.354 N 
ATOM     55  N   UNL A   1      46.173  28.927  27.623  1.00  0.00    -0.248 NA
ATOM     56  C   UNL A   1      48.388  29.483  27.142  1.00  0.00     0.031 C 
ATOM     57  C   UNL A   1      43.212  31.742  29.371  1.00  0.00     0.029 A 
ATOM     58  C   UNL A   1      44.156  30.881  28.836  1.00  0.00     0.049 A 
ATOM     59  H   UNL A   1      43.928  28.875  28.218  1.00  0.00     0.167 HD
ATOM     60  C   UNL A   1      46.405  30.240  28.009  1.00  0.00     0.074 A 
ATOM     61  C   UNL A   1      47.796  30.521  27.718  1.00  0.00     0.031 C 
ATOM     62  C   UNL A   1      45.545  31.135  28.555  1.00  0.00     0.037 A 
BRANCH  49  63
ATOM     63  C   UNL A   1      39.810  28.972  29.331  1.00  0.00     0.064 A 
ATOM     64  C   UNL A   1      38.846  29.442  28.427  1.00  0.00     0.173 A 
ATOM     65  C   UNL A   1      39.407  28.731  30.654  1.00  0.00     0.173 A 
ATOM     66  F   UNL A   1      39.183  29.701  27.155  1.00  0.00    -0.203 F 
ATOM     67  C   UNL A   1      37.539  29.692  28.839  1.00  0.00     0.198 A 
ATOM     68  C   UNL A   1      38.092  28.953  31.054  1.00  0.00     0.198 A 
ATOM     69  F   UNL A   1      40.288  28.277  31.558  1.00  0.00    -0.203 F 
ATOM     70  F   UNL A   1      36.649  30.192  27.970  1.00  0.00    -0.200 F 
ATOM     71  C   UNL A   1      37.162  29.442  30.149  1.00  0.00     0.200 A 
ATOM     72  F   UNL A   1      37.726  28.700  32.318  1.00  0.00    -0.200 F 
ATOM     73  F   UNL A   1      35.903  29.679  30.542  1.00  0.00    -0.200 F 
ENDBRANCH  49  63
BRANCH  50  74
ATOM     74  C   UNL A   1      49.018  26.813  26.123  1.00  0.00     0.064 A 
ATOM     75  C   UNL A   1      49.360  27.013  24.779  1.00  0.00     0.173 A 
ATOM     76  C   UNL A   1      50.008  26.312  26.981  1.00  0.00     0.173 A 
ATOM     77  F   UNL A   1      48.441  27.472  23.916  1.00  0.00    -0.203 F 
ATOM     78  C   UNL A   1      50.633  26.705  24.306  1.00  0.00     0.198 A 
ATOM     79  C   UNL A   1      51.290  26.029  26.513  1.00  0.00     0.198 A 
ATOM     80  F   UNL A   1      49.733  26.109  28.277  1.00  0.00    -0.203 F 
ATOM     81  F   UNL A   1      50.920  26.865  23.006  1.00  0.00    -0.200 F 
ATOM     82  C   UNL A   1      51.599  26.218  25.173  1.00  0.00     0.200 A 
ATOM     83  F   UNL A   1      52.223  25.571  27.357  1.00  0.00    -0.200 F 
ATOM     84  F   UNL A   1      52.824  25.923  24.719  1.00  0.00    -0.200 F 
ENDBRANCH  50  74
BRANCH  62  85
ATOM     85  C   UNL A   1      46.094  32.483  28.916  1.00  0.00     0.064 A 
ATOM     86  C   UNL A   1      46.054  33.560  28.018  1.00  0.00     0.173 A 
ATOM     87  C   UNL A   1      46.630  32.711  30.193  1.00  0.00     0.173 A 
ATOM     88  F   UNL A   1      45.564  33.389  26.781  1.00  0.00    -0.203 F 
ATOM     89  C   UNL A   1      46.554  34.808  28.376  1.00  0.00     0.198 A 
ATOM     90  C   UNL A   1      47.104  33.967  30.558  1.00  0.00     0.198 A 
ATOM     91  F   UNL A   1      46.683  31.715  31.090  1.00  0.00    -0.203 F 
ATOM     92  F   UNL A   1      46.549  35.811  27.488  1.00  0.00    -0.200 F 
ATOM     93  C   UNL A   1      47.072  35.013  29.647  1.00  0.00     0.200 A 
ATOM     94  F   UNL A   1      47.592  34.166  31.790  1.00  0.00    -0.200 F 
ATOM     95  F   UNL A   1      47.548  36.217  29.993  1.00  0.00    -0.200 F 
ENDBRANCH  62  85
ENDBRANCH  36  37
ENDBRANCH  28  31
ENDBRANCH  26  27
ENDBRANCH  25  26
ENDBRANCH   1  25
TORSDOF 15
ENDMDL
MODEL 3
REMARK VINA RESULT:     -11.3      4.417      7.982
REMARK SMILES CC(C)C[C@H](CNC(=O)Nc1ccccc1Br)C(=O)NCCCNC(=O)c1ccc(-c2c3nc(c(-c4c(F)c(F)c(F)c(F)c4F)c4ccc([nH]4)c(-c4c(F)c(F)c(F)c(F)c4F)c4nc(c(-c5c(F)c(F)c(F)c(F)c5F)c5ccc2[nH]5)C=C4)C=C3)cc1
REMARK SMILES IDX 21 1 20 2 18 3 19 4 5 6 4 7 2 8 1 9 3 10 6 11 7 12 8 13 9 15
REMARK SMILES IDX 10 16 11 18 12 19 16 20 13 21 15 22 17 23 14 24 22 25 23 26
REMARK SMILES IDX 24 27 25 28 26 30 27 31 28 32 89 33 29 34 88 35 30 36 31 37
REMARK SMILES IDX 32 38 82 39 33 40 87 41 81 42 83 43 34 44 86 45 80 46 79 47
REMARK SMILES IDX 35 49 67 50 47 51 66 52 48 53 51 54 65 55 84 56 49 57 50 58
REMARK SMILES IDX 64 60 85 61 52 62 36 63 37 64 45 65 38 66 39 67 43 68 46 69
REMARK SMILES IDX 40 70 41 71 44 72 42 73 68 74 69 75 77 76 70 77 71 78 75 79
REMARK SMILES IDX 78 80 72 81 73 82 76 83 74 84 53 85 54 86 62 87 55 88 56 89
REMARK SMILES IDX 60 90 63 91 57 92 58 93 61 94 59 95
REMARK H PARENT 20 5 7 14 10 17 24 29 83 48 51 59
REMARK Flexibility Score: inf
ROOT
ATOM      1  C   UNL A   1      31.265  30.915  26.244  1.00  0.00     0.117 C 
ENDROOT
BRANCH   1   2
ATOM      2  N   UNL A   1      30.999  30.488  24.880  1.00  0.00    -0.356 N 
ATOM      3  C   UNL A   1      31.159  29.289  24.258  1.00  0.00     0.224 C 
ATOM      4  O   UNL A   1      30.808  29.219  23.077  1.00  0.00    -0.275 OA
ATOM      5  H   UNL A   1      30.639  31.197  24.300  1.00  0.00     0.163 HD
BRANCH   3   6
ATOM      6  C   UNL A   1      31.764  28.075  24.957  1.00  0.00     0.098 C 
BRANCH   6   7
ATOM      7  C   UNL A   1      33.271  28.246  25.222  1.00  0.00     0.018 C 
BRANCH   7   8
ATOM      8  C   UNL A   1      33.652  28.088  26.707  1.00  0.00    -0.017 C 
ATOM      9  C   UNL A   1      34.500  29.261  27.203  1.00  0.00     0.007 C 
ATOM     10  C   UNL A   1      32.380  27.980  27.551  1.00  0.00     0.007 C 
ENDBRANCH   7   8
ENDBRANCH   6   7
BRANCH   6  11
ATOM     11  C   UNL A   1      31.392  26.813  24.173  1.00  0.00     0.131 C 
BRANCH  11  12
ATOM     12  N   UNL A   1      32.203  26.611  22.978  1.00  0.00    -0.337 N 
ATOM     13  C   UNL A   1      33.248  25.790  22.729  1.00  0.00     0.319 C 
ATOM     14  H   UNL A   1      31.943  27.175  22.213  1.00  0.00     0.165 HD
ATOM     15  O   UNL A   1      33.925  26.001  21.722  1.00  0.00    -0.249 OA
ATOM     16  N   UNL A   1      33.637  24.836  23.606  1.00  0.00    -0.307 N 
ATOM     17  H   UNL A   1      34.583  24.575  23.534  1.00  0.00     0.171 HD
BRANCH  16  18
ATOM     18  C   UNL A   1      32.917  24.156  24.601  1.00  0.00     0.057 A 
ATOM     19  C   UNL A   1      33.025  24.677  25.897  1.00  0.00     0.027 A 
ATOM     20  C   UNL A   1      32.085  23.046  24.376  1.00  0.00     0.041 A 
ATOM     21  C   UNL A   1      32.218  24.187  26.924  1.00  0.00     0.002 A 
ATOM     22  C   UNL A   1      31.294  22.545  25.416  1.00  0.00     0.018 A 
ATOM     23  Br  UNL A   1      32.057  22.085  22.735  1.00  0.00    -0.049 Br
ATOM     24  C   UNL A   1      31.340  23.134  26.680  1.00  0.00     0.001 A 
ENDBRANCH  16  18
ENDBRANCH  11  12
ENDBRANCH   6  11
ENDBRANCH   3   6
ENDBRANCH   1   2
BRANCH   1  25
ATOM     25  C   UNL A   1      31.344  32.429  26.381  1.00  0.00     0.042 C 
BRANCH  25  26
ATOM     26  C   UNL A   1      32.563  32.931  27.145  1.00  0.00     0.118 C 
BRANCH  26  27
ATOM     27  N   UNL A   1      32.410  34.299  27.614  1.00  0.00    -0.352 N 
ATOM     28  C   UNL A   1      33.009  34.957  28.659  1.00  0.00     0.251 C 
ATOM     29  H   UNL A   1      31.774  34.842  27.095  1.00  0.00     0.163 HD
ATOM     30  O   UNL A   1      32.596  36.065  28.986  1.00  0.00    -0.269 OA
BRANCH  28  31
ATOM     31  C   UNL A   1      34.135  34.347  29.401  1.00  0.00     0.039 A 
ATOM     32  C   UNL A   1      35.435  34.554  28.931  1.00  0.00     0.014 A 
ATOM     33  C   UNL A   1      33.921  33.526  30.511  1.00  0.00     0.014 A 
ATOM     34  C   UNL A   1      36.518  33.971  29.593  1.00  0.00     0.010 A 
ATOM     35  C   UNL A   1      35.004  33.014  31.220  1.00  0.00     0.010 A 
ATOM     36  C   UNL A   1      36.313  33.212  30.755  1.00  0.00    -0.014 A 
BRANCH  36  37
ATOM     37  C   UNL A   1      37.450  32.572  31.464  1.00  0.00     0.031 A 
ATOM     38  C   UNL A   1      38.190  31.431  30.820  1.00  0.00     0.074 A 
ATOM     39  C   UNL A   1      37.787  32.982  32.702  1.00  0.00     0.049 A 
ATOM     40  N   UNL A   1      39.168  30.702  31.296  1.00  0.00    -0.248 NA
ATOM     41  C   UNL A   1      37.750  31.036  29.473  1.00  0.00     0.031 C 
ATOM     42  C   UNL A   1      37.119  34.047  33.452  1.00  0.00     0.029 A 
ATOM     43  N   UNL A   1      38.775  32.548  33.549  1.00  0.00    -0.354 N 
ATOM     44  C   UNL A   1      39.443  29.754  30.318  1.00  0.00     0.074 A 
ATOM     45  C   UNL A   1      38.494  29.963  29.246  1.00  0.00     0.031 C 
ATOM     46  C   UNL A   1      37.730  34.199  34.637  1.00  0.00     0.029 A 
ATOM     47  C   UNL A   1      38.813  33.225  34.743  1.00  0.00     0.049 A 
ATOM     48  H   UNL A   1      39.396  31.819  33.324  1.00  0.00     0.167 HD
ATOM     49  C   UNL A   1      40.416  28.812  30.302  1.00  0.00     0.037 A 
ATOM     50  C   UNL A   1      39.632  33.076  35.802  1.00  0.00     0.037 A 
ATOM     51  C   UNL A   1      41.385  28.633  31.350  1.00  0.00     0.049 A 
ATOM     52  C   UNL A   1      40.720  32.039  35.749  1.00  0.00     0.074 A 
ATOM     53  C   UNL A   1      42.446  27.746  31.404  1.00  0.00     0.029 A 
ATOM     54  N   UNL A   1      41.413  29.365  32.528  1.00  0.00    -0.354 N 
ATOM     55  N   UNL A   1      41.009  31.190  34.793  1.00  0.00    -0.248 NA
ATOM     56  C   UNL A   1      41.606  31.950  36.918  1.00  0.00     0.031 C 
ATOM     57  C   UNL A   1      43.096  27.917  32.631  1.00  0.00     0.029 A 
ATOM     58  C   UNL A   1      42.468  28.941  33.322  1.00  0.00     0.049 A 
ATOM     59  H   UNL A   1      40.779  30.079  32.766  1.00  0.00     0.167 HD
ATOM     60  C   UNL A   1      42.125  30.489  35.229  1.00  0.00     0.074 A 
ATOM     61  C   UNL A   1      42.469  31.020  36.532  1.00  0.00     0.031 C 
ATOM     62  C   UNL A   1      42.804  29.494  34.608  1.00  0.00     0.037 A 
BRANCH  49  63
ATOM     63  C   UNL A   1      40.484  27.908  29.106  1.00  0.00     0.064 A 
ATOM     64  C   UNL A   1      39.703  26.746  29.017  1.00  0.00     0.173 A 
ATOM     65  C   UNL A   1      41.320  28.221  28.023  1.00  0.00     0.173 A 
ATOM     66  F   UNL A   1      38.897  26.395  30.031  1.00  0.00    -0.203 F 
ATOM     67  C   UNL A   1      39.780  25.913  27.903  1.00  0.00     0.198 A 
ATOM     68  C   UNL A   1      41.372  27.402  26.898  1.00  0.00     0.198 A 
ATOM     69  F   UNL A   1      42.085  29.322  28.054  1.00  0.00    -0.203 F 
ATOM     70  F   UNL A   1      39.065  24.781  27.865  1.00  0.00    -0.200 F 
ATOM     71  C   UNL A   1      40.609  26.245  26.843  1.00  0.00     0.200 A 
ATOM     72  F   UNL A   1      42.165  27.729  25.868  1.00  0.00    -0.200 F 
ATOM     73  F   UNL A   1      40.679  25.445  25.770  1.00  0.00    -0.200 F 
ENDBRANCH  49  63
BRANCH  50  74
ATOM     74  C   UNL A   1      39.480  33.960  36.986  1.00  0.00     0.064 A 
ATOM     75  C   UNL A   1      40.092  35.221  37.024  1.00  0.00     0.173 A 
ATOM     76  C   UNL A   1      38.728  33.565  38.102  1.00  0.00     0.173 A 
ATOM     77  F   UNL A   1      40.837  35.634  35.988  1.00  0.00    -0.203 F 
ATOM     78  C   UNL A   1      39.974  36.045  38.141  1.00  0.00     0.198 A 
ATOM     79  C   UNL A   1      38.589  34.401  39.208  1.00  0.00     0.198 A 
ATOM     80  F   UNL A   1      38.118  32.372  38.112  1.00  0.00    -0.203 F 
ATOM     81  F   UNL A   1      40.605  37.227  38.168  1.00  0.00    -0.200 F 
ATOM     82  C   UNL A   1      39.219  35.638  39.230  1.00  0.00     0.200 A 
ATOM     83  F   UNL A   1      37.848  34.009  40.253  1.00  0.00    -0.200 F 
ATOM     84  F   UNL A   1      39.104  36.431  40.304  1.00  0.00    -0.200 F 
ENDBRANCH  50  74
BRANCH  62  85
ATOM     85  C   UNL A   1      44.014  28.947  35.306  1.00  0.00     0.064 A 
ATOM     86  C   UNL A   1      45.295  29.473  35.082  1.00  0.00     0.173 A 
ATOM     87  C   UNL A   1      43.883  27.910  36.241  1.00  0.00     0.173 A 
ATOM     88  F   UNL A   1      45.473  30.457  34.187  1.00  0.00    -0.203 F 
ATOM     89  C   UNL A   1      46.404  28.964  35.750  1.00  0.00     0.198 A 
ATOM     90  C   UNL A   1      44.990  27.420  36.928  1.00  0.00     0.198 A 
ATOM     91  F   UNL A   1      42.678  27.378  36.496  1.00  0.00    -0.203 F 
ATOM     92  F   UNL A   1      47.624  29.449  35.487  1.00  0.00    -0.200 F 
ATOM     93  C   UNL A   1      46.250  27.943  36.677  1.00  0.00     0.200 A 
ATOM     94  F   UNL A   1      44.838  26.443  37.833  1.00  0.00    -0.200 F 
ATOM     95  F   UNL A   1      47.318  27.457  37.325  1.00  0.00    -0.200 F 
ENDBRANCH  62  85
ENDBRANCH  36  37
ENDBRANCH  28  31
ENDBRANCH  26  27
ENDBRANCH  25  26
ENDBRANCH   1  25
TORSDOF 15
ENDMDL
