MODEL 1
REMARK VINA RESULT:     -12.1      0.000      0.000
REMARK SMILES C[C@H](C(=O)NCCCNC(=O)c1ccc(-c2c3nc(c(-c4c(F)c(F)c(F)c(F)c4F)c4ccc([nH]4)c(-c4c(F)c(F)c(F)c(F)c4F)c4nc(c(-c5c(F)c(F)c(F)c(F)c5F)c5ccc2[nH]5)C=C4)C=C3)cc1)[C@@H](C)[NH2+]Cc1ccc(F)c(F)c1
REMARK SMILES IDX 6 1 5 2 3 3 4 4 2 6 1 7 75 8 76 9 77 10 78 13 79 14 80 15
REMARK SMILES IDX 86 16 81 17 84 18 82 19 85 20 83 21 7 22 8 23 9 24 10 25
REMARK SMILES IDX 11 27 12 28 13 29 74 30 14 31 73 32 15 33 16 34 17 35 67 36
REMARK SMILES IDX 18 37 72 38 66 39 68 40 19 41 71 42 65 43 64 44 20 46 52 47
REMARK SMILES IDX 32 48 51 49 33 50 36 51 50 52 69 53 34 54 35 55 49 57 70 58
REMARK SMILES IDX 37 59 21 60 22 61 30 62 23 63 24 64 28 65 31 66 25 67 26 68
REMARK SMILES IDX 29 69 27 70 53 71 54 72 62 73 55 74 56 75 60 76 63 77 57 78
REMARK SMILES IDX 58 79 61 80 59 81 38 82 39 83 47 84 40 85 41 86 45 87 48 88
REMARK SMILES IDX 42 89 43 90 46 91 44 92
REMARK H PARENT 5 5 77 11 77 12 9 26 68 45 36 56
REMARK Flexibility Score: inf
ROOT
ATOM      1  C   UNL A   1      36.666  21.560  25.047  1.00  0.00     0.117 C 
ENDROOT
BRANCH   1   2
ATOM      2  N   UNL A   1      35.807  21.486  26.224  1.00  0.00    -0.356 N 
ATOM      3  C   UNL A   1      34.564  21.904  26.572  1.00  0.00     0.228 C 
ATOM      4  O   UNL A   1      34.168  21.469  27.664  1.00  0.00    -0.275 OA
ATOM      5  H   UNL A   1      36.245  21.004  26.961  1.00  0.00     0.163 HD
BRANCH   3   6
ATOM      6  C   UNL A   1      33.660  22.889  25.806  1.00  0.00     0.133 C 
ATOM      7  C   UNL A   1      34.566  23.947  25.172  1.00  0.00     0.024 C 
BRANCH   6   8
ATOM      8  C   UNL A   1      32.642  22.278  24.827  1.00  0.00     0.191 C 
ATOM      9  C   UNL A   1      33.278  22.266  23.420  1.00  0.00     0.076 C 
BRANCH   8  10
ATOM     10  N   UNL A   1      32.185  20.922  25.208  1.00  0.00    -0.340 N 
ATOM     11  H   UNL A   1      31.186  20.965  25.407  1.00  0.00     0.346 HD
ATOM     12  H   UNL A   1      32.736  20.644  26.020  1.00  0.00     0.346 HD
BRANCH  10  13
ATOM     13  C   UNL A   1      32.408  19.899  24.172  1.00  0.00     0.297 C 
BRANCH  13  14
ATOM     14  C   UNL A   1      33.165  18.688  24.670  1.00  0.00     0.009 A 
ATOM     15  C   UNL A   1      34.518  18.512  24.331  1.00  0.00     0.013 A 
ATOM     16  C   UNL A   1      32.489  17.656  25.345  1.00  0.00     0.052 A 
ATOM     17  C   UNL A   1      35.160  17.299  24.589  1.00  0.00     0.043 A 
ATOM     18  C   UNL A   1      33.133  16.445  25.582  1.00  0.00     0.159 A 
ATOM     19  C   UNL A   1      34.454  16.262  25.192  1.00  0.00     0.158 A 
ATOM     20  F   UNL A   1      32.443  15.435  26.129  1.00  0.00    -0.204 F 
ATOM     21  F   UNL A   1      35.051  15.075  25.366  1.00  0.00    -0.204 F 
ENDBRANCH  13  14
ENDBRANCH  10  13
ENDBRANCH   8  10
ENDBRANCH   6   8
ENDBRANCH   3   6
ENDBRANCH   1   2
BRANCH   1  22
ATOM     22  C   UNL A   1      37.697  20.439  24.999  1.00  0.00     0.042 C 
BRANCH  22  23
ATOM     23  C   UNL A   1      38.963  20.741  25.795  1.00  0.00     0.118 C 
BRANCH  23  24
ATOM     24  N   UNL A   1      39.873  19.603  25.865  1.00  0.00    -0.352 N 
ATOM     25  C   UNL A   1      41.233  19.550  26.064  1.00  0.00     0.251 C 
ATOM     26  H   UNL A   1      39.441  18.725  25.750  1.00  0.00     0.163 HD
ATOM     27  O   UNL A   1      41.826  18.489  25.930  1.00  0.00    -0.269 OA
BRANCH  25  28
ATOM     28  C   UNL A   1      41.989  20.775  26.405  1.00  0.00     0.039 A 
ATOM     29  C   UNL A   1      42.451  21.589  25.367  1.00  0.00     0.014 A 
ATOM     30  C   UNL A   1      42.237  21.130  27.732  1.00  0.00     0.014 A 
ATOM     31  C   UNL A   1      43.063  22.811  25.661  1.00  0.00     0.010 A 
ATOM     32  C   UNL A   1      42.776  22.380  28.025  1.00  0.00     0.010 A 
ATOM     33  C   UNL A   1      43.170  23.244  26.992  1.00  0.00    -0.014 A 
BRANCH  33  34
ATOM     34  C   UNL A   1      43.618  24.622  27.324  1.00  0.00     0.031 A 
ATOM     35  C   UNL A   1      42.634  25.651  27.804  1.00  0.00     0.074 A 
ATOM     36  C   UNL A   1      44.899  24.969  27.089  1.00  0.00     0.049 A 
ATOM     37  N   UNL A   1      42.818  26.929  28.022  1.00  0.00    -0.248 NA
ATOM     38  C   UNL A   1      41.258  25.193  28.049  1.00  0.00     0.031 C 
ATOM     39  C   UNL A   1      45.938  24.072  26.575  1.00  0.00     0.029 A 
ATOM     40  N   UNL A   1      45.544  26.174  27.225  1.00  0.00    -0.354 N 
ATOM     41  C   UNL A   1      41.582  27.429  28.409  1.00  0.00     0.074 A 
ATOM     42  C   UNL A   1      40.646  26.327  28.366  1.00  0.00     0.031 C 
ATOM     43  C   UNL A   1      47.086  24.754  26.445  1.00  0.00     0.029 A 
ATOM     44  C   UNL A   1      46.857  26.146  26.817  1.00  0.00     0.049 A 
ATOM     45  H   UNL A   1      45.108  26.982  27.581  1.00  0.00     0.167 HD
ATOM     46  C   UNL A   1      41.265  28.692  28.779  1.00  0.00     0.037 A 
ATOM     47  C   UNL A   1      47.767  27.135  26.724  1.00  0.00     0.037 A 
ATOM     48  C   UNL A   1      42.208  29.777  28.857  1.00  0.00     0.049 A 
ATOM     49  C   UNL A   1      47.374  28.532  27.124  1.00  0.00     0.074 A 
ATOM     50  C   UNL A   1      42.002  31.063  29.325  1.00  0.00     0.029 A 
ATOM     51  N   UNL A   1      43.530  29.708  28.448  1.00  0.00    -0.354 N 
ATOM     52  N   UNL A   1      46.228  28.969  27.585  1.00  0.00    -0.248 NA
ATOM     53  C   UNL A   1      48.400  29.576  26.986  1.00  0.00     0.031 C 
ATOM     54  C   UNL A   1      43.182  31.790  29.142  1.00  0.00     0.029 A 
ATOM     55  C   UNL A   1      44.138  30.942  28.609  1.00  0.00     0.049 A 
ATOM     56  H   UNL A   1      43.971  28.901  28.095  1.00  0.00     0.167 HD
ATOM     57  C   UNL A   1      46.400  30.327  27.810  1.00  0.00     0.074 A 
ATOM     58  C   UNL A   1      47.769  30.640  27.459  1.00  0.00     0.031 C 
ATOM     59  C   UNL A   1      45.502  31.238  28.257  1.00  0.00     0.037 A 
BRANCH  46  60
ATOM     60  C   UNL A   1      39.839  28.991  29.138  1.00  0.00     0.064 A 
ATOM     61  C   UNL A   1      38.904  29.384  28.171  1.00  0.00     0.173 A 
ATOM     62  C   UNL A   1      39.382  28.779  30.448  1.00  0.00     0.173 A 
ATOM     63  F   UNL A   1      39.293  29.606  26.906  1.00  0.00    -0.203 F 
ATOM     64  C   UNL A   1      37.563  29.562  28.503  1.00  0.00     0.198 A 
ATOM     65  C   UNL A   1      38.036  28.932  30.770  1.00  0.00     0.198 A 
ATOM     66  F   UNL A   1      40.235  28.394  31.408  1.00  0.00    -0.203 F 
ATOM     67  F   UNL A   1      36.690  29.958  27.567  1.00  0.00    -0.200 F 
ATOM     68  C   UNL A   1      37.128  29.325  29.798  1.00  0.00     0.200 A 
ATOM     69  F   UNL A   1      37.616  28.687  32.020  1.00  0.00    -0.200 F 
ATOM     70  F   UNL A   1      35.833  29.472  30.110  1.00  0.00    -0.200 F 
ENDBRANCH  46  60
BRANCH  47  71
ATOM     71  C   UNL A   1      49.134  26.855  26.208  1.00  0.00     0.064 A 
ATOM     72  C   UNL A   1      49.443  27.030  24.852  1.00  0.00     0.173 A 
ATOM     73  C   UNL A   1      50.145  26.366  27.048  1.00  0.00     0.173 A 
ATOM     74  F   UNL A   1      48.504  27.474  24.003  1.00  0.00    -0.203 F 
ATOM     75  C   UNL A   1      50.699  26.693  24.349  1.00  0.00     0.198 A 
ATOM     76  C   UNL A   1      51.412  26.062  26.551  1.00  0.00     0.198 A 
ATOM     77  F   UNL A   1      49.905  26.183  28.355  1.00  0.00    -0.203 F 
ATOM     78  F   UNL A   1      50.945  26.809  23.037  1.00  0.00    -0.200 F 
ATOM     79  C   UNL A   1      51.683  26.213  25.200  1.00  0.00     0.200 A 
ATOM     80  F   UNL A   1      52.364  25.613  27.380  1.00  0.00    -0.200 F 
ATOM     81  F   UNL A   1      52.888  25.883  24.716  1.00  0.00    -0.200 F 
ENDBRANCH  47  71
BRANCH  59  82
ATOM     82  C   UNL A   1      45.972  32.655  28.405  1.00  0.00     0.064 A 
ATOM     83  C   UNL A   1      45.819  33.587  27.368  1.00  0.00     0.173 A 
ATOM     84  C   UNL A   1      46.536  33.099  29.611  1.00  0.00     0.173 A 
ATOM     85  F   UNL A   1      45.301  33.207  26.189  1.00  0.00    -0.203 F 
ATOM     86  C   UNL A   1      46.233  34.907  27.526  1.00  0.00     0.198 A 
ATOM     87  C   UNL A   1      46.919  34.426  29.775  1.00  0.00     0.198 A 
ATOM     88  F   UNL A   1      46.699  32.247  30.634  1.00  0.00    -0.203 F 
ATOM     89  F   UNL A   1      46.116  35.769  26.506  1.00  0.00    -0.200 F 
ATOM     90  C   UNL A   1      46.773  35.327  28.732  1.00  0.00     0.200 A 
ATOM     91  F   UNL A   1      47.428  34.835  30.946  1.00  0.00    -0.200 F 
ATOM     92  F   UNL A   1      47.159  36.602  28.886  1.00  0.00    -0.200 F 
ENDBRANCH  59  82
ENDBRANCH  33  34
ENDBRANCH  25  28
ENDBRANCH  23  24
ENDBRANCH  22  23
ENDBRANCH   1  22
TORSDOF 14
ENDMDL
MODEL 2
REMARK VINA RESULT:     -12.0      1.040      2.088
REMARK SMILES C[C@H](C(=O)NCCCNC(=O)c1ccc(-c2c3nc(c(-c4c(F)c(F)c(F)c(F)c4F)c4ccc([nH]4)c(-c4c(F)c(F)c(F)c(F)c4F)c4nc(c(-c5c(F)c(F)c(F)c(F)c5F)c5ccc2[nH]5)C=C4)C=C3)cc1)[C@@H](C)[NH2+]Cc1ccc(F)c(F)c1
REMARK SMILES IDX 6 1 5 2 3 3 4 4 2 6 1 7 75 8 76 9 77 10 78 13 79 14 80 15
REMARK SMILES IDX 86 16 81 17 84 18 82 19 85 20 83 21 7 22 8 23 9 24 10 25
REMARK SMILES IDX 11 27 12 28 13 29 74 30 14 31 73 32 15 33 16 34 17 35 67 36
REMARK SMILES IDX 18 37 72 38 66 39 68 40 19 41 71 42 65 43 64 44 20 46 52 47
REMARK SMILES IDX 32 48 51 49 33 50 36 51 50 52 69 53 34 54 35 55 49 57 70 58
REMARK SMILES IDX 37 59 21 60 22 61 30 62 23 63 24 64 28 65 31 66 25 67 26 68
REMARK SMILES IDX 29 69 27 70 53 71 54 72 62 73 55 74 56 75 60 76 63 77 57 78
REMARK SMILES IDX 58 79 61 80 59 81 38 82 39 83 47 84 40 85 41 86 45 87 48 88
REMARK SMILES IDX 42 89 43 90 46 91 44 92
REMARK H PARENT 5 5 77 11 77 12 9 26 68 45 36 56
REMARK Flexibility Score: inf
ROOT
ATOM      1  C   UNL A   1      37.414  21.335  24.368  1.00  0.00     0.117 C 
ENDROOT
BRANCH   1   2
ATOM      2  N   UNL A   1      37.771  22.524  25.133  1.00  0.00    -0.356 N 
ATOM      3  C   UNL A   1      37.131  23.431  25.913  1.00  0.00     0.228 C 
ATOM      4  O   UNL A   1      37.886  24.214  26.508  1.00  0.00    -0.275 OA
ATOM      5  H   UNL A   1      38.733  22.720  25.067  1.00  0.00     0.163 HD
BRANCH   3   6
ATOM      6  C   UNL A   1      35.610  23.622  26.069  1.00  0.00     0.133 C 
ATOM      7  C   UNL A   1      35.135  24.497  24.906  1.00  0.00     0.024 C 
BRANCH   6   8
ATOM      8  C   UNL A   1      34.768  22.350  26.271  1.00  0.00     0.191 C 
ATOM      9  C   UNL A   1      33.875  22.559  27.514  1.00  0.00     0.076 C 
BRANCH   8  10
ATOM     10  N   UNL A   1      33.950  21.981  25.093  1.00  0.00    -0.340 N 
ATOM     11  H   UNL A   1      34.504  21.367  24.498  1.00  0.00     0.346 HD
ATOM     12  H   UNL A   1      33.694  22.853  24.629  1.00  0.00     0.346 HD
BRANCH  10  13
ATOM     13  C   UNL A   1      32.691  21.292  25.427  1.00  0.00     0.297 C 
BRANCH  13  14
ATOM     14  C   UNL A   1      32.635  19.862  24.936  1.00  0.00     0.009 A 
ATOM     15  C   UNL A   1      32.904  18.801  25.817  1.00  0.00     0.013 A 
ATOM     16  C   UNL A   1      32.463  19.589  23.566  1.00  0.00     0.052 A 
ATOM     17  C   UNL A   1      33.080  17.504  25.328  1.00  0.00     0.043 A 
ATOM     18  C   UNL A   1      32.656  18.296  23.089  1.00  0.00     0.159 A 
ATOM     19  C   UNL A   1      32.978  17.264  23.961  1.00  0.00     0.158 A 
ATOM     20  F   UNL A   1      32.596  18.071  21.769  1.00  0.00    -0.204 F 
ATOM     21  F   UNL A   1      33.225  16.034  23.491  1.00  0.00    -0.204 F 
ENDBRANCH  13  14
ENDBRANCH  10  13
ENDBRANCH   8  10
ENDBRANCH   6   8
ENDBRANCH   3   6
ENDBRANCH   1   2
BRANCH   1  22
ATOM     22  C   UNL A   1      37.942  20.050  24.994  1.00  0.00     0.042 C 
BRANCH  22  23
ATOM     23  C   UNL A   1      39.125  20.270  25.931  1.00  0.00     0.118 C 
BRANCH  23  24
ATOM     24  N   UNL A   1      40.096  19.182  25.882  1.00  0.00    -0.352 N 
ATOM     25  C   UNL A   1      41.466  19.193  26.005  1.00  0.00     0.251 C 
ATOM     26  H   UNL A   1      39.705  18.290  25.736  1.00  0.00     0.163 HD
ATOM     27  O   UNL A   1      42.105  18.177  25.774  1.00  0.00    -0.269 OA
BRANCH  25  28
ATOM     28  C   UNL A   1      42.175  20.437  26.381  1.00  0.00     0.039 A 
ATOM     29  C   UNL A   1      42.801  21.181  25.377  1.00  0.00     0.014 A 
ATOM     30  C   UNL A   1      42.220  20.875  27.705  1.00  0.00     0.014 A 
ATOM     31  C   UNL A   1      43.375  22.418  25.684  1.00  0.00     0.010 A 
ATOM     32  C   UNL A   1      42.721  22.141  27.998  1.00  0.00     0.010 A 
ATOM     33  C   UNL A   1      43.280  22.936  26.986  1.00  0.00    -0.014 A 
BRANCH  33  34
ATOM     34  C   UNL A   1      43.687  24.331  27.296  1.00  0.00     0.031 A 
ATOM     35  C   UNL A   1      42.674  25.340  27.757  1.00  0.00     0.074 A 
ATOM     36  C   UNL A   1      44.959  24.711  27.056  1.00  0.00     0.049 A 
ATOM     37  N   UNL A   1      42.820  26.626  27.954  1.00  0.00    -0.248 NA
ATOM     38  C   UNL A   1      41.310  24.846  28.008  1.00  0.00     0.031 C 
ATOM     39  C   UNL A   1      46.024  23.837  26.559  1.00  0.00     0.029 A 
ATOM     40  N   UNL A   1      45.568  25.937  27.173  1.00  0.00    -0.354 N 
ATOM     41  C   UNL A   1      41.569  27.096  28.331  1.00  0.00     0.074 A 
ATOM     42  C   UNL A   1      40.666  25.967  28.305  1.00  0.00     0.031 C 
ATOM     43  C   UNL A   1      47.152  24.549  26.419  1.00  0.00     0.029 A 
ATOM     44  C   UNL A   1      46.882  25.940  26.767  1.00  0.00     0.049 A 
ATOM     45  H   UNL A   1      45.109  26.737  27.515  1.00  0.00     0.167 HD
ATOM     46  C   UNL A   1      41.215  28.355  28.679  1.00  0.00     0.037 A 
ATOM     47  C   UNL A   1      47.764  26.953  26.659  1.00  0.00     0.037 A 
ATOM     48  C   UNL A   1      42.127  29.469  28.740  1.00  0.00     0.049 A 
ATOM     49  C   UNL A   1      47.329  28.344  27.035  1.00  0.00     0.074 A 
ATOM     50  C   UNL A   1      41.883  30.756  29.186  1.00  0.00     0.029 A 
ATOM     51  N   UNL A   1      43.451  29.431  28.334  1.00  0.00    -0.354 N 
ATOM     52  N   UNL A   1      46.170  28.756  27.487  1.00  0.00    -0.248 NA
ATOM     53  C   UNL A   1      48.326  29.415  26.881  1.00  0.00     0.031 C 
ATOM     54  C   UNL A   1      43.042  31.513  28.992  1.00  0.00     0.029 A 
ATOM     55  C   UNL A   1      44.023  30.684  28.475  1.00  0.00     0.049 A 
ATOM     56  H   UNL A   1      43.916  28.631  27.995  1.00  0.00     0.167 HD
ATOM     57  C   UNL A   1      46.303  30.122  27.689  1.00  0.00     0.074 A 
ATOM     58  C   UNL A   1      47.663  30.468  27.335  1.00  0.00     0.031 C 
ATOM     59  C   UNL A   1      45.379  31.013  28.120  1.00  0.00     0.037 A 
BRANCH  46  60
ATOM     60  C   UNL A   1      39.781  28.619  29.032  1.00  0.00     0.064 A 
ATOM     61  C   UNL A   1      39.302  28.452  30.339  1.00  0.00     0.173 A 
ATOM     62  C   UNL A   1      38.903  29.145  28.071  1.00  0.00     0.173 A 
ATOM     63  F   UNL A   1      40.101  27.947  31.291  1.00  0.00    -0.203 F 
ATOM     64  C   UNL A   1      37.994  28.796  30.670  1.00  0.00     0.198 A 
ATOM     65  C   UNL A   1      37.604  29.512  28.413  1.00  0.00     0.198 A 
ATOM     66  F   UNL A   1      39.315  29.331  26.809  1.00  0.00    -0.203 F 
ATOM     67  F   UNL A   1      37.552  28.609  31.921  1.00  0.00    -0.200 F 
ATOM     68  C   UNL A   1      37.151  29.336  29.711  1.00  0.00     0.200 A 
ATOM     69  F   UNL A   1      36.795  30.048  27.487  1.00  0.00    -0.200 F 
ATOM     70  F   UNL A   1      35.900  29.689  30.039  1.00  0.00    -0.200 F 
ENDBRANCH  46  60
BRANCH  47  71
ATOM     71  C   UNL A   1      49.139  26.704  26.149  1.00  0.00     0.064 A 
ATOM     72  C   UNL A   1      50.162  26.282  27.009  1.00  0.00     0.173 A 
ATOM     73  C   UNL A   1      49.469  26.925  24.804  1.00  0.00     0.173 A 
ATOM     74  F   UNL A   1      49.902  26.078  28.309  1.00  0.00    -0.203 F 
ATOM     75  C   UNL A   1      51.469  26.125  26.552  1.00  0.00     0.198 A 
ATOM     76  C   UNL A   1      50.769  26.734  24.340  1.00  0.00     0.198 A 
ATOM     77  F   UNL A   1      48.528  27.326  23.937  1.00  0.00    -0.203 F 
ATOM     78  F   UNL A   1      52.440  25.784  27.410  1.00  0.00    -0.200 F 
ATOM     79  C   UNL A   1      51.771  26.348  25.217  1.00  0.00     0.200 A 
ATOM     80  F   UNL A   1      51.053  26.936  23.046  1.00  0.00    -0.200 F 
ATOM     81  F   UNL A   1      53.029  26.203  24.778  1.00  0.00    -0.200 F 
ENDBRANCH  47  71
BRANCH  59  82
ATOM     82  C   UNL A   1      45.807  32.446  28.244  1.00  0.00     0.064 A 
ATOM     83  C   UNL A   1      45.627  33.356  27.193  1.00  0.00     0.173 A 
ATOM     84  C   UNL A   1      46.360  32.925  29.442  1.00  0.00     0.173 A 
ATOM     85  F   UNL A   1      45.119  32.943  26.022  1.00  0.00    -0.203 F 
ATOM     86  C   UNL A   1      46.001  34.690  27.329  1.00  0.00     0.198 A 
ATOM     87  C   UNL A   1      46.704  34.266  29.585  1.00  0.00     0.198 A 
ATOM     88  F   UNL A   1      46.548  32.095  30.479  1.00  0.00    -0.203 F 
ATOM     89  F   UNL A   1      45.859  35.533  26.297  1.00  0.00    -0.200 F 
ATOM     90  C   UNL A   1      46.530  35.146  28.528  1.00  0.00     0.200 A 
ATOM     91  F   UNL A   1      47.202  34.707  30.749  1.00  0.00    -0.200 F 
ATOM     92  F   UNL A   1      46.879  36.433  28.662  1.00  0.00    -0.200 F 
ENDBRANCH  59  82
ENDBRANCH  33  34
ENDBRANCH  25  28
ENDBRANCH  23  24
ENDBRANCH  22  23
ENDBRANCH   1  22
TORSDOF 14
ENDMDL
MODEL 3
REMARK VINA RESULT:     -12.0      6.852     12.143
REMARK SMILES C[C@H](C(=O)NCCCNC(=O)c1ccc(-c2c3nc(c(-c4c(F)c(F)c(F)c(F)c4F)c4ccc([nH]4)c(-c4c(F)c(F)c(F)c(F)c4F)c4nc(c(-c5c(F)c(F)c(F)c(F)c5F)c5ccc2[nH]5)C=C4)C=C3)cc1)[C@@H](C)[NH2+]Cc1ccc(F)c(F)c1
REMARK SMILES IDX 6 1 5 2 3 3 4 4 2 6 1 7 75 8 76 9 77 10 78 13 79 14 80 15
REMARK SMILES IDX 86 16 81 17 84 18 82 19 85 20 83 21 7 22 8 23 9 24 10 25
REMARK SMILES IDX 11 27 12 28 13 29 74 30 14 31 73 32 15 33 16 34 17 35 67 36
REMARK SMILES IDX 18 37 72 38 66 39 68 40 19 41 71 42 65 43 64 44 20 46 52 47
REMARK SMILES IDX 32 48 51 49 33 50 36 51 50 52 69 53 34 54 35 55 49 57 70 58
REMARK SMILES IDX 37 59 21 60 22 61 30 62 23 63 24 64 28 65 31 66 25 67 26 68
REMARK SMILES IDX 29 69 27 70 53 71 54 72 62 73 55 74 56 75 60 76 63 77 57 78
REMARK SMILES IDX 58 79 61 80 59 81 38 82 39 83 47 84 40 85 41 86 45 87 48 88
REMARK SMILES IDX 42 89 43 90 46 91 44 92
REMARK H PARENT 5 5 77 11 77 12 9 26 68 45 36 56
REMARK Flexibility Score: inf
ROOT
ATOM      1  C   UNL A   1      31.985  30.234  26.223  1.00  0.00     0.117 C 
ENDROOT
BRANCH   1   2
ATOM      2  N   UNL A   1      32.743  30.032  24.994  1.00  0.00    -0.356 N 
ATOM      3  C   UNL A   1      33.049  28.994  24.176  1.00  0.00     0.228 C 
ATOM      4  O   UNL A   1      33.612  29.325  23.121  1.00  0.00    -0.275 OA
ATOM      5  H   UNL A   1      33.137  30.874  24.670  1.00  0.00     0.163 HD
BRANCH   3   6
ATOM      6  C   UNL A   1      32.838  27.493  24.451  1.00  0.00     0.133 C 
ATOM      7  C   UNL A   1      33.297  27.220  25.886  1.00  0.00     0.024 C 
BRANCH   6   8
ATOM      8  C   UNL A   1      31.450  26.915  24.124  1.00  0.00     0.191 C 
ATOM      9  C   UNL A   1      30.650  26.816  25.442  1.00  0.00     0.076 C 
BRANCH   8  10
ATOM     10  N   UNL A   1      30.701  27.695  23.112  1.00  0.00    -0.340 N 
ATOM     11  H   UNL A   1      30.430  27.065  22.359  1.00  0.00     0.346 HD
ATOM     12  H   UNL A   1      31.322  28.441  22.798  1.00  0.00     0.346 HD
BRANCH  10  13
ATOM     13  C   UNL A   1      29.485  28.346  23.633  1.00  0.00     0.297 C 
BRANCH  13  14
ATOM     14  C   UNL A   1      29.216  29.703  23.022  1.00  0.00     0.009 A 
ATOM     15  C   UNL A   1      29.331  30.866  23.805  1.00  0.00     0.013 A 
ATOM     16  C   UNL A   1      28.705  29.805  21.716  1.00  0.00     0.052 A 
ATOM     17  C   UNL A   1      28.868  32.092  23.321  1.00  0.00     0.043 A 
ATOM     18  C   UNL A   1      28.233  31.029  21.250  1.00  0.00     0.159 A 
ATOM     19  C   UNL A   1      28.298  32.160  22.053  1.00  0.00     0.158 A 
ATOM     20  F   UNL A   1      27.650  31.088  20.045  1.00  0.00    -0.204 F 
ATOM     21  F   UNL A   1      27.785  33.322  21.626  1.00  0.00    -0.204 F 
ENDBRANCH  13  14
ENDBRANCH  10  13
ENDBRANCH   8  10
ENDBRANCH   6   8
ENDBRANCH   3   6
ENDBRANCH   1   2
BRANCH   1  22
ATOM     22  C   UNL A   1      31.678  31.701  26.493  1.00  0.00     0.042 C 
BRANCH  22  23
ATOM     23  C   UNL A   1      32.783  32.424  27.256  1.00  0.00     0.118 C 
BRANCH  23  24
ATOM     24  N   UNL A   1      32.464  33.823  27.523  1.00  0.00    -0.352 N 
ATOM     25  C   UNL A   1      33.012  34.715  28.416  1.00  0.00     0.251 C 
ATOM     26  H   UNL A   1      31.735  34.190  26.972  1.00  0.00     0.163 HD
ATOM     27  O   UNL A   1      32.485  35.805  28.586  1.00  0.00    -0.269 OA
BRANCH  25  28
ATOM     28  C   UNL A   1      34.215  34.351  29.197  1.00  0.00     0.039 A 
ATOM     29  C   UNL A   1      34.046  33.785  30.464  1.00  0.00     0.014 A 
ATOM     30  C   UNL A   1      35.499  34.555  28.691  1.00  0.00     0.014 A 
ATOM     31  C   UNL A   1      35.158  33.324  31.173  1.00  0.00     0.010 A 
ATOM     32  C   UNL A   1      36.599  34.026  29.360  1.00  0.00     0.010 A 
ATOM     33  C   UNL A   1      36.436  33.382  30.596  1.00  0.00    -0.014 A 
BRANCH  33  34
ATOM     34  C   UNL A   1      37.602  32.710  31.228  1.00  0.00     0.031 A 
ATOM     35  C   UNL A   1      38.260  31.534  30.564  1.00  0.00     0.074 A 
ATOM     36  C   UNL A   1      37.998  33.102  32.457  1.00  0.00     0.049 A 
ATOM     37  N   UNL A   1      39.203  30.750  31.022  1.00  0.00    -0.248 NA
ATOM     38  C   UNL A   1      37.782  31.175  29.220  1.00  0.00     0.031 C 
ATOM     39  C   UNL A   1      37.405  34.198  33.226  1.00  0.00     0.029 A 
ATOM     40  N   UNL A   1      38.974  32.608  33.287  1.00  0.00    -0.354 N 
ATOM     41  C   UNL A   1      39.416  29.797  30.034  1.00  0.00     0.074 A 
ATOM     42  C   UNL A   1      38.483  30.078  28.965  1.00  0.00     0.031 C 
ATOM     43  C   UNL A   1      38.030  34.297  34.410  1.00  0.00     0.029 A 
ATOM     44  C   UNL A   1      39.033  33.242  34.506  1.00  0.00     0.049 A 
ATOM     45  H   UNL A   1      39.574  31.870  33.035  1.00  0.00     0.167 HD
ATOM     46  C   UNL A   1      40.319  28.789  30.021  1.00  0.00     0.037 A 
ATOM     47  C   UNL A   1      39.790  32.986  35.591  1.00  0.00     0.037 A 
ATOM     48  C   UNL A   1      41.271  28.535  31.071  1.00  0.00     0.049 A 
ATOM     49  C   UNL A   1      40.768  31.843  35.548  1.00  0.00     0.074 A 
ATOM     50  C   UNL A   1      42.295  27.605  31.097  1.00  0.00     0.029 A 
ATOM     51  N   UNL A   1      41.309  29.206  32.283  1.00  0.00    -0.354 N 
ATOM     52  N   UNL A   1      41.029  31.013  34.568  1.00  0.00    -0.248 NA
ATOM     53  C   UNL A   1      41.556  31.597  36.766  1.00  0.00     0.031 C 
ATOM     54  C   UNL A   1      42.915  27.670  32.349  1.00  0.00     0.029 A 
ATOM     55  C   UNL A   1      42.310  28.677  33.082  1.00  0.00     0.049 A 
ATOM     56  H   UNL A   1      40.713  29.947  32.538  1.00  0.00     0.167 HD
ATOM     57  C   UNL A   1      42.020  30.164  35.041  1.00  0.00     0.074 A 
ATOM     58  C   UNL A   1      42.333  30.593  36.388  1.00  0.00     0.031 C 
ATOM     59  C   UNL A   1      42.611  29.116  34.420  1.00  0.00     0.037 A 
BRANCH  46  60
ATOM     60  C   UNL A   1      40.341  27.870  28.835  1.00  0.00     0.064 A 
ATOM     61  C   UNL A   1      41.088  28.169  27.687  1.00  0.00     0.173 A 
ATOM     62  C   UNL A   1      39.690  26.628  28.891  1.00  0.00     0.173 A 
ATOM     63  F   UNL A   1      41.723  29.346  27.582  1.00  0.00    -0.203 F 
ATOM     64  C   UNL A   1      41.177  27.260  26.635  1.00  0.00     0.198 A 
ATOM     65  C   UNL A   1      39.803  25.712  27.849  1.00  0.00     0.198 A 
ATOM     66  F   UNL A   1      38.969  26.291  29.971  1.00  0.00    -0.203 F 
ATOM     67  F   UNL A   1      41.881  27.575  25.539  1.00  0.00    -0.200 F 
ATOM     68  C   UNL A   1      40.545  26.029  26.722  1.00  0.00     0.200 A 
ATOM     69  F   UNL A   1      39.204  24.516  27.942  1.00  0.00    -0.200 F 
ATOM     70  F   UNL A   1      40.654  25.146  25.720  1.00  0.00    -0.200 F 
ENDBRANCH  46  60
BRANCH  47  71
ATOM     71  C   UNL A   1      39.640  33.805  36.824  1.00  0.00     0.064 A 
ATOM     72  C   UNL A   1      38.801  33.391  37.868  1.00  0.00     0.173 A 
ATOM     73  C   UNL A   1      40.295  35.037  36.966  1.00  0.00     0.173 A 
ATOM     74  F   UNL A   1      38.135  32.230  37.771  1.00  0.00    -0.203 F 
ATOM     75  C   UNL A   1      38.597  34.192  38.990  1.00  0.00     0.198 A 
ATOM     76  C   UNL A   1      40.117  35.823  38.103  1.00  0.00     0.198 A 
ATOM     77  F   UNL A   1      41.112  35.480  35.999  1.00  0.00    -0.203 F 
ATOM     78  F   UNL A   1      37.739  33.801  39.942  1.00  0.00    -0.200 F 
ATOM     79  C   UNL A   1      39.257  35.406  39.108  1.00  0.00     0.200 A 
ATOM     80  F   UNL A   1      40.769  36.987  38.219  1.00  0.00    -0.200 F 
ATOM     81  F   UNL A   1      39.055  36.180  40.183  1.00  0.00    -0.200 F 
ENDBRANCH  47  71
BRANCH  59  82
ATOM     82  C   UNL A   1      43.663  28.366  35.182  1.00  0.00     0.064 A 
ATOM     83  C   UNL A   1      43.344  27.234  35.946  1.00  0.00     0.173 A 
ATOM     84  C   UNL A   1      45.010  28.754  35.111  1.00  0.00     0.173 A 
ATOM     85  F   UNL A   1      42.068  26.833  36.060  1.00  0.00    -0.203 F 
ATOM     86  C   UNL A   1      44.333  26.529  36.627  1.00  0.00     0.198 A 
ATOM     87  C   UNL A   1      45.999  28.028  35.768  1.00  0.00     0.198 A 
ATOM     88  F   UNL A   1      45.367  29.827  34.390  1.00  0.00    -0.203 F 
ATOM     89  F   UNL A   1      44.000  25.475  37.386  1.00  0.00    -0.200 F 
ATOM     90  C   UNL A   1      45.660  26.920  36.529  1.00  0.00     0.200 A 
ATOM     91  F   UNL A   1      47.283  28.400  35.661  1.00  0.00    -0.200 F 
ATOM     92  F   UNL A   1      46.612  26.233  37.175  1.00  0.00    -0.200 F 
ENDBRANCH  59  82
ENDBRANCH  33  34
ENDBRANCH  25  28
ENDBRANCH  23  24
ENDBRANCH  22  23
ENDBRANCH   1  22
TORSDOF 14
ENDMDL
