MODEL 1
REMARK VINA RESULT:     -13.8      0.000      0.000
REMARK SMILES C[C@@H]1Cc2ccccc2N1S(=O)(=O)c1cccc(C(=O)NCCCNC(=O)c2ccc(-c3c4nc(c(-c5c(F)c(F)c(F)c(F)c5F)c5ccc([nH]5)c(-c5c(F)c(F)c(F)c(F)c5F)c5nc(c(-c6c(F)c(F)c(F)c(F)c6F)c6ccc3[nH]6)C=C5)C=C4)cc2)c1
REMARK SMILES IDX 23 1 22 2 21 3 19 4 20 5 18 7 14 8 15 9 91 10 16 11 17 12
REMARK SMILES IDX 11 13 12 14 13 15 10 16 1 17 2 18 3 19 4 20 9 21 5 22 8 23
REMARK SMILES IDX 6 24 7 25 24 26 25 27 26 28 27 30 28 31 29 32 90 33 30 34
REMARK SMILES IDX 89 35 31 36 32 37 33 38 83 39 34 40 88 41 82 42 84 43 35 44
REMARK SMILES IDX 87 45 81 46 80 47 36 49 68 50 48 51 67 52 49 53 52 54 66 55
REMARK SMILES IDX 85 56 50 57 51 58 65 60 86 61 53 62 37 63 38 64 46 65 39 66
REMARK SMILES IDX 40 67 44 68 47 69 41 70 42 71 45 72 43 73 69 74 70 75 78 76
REMARK SMILES IDX 71 77 72 78 76 79 79 80 73 81 74 82 77 83 75 84 54 85 55 86
REMARK SMILES IDX 63 87 56 88 57 89 61 90 64 91 58 92 59 93 62 94 60 95
REMARK H PARENT 21 6 25 29 84 48 52 59
REMARK Flexibility Score: inf
ROOT
ATOM      1  C   UNL A   1      31.779  29.116  27.136  1.00  0.00     0.042 C 
ENDROOT
BRANCH   1   2
ATOM      2  C   UNL A   1      32.128  27.655  26.876  1.00  0.00     0.118 C 
BRANCH   2   3
ATOM      3  N   UNL A   1      31.015  26.716  27.015  1.00  0.00    -0.352 N 
ATOM      4  C   UNL A   1      30.360  25.891  26.126  1.00  0.00     0.251 C 
ATOM      5  O   UNL A   1      29.439  25.197  26.558  1.00  0.00    -0.269 OA
ATOM      6  H   UNL A   1      30.661  26.662  27.933  1.00  0.00     0.163 HD
BRANCH   4   7
ATOM      7  C   UNL A   1      30.664  25.850  24.669  1.00  0.00     0.041 A 
ATOM      8  C   UNL A   1      32.021  25.088  22.828  1.00  0.00     0.088 A 
ATOM      9  C   UNL A   1      31.515  26.077  21.986  1.00  0.00     0.022 A 
ATOM     10  C   UNL A   1      31.490  24.891  24.106  1.00  0.00     0.036 A 
ATOM     11  C   UNL A   1      30.545  26.947  22.490  1.00  0.00     0.002 A 
ATOM     12  C   UNL A   1      30.157  26.862  23.837  1.00  0.00     0.014 A 
BRANCH   8  13
ATOM     13  S   UNL A   1      33.553  24.256  22.485  1.00  0.00     0.264 S 
ATOM     14  O   UNL A   1      34.597  25.238  22.626  1.00  0.00    -0.201 OA
ATOM     15  O   UNL A   1      33.362  23.559  21.218  1.00  0.00    -0.201 OA
BRANCH  13  16
ATOM     16  N   UNL A   1      33.768  23.078  23.671  1.00  0.00    -0.263 N 
ATOM     17  C   UNL A   1      36.292  23.073  23.459  1.00  0.00     0.032 C 
ATOM     18  C   UNL A   1      35.089  23.094  24.409  1.00  0.00     0.101 C 
ATOM     19  C   UNL A   1      35.066  21.812  25.272  1.00  0.00     0.063 C 
ATOM     20  C   UNL A   1      34.054  20.967  24.560  1.00  0.00    -0.021 A 
ATOM     21  C   UNL A   1      33.378  21.698  23.577  1.00  0.00     0.055 A 
ATOM     22  C   UNL A   1      33.724  19.651  24.857  1.00  0.00     0.006 A 
ATOM     23  C   UNL A   1      32.366  21.090  22.856  1.00  0.00     0.027 A 
ATOM     24  C   UNL A   1      32.686  19.052  24.149  1.00  0.00     0.000 A 
ATOM     25  C   UNL A   1      32.015  19.765  23.149  1.00  0.00     0.002 A 
ENDBRANCH  13  16
ENDBRANCH   8  13
ENDBRANCH   4   7
ENDBRANCH   2   3
ENDBRANCH   1   2
BRANCH   1  26
ATOM     26  C   UNL A   1      32.341  30.118  26.140  1.00  0.00     0.118 C 
BRANCH  26  27
ATOM     27  N   UNL A   1      32.288  31.501  26.588  1.00  0.00    -0.352 N 
ATOM     28  C   UNL A   1      33.132  32.279  27.345  1.00  0.00     0.251 C 
ATOM     29  H   UNL A   1      31.481  31.979  26.288  1.00  0.00     0.163 HD
ATOM     30  O   UNL A   1      32.775  33.423  27.627  1.00  0.00    -0.269 OA
BRANCH  28  31
ATOM     31  C   UNL A   1      34.427  31.785  27.882  1.00  0.00     0.039 A 
ATOM     32  C   UNL A   1      34.658  30.450  28.201  1.00  0.00     0.014 A 
ATOM     33  C   UNL A   1      35.482  32.700  28.023  1.00  0.00     0.014 A 
ATOM     34  C   UNL A   1      35.839  30.073  28.842  1.00  0.00     0.010 A 
ATOM     35  C   UNL A   1      36.710  32.300  28.567  1.00  0.00     0.010 A 
ATOM     36  C   UNL A   1      36.879  30.993  29.042  1.00  0.00    -0.014 A 
BRANCH  36  37
ATOM     37  C   UNL A   1      38.107  30.565  29.770  1.00  0.00     0.031 A 
ATOM     38  C   UNL A   1      38.316  30.938  31.216  1.00  0.00     0.074 A 
ATOM     39  C   UNL A   1      39.006  29.768  29.156  1.00  0.00     0.049 A 
ATOM     40  N   UNL A   1      39.290  30.597  32.024  1.00  0.00    -0.248 NA
ATOM     41  C   UNL A   1      37.310  31.816  31.835  1.00  0.00     0.031 C 
ATOM     42  C   UNL A   1      38.937  29.343  27.757  1.00  0.00     0.029 A 
ATOM     43  N   UNL A   1      40.129  29.142  29.637  1.00  0.00    -0.354 N 
ATOM     44  C   UNL A   1      39.031  31.239  33.228  1.00  0.00     0.074 A 
ATOM     45  C   UNL A   1      37.819  32.008  33.045  1.00  0.00     0.031 C 
ATOM     46  C   UNL A   1      39.924  28.467  27.515  1.00  0.00     0.029 A 
ATOM     47  C   UNL A   1      40.727  28.308  28.724  1.00  0.00     0.049 A 
ATOM     48  H   UNL A   1      40.473  29.278  30.550  1.00  0.00     0.167 HD
ATOM     49  C   UNL A   1      39.728  31.183  34.387  1.00  0.00     0.037 A 
ATOM     50  C   UNL A   1      41.797  27.498  28.844  1.00  0.00     0.037 A 
ATOM     51  C   UNL A   1      40.899  30.376  34.601  1.00  0.00     0.049 A 
ATOM     52  C   UNL A   1      42.539  27.437  30.148  1.00  0.00     0.074 A 
ATOM     53  C   UNL A   1      41.636  30.217  35.762  1.00  0.00     0.029 A 
ATOM     54  N   UNL A   1      41.497  29.583  33.635  1.00  0.00    -0.354 N 
ATOM     55  N   UNL A   1      42.272  28.042  31.278  1.00  0.00    -0.248 NA
ATOM     56  C   UNL A   1      43.741  26.591  30.188  1.00  0.00     0.031 C 
ATOM     57  C   UNL A   1      42.697  29.345  35.492  1.00  0.00     0.029 A 
ATOM     58  C   UNL A   1      42.604  28.943  34.170  1.00  0.00     0.049 A 
ATOM     59  H   UNL A   1      41.182  29.487  32.707  1.00  0.00     0.167 HD
ATOM     60  C   UNL A   1      43.273  27.662  32.159  1.00  0.00     0.074 A 
ATOM     61  C   UNL A   1      44.139  26.747  31.445  1.00  0.00     0.031 C 
ATOM     62  C   UNL A   1      43.462  28.046  33.443  1.00  0.00     0.037 A 
BRANCH  49  63
ATOM     63  C   UNL A   1      39.245  32.019  35.533  1.00  0.00     0.064 A 
ATOM     64  C   UNL A   1      38.410  31.489  36.525  1.00  0.00     0.173 A 
ATOM     65  C   UNL A   1      39.682  33.344  35.676  1.00  0.00     0.173 A 
ATOM     66  F   UNL A   1      37.959  30.229  36.426  1.00  0.00    -0.203 F 
ATOM     67  C   UNL A   1      38.020  32.260  37.618  1.00  0.00     0.198 A 
ATOM     68  C   UNL A   1      39.306  34.106  36.779  1.00  0.00     0.198 A 
ATOM     69  F   UNL A   1      40.488  33.893  34.755  1.00  0.00    -0.203 F 
ATOM     70  F   UNL A   1      37.202  31.741  38.544  1.00  0.00    -0.200 F 
ATOM     71  C   UNL A   1      38.475  33.564  37.748  1.00  0.00     0.200 A 
ATOM     72  F   UNL A   1      39.753  35.363  36.909  1.00  0.00    -0.200 F 
ATOM     73  F   UNL A   1      38.109  34.300  38.807  1.00  0.00    -0.200 F 
ENDBRANCH  49  63
BRANCH  50  74
ATOM     74  C   UNL A   1      42.218  26.666  27.690  1.00  0.00     0.064 A 
ATOM     75  C   UNL A   1      43.194  27.124  26.795  1.00  0.00     0.173 A 
ATOM     76  C   UNL A   1      41.675  25.392  27.473  1.00  0.00     0.173 A 
ATOM     77  F   UNL A   1      43.725  28.346  26.951  1.00  0.00    -0.203 F 
ATOM     78  C   UNL A   1      43.610  26.338  25.724  1.00  0.00     0.198 A 
ATOM     79  C   UNL A   1      42.107  24.599  26.414  1.00  0.00     0.198 A 
ATOM     80  F   UNL A   1      40.737  24.913  28.304  1.00  0.00    -0.203 F 
ATOM     81  F   UNL A   1      44.529  26.807  24.868  1.00  0.00    -0.200 F 
ATOM     82  C   UNL A   1      43.073  25.073  25.539  1.00  0.00     0.200 A 
ATOM     83  F   UNL A   1      41.593  23.373  26.245  1.00  0.00    -0.200 F 
ATOM     84  F   UNL A   1      43.482  24.311  24.514  1.00  0.00    -0.200 F 
ENDBRANCH  50  74
BRANCH  62  85
ATOM     85  C   UNL A   1      44.658  27.499  34.157  1.00  0.00     0.064 A 
ATOM     86  C   UNL A   1      45.867  28.210  34.189  1.00  0.00     0.173 A 
ATOM     87  C   UNL A   1      44.580  26.293  34.867  1.00  0.00     0.173 A 
ATOM     88  F   UNL A   1      45.989  29.362  33.514  1.00  0.00    -0.203 F 
ATOM     89  C   UNL A   1      46.959  27.725  34.902  1.00  0.00     0.198 A 
ATOM     90  C   UNL A   1      45.669  25.820  35.593  1.00  0.00     0.198 A 
ATOM     91  F   UNL A   1      43.442  25.582  34.869  1.00  0.00    -0.203 F 
ATOM     92  F   UNL A   1      48.113  28.408  34.902  1.00  0.00    -0.200 F 
ATOM     93  C   UNL A   1      46.857  26.536  35.608  1.00  0.00     0.200 A 
ATOM     94  F   UNL A   1      45.569  24.675  36.281  1.00  0.00    -0.200 F 
ATOM     95  F   UNL A   1      47.908  26.077  36.303  1.00  0.00    -0.200 F 
ENDBRANCH  62  85
ENDBRANCH  36  37
ENDBRANCH  28  31
ENDBRANCH  26  27
ENDBRANCH   1  26
TORSDOF 12
ENDMDL
MODEL 2
REMARK VINA RESULT:     -13.6      4.551      9.885
REMARK SMILES C[C@@H]1Cc2ccccc2N1S(=O)(=O)c1cccc(C(=O)NCCCNC(=O)c2ccc(-c3c4nc(c(-c5c(F)c(F)c(F)c(F)c5F)c5ccc([nH]5)c(-c5c(F)c(F)c(F)c(F)c5F)c5nc(c(-c6c(F)c(F)c(F)c(F)c6F)c6ccc3[nH]6)C=C5)C=C4)cc2)c1
REMARK SMILES IDX 23 1 22 2 21 3 19 4 20 5 18 7 14 8 15 9 91 10 16 11 17 12
REMARK SMILES IDX 11 13 12 14 13 15 10 16 1 17 2 18 3 19 4 20 9 21 5 22 8 23
REMARK SMILES IDX 6 24 7 25 24 26 25 27 26 28 27 30 28 31 29 32 90 33 30 34
REMARK SMILES IDX 89 35 31 36 32 37 33 38 83 39 34 40 88 41 82 42 84 43 35 44
REMARK SMILES IDX 87 45 81 46 80 47 36 49 68 50 48 51 67 52 49 53 52 54 66 55
REMARK SMILES IDX 85 56 50 57 51 58 65 60 86 61 53 62 37 63 38 64 46 65 39 66
REMARK SMILES IDX 40 67 44 68 47 69 41 70 42 71 45 72 43 73 69 74 70 75 78 76
REMARK SMILES IDX 71 77 72 78 76 79 79 80 73 81 74 82 77 83 75 84 54 85 55 86
REMARK SMILES IDX 63 87 56 88 57 89 61 90 64 91 58 92 59 93 62 94 60 95
REMARK H PARENT 21 6 25 29 84 48 52 59
REMARK Flexibility Score: inf
ROOT
ATOM      1  C   UNL A   1      38.031  19.617  24.971  1.00  0.00     0.042 C 
ENDROOT
BRANCH   1   2
ATOM      2  C   UNL A   1      36.954  20.689  24.849  1.00  0.00     0.118 C 
BRANCH   2   3
ATOM      3  N   UNL A   1      37.343  22.017  25.323  1.00  0.00    -0.352 N 
ATOM      4  C   UNL A   1      36.626  23.105  25.773  1.00  0.00     0.251 C 
ATOM      5  O   UNL A   1      37.256  24.106  26.115  1.00  0.00    -0.269 OA
ATOM      6  H   UNL A   1      38.317  22.164  25.321  1.00  0.00     0.163 HD
BRANCH   4   7
ATOM      7  C   UNL A   1      35.137  23.153  25.798  1.00  0.00     0.041 A 
ATOM      8  C   UNL A   1      33.043  23.860  24.837  1.00  0.00     0.088 A 
ATOM      9  C   UNL A   1      32.362  23.615  26.028  1.00  0.00     0.022 A 
ATOM     10  C   UNL A   1      34.383  23.492  24.686  1.00  0.00     0.036 A 
ATOM     11  C   UNL A   1      33.079  23.103  27.111  1.00  0.00     0.002 A 
ATOM     12  C   UNL A   1      34.467  22.917  27.010  1.00  0.00     0.014 A 
BRANCH   8  13
ATOM     13  S   UNL A   1      32.384  24.929  23.579  1.00  0.00     0.264 S 
ATOM     14  O   UNL A   1      31.275  24.229  22.983  1.00  0.00    -0.201 OA
ATOM     15  O   UNL A   1      33.519  25.345  22.764  1.00  0.00    -0.201 OA
BRANCH  13  16
ATOM     16  N   UNL A   1      31.791  26.308  24.345  1.00  0.00    -0.263 N 
ATOM     17  C   UNL A   1      31.151  27.451  22.177  1.00  0.00     0.032 C 
ATOM     18  C   UNL A   1      30.726  27.088  23.605  1.00  0.00     0.101 C 
ATOM     19  C   UNL A   1      30.529  28.369  24.446  1.00  0.00     0.063 C 
ATOM     20  C   UNL A   1      31.812  28.446  25.215  1.00  0.00    -0.021 A 
ATOM     21  C   UNL A   1      32.567  27.278  25.068  1.00  0.00     0.055 A 
ATOM     22  C   UNL A   1      32.210  29.480  26.052  1.00  0.00     0.006 A 
ATOM     23  C   UNL A   1      33.761  27.151  25.755  1.00  0.00     0.027 A 
ATOM     24  C   UNL A   1      33.398  29.336  26.764  1.00  0.00     0.000 A 
ATOM     25  C   UNL A   1      34.172  28.181  26.611  1.00  0.00     0.002 A 
ENDBRANCH  13  16
ENDBRANCH   8  13
ENDBRANCH   4   7
ENDBRANCH   2   3
ENDBRANCH   1   2
BRANCH   1  26
ATOM     26  C   UNL A   1      39.145  19.908  25.965  1.00  0.00     0.118 C 
BRANCH  26  27
ATOM     27  N   UNL A   1      40.336  19.093  25.786  1.00  0.00    -0.352 N 
ATOM     28  C   UNL A   1      41.677  19.329  25.977  1.00  0.00     0.251 C 
ATOM     29  H   UNL A   1      40.142  18.185  25.459  1.00  0.00     0.163 HD
ATOM     30  O   UNL A   1      42.475  18.447  25.661  1.00  0.00    -0.269 OA
BRANCH  28  31
ATOM     31  C   UNL A   1      42.208  20.616  26.495  1.00  0.00     0.039 A 
ATOM     32  C   UNL A   1      42.273  20.921  27.852  1.00  0.00     0.014 A 
ATOM     33  C   UNL A   1      42.717  21.546  25.575  1.00  0.00     0.014 A 
ATOM     34  C   UNL A   1      42.639  22.201  28.271  1.00  0.00     0.010 A 
ATOM     35  C   UNL A   1      43.188  22.795  26.003  1.00  0.00     0.010 A 
ATOM     36  C   UNL A   1      43.094  23.160  27.353  1.00  0.00    -0.014 A 
BRANCH  36  37
ATOM     37  C   UNL A   1      43.433  24.529  27.831  1.00  0.00     0.031 A 
ATOM     38  C   UNL A   1      44.864  25.005  27.856  1.00  0.00     0.074 A 
ATOM     39  C   UNL A   1      42.446  25.384  28.171  1.00  0.00     0.049 A 
ATOM     40  N   UNL A   1      45.336  26.185  28.176  1.00  0.00    -0.248 NA
ATOM     41  C   UNL A   1      45.902  24.031  27.483  1.00  0.00     0.031 C 
ATOM     42  C   UNL A   1      41.021  25.052  28.208  1.00  0.00     0.029 A 
ATOM     43  N   UNL A   1      42.485  26.714  28.511  1.00  0.00    -0.354 N 
ATOM     44  C   UNL A   1      46.717  26.085  28.074  1.00  0.00     0.074 A 
ATOM     45  C   UNL A   1      47.015  24.725  27.681  1.00  0.00     0.031 C 
ATOM     46  C   UNL A   1      40.318  26.164  28.473  1.00  0.00     0.029 A 
ATOM     47  C   UNL A   1      41.243  27.275  28.677  1.00  0.00     0.049 A 
ATOM     48  H   UNL A   1      43.324  27.216  28.625  1.00  0.00     0.167 HD
ATOM     49  C   UNL A   1      47.654  27.041  28.274  1.00  0.00     0.037 A 
ATOM     50  C   UNL A   1      40.882  28.543  28.955  1.00  0.00     0.037 A 
ATOM     51  C   UNL A   1      47.370  28.412  28.606  1.00  0.00     0.049 A 
ATOM     52  C   UNL A   1      41.942  29.590  29.150  1.00  0.00     0.074 A 
ATOM     53  C   UNL A   1      48.258  29.460  28.773  1.00  0.00     0.029 A 
ATOM     54  N   UNL A   1      46.100  28.925  28.811  1.00  0.00    -0.354 N 
ATOM     55  N   UNL A   1      43.241  29.478  29.038  1.00  0.00    -0.248 NA
ATOM     56  C   UNL A   1      41.483  30.935  29.525  1.00  0.00     0.031 C 
ATOM     57  C   UNL A   1      47.527  30.606  29.103  1.00  0.00     0.029 A 
ATOM     58  C   UNL A   1      46.182  30.274  29.117  1.00  0.00     0.049 A 
ATOM     59  H   UNL A   1      45.264  28.409  28.747  1.00  0.00     0.167 HD
ATOM     60  C   UNL A   1      43.757  30.730  29.337  1.00  0.00     0.074 A 
ATOM     61  C   UNL A   1      42.630  31.598  29.606  1.00  0.00     0.031 C 
ATOM     62  C   UNL A   1      45.052  31.121  29.394  1.00  0.00     0.037 A 
BRANCH  49  63
ATOM     63  C   UNL A   1      49.094  26.646  28.137  1.00  0.00     0.064 A 
ATOM     64  C   UNL A   1      49.757  26.713  26.904  1.00  0.00     0.173 A 
ATOM     65  C   UNL A   1      49.835  26.268  29.267  1.00  0.00     0.173 A 
ATOM     66  F   UNL A   1      49.087  27.061  25.796  1.00  0.00    -0.203 F 
ATOM     67  C   UNL A   1      51.112  26.403  26.805  1.00  0.00     0.198 A 
ATOM     68  C   UNL A   1      51.193  25.977  29.167  1.00  0.00     0.198 A 
ATOM     69  F   UNL A   1      49.245  26.197  30.469  1.00  0.00    -0.203 F 
ATOM     70  F   UNL A   1      51.722  26.451  25.612  1.00  0.00    -0.200 F 
ATOM     71  C   UNL A   1      51.829  26.044  27.936  1.00  0.00     0.200 A 
ATOM     72  F   UNL A   1      51.888  25.640  30.262  1.00  0.00    -0.200 F 
ATOM     73  F   UNL A   1      53.136  25.759  27.840  1.00  0.00    -0.200 F 
ENDBRANCH  49  63
BRANCH  50  74
ATOM     74  C   UNL A   1      39.443  28.891  29.051  1.00  0.00     0.064 A 
ATOM     75  C   UNL A   1      38.760  28.787  30.269  1.00  0.00     0.173 A 
ATOM     76  C   UNL A   1      38.731  29.356  27.936  1.00  0.00     0.173 A 
ATOM     77  F   UNL A   1      39.396  28.326  31.357  1.00  0.00    -0.203 F 
ATOM     78  C   UNL A   1      37.416  29.135  30.370  1.00  0.00     0.198 A 
ATOM     79  C   UNL A   1      37.393  29.723  28.043  1.00  0.00     0.198 A 
ATOM     80  F   UNL A   1      39.344  29.471  26.749  1.00  0.00    -0.203 F 
ATOM     81  F   UNL A   1      36.777  29.005  31.541  1.00  0.00    -0.200 F 
ATOM     82  C   UNL A   1      36.735  29.610  29.259  1.00  0.00     0.200 A 
ATOM     83  F   UNL A   1      36.741  30.193  26.970  1.00  0.00    -0.200 F 
ATOM     84  F   UNL A   1      35.444  29.956  29.359  1.00  0.00    -0.200 F 
ENDBRANCH  50  74
BRANCH  62  85
ATOM     85  C   UNL A   1      45.327  32.541  29.779  1.00  0.00     0.064 A 
ATOM     86  C   UNL A   1      45.581  32.890  31.113  1.00  0.00     0.173 A 
ATOM     87  C   UNL A   1      45.403  33.546  28.805  1.00  0.00     0.173 A 
ATOM     88  F   UNL A   1      45.506  31.963  32.079  1.00  0.00    -0.203 F 
ATOM     89  C   UNL A   1      45.892  34.201  31.460  1.00  0.00     0.198 A 
ATOM     90  C   UNL A   1      45.732  34.853  29.153  1.00  0.00     0.198 A 
ATOM     91  F   UNL A   1      45.173  33.257  27.515  1.00  0.00    -0.203 F 
ATOM     92  F   UNL A   1      46.109  34.520  32.743  1.00  0.00    -0.200 F 
ATOM     93  C   UNL A   1      45.975  35.179  30.479  1.00  0.00     0.200 A 
ATOM     94  F   UNL A   1      45.819  35.796  28.205  1.00  0.00    -0.200 F 
ATOM     95  F   UNL A   1      46.285  36.439  30.814  1.00  0.00    -0.200 F 
ENDBRANCH  62  85
ENDBRANCH  36  37
ENDBRANCH  28  31
ENDBRANCH  26  27
ENDBRANCH   1  26
TORSDOF 12
ENDMDL
MODEL 3
REMARK VINA RESULT:     -13.6      1.823      3.411
REMARK SMILES C[C@@H]1Cc2ccccc2N1S(=O)(=O)c1cccc(C(=O)NCCCNC(=O)c2ccc(-c3c4nc(c(-c5c(F)c(F)c(F)c(F)c5F)c5ccc([nH]5)c(-c5c(F)c(F)c(F)c(F)c5F)c5nc(c(-c6c(F)c(F)c(F)c(F)c6F)c6ccc3[nH]6)C=C5)C=C4)cc2)c1
REMARK SMILES IDX 23 1 22 2 21 3 19 4 20 5 18 7 14 8 15 9 91 10 16 11 17 12
REMARK SMILES IDX 11 13 12 14 13 15 10 16 1 17 2 18 3 19 4 20 9 21 5 22 8 23
REMARK SMILES IDX 6 24 7 25 24 26 25 27 26 28 27 30 28 31 29 32 90 33 30 34
REMARK SMILES IDX 89 35 31 36 32 37 33 38 83 39 34 40 88 41 82 42 84 43 35 44
REMARK SMILES IDX 87 45 81 46 80 47 36 49 68 50 48 51 67 52 49 53 52 54 66 55
REMARK SMILES IDX 85 56 50 57 51 58 65 60 86 61 53 62 37 63 38 64 46 65 39 66
REMARK SMILES IDX 40 67 44 68 47 69 41 70 42 71 45 72 43 73 69 74 70 75 78 76
REMARK SMILES IDX 71 77 72 78 76 79 79 80 73 81 74 82 77 83 75 84 54 85 55 86
REMARK SMILES IDX 63 87 56 88 57 89 61 90 64 91 58 92 59 93 62 94 60 95
REMARK H PARENT 21 6 25 29 84 48 52 59
REMARK Flexibility Score: inf
ROOT
ATOM      1  C   UNL A   1      31.400  32.148  26.611  1.00  0.00     0.042 C 
ENDROOT
BRANCH   1   2
ATOM      2  C   UNL A   1      31.603  30.664  26.327  1.00  0.00     0.118 C 
BRANCH   2   3
ATOM      3  N   UNL A   1      32.886  30.117  26.768  1.00  0.00    -0.352 N 
ATOM      4  C   UNL A   1      33.684  29.093  26.304  1.00  0.00     0.251 C 
ATOM      5  O   UNL A   1      34.737  28.870  26.902  1.00  0.00    -0.269 OA
ATOM      6  H   UNL A   1      33.255  30.574  27.558  1.00  0.00     0.163 HD
BRANCH   4   7
ATOM      7  C   UNL A   1      33.305  28.208  25.168  1.00  0.00     0.041 A 
ATOM      8  C   UNL A   1      32.370  26.150  24.332  1.00  0.00     0.088 A 
ATOM      9  C   UNL A   1      32.951  26.341  23.080  1.00  0.00     0.022 A 
ATOM     10  C   UNL A   1      32.427  27.145  25.311  1.00  0.00     0.036 A 
ATOM     11  C   UNL A   1      33.698  27.501  22.864  1.00  0.00     0.002 A 
ATOM     12  C   UNL A   1      33.911  28.406  23.916  1.00  0.00     0.014 A 
BRANCH   8  13
ATOM     13  S   UNL A   1      31.824  24.550  24.880  1.00  0.00     0.264 S 
ATOM     14  O   UNL A   1      30.611  24.258  24.159  1.00  0.00    -0.201 OA
ATOM     15  O   UNL A   1      31.822  24.600  26.338  1.00  0.00    -0.201 OA
BRANCH  13  16
ATOM     16  N   UNL A   1      32.996  23.429  24.424  1.00  0.00    -0.263 N 
ATOM     17  C   UNL A   1      31.774  21.465  25.457  1.00  0.00     0.032 C 
ATOM     18  C   UNL A   1      32.531  22.001  24.236  1.00  0.00     0.101 C 
ATOM     19  C   UNL A   1      33.831  21.196  24.016  1.00  0.00     0.063 C 
ATOM     20  C   UNL A   1      34.867  22.092  24.623  1.00  0.00    -0.021 A 
ATOM     21  C   UNL A   1      34.338  23.349  24.933  1.00  0.00     0.055 A 
ATOM     22  C   UNL A   1      36.213  21.796  24.794  1.00  0.00     0.006 A 
ATOM     23  C   UNL A   1      35.169  24.326  25.451  1.00  0.00     0.027 A 
ATOM     24  C   UNL A   1      37.052  22.791  25.288  1.00  0.00     0.000 A 
ATOM     25  C   UNL A   1      36.532  24.046  25.622  1.00  0.00     0.002 A 
ENDBRANCH  13  16
ENDBRANCH   8  13
ENDBRANCH   4   7
ENDBRANCH   2   3
ENDBRANCH   1   2
BRANCH   1  26
ATOM     26  C   UNL A   1      32.648  32.923  27.004  1.00  0.00     0.118 C 
BRANCH  26  27
ATOM     27  N   UNL A   1      32.382  34.199  27.649  1.00  0.00    -0.352 N 
ATOM     28  C   UNL A   1      33.000  34.888  28.666  1.00  0.00     0.251 C 
ATOM     29  H   UNL A   1      31.596  34.666  27.283  1.00  0.00     0.163 HD
ATOM     30  O   UNL A   1      32.488  35.938  29.054  1.00  0.00    -0.269 OA
BRANCH  28  31
ATOM     31  C   UNL A   1      34.224  34.397  29.350  1.00  0.00     0.039 A 
ATOM     32  C   UNL A   1      35.511  34.761  28.962  1.00  0.00     0.014 A 
ATOM     33  C   UNL A   1      34.072  33.571  30.475  1.00  0.00     0.014 A 
ATOM     34  C   UNL A   1      36.622  34.151  29.545  1.00  0.00     0.010 A 
ATOM     35  C   UNL A   1      35.191  33.042  31.133  1.00  0.00     0.010 A 
ATOM     36  C   UNL A   1      36.479  33.276  30.633  1.00  0.00    -0.014 A 
BRANCH  36  37
ATOM     37  C   UNL A   1      37.685  32.609  31.200  1.00  0.00     0.031 A 
ATOM     38  C   UNL A   1      38.153  32.923  32.598  1.00  0.00     0.074 A 
ATOM     39  C   UNL A   1      38.321  31.656  30.488  1.00  0.00     0.049 A 
ATOM     40  N   UNL A   1      39.140  32.390  33.278  1.00  0.00    -0.248 NA
ATOM     41  C   UNL A   1      37.430  33.976  33.329  1.00  0.00     0.031 C 
ATOM     42  C   UNL A   1      37.984  31.263  29.118  1.00  0.00     0.029 A 
ATOM     43  N   UNL A   1      39.353  30.818  30.828  1.00  0.00    -0.354 N 
ATOM     44  C   UNL A   1      39.173  33.061  34.493  1.00  0.00     0.074 A 
ATOM     45  C   UNL A   1      38.123  34.055  34.457  1.00  0.00     0.031 C 
ATOM     46  C   UNL A   1      38.740  30.213  28.764  1.00  0.00     0.029 A 
ATOM     47  C   UNL A   1      39.650  29.889  29.860  1.00  0.00     0.049 A 
ATOM     48  H   UNL A   1      39.835  30.876  31.685  1.00  0.00     0.167 HD
ATOM     49  C   UNL A   1      39.994  32.860  35.551  1.00  0.00     0.037 A 
ATOM     50  C   UNL A   1      40.546  28.884  29.853  1.00  0.00     0.037 A 
ATOM     51  C   UNL A   1      41.002  31.836  35.624  1.00  0.00     0.049 A 
ATOM     52  C   UNL A   1      41.429  28.668  31.048  1.00  0.00     0.074 A 
ATOM     53  C   UNL A   1      41.841  31.527  36.680  1.00  0.00     0.029 A 
ATOM     54  N   UNL A   1      41.300  30.949  34.602  1.00  0.00    -0.354 N 
ATOM     55  N   UNL A   1      41.438  29.305  32.192  1.00  0.00    -0.248 NA
ATOM     56  C   UNL A   1      42.437  27.603  30.945  1.00  0.00     0.031 C 
ATOM     57  C   UNL A   1      42.665  30.466  36.289  1.00  0.00     0.029 A 
ATOM     58  C   UNL A   1      42.321  30.101  34.999  1.00  0.00     0.049 A 
ATOM     59  H   UNL A   1      40.851  30.925  33.726  1.00  0.00     0.167 HD
ATOM     60  C   UNL A   1      42.453  28.729  32.940  1.00  0.00     0.074 A 
ATOM     61  C   UNL A   1      43.021  27.668  32.135  1.00  0.00     0.031 C 
ATOM     62  C   UNL A   1      42.882  29.058  34.181  1.00  0.00     0.037 A 
BRANCH  49  63
ATOM     63  C   UNL A   1      39.840  33.766  36.735  1.00  0.00     0.064 A 
ATOM     64  C   UNL A   1      40.478  35.012  36.791  1.00  0.00     0.173 A 
ATOM     65  C   UNL A   1      38.987  33.411  37.791  1.00  0.00     0.173 A 
ATOM     66  F   UNL A   1      41.310  35.390  35.809  1.00  0.00    -0.203 F 
ATOM     67  C   UNL A   1      40.274  35.871  37.869  1.00  0.00     0.198 A 
ATOM     68  C   UNL A   1      38.772  34.280  38.858  1.00  0.00     0.198 A 
ATOM     69  F   UNL A   1      38.350  32.231  37.778  1.00  0.00    -0.203 F 
ATOM     70  F   UNL A   1      40.911  37.049  37.914  1.00  0.00    -0.200 F 
ATOM     71  C   UNL A   1      39.416  35.507  38.897  1.00  0.00     0.200 A 
ATOM     72  F   UNL A   1      37.935  33.932  39.846  1.00  0.00    -0.200 F 
ATOM     73  F   UNL A   1      39.212  36.340  39.927  1.00  0.00    -0.200 F 
ENDBRANCH  49  63
BRANCH  50  74
ATOM     74  C   UNL A   1      40.640  27.995  28.668  1.00  0.00     0.064 A 
ATOM     75  C   UNL A   1      39.912  26.800  28.610  1.00  0.00     0.173 A 
ATOM     76  C   UNL A   1      41.437  28.333  27.565  1.00  0.00     0.173 A 
ATOM     77  F   UNL A   1      39.153  26.427  29.651  1.00  0.00    -0.203 F 
ATOM     78  C   UNL A   1      39.977  25.974  27.490  1.00  0.00     0.198 A 
ATOM     79  C   UNL A   1      41.486  27.517  26.439  1.00  0.00     0.198 A 
ATOM     80  F   UNL A   1      42.153  29.467  27.578  1.00  0.00    -0.203 F 
ATOM     81  F   UNL A   1      39.289  24.824  27.467  1.00  0.00    -0.200 F 
ATOM     82  C   UNL A   1      40.757  26.337  26.403  1.00  0.00     0.200 A 
ATOM     83  F   UNL A   1      42.232  27.876  25.385  1.00  0.00    -0.200 F 
ATOM     84  F   UNL A   1      40.811  25.547  25.321  1.00  0.00    -0.200 F 
ENDBRANCH  50  74
BRANCH  62  85
ATOM     85  C   UNL A   1      44.032  28.281  34.741  1.00  0.00     0.064 A 
ATOM     86  C   UNL A   1      43.822  27.076  35.428  1.00  0.00     0.173 A 
ATOM     87  C   UNL A   1      45.352  28.705  34.537  1.00  0.00     0.173 A 
ATOM     88  F   UNL A   1      42.575  26.639  35.657  1.00  0.00    -0.203 F 
ATOM     89  C   UNL A   1      44.896  26.327  35.898  1.00  0.00     0.198 A 
ATOM     90  C   UNL A   1      46.425  27.943  34.992  1.00  0.00     0.198 A 
ATOM     91  F   UNL A   1      45.601  29.849  33.881  1.00  0.00    -0.203 F 
ATOM     92  F   UNL A   1      44.674  25.189  36.571  1.00  0.00    -0.200 F 
ATOM     93  C   UNL A   1      46.195  26.757  35.673  1.00  0.00     0.200 A 
ATOM     94  F   UNL A   1      47.680  28.355  34.770  1.00  0.00    -0.200 F 
ATOM     95  F   UNL A   1      47.229  26.028  36.117  1.00  0.00    -0.200 F 
ENDBRANCH  62  85
ENDBRANCH  36  37
ENDBRANCH  28  31
ENDBRANCH  26  27
ENDBRANCH   1  26
TORSDOF 12
ENDMDL
