MODEL 1
REMARK VINA RESULT:     -11.4      0.000      0.000
REMARK SMILES CCCOc1cncc(N[C@@](C)(C(=O)NCCCNC(=O)c2ccc(-c3c4nc(c(-c5c(F)c(F)c(F)c(F)c5F)c5ccc([nH]5)c(-c5c(F)c(F)c(F)c(F)c5F)c5nc(c(-c6c(F)c(F)c(F)c(F)c6F)c6ccc3[nH]6)C=C5)C=C4)cc2)C(F)(F)F)n1
REMARK SMILES IDX 13 1 14 2 15 3 11 5 12 6 10 7 9 9 5 10 6 11 89 12 7 13 8 14
REMARK SMILES IDX 4 15 3 16 2 17 1 18 85 19 86 20 87 21 88 22 16 23 17 24
REMARK SMILES IDX 18 25 19 26 20 27 21 29 22 30 23 31 84 32 24 33 83 34 25 35
REMARK SMILES IDX 26 36 27 37 77 38 28 39 82 40 76 41 78 42 29 43 81 44 75 45
REMARK SMILES IDX 74 46 30 48 62 49 42 50 61 51 43 52 46 53 60 54 79 55 44 56
REMARK SMILES IDX 45 57 59 59 80 60 47 61 31 62 32 63 40 64 33 65 34 66 38 67
REMARK SMILES IDX 41 68 35 69 36 70 39 71 37 72 63 73 64 74 72 75 65 76 66 77
REMARK SMILES IDX 70 78 73 79 67 80 68 81 71 82 69 83 48 84 49 85 57 86 50 87
REMARK SMILES IDX 51 88 55 89 58 90 52 91 53 92 56 93 54 94
REMARK H PARENT 15 4 10 8 19 28 78 47 46 58
REMARK Flexibility Score: inf
ROOT
ATOM      1  C   UNL A   1      34.333  21.318  26.379  1.00  0.00     0.254 C 
ATOM      2  O   UNL A   1      33.963  21.434  27.553  1.00  0.00    -0.272 OA
ATOM      3  N   UNL A   1      35.686  21.357  26.223  1.00  0.00    -0.354 N 
ATOM      4  H   UNL A   1      36.173  21.384  27.078  1.00  0.00     0.163 HD
ENDROOT
BRANCH   1   5
ATOM      5  C   UNL A   1      33.336  21.223  25.191  1.00  0.00     0.211 C 
ATOM      6  C   UNL A   1      33.906  21.862  23.912  1.00  0.00     0.055 C 
BRANCH   5   7
ATOM      7  N   UNL A   1      32.083  21.925  25.611  1.00  0.00    -0.347 N 
ATOM      8  H   UNL A   1      31.522  21.387  26.214  1.00  0.00     0.163 HD
BRANCH   7   9
ATOM      9  C   UNL A   1      31.551  23.152  25.336  1.00  0.00     0.149 A 
ATOM     10  C   UNL A   1      31.199  25.298  26.112  1.00  0.00     0.234 A 
ATOM     11  C   UNL A   1      30.707  25.695  24.882  1.00  0.00     0.179 A 
ATOM     12  N   UNL A   1      31.656  24.042  26.354  1.00  0.00    -0.193 NA
ATOM     13  N   UNL A   1      30.526  24.822  23.880  1.00  0.00    -0.255 NA
ATOM     14  C   UNL A   1      30.941  23.557  24.149  1.00  0.00     0.158 A 
BRANCH  10  15
ATOM     15  O   UNL A   1      31.289  26.225  27.123  1.00  0.00    -0.477 OA
BRANCH  15  16
ATOM     16  C   UNL A   1      31.454  27.557  26.605  1.00  0.00     0.231 C 
BRANCH  16  17
ATOM     17  C   UNL A   1      32.498  28.380  27.375  1.00  0.00     0.038 C 
ATOM     18  C   UNL A   1      33.862  28.403  26.690  1.00  0.00     0.007 C 
ENDBRANCH  16  17
ENDBRANCH  15  16
ENDBRANCH  10  15
ENDBRANCH   7   9
ENDBRANCH   5   7
BRANCH   5  19
ATOM     19  C   UNL A   1      33.249  19.697  24.906  1.00  0.00     0.420 C 
ATOM     20  F   UNL A   1      32.986  18.962  26.007  1.00  0.00    -0.168 F 
ATOM     21  F   UNL A   1      32.259  19.431  24.010  1.00  0.00    -0.168 F 
ATOM     22  F   UNL A   1      34.370  19.210  24.320  1.00  0.00    -0.168 F 
ENDBRANCH   5  19
ENDBRANCH   1   5
BRANCH   3  23
ATOM     23  C   UNL A   1      36.565  21.370  25.068  1.00  0.00     0.117 C 
BRANCH  23  24
ATOM     24  C   UNL A   1      37.591  20.247  25.107  1.00  0.00     0.042 C 
BRANCH  24  25
ATOM     25  C   UNL A   1      38.898  20.591  25.812  1.00  0.00     0.118 C 
BRANCH  25  26
ATOM     26  N   UNL A   1      39.851  19.489  25.833  1.00  0.00    -0.352 N 
ATOM     27  C   UNL A   1      41.205  19.489  26.069  1.00  0.00     0.251 C 
ATOM     28  H   UNL A   1      39.463  18.604  25.650  1.00  0.00     0.163 HD
ATOM     29  O   UNL A   1      41.856  18.464  25.886  1.00  0.00    -0.269 OA
BRANCH  27  30
ATOM     30  C   UNL A   1      41.893  20.725  26.503  1.00  0.00     0.039 A 
ATOM     31  C   UNL A   1      42.373  21.606  25.531  1.00  0.00     0.014 A 
ATOM     32  C   UNL A   1      42.061  21.022  27.858  1.00  0.00     0.014 A 
ATOM     33  C   UNL A   1      42.929  22.828  25.917  1.00  0.00     0.010 A 
ATOM     34  C   UNL A   1      42.530  22.276  28.238  1.00  0.00     0.010 A 
ATOM     35  C   UNL A   1      42.961  23.197  27.271  1.00  0.00    -0.014 A 
BRANCH  35  36
ATOM     36  C   UNL A   1      43.411  24.547  27.696  1.00  0.00     0.031 A 
ATOM     37  C   UNL A   1      42.405  25.612  28.034  1.00  0.00     0.074 A 
ATOM     38  C   UNL A   1      44.726  24.839  27.699  1.00  0.00     0.049 A 
ATOM     39  N   UNL A   1      42.600  26.872  28.332  1.00  0.00    -0.248 NA
ATOM     40  C   UNL A   1      40.989  25.216  28.009  1.00  0.00     0.031 C 
ATOM     41  C   UNL A   1      45.799  23.907  27.346  1.00  0.00     0.029 A 
ATOM     42  N   UNL A   1      45.387  26.006  27.992  1.00  0.00    -0.354 N 
ATOM     43  C   UNL A   1      41.338  27.419  28.516  1.00  0.00     0.074 A 
ATOM     44  C   UNL A   1      40.380  26.369  28.244  1.00  0.00     0.031 C 
ATOM     45  C   UNL A   1      46.982  24.530  27.464  1.00  0.00     0.029 A 
ATOM     46  C   UNL A   1      46.751  25.918  27.850  1.00  0.00     0.049 A 
ATOM     47  H   UNL A   1      44.927  26.829  28.276  1.00  0.00     0.167 HD
ATOM     48  C   UNL A   1      41.007  28.675  28.900  1.00  0.00     0.037 A 
ATOM     49  C   UNL A   1      47.707  26.855  28.000  1.00  0.00     0.037 A 
ATOM     50  C   UNL A   1      41.965  29.712  29.185  1.00  0.00     0.049 A 
ATOM     51  C   UNL A   1      47.311  28.251  28.396  1.00  0.00     0.074 A 
ATOM     52  C   UNL A   1      41.733  30.998  29.641  1.00  0.00     0.029 A 
ATOM     53  N   UNL A   1      43.338  29.584  29.034  1.00  0.00    -0.354 N 
ATOM     54  N   UNL A   1      46.117  28.736  28.639  1.00  0.00    -0.248 NA
ATOM     55  C   UNL A   1      48.396  29.232  28.539  1.00  0.00     0.031 C 
ATOM     56  C   UNL A   1      42.958  31.666  29.709  1.00  0.00     0.029 A 
ATOM     57  C   UNL A   1      43.962  30.780  29.355  1.00  0.00     0.049 A 
ATOM     58  H   UNL A   1      43.800  28.765  28.743  1.00  0.00     0.167 HD
ATOM     59  C   UNL A   1      46.309  30.067  28.985  1.00  0.00     0.074 A 
ATOM     60  C   UNL A   1      47.736  30.307  28.942  1.00  0.00     0.031 C 
ATOM     61  C   UNL A   1      45.385  31.006  29.307  1.00  0.00     0.037 A 
BRANCH  48  62
ATOM     62  C   UNL A   1      39.547  29.001  29.031  1.00  0.00     0.064 A 
ATOM     63  C   UNL A   1      38.775  29.388  27.924  1.00  0.00     0.173 A 
ATOM     64  C   UNL A   1      38.900  28.886  30.271  1.00  0.00     0.173 A 
ATOM     65  F   UNL A   1      39.346  29.523  26.717  1.00  0.00    -0.203 F 
ATOM     66  C   UNL A   1      37.420  29.677  28.060  1.00  0.00     0.198 A 
ATOM     67  C   UNL A   1      37.537  29.144  30.396  1.00  0.00     0.198 A 
ATOM     68  F   UNL A   1      39.588  28.513  31.361  1.00  0.00    -0.203 F 
ATOM     69  F   UNL A   1      36.715  30.094  26.998  1.00  0.00    -0.200 F 
ATOM     70  C   UNL A   1      36.800  29.547  29.293  1.00  0.00     0.200 A 
ATOM     71  F   UNL A   1      36.938  29.003  31.586  1.00  0.00    -0.200 F 
ATOM     72  F   UNL A   1      35.494  29.816  29.421  1.00  0.00    -0.200 F 
ENDBRANCH  48  62
BRANCH  49  73
ATOM     73  C   UNL A   1      49.135  26.503  27.779  1.00  0.00     0.064 A 
ATOM     74  C   UNL A   1      49.997  26.277  28.862  1.00  0.00     0.173 A 
ATOM     75  C   UNL A   1      49.671  26.396  26.487  1.00  0.00     0.173 A 
ATOM     76  F   UNL A   1      49.537  26.389  30.117  1.00  0.00    -0.203 F 
ATOM     77  C   UNL A   1      51.344  25.981  28.662  1.00  0.00     0.198 A 
ATOM     78  C   UNL A   1      51.011  26.068  26.288  1.00  0.00     0.198 A 
ATOM     79  F   UNL A   1      48.889  26.598  25.416  1.00  0.00    -0.203 F 
ATOM     80  F   UNL A   1      52.156  25.821  29.716  1.00  0.00    -0.200 F 
ATOM     81  C   UNL A   1      51.848  25.870  27.375  1.00  0.00     0.200 A 
ATOM     82  F   UNL A   1      51.491  25.947  25.043  1.00  0.00    -0.200 F 
ATOM     83  F   UNL A   1      53.143  25.582  27.183  1.00  0.00    -0.200 F 
ENDBRANCH  49  73
BRANCH  61  84
ATOM     84  C   UNL A   1      45.890  32.375  29.661  1.00  0.00     0.064 A 
ATOM     85  C   UNL A   1      46.016  33.386  28.696  1.00  0.00     0.173 A 
ATOM     86  C   UNL A   1      46.215  32.692  30.988  1.00  0.00     0.173 A 
ATOM     87  F   UNL A   1      45.733  33.130  27.409  1.00  0.00    -0.203 F 
ATOM     88  C   UNL A   1      46.474  34.653  29.043  1.00  0.00     0.198 A 
ATOM     89  C   UNL A   1      46.641  33.971  31.338  1.00  0.00     0.198 A 
ATOM     90  F   UNL A   1      46.108  31.764  31.952  1.00  0.00    -0.203 F 
ATOM     91  F   UNL A   1      46.635  35.588  28.095  1.00  0.00    -0.200 F 
ATOM     92  C   UNL A   1      46.778  34.948  30.364  1.00  0.00     0.200 A 
ATOM     93  F   UNL A   1      46.919  34.257  32.617  1.00  0.00    -0.200 F 
ATOM     94  F   UNL A   1      47.209  36.171  30.698  1.00  0.00    -0.200 F 
ENDBRANCH  61  84
ENDBRANCH  35  36
ENDBRANCH  27  30
ENDBRANCH  25  26
ENDBRANCH  24  25
ENDBRANCH  23  24
ENDBRANCH   3  23
TORSDOF 16
ENDMDL
MODEL 2
REMARK VINA RESULT:     -11.0      4.637      9.845
REMARK SMILES CCCOc1cncc(N[C@@](C)(C(=O)NCCCNC(=O)c2ccc(-c3c4nc(c(-c5c(F)c(F)c(F)c(F)c5F)c5ccc([nH]5)c(-c5c(F)c(F)c(F)c(F)c5F)c5nc(c(-c6c(F)c(F)c(F)c(F)c6F)c6ccc3[nH]6)C=C5)C=C4)cc2)C(F)(F)F)n1
REMARK SMILES IDX 13 1 14 2 15 3 11 5 12 6 10 7 9 9 5 10 6 11 89 12 7 13 8 14
REMARK SMILES IDX 4 15 3 16 2 17 1 18 85 19 86 20 87 21 88 22 16 23 17 24
REMARK SMILES IDX 18 25 19 26 20 27 21 29 22 30 23 31 84 32 24 33 83 34 25 35
REMARK SMILES IDX 26 36 27 37 77 38 28 39 82 40 76 41 78 42 29 43 81 44 75 45
REMARK SMILES IDX 74 46 30 48 62 49 42 50 61 51 43 52 46 53 60 54 79 55 44 56
REMARK SMILES IDX 45 57 59 59 80 60 47 61 31 62 32 63 40 64 33 65 34 66 38 67
REMARK SMILES IDX 41 68 35 69 36 70 39 71 37 72 63 73 64 74 72 75 65 76 66 77
REMARK SMILES IDX 70 78 73 79 67 80 68 81 71 82 69 83 48 84 49 85 57 86 50 87
REMARK SMILES IDX 51 88 55 89 58 90 52 91 53 92 56 93 54 94
REMARK H PARENT 15 4 10 8 19 28 78 47 46 58
REMARK Flexibility Score: inf
ROOT
ATOM      1  C   UNL A   1      31.300  25.854  23.732  1.00  0.00     0.254 C 
ATOM      2  O   UNL A   1      30.346  25.254  23.224  1.00  0.00    -0.272 OA
ATOM      3  N   UNL A   1      31.267  27.203  23.535  1.00  0.00    -0.354 N 
ATOM      4  H   UNL A   1      30.443  27.509  23.094  1.00  0.00     0.163 HD
ENDROOT
BRANCH   1   5
ATOM      5  C   UNL A   1      32.466  25.121  24.450  1.00  0.00     0.211 C 
ATOM      6  C   UNL A   1      33.830  25.752  24.119  1.00  0.00     0.055 C 
BRANCH   5   7
ATOM      7  N   UNL A   1      32.430  23.693  24.003  1.00  0.00    -0.347 N 
ATOM      8  H   UNL A   1      31.803  23.537  23.261  1.00  0.00     0.163 HD
BRANCH   7   9
ATOM      9  C   UNL A   1      33.080  22.562  24.404  1.00  0.00     0.149 A 
ATOM     10  C   UNL A   1      32.906  20.289  24.773  1.00  0.00     0.234 A 
ATOM     11  C   UNL A   1      34.266  20.191  25.003  1.00  0.00     0.179 A 
ATOM     12  N   UNL A   1      32.295  21.456  24.441  1.00  0.00    -0.193 NA
ATOM     13  N   UNL A   1      35.055  21.276  25.042  1.00  0.00    -0.255 NA
ATOM     14  C   UNL A   1      34.424  22.445  24.757  1.00  0.00     0.158 A 
BRANCH  10  15
ATOM     15  O   UNL A   1      32.140  19.149  24.822  1.00  0.00    -0.477 OA
BRANCH  15  16
ATOM     16  C   UNL A   1      32.775  18.120  25.601  1.00  0.00     0.231 C 
BRANCH  16  17
ATOM     17  C   UNL A   1      32.854  16.770  24.871  1.00  0.00     0.038 C 
ATOM     18  C   UNL A   1      33.485  16.878  23.485  1.00  0.00     0.007 C 
ENDBRANCH  16  17
ENDBRANCH  15  16
ENDBRANCH  10  15
ENDBRANCH   7   9
ENDBRANCH   5   7
BRANCH   5  19
ATOM     19  C   UNL A   1      32.212  25.414  25.956  1.00  0.00     0.420 C 
ATOM     20  F   UNL A   1      30.948  25.809  26.217  1.00  0.00    -0.168 F 
ATOM     21  F   UNL A   1      32.440  24.302  26.708  1.00  0.00    -0.168 F 
ATOM     22  F   UNL A   1      33.065  26.340  26.460  1.00  0.00    -0.168 F 
ENDBRANCH   5  19
ENDBRANCH   1   5
BRANCH   3  23
ATOM     23  C   UNL A   1      32.188  28.285  23.835  1.00  0.00     0.117 C 
BRANCH  23  24
ATOM     24  C   UNL A   1      31.722  29.132  25.012  1.00  0.00     0.042 C 
BRANCH  24  25
ATOM     25  C   UNL A   1      32.839  29.714  25.870  1.00  0.00     0.118 C 
BRANCH  25  26
ATOM     26  N   UNL A   1      32.569  31.070  26.328  1.00  0.00    -0.352 N 
ATOM     27  C   UNL A   1      33.257  31.862  27.217  1.00  0.00     0.251 C 
ATOM     28  H   UNL A   1      31.768  31.486  25.938  1.00  0.00     0.163 HD
ATOM     29  O   UNL A   1      32.771  32.927  27.586  1.00  0.00    -0.269 OA
BRANCH  27  30
ATOM     30  C   UNL A   1      34.558  31.421  27.765  1.00  0.00     0.039 A 
ATOM     31  C   UNL A   1      35.579  32.363  27.919  1.00  0.00     0.014 A 
ATOM     32  C   UNL A   1      34.777  30.091  28.131  1.00  0.00     0.014 A 
ATOM     33  C   UNL A   1      36.778  31.993  28.533  1.00  0.00     0.010 A 
ATOM     34  C   UNL A   1      35.934  29.745  28.824  1.00  0.00     0.010 A 
ATOM     35  C   UNL A   1      36.943  30.695  29.041  1.00  0.00    -0.014 A 
BRANCH  35  36
ATOM     36  C   UNL A   1      38.147  30.317  29.825  1.00  0.00     0.031 A 
ATOM     37  C   UNL A   1      39.139  29.335  29.269  1.00  0.00     0.074 A 
ATOM     38  C   UNL A   1      38.304  30.798  31.074  1.00  0.00     0.049 A 
ATOM     39  N   UNL A   1      40.195  28.811  29.838  1.00  0.00    -0.248 NA
ATOM     40  C   UNL A   1      38.898  28.856  27.899  1.00  0.00     0.031 C 
ATOM     41  C   UNL A   1      37.387  31.721  31.745  1.00  0.00     0.029 A 
ATOM     42  N   UNL A   1      39.280  30.565  32.010  1.00  0.00    -0.354 N 
ATOM     43  C   UNL A   1      40.735  27.936  28.905  1.00  0.00     0.074 A 
ATOM     44  C   UNL A   1      39.860  27.957  27.752  1.00  0.00     0.031 C 
ATOM     45  C   UNL A   1      37.855  31.993  32.974  1.00  0.00     0.029 A 
ATOM     46  C   UNL A   1      39.076  31.225  33.197  1.00  0.00     0.049 A 
ATOM     47  H   UNL A   1      40.055  29.979  31.846  1.00  0.00     0.167 HD
ATOM     48  C   UNL A   1      41.868  27.200  28.992  1.00  0.00     0.037 A 
ATOM     49  C   UNL A   1      39.783  31.203  34.343  1.00  0.00     0.037 A 
ATOM     50  C   UNL A   1      42.744  27.195  30.135  1.00  0.00     0.049 A 
ATOM     51  C   UNL A   1      41.021  30.352  34.424  1.00  0.00     0.074 A 
ATOM     52  C   UNL A   1      43.948  26.531  30.295  1.00  0.00     0.029 A 
ATOM     53  N   UNL A   1      42.505  27.880  31.318  1.00  0.00    -0.354 N 
ATOM     54  N   UNL A   1      41.562  29.586  33.508  1.00  0.00    -0.248 NA
ATOM     55  C   UNL A   1      41.750  30.363  35.701  1.00  0.00     0.031 C 
ATOM     56  C   UNL A   1      44.408  26.767  31.594  1.00  0.00     0.029 A 
ATOM     57  C   UNL A   1      43.523  27.626  32.225  1.00  0.00     0.049 A 
ATOM     58  H   UNL A   1      41.728  28.460  31.487  1.00  0.00     0.167 HD
ATOM     59  C   UNL A   1      42.701  29.044  34.086  1.00  0.00     0.074 A 
ATOM     60  C   UNL A   1      42.787  29.587  35.426  1.00  0.00     0.031 C 
ATOM     61  C   UNL A   1      43.595  28.173  33.556  1.00  0.00     0.037 A 
BRANCH  48  62
ATOM     62  C   UNL A   1      42.227  26.334  27.818  1.00  0.00     0.064 A 
ATOM     63  C   UNL A   1      43.153  26.750  26.849  1.00  0.00     0.173 A 
ATOM     64  C   UNL A   1      41.669  25.053  27.681  1.00  0.00     0.173 A 
ATOM     65  F   UNL A   1      43.709  27.969  26.927  1.00  0.00    -0.203 F 
ATOM     66  C   UNL A   1      43.483  25.931  25.773  1.00  0.00     0.198 A 
ATOM     67  C   UNL A   1      42.027  24.224  26.622  1.00  0.00     0.198 A 
ATOM     68  F   UNL A   1      40.784  24.600  28.582  1.00  0.00    -0.203 F 
ATOM     69  F   UNL A   1      44.331  26.373  24.832  1.00  0.00    -0.200 F 
ATOM     70  C   UNL A   1      42.927  24.666  25.664  1.00  0.00     0.200 A 
ATOM     71  F   UNL A   1      41.499  22.996  26.526  1.00  0.00    -0.200 F 
ATOM     72  F   UNL A   1      43.252  23.876  24.632  1.00  0.00    -0.200 F 
ENDBRANCH  48  62
BRANCH  49  73
ATOM     73  C   UNL A   1      39.342  32.017  35.507  1.00  0.00     0.064 A 
ATOM     74  C   UNL A   1      38.501  31.473  36.488  1.00  0.00     0.173 A 
ATOM     75  C   UNL A   1      39.739  33.354  35.658  1.00  0.00     0.173 A 
ATOM     76  F   UNL A   1      38.076  30.206  36.378  1.00  0.00    -0.203 F 
ATOM     77  C   UNL A   1      38.056  32.241  37.563  1.00  0.00     0.198 A 
ATOM     78  C   UNL A   1      39.319  34.112  36.750  1.00  0.00     0.198 A 
ATOM     79  F   UNL A   1      40.546  33.922  34.749  1.00  0.00    -0.203 F 
ATOM     80  F   UNL A   1      37.212  31.711  38.458  1.00  0.00    -0.200 F 
ATOM     81  C   UNL A   1      38.471  33.558  37.696  1.00  0.00     0.200 A 
ATOM     82  F   UNL A   1      39.734  35.378  36.883  1.00  0.00    -0.200 F 
ATOM     83  F   UNL A   1      38.046  34.295  38.731  1.00  0.00    -0.200 F 
ENDBRANCH  49  73
BRANCH  61  84
ATOM     84  C   UNL A   1      44.757  27.769  34.418  1.00  0.00     0.064 A 
ATOM     85  C   UNL A   1      44.709  26.627  35.231  1.00  0.00     0.173 A 
ATOM     86  C   UNL A   1      45.947  28.512  34.400  1.00  0.00     0.173 A 
ATOM     87  F   UNL A   1      43.589  25.891  35.296  1.00  0.00    -0.203 F 
ATOM     88  C   UNL A   1      45.799  26.260  36.015  1.00  0.00     0.198 A 
ATOM     89  C   UNL A   1      47.047  28.123  35.159  1.00  0.00     0.198 A 
ATOM     90  F   UNL A   1      46.049  29.610  33.636  1.00  0.00    -0.203 F 
ATOM     91  F   UNL A   1      45.712  25.194  36.823  1.00  0.00    -0.200 F 
ATOM     92  C   UNL A   1      46.970  27.003  35.972  1.00  0.00     0.200 A 
ATOM     93  F   UNL A   1      48.183  28.833  35.104  1.00  0.00    -0.200 F 
ATOM     94  F   UNL A   1      48.022  26.642  36.719  1.00  0.00    -0.200 F 
ENDBRANCH  61  84
ENDBRANCH  35  36
ENDBRANCH  27  30
ENDBRANCH  25  26
ENDBRANCH  24  25
ENDBRANCH  23  24
ENDBRANCH   3  23
TORSDOF 16
ENDMDL
MODEL 3
REMARK VINA RESULT:     -11.0      4.696      8.399
REMARK SMILES CCCOc1cncc(N[C@@](C)(C(=O)NCCCNC(=O)c2ccc(-c3c4nc(c(-c5c(F)c(F)c(F)c(F)c5F)c5ccc([nH]5)c(-c5c(F)c(F)c(F)c(F)c5F)c5nc(c(-c6c(F)c(F)c(F)c(F)c6F)c6ccc3[nH]6)C=C5)C=C4)cc2)C(F)(F)F)n1
REMARK SMILES IDX 13 1 14 2 15 3 11 5 12 6 10 7 9 9 5 10 6 11 89 12 7 13 8 14
REMARK SMILES IDX 4 15 3 16 2 17 1 18 85 19 86 20 87 21 88 22 16 23 17 24
REMARK SMILES IDX 18 25 19 26 20 27 21 29 22 30 23 31 84 32 24 33 83 34 25 35
REMARK SMILES IDX 26 36 27 37 77 38 28 39 82 40 76 41 78 42 29 43 81 44 75 45
REMARK SMILES IDX 74 46 30 48 62 49 42 50 61 51 43 52 46 53 60 54 79 55 44 56
REMARK SMILES IDX 45 57 59 59 80 60 47 61 31 62 32 63 40 64 33 65 34 66 38 67
REMARK SMILES IDX 41 68 35 69 36 70 39 71 37 72 63 73 64 74 72 75 65 76 66 77
REMARK SMILES IDX 70 78 73 79 67 80 68 81 71 82 69 83 48 84 49 85 57 86 50 87
REMARK SMILES IDX 51 88 55 89 58 90 52 91 53 92 56 93 54 94
REMARK H PARENT 15 4 10 8 19 28 78 47 46 58
REMARK Flexibility Score: inf
ROOT
ATOM      1  C   UNL A   1      33.231  26.674  22.999  1.00  0.00     0.254 C 
ATOM      2  O   UNL A   1      33.630  26.473  21.847  1.00  0.00    -0.272 OA
ATOM      3  N   UNL A   1      33.804  27.756  23.598  1.00  0.00    -0.354 N 
ATOM      4  H   UNL A   1      34.386  28.270  22.993  1.00  0.00     0.163 HD
ENDROOT
BRANCH   1   5
ATOM      5  C   UNL A   1      32.232  25.726  23.718  1.00  0.00     0.211 C 
ATOM      6  C   UNL A   1      32.386  25.785  25.248  1.00  0.00     0.055 C 
BRANCH   5   7
ATOM      7  N   UNL A   1      32.504  24.341  23.220  1.00  0.00    -0.347 N 
ATOM      8  H   UNL A   1      32.147  24.178  22.318  1.00  0.00     0.163 HD
BRANCH   7   9
ATOM      9  C   UNL A   1      33.141  23.256  23.750  1.00  0.00     0.149 A 
ATOM     10  C   UNL A   1      32.895  21.122  24.595  1.00  0.00     0.234 A 
ATOM     11  C   UNL A   1      34.266  20.952  24.649  1.00  0.00     0.179 A 
ATOM     12  N   UNL A   1      32.309  22.251  24.120  1.00  0.00    -0.193 NA
ATOM     13  N   UNL A   1      35.113  21.950  24.356  1.00  0.00    -0.255 NA
ATOM     14  C   UNL A   1      34.515  23.093  23.929  1.00  0.00     0.158 A 
BRANCH  10  15
ATOM     15  O   UNL A   1      32.081  20.084  24.982  1.00  0.00    -0.477 OA
BRANCH  15  16
ATOM     16  C   UNL A   1      32.764  18.820  24.905  1.00  0.00     0.231 C 
BRANCH  16  17
ATOM     17  C   UNL A   1      32.439  18.034  23.626  1.00  0.00     0.038 C 
ATOM     18  C   UNL A   1      33.594  17.151  23.160  1.00  0.00     0.007 C 
ENDBRANCH  16  17
ENDBRANCH  15  16
ENDBRANCH  10  15
ENDBRANCH   7   9
ENDBRANCH   5   7
BRANCH   5  19
ATOM     19  C   UNL A   1      30.842  26.348  23.402  1.00  0.00     0.420 C 
ATOM     20  F   UNL A   1      29.824  25.471  23.523  1.00  0.00    -0.168 F 
ATOM     21  F   UNL A   1      30.574  27.381  24.247  1.00  0.00    -0.168 F 
ATOM     22  F   UNL A   1      30.787  26.904  22.166  1.00  0.00    -0.168 F 
ENDBRANCH   5  19
ENDBRANCH   1   5
BRANCH   3  23
ATOM     23  C   UNL A   1      33.743  28.313  24.937  1.00  0.00     0.117 C 
BRANCH  23  24
ATOM     24  C   UNL A   1      32.859  29.551  25.010  1.00  0.00     0.042 C 
BRANCH  24  25
ATOM     25  C   UNL A   1      32.391  29.929  26.410  1.00  0.00     0.118 C 
BRANCH  25  26
ATOM     26  N   UNL A   1      32.387  31.366  26.650  1.00  0.00    -0.352 N 
ATOM     27  C   UNL A   1      33.273  32.153  27.348  1.00  0.00     0.251 C 
ATOM     28  H   UNL A   1      31.631  31.850  26.248  1.00  0.00     0.163 HD
ATOM     29  O   UNL A   1      33.001  33.331  27.563  1.00  0.00    -0.269 OA
BRANCH  27  30
ATOM     30  C   UNL A   1      34.530  31.582  27.877  1.00  0.00     0.039 A 
ATOM     31  C   UNL A   1      35.635  32.421  28.043  1.00  0.00     0.014 A 
ATOM     32  C   UNL A   1      34.625  30.229  28.215  1.00  0.00     0.014 A 
ATOM     33  C   UNL A   1      36.797  31.928  28.640  1.00  0.00     0.010 A 
ATOM     34  C   UNL A   1      35.748  29.763  28.892  1.00  0.00     0.010 A 
ATOM     35  C   UNL A   1      36.843  30.610  29.121  1.00  0.00    -0.014 A 
BRANCH  35  36
ATOM     36  C   UNL A   1      38.011  30.105  29.889  1.00  0.00     0.031 A 
ATOM     37  C   UNL A   1      38.266  30.589  31.288  1.00  0.00     0.074 A 
ATOM     38  C   UNL A   1      38.887  29.272  29.294  1.00  0.00     0.049 A 
ATOM     39  N   UNL A   1      39.279  30.339  32.080  1.00  0.00    -0.248 NA
ATOM     40  C   UNL A   1      37.263  31.497  31.867  1.00  0.00     0.031 C 
ATOM     41  C   UNL A   1      38.777  28.767  27.924  1.00  0.00     0.029 A 
ATOM     42  N   UNL A   1      40.053  28.716  29.757  1.00  0.00    -0.354 N 
ATOM     43  C   UNL A   1      39.041  31.065  33.240  1.00  0.00     0.074 A 
ATOM     44  C   UNL A   1      37.818  31.808  33.030  1.00  0.00     0.031 C 
ATOM     45  C   UNL A   1      39.817  27.960  27.666  1.00  0.00     0.029 A 
ATOM     46  C   UNL A   1      40.696  27.930  28.832  1.00  0.00     0.049 A 
ATOM     47  H   UNL A   1      40.398  28.866  30.667  1.00  0.00     0.167 HD
ATOM     48  C   UNL A   1      39.766  31.091  34.384  1.00  0.00     0.037 A 
ATOM     49  C   UNL A   1      41.868  27.271  28.907  1.00  0.00     0.037 A 
ATOM     50  C   UNL A   1      40.974  30.337  34.594  1.00  0.00     0.049 A 
ATOM     51  C   UNL A   1      42.669  27.343  30.178  1.00  0.00     0.074 A 
ATOM     52  C   UNL A   1      41.747  30.248  35.739  1.00  0.00     0.029 A 
ATOM     53  N   UNL A   1      41.592  29.549  33.633  1.00  0.00    -0.354 N 
ATOM     54  N   UNL A   1      42.397  27.974  31.295  1.00  0.00    -0.248 NA
ATOM     55  C   UNL A   1      43.942  26.609  30.201  1.00  0.00     0.031 C 
ATOM     56  C   UNL A   1      42.861  29.454  35.455  1.00  0.00     0.029 A 
ATOM     57  C   UNL A   1      42.755  28.998  34.151  1.00  0.00     0.049 A 
ATOM     58  H   UNL A   1      41.254  29.403  32.721  1.00  0.00     0.167 HD
ATOM     59  C   UNL A   1      43.448  27.696  32.157  1.00  0.00     0.074 A 
ATOM     60  C   UNL A   1      44.354  26.820  31.442  1.00  0.00     0.031 C 
ATOM     61  C   UNL A   1      43.647  28.128  33.427  1.00  0.00     0.037 A 
BRANCH  48  62
ATOM     62  C   UNL A   1      39.272  31.967  35.500  1.00  0.00     0.064 A 
ATOM     63  C   UNL A   1      38.430  31.474  36.508  1.00  0.00     0.173 A 
ATOM     64  C   UNL A   1      39.680  33.308  35.586  1.00  0.00     0.173 A 
ATOM     65  F   UNL A   1      38.003  30.202  36.469  1.00  0.00    -0.203 F 
ATOM     66  C   UNL A   1      37.990  32.296  37.542  1.00  0.00     0.198 A 
ATOM     67  C   UNL A   1      39.264  34.118  36.639  1.00  0.00     0.198 A 
ATOM     68  F   UNL A   1      40.490  33.830  34.653  1.00  0.00    -0.203 F 
ATOM     69  F   UNL A   1      37.144  31.815  38.465  1.00  0.00    -0.200 F 
ATOM     70  C   UNL A   1      38.413  33.614  37.611  1.00  0.00     0.200 A 
ATOM     71  F   UNL A   1      39.686  35.388  36.713  1.00  0.00    -0.200 F 
ATOM     72  F   UNL A   1      37.995  34.402  38.611  1.00  0.00    -0.200 F 
ENDBRANCH  48  62
BRANCH  49  73
ATOM     73  C   UNL A   1      42.355  26.482  27.744  1.00  0.00     0.064 A 
ATOM     74  C   UNL A   1      43.270  27.029  26.834  1.00  0.00     0.173 A 
ATOM     75  C   UNL A   1      41.909  25.172  27.511  1.00  0.00     0.173 A 
ATOM     76  F   UNL A   1      43.709  28.285  27.002  1.00  0.00    -0.203 F 
ATOM     77  C   UNL A   1      43.703  26.307  25.724  1.00  0.00     0.198 A 
ATOM     78  C   UNL A   1      42.368  24.438  26.418  1.00  0.00     0.198 A 
ATOM     79  F   UNL A   1      41.036  24.599  28.353  1.00  0.00    -0.203 F 
ATOM     80  F   UNL A   1      44.538  26.873  24.843  1.00  0.00    -0.200 F 
ATOM     81  C   UNL A   1      43.257  25.009  25.521  1.00  0.00     0.200 A 
ATOM     82  F   UNL A   1      41.945  23.180  26.234  1.00  0.00    -0.200 F 
ATOM     83  F   UNL A   1      43.676  24.313  24.455  1.00  0.00    -0.200 F 
ENDBRANCH  49  73
BRANCH  61  84
ATOM     84  C   UNL A   1      44.881  27.643  34.134  1.00  0.00     0.064 A 
ATOM     85  C   UNL A   1      46.075  28.379  34.120  1.00  0.00     0.173 A 
ATOM     86  C   UNL A   1      44.856  26.447  34.867  1.00  0.00     0.173 A 
ATOM     87  F   UNL A   1      46.156  29.522  33.420  1.00  0.00    -0.203 F 
ATOM     88  C   UNL A   1      47.206  27.921  34.790  1.00  0.00     0.198 A 
ATOM     89  C   UNL A   1      45.979  26.010  35.565  1.00  0.00     0.198 A 
ATOM     90  F   UNL A   1      43.738  25.707  34.919  1.00  0.00    -0.203 F 
ATOM     91  F   UNL A   1      48.351  28.615  34.720  1.00  0.00    -0.200 F 
ATOM     92  C   UNL A   1      47.154  26.742  35.519  1.00  0.00     0.200 A 
ATOM     93  F   UNL A   1      45.922  24.878  36.281  1.00  0.00    -0.200 F 
ATOM     94  F   UNL A   1      48.241  26.309  36.172  1.00  0.00    -0.200 F 
ENDBRANCH  61  84
ENDBRANCH  35  36
ENDBRANCH  27  30
ENDBRANCH  25  26
ENDBRANCH  24  25
ENDBRANCH  23  24
ENDBRANCH   3  23
TORSDOF 16
ENDMDL
