MODEL 1
REMARK VINA RESULT:     -12.3      0.000      0.000
REMARK SMILES O=C(NCCCNC(=O)[C@H]1CC[C@@H](CNc2ccccc2C(F)(F)F)O1)c1ccc(-c2c3nc(c(-c4c(F)c(F)c(F)c(F)c4F)c4ccc([nH]4)c(-c4c(F)c(F)c(F)c(F)c4F)c4nc(c(-c5c(F)c(F)c(F)c(F)c5F)c5ccc2[nH]5)C=C4)C=C3)cc1
REMARK SMILES IDX 6 1 5 2 4 3 3 4 1 5 2 6 27 8 28 9 89 10 29 11 88 12 30 13
REMARK SMILES IDX 31 14 32 15 82 16 33 17 87 18 81 19 83 20 34 21 86 22 80 23
REMARK SMILES IDX 79 24 35 26 67 27 47 28 66 29 48 30 51 31 65 32 84 33 49 34
REMARK SMILES IDX 50 35 64 37 85 38 52 39 36 40 37 41 45 42 38 43 39 44 43 45
REMARK SMILES IDX 46 46 40 47 41 48 44 49 42 50 68 51 69 52 77 53 70 54 71 55
REMARK SMILES IDX 75 56 78 57 72 58 73 59 76 60 74 61 53 62 54 63 62 64 55 65
REMARK SMILES IDX 56 66 60 67 63 68 57 69 58 70 61 71 59 72 7 73 8 74 9 76
REMARK SMILES IDX 10 77 11 78 26 79 12 80 13 81 14 82 15 83 16 85 17 86 21 87
REMARK SMILES IDX 18 88 20 89 19 90 22 91 23 92 24 93 25 94
REMARK H PARENT 3 7 83 25 51 36 7 75 15 84
REMARK Flexibility Score: inf
ROOT
ATOM      1  C   UNL A   1      31.482  30.797  26.119  1.00  0.00     0.117 C 
ENDROOT
BRANCH   1   2
ATOM      2  C   UNL A   1      31.402  32.270  26.501  1.00  0.00     0.042 C 
BRANCH   2   3
ATOM      3  C   UNL A   1      32.603  32.801  27.272  1.00  0.00     0.118 C 
BRANCH   3   4
ATOM      4  N   UNL A   1      32.458  34.203  27.626  1.00  0.00    -0.352 N 
ATOM      5  O   UNL A   1      32.605  36.070  28.855  1.00  0.00    -0.269 OA
ATOM      6  C   UNL A   1      33.048  34.948  28.617  1.00  0.00     0.251 C 
ATOM      7  H   UNL A   1      31.830  34.705  27.058  1.00  0.00     0.163 HD
BRANCH   6   8
ATOM      8  C   UNL A   1      34.198  34.443  29.411  1.00  0.00     0.039 A 
ATOM      9  C   UNL A   1      34.028  33.773  30.625  1.00  0.00     0.014 A 
ATOM     10  C   UNL A   1      35.483  34.541  28.862  1.00  0.00     0.014 A 
ATOM     11  C   UNL A   1      35.136  33.302  31.332  1.00  0.00     0.010 A 
ATOM     12  C   UNL A   1      36.583  33.987  29.525  1.00  0.00     0.010 A 
ATOM     13  C   UNL A   1      36.420  33.365  30.772  1.00  0.00    -0.014 A 
BRANCH  13  14
ATOM     14  C   UNL A   1      37.552  32.665  31.434  1.00  0.00     0.031 A 
ATOM     15  C   UNL A   1      38.243  31.500  30.785  1.00  0.00     0.074 A 
ATOM     16  C   UNL A   1      37.936  33.077  32.660  1.00  0.00     0.049 A 
ATOM     17  N   UNL A   1      39.211  30.752  31.251  1.00  0.00    -0.248 NA
ATOM     18  C   UNL A   1      37.781  31.114  29.443  1.00  0.00     0.031 C 
ATOM     19  C   UNL A   1      37.321  34.176  33.407  1.00  0.00     0.029 A 
ATOM     20  N   UNL A   1      38.926  32.625  33.496  1.00  0.00    -0.354 N 
ATOM     21  C   UNL A   1      39.461  29.797  30.276  1.00  0.00     0.074 A 
ATOM     22  C   UNL A   1      38.529  30.046  29.196  1.00  0.00     0.031 C 
ATOM     23  C   UNL A   1      37.962  34.330  34.575  1.00  0.00     0.029 A 
ATOM     24  C   UNL A   1      38.989  33.303  34.689  1.00  0.00     0.049 A 
ATOM     25  H   UNL A   1      39.533  31.886  33.262  1.00  0.00     0.167 HD
ATOM     26  C   UNL A   1      40.387  28.808  30.285  1.00  0.00     0.037 A 
ATOM     27  C   UNL A   1      39.765  33.104  35.771  1.00  0.00     0.037 A 
ATOM     28  C   UNL A   1      41.334  28.587  31.349  1.00  0.00     0.049 A 
ATOM     29  C   UNL A   1      40.767  31.986  35.756  1.00  0.00     0.074 A 
ATOM     30  C   UNL A   1      42.370  27.669  31.404  1.00  0.00     0.029 A 
ATOM     31  N   UNL A   1      41.354  29.283  32.549  1.00  0.00    -0.354 N 
ATOM     32  N   UNL A   1      41.038  31.134  34.799  1.00  0.00    -0.248 NA
ATOM     33  C   UNL A   1      41.566  31.796  36.974  1.00  0.00     0.031 C 
ATOM     34  C   UNL A   1      42.981  27.772  32.658  1.00  0.00     0.029 A 
ATOM     35  C   UNL A   1      42.359  28.787  33.366  1.00  0.00     0.049 A 
ATOM     36  H   UNL A   1      40.747  30.020  32.784  1.00  0.00     0.167 HD
ATOM     37  C   UNL A   1      42.041  30.313  35.292  1.00  0.00     0.074 A 
ATOM     38  C   UNL A   1      42.350  30.786  36.626  1.00  0.00     0.031 C 
ATOM     39  C   UNL A   1      42.648  29.260  34.694  1.00  0.00     0.037 A 
BRANCH  26  40
ATOM     40  C   UNL A   1      40.428  27.868  29.116  1.00  0.00     0.064 A 
ATOM     41  C   UNL A   1      39.651  26.702  29.076  1.00  0.00     0.173 A 
ATOM     42  C   UNL A   1      41.195  28.184  27.982  1.00  0.00     0.173 A 
ATOM     43  F   UNL A   1      38.908  26.350  30.135  1.00  0.00    -0.203 F 
ATOM     44  C   UNL A   1      39.650  25.880  27.951  1.00  0.00     0.198 A 
ATOM     45  C   UNL A   1      41.172  27.374  26.851  1.00  0.00     0.198 A 
ATOM     46  F   UNL A   1      41.950  29.293  27.965  1.00  0.00    -0.203 F 
ATOM     47  F   UNL A   1      38.923  24.754  27.947  1.00  0.00    -0.200 F 
ATOM     48  C   UNL A   1      40.402  26.221  26.837  1.00  0.00     0.200 A 
ATOM     49  F   UNL A   1      41.890  27.711  25.771  1.00  0.00    -0.200 F 
ATOM     50  F   UNL A   1      40.388  25.436  25.751  1.00  0.00    -0.200 F 
ENDBRANCH  26  40
BRANCH  27  51
ATOM     51  C   UNL A   1      39.597  33.967  36.968  1.00  0.00     0.064 A 
ATOM     52  C   UNL A   1      40.236  35.210  37.060  1.00  0.00     0.173 A 
ATOM     53  C   UNL A   1      38.792  33.564  38.045  1.00  0.00     0.173 A 
ATOM     54  F   UNL A   1      41.033  35.628  36.066  1.00  0.00    -0.203 F 
ATOM     55  C   UNL A   1      40.087  36.013  38.190  1.00  0.00     0.198 A 
ATOM     56  C   UNL A   1      38.619  34.381  39.159  1.00  0.00     0.198 A 
ATOM     57  F   UNL A   1      38.157  32.384  38.005  1.00  0.00    -0.203 F 
ATOM     58  F   UNL A   1      40.744  37.178  38.272  1.00  0.00    -0.200 F 
ATOM     59  C   UNL A   1      39.274  35.600  39.235  1.00  0.00     0.200 A 
ATOM     60  F   UNL A   1      37.820  33.985  40.160  1.00  0.00    -0.200 F 
ATOM     61  F   UNL A   1      39.127  36.376  40.318  1.00  0.00    -0.200 F 
ENDBRANCH  27  51
BRANCH  39  62
ATOM     62  C   UNL A   1      43.711  28.549  35.477  1.00  0.00     0.064 A 
ATOM     63  C   UNL A   1      45.068  28.876  35.329  1.00  0.00     0.173 A 
ATOM     64  C   UNL A   1      43.370  27.559  36.410  1.00  0.00     0.173 A 
ATOM     65  F   UNL A   1      45.445  29.803  34.436  1.00  0.00    -0.203 F 
ATOM     66  C   UNL A   1      46.044  28.226  36.076  1.00  0.00     0.198 A 
ATOM     67  C   UNL A   1      44.348  26.928  37.174  1.00  0.00     0.198 A 
ATOM     68  F   UNL A   1      42.087  27.212  36.588  1.00  0.00    -0.203 F 
ATOM     69  F   UNL A   1      47.338  28.526  35.891  1.00  0.00    -0.200 F 
ATOM     70  C   UNL A   1      45.684  27.258  37.003  1.00  0.00     0.200 A 
ATOM     71  F   UNL A   1      43.997  26.002  38.077  1.00  0.00    -0.200 F 
ATOM     72  F   UNL A   1      46.626  26.639  37.728  1.00  0.00    -0.200 F 
ENDBRANCH  39  62
ENDBRANCH  13  14
ENDBRANCH   6   8
ENDBRANCH   3   4
ENDBRANCH   2   3
ENDBRANCH   1   2
BRANCH   1  73
ATOM     73  N   UNL A   1      32.706  30.203  26.625  1.00  0.00    -0.354 N 
ATOM     74  C   UNL A   1      33.074  28.889  26.671  1.00  0.00     0.249 C 
ATOM     75  H   UNL A   1      33.364  30.839  26.986  1.00  0.00     0.163 HD
ATOM     76  O   UNL A   1      34.095  28.618  27.307  1.00  0.00    -0.272 OA
BRANCH  74  77
ATOM     77  C   UNL A   1      32.273  27.831  25.876  1.00  0.00     0.207 C 
ATOM     78  C   UNL A   1      32.853  27.628  24.476  1.00  0.00     0.045 C 
ATOM     79  O   UNL A   1      32.238  26.528  26.493  1.00  0.00    -0.363 OA
ATOM     80  C   UNL A   1      33.658  26.357  24.638  1.00  0.00     0.037 C 
ATOM     81  C   UNL A   1      32.723  25.559  25.525  1.00  0.00     0.138 C 
BRANCH  81  82
ATOM     82  C   UNL A   1      33.344  24.311  26.189  1.00  0.00     0.145 C 
BRANCH  82  83
ATOM     83  N   UNL A   1      33.725  23.327  25.180  1.00  0.00    -0.382 N 
ATOM     84  H   UNL A   1      33.082  23.057  24.484  1.00  0.00     0.160 HD
BRANCH  83  85
ATOM     85  C   UNL A   1      35.001  22.773  25.205  1.00  0.00     0.046 A 
ATOM     86  C   UNL A   1      36.078  23.632  25.488  1.00  0.00     0.026 A 
ATOM     87  C   UNL A   1      35.276  21.412  25.023  1.00  0.00     0.079 A 
ATOM     88  C   UNL A   1      37.404  23.204  25.451  1.00  0.00     0.002 A 
ATOM     89  C   UNL A   1      36.624  20.982  25.000  1.00  0.00     0.015 A 
ATOM     90  C   UNL A   1      37.680  21.875  25.183  1.00  0.00     0.001 A 
BRANCH  87  91
ATOM     91  C   UNL A   1      34.197  20.367  24.904  1.00  0.00     0.418 C 
ATOM     92  F   UNL A   1      33.326  20.623  23.882  1.00  0.00    -0.166 F 
ATOM     93  F   UNL A   1      34.717  19.134  24.626  1.00  0.00    -0.166 F 
ATOM     94  F   UNL A   1      33.410  20.198  26.002  1.00  0.00    -0.166 F 
ENDBRANCH  87  91
ENDBRANCH  83  85
ENDBRANCH  82  83
ENDBRANCH  81  82
ENDBRANCH  74  77
ENDBRANCH   1  73
TORSDOF 14
ENDMDL
MODEL 2
REMARK VINA RESULT:     -12.2      2.728      4.418
REMARK SMILES O=C(NCCCNC(=O)[C@H]1CC[C@@H](CNc2ccccc2C(F)(F)F)O1)c1ccc(-c2c3nc(c(-c4c(F)c(F)c(F)c(F)c4F)c4ccc([nH]4)c(-c4c(F)c(F)c(F)c(F)c4F)c4nc(c(-c5c(F)c(F)c(F)c(F)c5F)c5ccc2[nH]5)C=C4)C=C3)cc1
REMARK SMILES IDX 6 1 5 2 4 3 3 4 1 5 2 6 27 8 28 9 89 10 29 11 88 12 30 13
REMARK SMILES IDX 31 14 32 15 82 16 33 17 87 18 81 19 83 20 34 21 86 22 80 23
REMARK SMILES IDX 79 24 35 26 67 27 47 28 66 29 48 30 51 31 65 32 84 33 49 34
REMARK SMILES IDX 50 35 64 37 85 38 52 39 36 40 37 41 45 42 38 43 39 44 43 45
REMARK SMILES IDX 46 46 40 47 41 48 44 49 42 50 68 51 69 52 77 53 70 54 71 55
REMARK SMILES IDX 75 56 78 57 72 58 73 59 76 60 74 61 53 62 54 63 62 64 55 65
REMARK SMILES IDX 56 66 60 67 63 68 57 69 58 70 61 71 59 72 7 73 8 74 9 76
REMARK SMILES IDX 10 77 11 78 26 79 12 80 13 81 14 82 15 83 16 85 17 86 21 87
REMARK SMILES IDX 18 88 20 89 19 90 22 91 23 92 24 93 25 94
REMARK H PARENT 3 7 83 25 51 36 7 75 15 84
REMARK Flexibility Score: inf
ROOT
ATOM      1  C   UNL A   1      31.399  30.963  25.986  1.00  0.00     0.117 C 
ENDROOT
BRANCH   1   2
ATOM      2  C   UNL A   1      31.252  32.352  26.596  1.00  0.00     0.042 C 
BRANCH   2   3
ATOM      3  C   UNL A   1      32.492  32.876  27.308  1.00  0.00     0.118 C 
BRANCH   3   4
ATOM      4  N   UNL A   1      32.376  34.281  27.659  1.00  0.00    -0.352 N 
ATOM      5  O   UNL A   1      32.583  36.151  28.874  1.00  0.00    -0.269 OA
ATOM      6  C   UNL A   1      33.004  35.023  28.630  1.00  0.00     0.251 C 
ATOM      7  H   UNL A   1      31.740  34.789  27.106  1.00  0.00     0.163 HD
BRANCH   6   8
ATOM      8  C   UNL A   1      34.168  34.505  29.395  1.00  0.00     0.039 A 
ATOM      9  C   UNL A   1      34.020  33.805  30.594  1.00  0.00     0.014 A 
ATOM     10  C   UNL A   1      35.444  34.624  28.829  1.00  0.00     0.014 A 
ATOM     11  C   UNL A   1      35.140  33.323  31.273  1.00  0.00     0.010 A 
ATOM     12  C   UNL A   1      36.557  34.060  29.463  1.00  0.00     0.010 A 
ATOM     13  C   UNL A   1      36.415  33.407  30.696  1.00  0.00    -0.014 A 
BRANCH  13  14
ATOM     14  C   UNL A   1      37.561  32.697  31.325  1.00  0.00     0.031 A 
ATOM     15  C   UNL A   1      38.218  31.523  30.658  1.00  0.00     0.074 A 
ATOM     16  C   UNL A   1      37.988  33.110  32.536  1.00  0.00     0.049 A 
ATOM     17  N   UNL A   1      39.193  30.767  31.096  1.00  0.00    -0.248 NA
ATOM     18  C   UNL A   1      37.709  31.137  29.333  1.00  0.00     0.031 C 
ATOM     19  C   UNL A   1      37.409  34.218  33.298  1.00  0.00     0.029 A 
ATOM     20  N   UNL A   1      39.000  32.651  33.341  1.00  0.00    -0.354 N 
ATOM     21  C   UNL A   1      39.402  29.805  30.118  1.00  0.00     0.074 A 
ATOM     22  C   UNL A   1      38.438  30.060  29.067  1.00  0.00     0.031 C 
ATOM     23  C   UNL A   1      38.088  34.370  34.444  1.00  0.00     0.029 A 
ATOM     24  C   UNL A   1      39.108  33.332  34.529  1.00  0.00     0.049 A 
ATOM     25  H   UNL A   1      39.591  31.904  33.091  1.00  0.00     0.167 HD
ATOM     26  C   UNL A   1      40.318  28.807  30.101  1.00  0.00     0.037 A 
ATOM     27  C   UNL A   1      39.916  33.129  35.586  1.00  0.00     0.037 A 
ATOM     28  C   UNL A   1      41.296  28.579  31.135  1.00  0.00     0.049 A 
ATOM     29  C   UNL A   1      40.906  32.001  35.544  1.00  0.00     0.074 A 
ATOM     30  C   UNL A   1      42.323  27.651  31.161  1.00  0.00     0.029 A 
ATOM     31  N   UNL A   1      41.362  29.280  32.330  1.00  0.00    -0.354 N 
ATOM     32  N   UNL A   1      41.137  31.142  34.582  1.00  0.00    -0.248 NA
ATOM     33  C   UNL A   1      41.741  31.807  36.737  1.00  0.00     0.031 C 
ATOM     34  C   UNL A   1      42.976  27.752  32.393  1.00  0.00     0.029 A 
ATOM     35  C   UNL A   1      42.386  28.776  33.117  1.00  0.00     0.049 A 
ATOM     36  H   UNL A   1      40.770  30.024  32.582  1.00  0.00     0.167 HD
ATOM     37  C   UNL A   1      42.147  30.313  35.047  1.00  0.00     0.074 A 
ATOM     38  C   UNL A   1      42.503  30.787  36.368  1.00  0.00     0.031 C 
ATOM     39  C   UNL A   1      42.723  29.251  34.434  1.00  0.00     0.037 A 
BRANCH  26  40
ATOM     40  C   UNL A   1      40.311  27.862  28.934  1.00  0.00     0.064 A 
ATOM     41  C   UNL A   1      41.068  28.106  27.780  1.00  0.00     0.173 A 
ATOM     42  C   UNL A   1      39.602  26.652  29.010  1.00  0.00     0.173 A 
ATOM     43  F   UNL A   1      41.757  29.250  27.654  1.00  0.00    -0.203 F 
ATOM     44  C   UNL A   1      41.104  27.182  26.738  1.00  0.00     0.198 A 
ATOM     45  C   UNL A   1      39.660  25.720  27.978  1.00  0.00     0.198 A 
ATOM     46  F   UNL A   1      38.869  26.366  30.096  1.00  0.00    -0.203 F 
ATOM     47  F   UNL A   1      41.810  27.451  25.631  1.00  0.00    -0.200 F 
ATOM     48  C   UNL A   1      40.408  25.987  26.841  1.00  0.00     0.200 A 
ATOM     49  F   UNL A   1      38.996  24.561  28.084  1.00  0.00    -0.200 F 
ATOM     50  F   UNL A   1      40.456  25.093  25.844  1.00  0.00    -0.200 F 
ENDBRANCH  26  40
BRANCH  27  51
ATOM     51  C   UNL A   1      39.796  33.998  36.785  1.00  0.00     0.064 A 
ATOM     52  C   UNL A   1      40.501  35.205  36.878  1.00  0.00     0.173 A 
ATOM     53  C   UNL A   1      38.970  33.638  37.862  1.00  0.00     0.173 A 
ATOM     54  F   UNL A   1      41.318  35.580  35.884  1.00  0.00    -0.203 F 
ATOM     55  C   UNL A   1      40.396  36.013  38.009  1.00  0.00     0.198 A 
ATOM     56  C   UNL A   1      38.843  34.461  38.977  1.00  0.00     0.198 A 
ATOM     57  F   UNL A   1      38.273  32.493  37.821  1.00  0.00    -0.203 F 
ATOM     58  F   UNL A   1      41.114  37.141  38.092  1.00  0.00    -0.200 F 
ATOM     59  C   UNL A   1      39.562  35.643  39.054  1.00  0.00     0.200 A 
ATOM     60  F   UNL A   1      38.024  34.108  39.978  1.00  0.00    -0.200 F 
ATOM     61  F   UNL A   1      39.458  36.424  40.138  1.00  0.00    -0.200 F 
ENDBRANCH  27  51
BRANCH  39  62
ATOM     62  C   UNL A   1      43.803  28.532  35.185  1.00  0.00     0.064 A 
ATOM     63  C   UNL A   1      43.511  27.440  36.016  1.00  0.00     0.173 A 
ATOM     64  C   UNL A   1      45.146  28.912  35.044  1.00  0.00     0.173 A 
ATOM     65  F   UNL A   1      42.240  27.052  36.198  1.00  0.00    -0.203 F 
ATOM     66  C   UNL A   1      44.523  26.766  36.691  1.00  0.00     0.198 A 
ATOM     67  C   UNL A   1      46.159  28.218  35.700  1.00  0.00     0.198 A 
ATOM     68  F   UNL A   1      45.476  29.948  34.259  1.00  0.00    -0.203 F 
ATOM     69  F   UNL A   1      44.219  25.750  37.512  1.00  0.00    -0.200 F 
ATOM     70  C   UNL A   1      45.846  27.150  36.527  1.00  0.00     0.200 A 
ATOM     71  F   UNL A   1      47.437  28.583  35.531  1.00  0.00    -0.200 F 
ATOM     72  F   UNL A   1      46.821  26.493  37.171  1.00  0.00    -0.200 F 
ENDBRANCH  39  62
ENDBRANCH  13  14
ENDBRANCH   6   8
ENDBRANCH   3   4
ENDBRANCH   2   3
ENDBRANCH   1   2
BRANCH   1  73
ATOM     73  N   UNL A   1      31.815  30.003  26.991  1.00  0.00    -0.354 N 
ATOM     74  C   UNL A   1      32.679  28.953  26.879  1.00  0.00     0.249 C 
ATOM     75  H   UNL A   1      31.416  30.128  27.882  1.00  0.00     0.163 HD
ATOM     76  O   UNL A   1      32.738  28.175  27.833  1.00  0.00    -0.272 OA
BRANCH  74  77
ATOM     77  C   UNL A   1      33.590  28.828  25.635  1.00  0.00     0.207 C 
ATOM     78  C   UNL A   1      33.893  27.364  25.310  1.00  0.00     0.045 C 
ATOM     79  O   UNL A   1      33.037  29.403  24.434  1.00  0.00    -0.363 OA
ATOM     80  C   UNL A   1      32.932  27.078  24.176  1.00  0.00     0.037 C 
ATOM     81  C   UNL A   1      33.033  28.379  23.404  1.00  0.00     0.138 C 
BRANCH  81  82
ATOM     82  C   UNL A   1      31.937  28.606  22.341  1.00  0.00     0.145 C 
BRANCH  82  83
ATOM     83  N   UNL A   1      30.951  29.572  22.818  1.00  0.00    -0.382 N 
ATOM     84  H   UNL A   1      31.209  30.509  22.971  1.00  0.00     0.160 HD
BRANCH  83  85
ATOM     85  C   UNL A   1      29.643  29.160  23.055  1.00  0.00     0.046 A 
ATOM     86  C   UNL A   1      29.438  27.814  23.407  1.00  0.00     0.026 A 
ATOM     87  C   UNL A   1      28.528  30.008  23.022  1.00  0.00     0.079 A 
ATOM     88  C   UNL A   1      28.166  27.273  23.580  1.00  0.00     0.002 A 
ATOM     89  C   UNL A   1      27.240  29.453  23.211  1.00  0.00     0.015 A 
ATOM     90  C   UNL A   1      27.058  28.093  23.458  1.00  0.00     0.001 A 
BRANCH  87  91
ATOM     91  C   UNL A   1      28.639  31.501  22.847  1.00  0.00     0.418 C 
ATOM     92  F   UNL A   1      27.422  32.124  22.856  1.00  0.00    -0.166 F 
ATOM     93  F   UNL A   1      29.341  32.077  23.868  1.00  0.00    -0.166 F 
ATOM     94  F   UNL A   1      29.241  31.920  21.700  1.00  0.00    -0.166 F 
ENDBRANCH  87  91
ENDBRANCH  83  85
ENDBRANCH  82  83
ENDBRANCH  81  82
ENDBRANCH  74  77
ENDBRANCH   1  73
TORSDOF 14
ENDMDL
MODEL 3
REMARK VINA RESULT:     -12.2      5.742     11.044
REMARK SMILES O=C(NCCCNC(=O)[C@H]1CC[C@@H](CNc2ccccc2C(F)(F)F)O1)c1ccc(-c2c3nc(c(-c4c(F)c(F)c(F)c(F)c4F)c4ccc([nH]4)c(-c4c(F)c(F)c(F)c(F)c4F)c4nc(c(-c5c(F)c(F)c(F)c(F)c5F)c5ccc2[nH]5)C=C4)C=C3)cc1
REMARK SMILES IDX 6 1 5 2 4 3 3 4 1 5 2 6 27 8 28 9 89 10 29 11 88 12 30 13
REMARK SMILES IDX 31 14 32 15 82 16 33 17 87 18 81 19 83 20 34 21 86 22 80 23
REMARK SMILES IDX 79 24 35 26 67 27 47 28 66 29 48 30 51 31 65 32 84 33 49 34
REMARK SMILES IDX 50 35 64 37 85 38 52 39 36 40 37 41 45 42 38 43 39 44 43 45
REMARK SMILES IDX 46 46 40 47 41 48 44 49 42 50 68 51 69 52 77 53 70 54 71 55
REMARK SMILES IDX 75 56 78 57 72 58 73 59 76 60 74 61 53 62 54 63 62 64 55 65
REMARK SMILES IDX 56 66 60 67 63 68 57 69 58 70 61 71 59 72 7 73 8 74 9 76
REMARK SMILES IDX 10 77 11 78 26 79 12 80 13 81 14 82 15 83 16 85 17 86 21 87
REMARK SMILES IDX 18 88 20 89 19 90 22 91 23 92 24 93 25 94
REMARK H PARENT 3 7 83 25 51 36 7 75 15 84
REMARK Flexibility Score: inf
ROOT
ATOM      1  C   UNL A   1      36.750  20.432  25.003  1.00  0.00     0.117 C 
ENDROOT
BRANCH   1   2
ATOM      2  C   UNL A   1      37.975  19.526  25.002  1.00  0.00     0.042 C 
BRANCH   2   3
ATOM      3  C   UNL A   1      39.168  20.056  25.788  1.00  0.00     0.118 C 
BRANCH   3   4
ATOM      4  N   UNL A   1      40.239  19.081  25.892  1.00  0.00    -0.352 N 
ATOM      5  O   UNL A   1      42.328  18.273  25.919  1.00  0.00    -0.269 OA
ATOM      6  C   UNL A   1      41.590  19.243  26.078  1.00  0.00     0.251 C 
ATOM      7  H   UNL A   1      39.948  18.144  25.818  1.00  0.00     0.163 HD
BRANCH   6   8
ATOM      8  C   UNL A   1      42.188  20.549  26.458  1.00  0.00     0.039 A 
ATOM      9  C   UNL A   1      42.612  21.480  25.507  1.00  0.00     0.014 A 
ATOM     10  C   UNL A   1      42.215  20.901  27.814  1.00  0.00     0.014 A 
ATOM     11  C   UNL A   1      43.154  22.702  25.908  1.00  0.00     0.010 A 
ATOM     12  C   UNL A   1      42.672  22.162  28.212  1.00  0.00     0.010 A 
ATOM     13  C   UNL A   1      43.152  23.074  27.260  1.00  0.00    -0.014 A 
BRANCH  13  14
ATOM     14  C   UNL A   1      43.527  24.460  27.647  1.00  0.00     0.031 A 
ATOM     15  C   UNL A   1      42.489  25.478  28.023  1.00  0.00     0.074 A 
ATOM     16  C   UNL A   1      44.831  24.804  27.625  1.00  0.00     0.049 A 
ATOM     17  N   UNL A   1      42.648  26.740  28.336  1.00  0.00    -0.248 NA
ATOM     18  C   UNL A   1      41.089  25.029  28.038  1.00  0.00     0.031 C 
ATOM     19  C   UNL A   1      45.929  23.912  27.246  1.00  0.00     0.029 A 
ATOM     20  N   UNL A   1      45.457  25.989  27.922  1.00  0.00    -0.354 N 
ATOM     21  C   UNL A   1      41.375  27.242  28.564  1.00  0.00     0.074 A 
ATOM     22  C   UNL A   1      40.447  26.153  28.335  1.00  0.00     0.031 C 
ATOM     23  C   UNL A   1      47.092  24.570  27.357  1.00  0.00     0.029 A 
ATOM     24  C   UNL A   1      46.820  25.947  27.753  1.00  0.00     0.049 A 
ATOM     25  H   UNL A   1      44.976  26.792  28.226  1.00  0.00     0.167 HD
ATOM     26  C   UNL A   1      41.018  28.496  28.935  1.00  0.00     0.037 A 
ATOM     27  C   UNL A   1      47.749  26.913  27.872  1.00  0.00     0.037 A 
ATOM     28  C   UNL A   1      41.949  29.566  29.193  1.00  0.00     0.049 A 
ATOM     29  C   UNL A   1      47.318  28.297  28.264  1.00  0.00     0.074 A 
ATOM     30  C   UNL A   1      41.687  30.841  29.663  1.00  0.00     0.029 A 
ATOM     31  N   UNL A   1      43.320  29.488  28.994  1.00  0.00    -0.354 N 
ATOM     32  N   UNL A   1      46.117  28.739  28.543  1.00  0.00    -0.248 NA
ATOM     33  C   UNL A   1      48.370  29.319  28.350  1.00  0.00     0.031 C 
ATOM     34  C   UNL A   1      42.890  31.554  29.695  1.00  0.00     0.029 A 
ATOM     35  C   UNL A   1      43.910  30.707  29.292  1.00  0.00     0.049 A 
ATOM     36  H   UNL A   1      43.802  28.687  28.687  1.00  0.00     0.167 HD
ATOM     37  C   UNL A   1      46.267  30.084  28.845  1.00  0.00     0.074 A 
ATOM     38  C   UNL A   1      47.680  30.382  28.740  1.00  0.00     0.031 C 
ATOM     39  C   UNL A   1      45.316  30.991  29.175  1.00  0.00     0.037 A 
BRANCH  26  40
ATOM     40  C   UNL A   1      39.556  28.802  29.076  1.00  0.00     0.064 A 
ATOM     41  C   UNL A   1      38.899  28.721  30.311  1.00  0.00     0.173 A 
ATOM     42  C   UNL A   1      38.821  29.264  27.972  1.00  0.00     0.173 A 
ATOM     43  F   UNL A   1      39.552  28.278  31.396  1.00  0.00    -0.203 F 
ATOM     44  C   UNL A   1      37.558  29.077  30.434  1.00  0.00     0.198 A 
ATOM     45  C   UNL A   1      37.489  29.643  28.103  1.00  0.00     0.198 A 
ATOM     46  F   UNL A   1      39.405  29.368  26.768  1.00  0.00    -0.203 F 
ATOM     47  F   UNL A   1      36.942  28.964  31.620  1.00  0.00    -0.200 F 
ATOM     48  C   UNL A   1      36.857  29.547  29.334  1.00  0.00     0.200 A 
ATOM     49  F   UNL A   1      36.816  30.107  27.041  1.00  0.00    -0.200 F 
ATOM     50  F   UNL A   1      35.571  29.903  29.457  1.00  0.00    -0.200 F 
ENDBRANCH  26  40
BRANCH  27  51
ATOM     51  C   UNL A   1      49.174  26.607  27.585  1.00  0.00     0.064 A 
ATOM     52  C   UNL A   1      50.078  26.331  28.618  1.00  0.00     0.173 A 
ATOM     53  C   UNL A   1      49.659  26.583  26.267  1.00  0.00     0.173 A 
ATOM     54  F   UNL A   1      49.667  26.365  29.894  1.00  0.00    -0.203 F 
ATOM     55  C   UNL A   1      51.418  26.057  28.347  1.00  0.00     0.198 A 
ATOM     56  C   UNL A   1      50.990  26.278  25.996  1.00  0.00     0.198 A 
ATOM     57  F   UNL A   1      48.833  26.838  25.242  1.00  0.00    -0.203 F 
ATOM     58  F   UNL A   1      52.272  25.839  29.356  1.00  0.00    -0.200 F 
ATOM     59  C   UNL A   1      51.870  26.023  27.036  1.00  0.00     0.200 A 
ATOM     60  F   UNL A   1      51.419  26.231  24.728  1.00  0.00    -0.200 F 
ATOM     61  F   UNL A   1      53.157  25.753  26.777  1.00  0.00    -0.200 F 
ENDBRANCH  27  51
BRANCH  39  62
ATOM     62  C   UNL A   1      45.775  32.392  29.451  1.00  0.00     0.064 A 
ATOM     63  C   UNL A   1      45.805  33.363  28.439  1.00  0.00     0.173 A 
ATOM     64  C   UNL A   1      46.151  32.778  30.746  1.00  0.00     0.173 A 
ATOM     65  F   UNL A   1      45.474  33.037  27.181  1.00  0.00    -0.203 F 
ATOM     66  C   UNL A   1      46.212  34.665  28.711  1.00  0.00     0.198 A 
ATOM     67  C   UNL A   1      46.532  34.088  31.020  1.00  0.00     0.198 A 
ATOM     68  F   UNL A   1      46.137  31.886  31.748  1.00  0.00    -0.203 F 
ATOM     69  F   UNL A   1      46.272  35.568  27.722  1.00  0.00    -0.200 F 
ATOM     70  C   UNL A   1      46.567  35.030  30.002  1.00  0.00     0.200 A 
ATOM     71  F   UNL A   1      46.864  34.441  32.270  1.00  0.00    -0.200 F 
ATOM     72  F   UNL A   1      46.950  36.287  30.264  1.00  0.00    -0.200 F 
ENDBRANCH  39  62
ENDBRANCH  13  14
ENDBRANCH   6   8
ENDBRANCH   3   4
ENDBRANCH   2   3
ENDBRANCH   1   2
BRANCH   1  73
ATOM     73  N   UNL A   1      37.069  21.726  25.576  1.00  0.00    -0.354 N 
ATOM     74  C   UNL A   1      36.441  22.925  25.407  1.00  0.00     0.249 C 
ATOM     75  H   UNL A   1      37.852  21.740  26.172  1.00  0.00     0.163 HD
ATOM     76  O   UNL A   1      37.005  23.921  25.865  1.00  0.00    -0.272 OA
BRANCH  74  77
ATOM     77  C   UNL A   1      35.043  22.982  24.745  1.00  0.00     0.207 C 
ATOM     78  C   UNL A   1      33.929  22.967  25.793  1.00  0.00     0.045 C 
ATOM     79  O   UNL A   1      34.819  24.151  23.932  1.00  0.00    -0.363 OA
ATOM     80  C   UNL A   1      33.540  24.428  25.875  1.00  0.00     0.037 C 
ATOM     81  C   UNL A   1      33.614  24.807  24.408  1.00  0.00     0.138 C 
BRANCH  81  82
ATOM     82  C   UNL A   1      33.603  26.323  24.115  1.00  0.00     0.145 C 
BRANCH  82  83
ATOM     83  N   UNL A   1      32.374  26.934  24.613  1.00  0.00    -0.382 N 
ATOM     84  H   UNL A   1      31.504  26.505  24.443  1.00  0.00     0.160 HD
BRANCH  83  85
ATOM     85  C   UNL A   1      32.438  28.126  25.328  1.00  0.00     0.046 A 
ATOM     86  C   UNL A   1      33.423  28.234  26.325  1.00  0.00     0.026 A 
ATOM     87  C   UNL A   1      31.626  29.240  25.083  1.00  0.00     0.079 A 
ATOM     88  C   UNL A   1      33.521  29.344  27.161  1.00  0.00     0.002 A 
ATOM     89  C   UNL A   1      31.739  30.370  25.928  1.00  0.00     0.015 A 
ATOM     90  C   UNL A   1      32.657  30.410  26.976  1.00  0.00     0.001 A 
BRANCH  87  91
ATOM     91  C   UNL A   1      30.668  29.317  23.922  1.00  0.00     0.418 C 
ATOM     92  F   UNL A   1      29.782  28.275  23.901  1.00  0.00    -0.166 F 
ATOM     93  F   UNL A   1      29.893  30.441  23.981  1.00  0.00    -0.166 F 
ATOM     94  F   UNL A   1      31.235  29.322  22.684  1.00  0.00    -0.166 F 
ENDBRANCH  87  91
ENDBRANCH  83  85
ENDBRANCH  82  83
ENDBRANCH  81  82
ENDBRANCH  74  77
ENDBRANCH   1  73
TORSDOF 14
ENDMDL
