MODEL 1
REMARK VINA RESULT:     -11.7      0.000      0.000
REMARK SMILES CC(C)(C)OC(=O)N1[C@@H](C(=O)NCCCNC(=O)c2ccc(-c3c4nc(c(-c5c(F)c(F)c(F)c(F)c5F)c5ccc([nH]5)c(-c5c(F)c(F)c(F)c(F)c5F)c5nc(c(-c6c(F)c(F)c(F)c(F)c6F)c6ccc3[nH]6)C=C5)C=C4)cc2)C[C@H]2CCCC[C@@H]21
REMARK SMILES IDX 13 1 12 2 10 3 11 4 9 6 8 7 88 8 82 9 83 10 87 11 84 12
REMARK SMILES IDX 86 13 85 14 6 15 7 16 5 17 2 18 1 19 3 20 4 21 14 22 15 23
REMARK SMILES IDX 16 24 17 25 18 27 19 28 20 29 81 30 21 31 80 32 22 33 23 34
REMARK SMILES IDX 24 35 74 36 25 37 79 38 73 39 75 40 26 41 78 42 72 43 71 44
REMARK SMILES IDX 27 46 59 47 39 48 58 49 40 50 43 51 57 52 76 53 41 54 42 55
REMARK SMILES IDX 56 57 77 58 44 59 28 60 29 61 37 62 30 63 31 64 35 65 38 66
REMARK SMILES IDX 32 67 33 68 36 69 34 70 60 71 61 72 69 73 62 74 63 75 67 76
REMARK SMILES IDX 70 77 64 78 65 79 68 80 66 81 45 82 46 83 54 84 47 85 48 86
REMARK SMILES IDX 52 87 55 88 49 89 50 90 53 91 51 92
REMARK H PARENT 12 5 16 26 75 45 43 56
REMARK Flexibility Score: inf
ROOT
ATOM      1  C   UNL A   1      33.170  26.376  25.120  1.00  0.00     0.117 C 
ENDROOT
BRANCH   1   2
ATOM      2  N   UNL A   1      33.746  25.694  23.968  1.00  0.00    -0.354 N 
ATOM      3  C   UNL A   1      33.555  24.436  23.460  1.00  0.00     0.242 C 
ATOM      4  O   UNL A   1      34.099  24.228  22.368  1.00  0.00    -0.273 OA
ATOM      5  H   UNL A   1      34.391  26.237  23.461  1.00  0.00     0.163 HD
BRANCH   3   6
ATOM      6  C   UNL A   1      32.813  23.297  24.224  1.00  0.00     0.178 C 
ATOM      7  N   UNL A   1      33.791  22.418  24.910  1.00  0.00    -0.293 N 
ATOM      8  C   UNL A   1      33.826  21.106  24.292  1.00  0.00     0.092 C 
ATOM      9  C   UNL A   1      32.055  22.317  23.316  1.00  0.00     0.041 C 
ATOM     10  C   UNL A   1      32.358  20.955  23.891  1.00  0.00     0.014 C 
ATOM     11  C   UNL A   1      34.210  19.869  25.100  1.00  0.00     0.025 C 
ATOM     12  C   UNL A   1      32.153  19.787  22.946  1.00  0.00     0.006 C 
ATOM     13  C   UNL A   1      33.992  18.606  24.249  1.00  0.00     0.002 C 
ATOM     14  C   UNL A   1      32.584  18.503  23.648  1.00  0.00     0.000 C 
BRANCH   7  15
ATOM     15  C   UNL A   1      34.519  22.726  26.037  1.00  0.00     0.411 C 
ATOM     16  O   UNL A   1      34.207  22.360  27.155  1.00  0.00    -0.224 OA
BRANCH  15  17
ATOM     17  O   UNL A   1      35.519  23.610  25.765  1.00  0.00    -0.444 OA
BRANCH  17  18
ATOM     18  C   UNL A   1      36.821  23.118  25.337  1.00  0.00     0.106 C 
ATOM     19  C   UNL A   1      37.842  24.003  26.069  1.00  0.00     0.056 C 
ATOM     20  C   UNL A   1      36.983  23.303  23.827  1.00  0.00     0.056 C 
ATOM     21  C   UNL A   1      37.097  21.661  25.755  1.00  0.00     0.056 C 
ENDBRANCH  17  18
ENDBRANCH  15  17
ENDBRANCH   7  15
ENDBRANCH   3   6
ENDBRANCH   1   2
BRANCH   1  22
ATOM     22  C   UNL A   1      32.475  27.686  24.792  1.00  0.00     0.042 C 
BRANCH  22  23
ATOM     23  C   UNL A   1      33.382  28.905  24.836  1.00  0.00     0.118 C 
BRANCH  23  24
ATOM     24  N   UNL A   1      32.747  30.080  25.420  1.00  0.00    -0.352 N 
ATOM     25  C   UNL A   1      33.032  30.827  26.541  1.00  0.00     0.251 C 
ATOM     26  H   UNL A   1      31.966  30.401  24.916  1.00  0.00     0.163 HD
ATOM     27  O   UNL A   1      32.233  31.692  26.894  1.00  0.00    -0.269 OA
BRANCH  25  28
ATOM     28  C   UNL A   1      34.252  30.595  27.353  1.00  0.00     0.039 A 
ATOM     29  C   UNL A   1      34.469  29.327  27.908  1.00  0.00     0.014 A 
ATOM     30  C   UNL A   1      35.158  31.615  27.627  1.00  0.00     0.014 A 
ATOM     31  C   UNL A   1      35.617  29.076  28.667  1.00  0.00     0.010 A 
ATOM     32  C   UNL A   1      36.361  31.335  28.265  1.00  0.00     0.010 A 
ATOM     33  C   UNL A   1      36.596  30.069  28.821  1.00  0.00    -0.014 A 
BRANCH  33  34
ATOM     34  C   UNL A   1      37.840  29.848  29.605  1.00  0.00     0.031 A 
ATOM     35  C   UNL A   1      38.915  28.941  29.059  1.00  0.00     0.074 A 
ATOM     36  C   UNL A   1      37.970  30.376  30.838  1.00  0.00     0.049 A 
ATOM     37  N   UNL A   1      39.996  28.486  29.641  1.00  0.00    -0.248 NA
ATOM     38  C   UNL A   1      38.719  28.436  27.690  1.00  0.00     0.031 C 
ATOM     39  C   UNL A   1      36.981  31.221  31.509  1.00  0.00     0.029 A 
ATOM     40  N   UNL A   1      38.988  30.267  31.752  1.00  0.00    -0.354 N 
ATOM     41  C   UNL A   1      40.574  27.608  28.731  1.00  0.00     0.074 A 
ATOM     42  C   UNL A   1      39.697  27.550  27.583  1.00  0.00     0.031 C 
ATOM     43  C   UNL A   1      37.452  31.576  32.715  1.00  0.00     0.029 A 
ATOM     44  C   UNL A   1      38.757  30.957  32.918  1.00  0.00     0.049 A 
ATOM     45  H   UNL A   1      39.805  29.744  31.589  1.00  0.00     0.167 HD
ATOM     46  C   UNL A   1      41.744  26.934  28.828  1.00  0.00     0.037 A 
ATOM     47  C   UNL A   1      39.516  31.074  34.024  1.00  0.00     0.037 A 
ATOM     48  C   UNL A   1      42.652  27.054  29.937  1.00  0.00     0.049 A 
ATOM     49  C   UNL A   1      40.849  30.377  34.078  1.00  0.00     0.074 A 
ATOM     50  C   UNL A   1      43.898  26.474  30.102  1.00  0.00     0.029 A 
ATOM     51  N   UNL A   1      42.416  27.827  31.063  1.00  0.00    -0.354 N 
ATOM     52  N   UNL A   1      41.406  29.589  33.191  1.00  0.00    -0.248 NA
ATOM     53  C   UNL A   1      41.662  30.596  35.281  1.00  0.00     0.031 C 
ATOM     54  C   UNL A   1      44.407  26.882  31.340  1.00  0.00     0.029 A 
ATOM     55  C   UNL A   1      43.495  27.742  31.928  1.00  0.00     0.049 A 
ATOM     56  H   UNL A   1      41.603  28.358  31.225  1.00  0.00     0.167 HD
ATOM     57  C   UNL A   1      42.646  29.244  33.712  1.00  0.00     0.074 A 
ATOM     58  C   UNL A   1      42.763  29.919  34.988  1.00  0.00     0.031 C 
ATOM     59  C   UNL A   1      43.600  28.441  33.183  1.00  0.00     0.037 A 
BRANCH  46  60
ATOM     60  C   UNL A   1      42.116  26.023  27.693  1.00  0.00     0.064 A 
ATOM     61  C   UNL A   1      43.057  26.401  26.723  1.00  0.00     0.173 A 
ATOM     62  C   UNL A   1      41.537  24.750  27.582  1.00  0.00     0.173 A 
ATOM     63  F   UNL A   1      43.630  27.613  26.775  1.00  0.00    -0.203 F 
ATOM     64  C   UNL A   1      43.375  25.556  25.663  1.00  0.00     0.198 A 
ATOM     65  C   UNL A   1      41.882  23.894  26.538  1.00  0.00     0.198 A 
ATOM     66  F   UNL A   1      40.636  24.336  28.485  1.00  0.00    -0.203 F 
ATOM     67  F   UNL A   1      44.231  25.965  24.716  1.00  0.00    -0.200 F 
ATOM     68  C   UNL A   1      42.792  24.301  25.575  1.00  0.00     0.200 A 
ATOM     69  F   UNL A   1      41.326  22.677  26.460  1.00  0.00    -0.200 F 
ATOM     70  F   UNL A   1      43.101  23.489  24.556  1.00  0.00    -0.200 F 
ENDBRANCH  46  60
BRANCH  47  71
ATOM     71  C   UNL A   1      39.059  31.929  35.150  1.00  0.00     0.064 A 
ATOM     72  C   UNL A   1      39.296  33.311  35.138  1.00  0.00     0.173 A 
ATOM     73  C   UNL A   1      38.380  31.392  36.252  1.00  0.00     0.173 A 
ATOM     74  F   UNL A   1      39.958  33.868  34.113  1.00  0.00    -0.203 F 
ATOM     75  C   UNL A   1      38.888  34.121  36.196  1.00  0.00     0.198 A 
ATOM     76  C   UNL A   1      37.950  32.207  37.298  1.00  0.00     0.198 A 
ATOM     77  F   UNL A   1      38.121  30.077  36.306  1.00  0.00    -0.203 F 
ATOM     78  F   UNL A   1      39.164  35.432  36.178  1.00  0.00    -0.200 F 
ATOM     79  C   UNL A   1      38.212  33.569  37.273  1.00  0.00     0.200 A 
ATOM     80  F   UNL A   1      37.284  31.673  38.330  1.00  0.00    -0.200 F 
ATOM     81  F   UNL A   1      37.816  34.348  38.288  1.00  0.00    -0.200 F 
ENDBRANCH  47  71
BRANCH  59  82
ATOM     82  C   UNL A   1      44.875  28.290  33.957  1.00  0.00     0.064 A 
ATOM     83  C   UNL A   1      45.064  27.237  34.863  1.00  0.00     0.173 A 
ATOM     84  C   UNL A   1      45.932  29.189  33.759  1.00  0.00     0.173 A 
ATOM     85  F   UNL A   1      44.075  26.360  35.096  1.00  0.00    -0.203 F 
ATOM     86  C   UNL A   1      46.259  27.105  35.564  1.00  0.00     0.198 A 
ATOM     87  C   UNL A   1      47.136  29.039  34.442  1.00  0.00     0.198 A 
ATOM     88  F   UNL A   1      45.801  30.209  32.898  1.00  0.00    -0.203 F 
ATOM     89  F   UNL A   1      46.404  26.117  36.458  1.00  0.00    -0.200 F 
ATOM     90  C   UNL A   1      47.296  28.001  35.347  1.00  0.00     0.200 A 
ATOM     91  F   UNL A   1      48.141  29.899  34.224  1.00  0.00    -0.200 F 
ATOM     92  F   UNL A   1      48.448  27.870  36.020  1.00  0.00    -0.200 F 
ENDBRANCH  59  82
ENDBRANCH  33  34
ENDBRANCH  25  28
ENDBRANCH  23  24
ENDBRANCH  22  23
ENDBRANCH   1  22
TORSDOF 13
ENDMDL
MODEL 2
REMARK VINA RESULT:     -11.7      3.864      7.185
REMARK SMILES CC(C)(C)OC(=O)N1[C@@H](C(=O)NCCCNC(=O)c2ccc(-c3c4nc(c(-c5c(F)c(F)c(F)c(F)c5F)c5ccc([nH]5)c(-c5c(F)c(F)c(F)c(F)c5F)c5nc(c(-c6c(F)c(F)c(F)c(F)c6F)c6ccc3[nH]6)C=C5)C=C4)cc2)C[C@H]2CCCC[C@@H]21
REMARK SMILES IDX 13 1 12 2 10 3 11 4 9 6 8 7 88 8 82 9 83 10 87 11 84 12
REMARK SMILES IDX 86 13 85 14 6 15 7 16 5 17 2 18 1 19 3 20 4 21 14 22 15 23
REMARK SMILES IDX 16 24 17 25 18 27 19 28 20 29 81 30 21 31 80 32 22 33 23 34
REMARK SMILES IDX 24 35 74 36 25 37 79 38 73 39 75 40 26 41 78 42 72 43 71 44
REMARK SMILES IDX 27 46 59 47 39 48 58 49 40 50 43 51 57 52 76 53 41 54 42 55
REMARK SMILES IDX 56 57 77 58 44 59 28 60 29 61 37 62 30 63 31 64 35 65 38 66
REMARK SMILES IDX 32 67 33 68 36 69 34 70 60 71 61 72 69 73 62 74 63 75 67 76
REMARK SMILES IDX 70 77 64 78 65 79 68 80 66 81 45 82 46 83 54 84 47 85 48 86
REMARK SMILES IDX 52 87 55 88 49 89 50 90 53 91 51 92
REMARK H PARENT 12 5 16 26 75 45 43 56
REMARK Flexibility Score: inf
ROOT
ATOM      1  C   UNL A   1      34.618  24.900  24.979  1.00  0.00     0.117 C 
ENDROOT
BRANCH   1   2
ATOM      2  N   UNL A   1      33.475  25.223  25.823  1.00  0.00    -0.354 N 
ATOM      3  C   UNL A   1      32.248  25.762  25.537  1.00  0.00     0.242 C 
ATOM      4  O   UNL A   1      31.448  25.765  26.479  1.00  0.00    -0.273 OA
ATOM      5  H   UNL A   1      33.608  25.015  26.775  1.00  0.00     0.163 HD
BRANCH   3   6
ATOM      6  C   UNL A   1      31.894  26.432  24.173  1.00  0.00     0.178 C 
ATOM      7  N   UNL A   1      31.968  27.909  24.293  1.00  0.00    -0.293 N 
ATOM      8  C   UNL A   1      30.646  28.499  24.195  1.00  0.00     0.092 C 
ATOM      9  C   UNL A   1      30.447  26.201  23.713  1.00  0.00     0.041 C 
ATOM     10  C   UNL A   1      29.995  27.544  23.195  1.00  0.00     0.014 C 
ATOM     11  C   UNL A   1      30.460  29.918  23.664  1.00  0.00     0.025 C 
ATOM     12  C   UNL A   1      28.494  27.745  23.125  1.00  0.00     0.006 C 
ATOM     13  C   UNL A   1      28.960  30.218  23.504  1.00  0.00     0.002 C 
ATOM     14  C   UNL A   1      28.208  29.173  22.669  1.00  0.00     0.000 C 
BRANCH   7  15
ATOM     15  C   UNL A   1      33.114  28.666  24.390  1.00  0.00     0.411 C 
ATOM     16  O   UNL A   1      34.166  28.355  23.864  1.00  0.00    -0.224 OA
BRANCH  15  17
ATOM     17  O   UNL A   1      32.963  29.698  25.266  1.00  0.00    -0.444 OA
BRANCH  17  18
ATOM     18  C   UNL A   1      33.206  29.482  26.685  1.00  0.00     0.106 C 
ATOM     19  C   UNL A   1      33.546  30.872  27.247  1.00  0.00     0.056 C 
ATOM     20  C   UNL A   1      34.407  28.553  26.877  1.00  0.00     0.056 C 
ATOM     21  C   UNL A   1      31.972  28.969  27.450  1.00  0.00     0.056 C 
ENDBRANCH  17  18
ENDBRANCH  15  17
ENDBRANCH   7  15
ENDBRANCH   3   6
ENDBRANCH   1   2
BRANCH   1  22
ATOM     22  C   UNL A   1      35.595  23.914  25.594  1.00  0.00     0.042 C 
BRANCH  22  23
ATOM     23  C   UNL A   1      36.819  23.629  24.738  1.00  0.00     0.118 C 
BRANCH  23  24
ATOM     24  N   UNL A   1      37.733  22.663  25.337  1.00  0.00    -0.352 N 
ATOM     25  C   UNL A   1      38.839  22.810  26.141  1.00  0.00     0.251 C 
ATOM     26  H   UNL A   1      37.515  21.727  25.125  1.00  0.00     0.163 HD
ATOM     27  O   UNL A   1      39.528  21.822  26.387  1.00  0.00    -0.269 OA
BRANCH  25  28
ATOM     28  C   UNL A   1      39.245  24.127  26.691  1.00  0.00     0.039 A 
ATOM     29  C   UNL A   1      38.893  24.451  28.008  1.00  0.00     0.014 A 
ATOM     30  C   UNL A   1      39.914  25.073  25.920  1.00  0.00     0.014 A 
ATOM     31  C   UNL A   1      39.273  25.682  28.557  1.00  0.00     0.010 A 
ATOM     32  C   UNL A   1      40.407  26.235  26.502  1.00  0.00     0.010 A 
ATOM     33  C   UNL A   1      40.069  26.571  27.820  1.00  0.00    -0.014 A 
BRANCH  33  34
ATOM     34  C   UNL A   1      40.512  27.883  28.364  1.00  0.00     0.031 A 
ATOM     35  C   UNL A   1      41.967  28.098  28.700  1.00  0.00     0.074 A 
ATOM     36  C   UNL A   1      39.609  28.841  28.646  1.00  0.00     0.049 A 
ATOM     37  N   UNL A   1      42.538  29.096  29.327  1.00  0.00    -0.248 NA
ATOM     38  C   UNL A   1      42.897  27.020  28.325  1.00  0.00     0.031 C 
ATOM     39  C   UNL A   1      38.165  28.740  28.427  1.00  0.00     0.029 A 
ATOM     40  N   UNL A   1      39.774  30.090  29.192  1.00  0.00    -0.354 N 
ATOM     41  C   UNL A   1      43.875  28.740  29.464  1.00  0.00     0.074 A 
ATOM     42  C   UNL A   1      44.020  27.414  28.907  1.00  0.00     0.031 C 
ATOM     43  C   UNL A   1      37.580  29.887  28.808  1.00  0.00     0.029 A 
ATOM     44  C   UNL A   1      38.600  30.791  29.330  1.00  0.00     0.049 A 
ATOM     45  H   UNL A   1      40.650  30.449  29.459  1.00  0.00     0.167 HD
ATOM     46  C   UNL A   1      44.898  29.464  29.979  1.00  0.00     0.037 A 
ATOM     47  C   UNL A   1      38.376  32.023  29.824  1.00  0.00     0.037 A 
ATOM     48  C   UNL A   1      44.766  30.812  30.460  1.00  0.00     0.049 A 
ATOM     49  C   UNL A   1      39.540  32.838  30.320  1.00  0.00     0.074 A 
ATOM     50  C   UNL A   1      45.750  31.662  30.933  1.00  0.00     0.029 A 
ATOM     51  N   UNL A   1      43.571  31.514  30.509  1.00  0.00    -0.354 N 
ATOM     52  N   UNL A   1      40.806  32.510  30.399  1.00  0.00    -0.248 NA
ATOM     53  C   UNL A   1      39.243  34.200  30.783  1.00  0.00     0.031 C 
ATOM     54  C   UNL A   1      45.146  32.874  31.287  1.00  0.00     0.029 A 
ATOM     55  C   UNL A   1      43.794  32.790  31.002  1.00  0.00     0.049 A 
ATOM     56  H   UNL A   1      42.695  31.160  30.234  1.00  0.00     0.167 HD
ATOM     57  C   UNL A   1      41.461  33.631  30.889  1.00  0.00     0.074 A 
ATOM     58  C   UNL A   1      40.453  34.653  31.079  1.00  0.00     0.031 C 
ATOM     59  C   UNL A   1      42.779  33.799  31.160  1.00  0.00     0.037 A 
BRANCH  46  60
ATOM     60  C   UNL A   1      46.251  28.815  30.026  1.00  0.00     0.064 A 
ATOM     61  C   UNL A   1      47.150  28.906  28.952  1.00  0.00     0.173 A 
ATOM     62  C   UNL A   1      46.661  28.106  31.165  1.00  0.00     0.173 A 
ATOM     63  F   UNL A   1      46.802  29.562  27.835  1.00  0.00    -0.203 F 
ATOM     64  C   UNL A   1      48.393  28.281  29.001  1.00  0.00     0.198 A 
ATOM     65  C   UNL A   1      47.919  27.508  31.223  1.00  0.00     0.198 A 
ATOM     66  F   UNL A   1      45.844  27.991  32.222  1.00  0.00    -0.203 F 
ATOM     67  F   UNL A   1      49.209  28.332  27.939  1.00  0.00    -0.200 F 
ATOM     68  C   UNL A   1      48.779  27.587  30.138  1.00  0.00     0.200 A 
ATOM     69  F   UNL A   1      48.296  26.847  32.327  1.00  0.00    -0.200 F 
ATOM     70  F   UNL A   1      49.976  26.987  30.183  1.00  0.00    -0.200 F 
ENDBRANCH  46  60
BRANCH  47  71
ATOM     71  C   UNL A   1      37.000  32.583  29.822  1.00  0.00     0.064 A 
ATOM     72  C   UNL A   1      36.509  33.267  28.701  1.00  0.00     0.173 A 
ATOM     73  C   UNL A   1      36.151  32.449  30.928  1.00  0.00     0.173 A 
ATOM     74  F   UNL A   1      37.292  33.437  27.625  1.00  0.00    -0.203 F 
ATOM     75  C   UNL A   1      35.227  33.813  28.694  1.00  0.00     0.198 A 
ATOM     76  C   UNL A   1      34.859  32.973  30.911  1.00  0.00     0.198 A 
ATOM     77  F   UNL A   1      36.570  31.795  32.022  1.00  0.00    -0.203 F 
ATOM     78  F   UNL A   1      34.799  34.497  27.625  1.00  0.00    -0.200 F 
ATOM     79  C   UNL A   1      34.402  33.661  29.797  1.00  0.00     0.200 A 
ATOM     80  F   UNL A   1      34.058  32.812  31.973  1.00  0.00    -0.200 F 
ATOM     81  F   UNL A   1      33.167  34.183  29.789  1.00  0.00    -0.200 F 
ENDBRANCH  47  71
BRANCH  59  82
ATOM     82  C   UNL A   1      43.213  35.151  31.639  1.00  0.00     0.064 A 
ATOM     83  C   UNL A   1      43.588  36.163  30.744  1.00  0.00     0.173 A 
ATOM     84  C   UNL A   1      43.215  35.447  33.009  1.00  0.00     0.173 A 
ATOM     85  F   UNL A   1      43.615  35.921  29.424  1.00  0.00    -0.203 F 
ATOM     86  C   UNL A   1      43.976  37.417  31.206  1.00  0.00     0.198 A 
ATOM     87  C   UNL A   1      43.579  36.711  33.467  1.00  0.00     0.198 A 
ATOM     88  F   UNL A   1      42.858  34.514  33.904  1.00  0.00    -0.203 F 
ATOM     89  F   UNL A   1      44.373  38.356  30.337  1.00  0.00    -0.200 F 
ATOM     90  C   UNL A   1      43.964  37.692  32.567  1.00  0.00     0.200 A 
ATOM     91  F   UNL A   1      43.556  36.978  34.780  1.00  0.00    -0.200 F 
ATOM     92  F   UNL A   1      44.334  38.901  33.009  1.00  0.00    -0.200 F 
ENDBRANCH  59  82
ENDBRANCH  33  34
ENDBRANCH  25  28
ENDBRANCH  23  24
ENDBRANCH  22  23
ENDBRANCH   1  22
TORSDOF 13
ENDMDL
MODEL 3
REMARK VINA RESULT:     -11.7      1.368      7.677
REMARK SMILES CC(C)(C)OC(=O)N1[C@@H](C(=O)NCCCNC(=O)c2ccc(-c3c4nc(c(-c5c(F)c(F)c(F)c(F)c5F)c5ccc([nH]5)c(-c5c(F)c(F)c(F)c(F)c5F)c5nc(c(-c6c(F)c(F)c(F)c(F)c6F)c6ccc3[nH]6)C=C5)C=C4)cc2)C[C@H]2CCCC[C@@H]21
REMARK SMILES IDX 13 1 12 2 10 3 11 4 9 6 8 7 88 8 82 9 83 10 87 11 84 12
REMARK SMILES IDX 86 13 85 14 6 15 7 16 5 17 2 18 1 19 3 20 4 21 14 22 15 23
REMARK SMILES IDX 16 24 17 25 18 27 19 28 20 29 81 30 21 31 80 32 22 33 23 34
REMARK SMILES IDX 24 35 74 36 25 37 79 38 73 39 75 40 26 41 78 42 72 43 71 44
REMARK SMILES IDX 27 46 59 47 39 48 58 49 40 50 43 51 57 52 76 53 41 54 42 55
REMARK SMILES IDX 56 57 77 58 44 59 28 60 29 61 37 62 30 63 31 64 35 65 38 66
REMARK SMILES IDX 32 67 33 68 36 69 34 70 60 71 61 72 69 73 62 74 63 75 67 76
REMARK SMILES IDX 70 77 64 78 65 79 68 80 66 81 45 82 46 83 54 84 47 85 48 86
REMARK SMILES IDX 52 87 55 88 49 89 50 90 53 91 51 92
REMARK H PARENT 12 5 16 26 75 45 43 56
REMARK Flexibility Score: inf
ROOT
ATOM      1  C   UNL A   1      32.526  27.012  26.497  1.00  0.00     0.117 C 
ENDROOT
BRANCH   1   2
ATOM      2  N   UNL A   1      31.573  25.941  26.757  1.00  0.00    -0.354 N 
ATOM      3  C   UNL A   1      31.624  24.593  26.521  1.00  0.00     0.242 C 
ATOM      4  O   UNL A   1      30.691  23.943  27.008  1.00  0.00    -0.273 OA
ATOM      5  H   UNL A   1      30.738  26.242  27.181  1.00  0.00     0.163 HD
BRANCH   3   6
ATOM      6  C   UNL A   1      32.699  23.912  25.618  1.00  0.00     0.178 C 
ATOM      7  N   UNL A   1      32.047  23.208  24.486  1.00  0.00    -0.293 N 
ATOM      8  C   UNL A   1      32.183  21.771  24.628  1.00  0.00     0.092 C 
ATOM      9  C   UNL A   1      33.485  22.788  26.310  1.00  0.00     0.041 C 
ATOM     10  C   UNL A   1      33.565  21.691  25.276  1.00  0.00     0.014 C 
ATOM     11  C   UNL A   1      32.197  20.861  23.402  1.00  0.00     0.025 C 
ATOM     12  C   UNL A   1      33.850  20.304  25.818  1.00  0.00     0.006 C 
ATOM     13  C   UNL A   1      32.529  19.421  23.830  1.00  0.00     0.002 C 
ATOM     14  C   UNL A   1      33.811  19.306  24.664  1.00  0.00     0.000 C 
BRANCH   7  15
ATOM     15  C   UNL A   1      31.464  23.794  23.386  1.00  0.00     0.411 C 
ATOM     16  O   UNL A   1      30.278  23.697  23.127  1.00  0.00    -0.224 OA
BRANCH  15  17
ATOM     17  O   UNL A   1      32.393  24.344  22.556  1.00  0.00    -0.444 OA
BRANCH  17  18
ATOM     18  C   UNL A   1      32.404  25.783  22.338  1.00  0.00     0.106 C 
ATOM     19  C   UNL A   1      32.417  25.955  20.811  1.00  0.00     0.056 C 
ATOM     20  C   UNL A   1      33.680  26.394  22.925  1.00  0.00     0.056 C 
ATOM     21  C   UNL A   1      31.147  26.497  22.868  1.00  0.00     0.056 C 
ENDBRANCH  17  18
ENDBRANCH  15  17
ENDBRANCH   7  15
ENDBRANCH   3   6
ENDBRANCH   1   2
BRANCH   1  22
ATOM     22  C   UNL A   1      31.895  28.376  26.277  1.00  0.00     0.042 C 
BRANCH  22  23
ATOM     23  C   UNL A   1      32.808  29.386  25.600  1.00  0.00     0.118 C 
BRANCH  23  24
ATOM     24  N   UNL A   1      32.591  30.755  26.049  1.00  0.00    -0.352 N 
ATOM     25  C   UNL A   1      33.214  31.527  27.003  1.00  0.00     0.251 C 
ATOM     26  H   UNL A   1      31.860  31.217  25.579  1.00  0.00     0.163 HD
ATOM     27  O   UNL A   1      32.728  32.620  27.291  1.00  0.00    -0.269 OA
BRANCH  25  28
ATOM     28  C   UNL A   1      34.429  31.067  27.718  1.00  0.00     0.039 A 
ATOM     29  C   UNL A   1      35.442  31.993  28.001  1.00  0.00     0.014 A 
ATOM     30  C   UNL A   1      34.620  29.733  28.064  1.00  0.00     0.014 A 
ATOM     31  C   UNL A   1      36.595  31.590  28.686  1.00  0.00     0.010 A 
ATOM     32  C   UNL A   1      35.697  29.359  28.859  1.00  0.00     0.010 A 
ATOM     33  C   UNL A   1      36.716  30.275  29.156  1.00  0.00    -0.014 A 
BRANCH  33  34
ATOM     34  C   UNL A   1      37.913  29.801  29.902  1.00  0.00     0.031 A 
ATOM     35  C   UNL A   1      38.158  30.289  31.308  1.00  0.00     0.074 A 
ATOM     36  C   UNL A   1      38.825  29.017  29.295  1.00  0.00     0.049 A 
ATOM     37  N   UNL A   1      39.208  30.133  32.073  1.00  0.00    -0.248 NA
ATOM     38  C   UNL A   1      37.096  31.109  31.916  1.00  0.00     0.031 C 
ATOM     39  C   UNL A   1      38.742  28.524  27.920  1.00  0.00     0.029 A 
ATOM     40  N   UNL A   1      40.013  28.509  29.758  1.00  0.00    -0.354 N 
ATOM     41  C   UNL A   1      38.953  30.873  33.222  1.00  0.00     0.074 A 
ATOM     42  C   UNL A   1      37.676  31.524  33.032  1.00  0.00     0.031 C 
ATOM     43  C   UNL A   1      39.816  27.761  27.660  1.00  0.00     0.029 A 
ATOM     44  C   UNL A   1      40.681  27.741  28.835  1.00  0.00     0.049 A 
ATOM     45  H   UNL A   1      40.354  28.678  30.665  1.00  0.00     0.167 HD
ATOM     46  C   UNL A   1      39.699  30.978  34.348  1.00  0.00     0.037 A 
ATOM     47  C   UNL A   1      41.858  27.094  28.929  1.00  0.00     0.037 A 
ATOM     48  C   UNL A   1      40.930  30.269  34.565  1.00  0.00     0.049 A 
ATOM     49  C   UNL A   1      42.633  27.164  30.218  1.00  0.00     0.074 A 
ATOM     50  C   UNL A   1      41.728  30.245  35.697  1.00  0.00     0.029 A 
ATOM     51  N   UNL A   1      41.532  29.437  33.633  1.00  0.00    -0.354 N 
ATOM     52  N   UNL A   1      42.358  27.827  31.314  1.00  0.00    -0.248 NA
ATOM     53  C   UNL A   1      43.876  26.384  30.285  1.00  0.00     0.031 C 
ATOM     54  C   UNL A   1      42.823  29.413  35.440  1.00  0.00     0.029 A 
ATOM     55  C   UNL A   1      42.690  28.893  34.164  1.00  0.00     0.049 A 
ATOM     56  H   UNL A   1      41.188  29.260  32.728  1.00  0.00     0.167 HD
ATOM     57  C   UNL A   1      43.371  27.522  32.211  1.00  0.00     0.074 A 
ATOM     58  C   UNL A   1      44.263  26.603  31.534  1.00  0.00     0.031 C 
ATOM     59  C   UNL A   1      43.550  27.962  33.480  1.00  0.00     0.037 A 
BRANCH  46  60
ATOM     60  C   UNL A   1      39.189  31.879  35.436  1.00  0.00     0.064 A 
ATOM     61  C   UNL A   1      39.514  33.243  35.476  1.00  0.00     0.173 A 
ATOM     62  C   UNL A   1      38.353  31.375  36.443  1.00  0.00     0.173 A 
ATOM     63  F   UNL A   1      40.321  33.773  34.545  1.00  0.00    -0.203 F 
ATOM     64  C   UNL A   1      39.053  34.061  36.505  1.00  0.00     0.198 A 
ATOM     65  C   UNL A   1      37.866  32.203  37.453  1.00  0.00     0.198 A 
ATOM     66  F   UNL A   1      38.006  30.079  36.450  1.00  0.00    -0.203 F 
ATOM     67  F   UNL A   1      39.427  35.348  36.553  1.00  0.00    -0.200 F 
ATOM     68  C   UNL A   1      38.225  33.543  37.488  1.00  0.00     0.200 A 
ATOM     69  F   UNL A   1      37.057  31.703  38.397  1.00  0.00    -0.200 F 
ATOM     70  F   UNL A   1      37.781  34.331  38.476  1.00  0.00    -0.200 F 
ENDBRANCH  46  60
BRANCH  47  71
ATOM     71  C   UNL A   1      42.351  26.280  27.788  1.00  0.00     0.064 A 
ATOM     72  C   UNL A   1      41.945  24.946  27.636  1.00  0.00     0.173 A 
ATOM     73  C   UNL A   1      43.228  26.809  26.832  1.00  0.00     0.173 A 
ATOM     74  F   UNL A   1      41.121  24.391  28.537  1.00  0.00    -0.203 F 
ATOM     75  C   UNL A   1      42.413  24.166  26.581  1.00  0.00     0.198 A 
ATOM     76  C   UNL A   1      43.676  26.035  25.762  1.00  0.00     0.198 A 
ATOM     77  F   UNL A   1      43.639  28.082  26.929  1.00  0.00    -0.203 F 
ATOM     78  F   UNL A   1      42.042  22.883  26.483  1.00  0.00    -0.200 F 
ATOM     79  C   UNL A   1      43.275  24.713  25.643  1.00  0.00     0.200 A 
ATOM     80  F   UNL A   1      44.497  26.571  24.849  1.00  0.00    -0.200 F 
ATOM     81  F   UNL A   1      43.723  23.965  24.626  1.00  0.00    -0.200 F 
ENDBRANCH  47  71
BRANCH  59  82
ATOM     82  C   UNL A   1      44.724  27.416  34.236  1.00  0.00     0.064 A 
ATOM     83  C   UNL A   1      44.622  26.253  35.012  1.00  0.00     0.173 A 
ATOM     84  C   UNL A   1      45.973  28.046  34.150  1.00  0.00     0.173 A 
ATOM     85  F   UNL A   1      43.443  25.624  35.135  1.00  0.00    -0.203 F 
ATOM     86  C   UNL A   1      45.726  25.754  35.697  1.00  0.00     0.198 A 
ATOM     87  C   UNL A   1      47.081  27.530  34.815  1.00  0.00     0.198 A 
ATOM     88  F   UNL A   1      46.122  29.158  33.415  1.00  0.00    -0.203 F 
ATOM     89  F   UNL A   1      45.598  24.666  36.469  1.00  0.00    -0.200 F 
ATOM     90  C   UNL A   1      46.956  26.388  35.592  1.00  0.00     0.200 A 
ATOM     91  F   UNL A   1      48.271  28.137  34.705  1.00  0.00    -0.200 F 
ATOM     92  F   UNL A   1      48.018  25.904  36.249  1.00  0.00    -0.200 F 
ENDBRANCH  59  82
ENDBRANCH  33  34
ENDBRANCH  25  28
ENDBRANCH  23  24
ENDBRANCH  22  23
ENDBRANCH   1  22
TORSDOF 13
ENDMDL
