MODEL 1
REMARK VINA RESULT:     -11.9      0.000      0.000
REMARK SMILES O=C(NCCCNC(=O)[C@H]1CC[C@@H](CNc2nncs2)CC1)c1ccc(-c2c3nc(c(-c4c(F)c(F)c(F)c(F)c4F)c4ccc([nH]4)c(-c4c(F)c(F)c(F)c(F)c4F)c4nc(c(-c5c(F)c(F)c(F)c(F)c5F)c5ccc2[nH]5)C=C4)C=C3)cc1
REMARK SMILES IDX 5 1 4 2 3 3 1 4 2 5 23 7 24 8 85 9 25 10 84 11 26 12 27 13
REMARK SMILES IDX 28 14 78 15 29 16 83 17 77 18 79 19 30 20 82 21 76 22 75 23
REMARK SMILES IDX 31 25 63 26 43 27 62 28 44 29 47 30 61 31 80 32 45 33 46 34
REMARK SMILES IDX 60 36 81 37 48 38 32 39 33 40 41 41 34 42 35 43 39 44 42 45
REMARK SMILES IDX 36 46 37 47 40 48 38 49 64 50 65 51 73 52 66 53 67 54 71 55
REMARK SMILES IDX 74 56 68 57 69 58 72 59 70 60 49 61 50 62 58 63 51 64 52 65
REMARK SMILES IDX 56 66 59 67 53 68 54 69 57 70 55 71 6 72 7 73 8 74 9 76
REMARK SMILES IDX 10 77 22 78 11 79 21 80 12 81 13 82 14 83 15 84 16 86 17 87
REMARK SMILES IDX 20 88 18 89 19 90
REMARK H PARENT 3 6 79 24 47 35 7 75 15 85
REMARK Flexibility Score: inf
ROOT
ATOM      1  C   UNL A   1      31.486  32.049  26.903  1.00  0.00     0.042 C 
ENDROOT
BRANCH   1   2
ATOM      2  C   UNL A   1      32.757  32.879  27.004  1.00  0.00     0.118 C 
BRANCH   2   3
ATOM      3  N   UNL A   1      32.512  34.181  27.620  1.00  0.00    -0.352 N 
ATOM      4  O   UNL A   1      32.556  35.749  29.237  1.00  0.00    -0.269 OA
ATOM      5  C   UNL A   1      33.073  34.761  28.733  1.00  0.00     0.251 C 
ATOM      6  H   UNL A   1      31.834  34.733  27.165  1.00  0.00     0.163 HD
BRANCH   5   7
ATOM      7  C   UNL A   1      34.304  34.188  29.317  1.00  0.00     0.039 A 
ATOM      8  C   UNL A   1      34.212  33.221  30.316  1.00  0.00     0.014 A 
ATOM      9  C   UNL A   1      35.557  34.591  28.845  1.00  0.00     0.014 A 
ATOM     10  C   UNL A   1      35.355  32.800  30.972  1.00  0.00     0.010 A 
ATOM     11  C   UNL A   1      36.718  34.055  29.415  1.00  0.00     0.010 A 
ATOM     12  C   UNL A   1      36.625  33.173  30.502  1.00  0.00    -0.014 A 
BRANCH  12  13
ATOM     13  C   UNL A   1      37.809  32.532  31.125  1.00  0.00     0.031 A 
ATOM     14  C   UNL A   1      38.256  32.882  32.514  1.00  0.00     0.074 A 
ATOM     15  C   UNL A   1      38.427  31.553  30.433  1.00  0.00     0.049 A 
ATOM     16  N   UNL A   1      39.217  32.347  33.225  1.00  0.00    -0.248 NA
ATOM     17  C   UNL A   1      37.546  33.975  33.194  1.00  0.00     0.031 C 
ATOM     18  C   UNL A   1      38.085  31.150  29.065  1.00  0.00     0.029 A 
ATOM     19  N   UNL A   1      39.431  30.692  30.788  1.00  0.00    -0.354 N 
ATOM     20  C   UNL A   1      39.232  33.038  34.428  1.00  0.00     0.074 A 
ATOM     21  C   UNL A   1      38.209  34.059  34.340  1.00  0.00     0.031 C 
ATOM     22  C   UNL A   1      38.808  30.076  28.726  1.00  0.00     0.029 A 
ATOM     23  C   UNL A   1      39.727  29.769  29.814  1.00  0.00     0.049 A 
ATOM     24  H   UNL A   1      39.895  30.730  31.655  1.00  0.00     0.167 HD
ATOM     25  C   UNL A   1      40.021  32.826  35.509  1.00  0.00     0.037 A 
ATOM     26  C   UNL A   1      40.653  28.796  29.786  1.00  0.00     0.037 A 
ATOM     27  C   UNL A   1      41.037  31.806  35.582  1.00  0.00     0.049 A 
ATOM     28  C   UNL A   1      41.525  28.604  30.992  1.00  0.00     0.074 A 
ATOM     29  C   UNL A   1      41.891  31.509  36.630  1.00  0.00     0.029 A 
ATOM     30  N   UNL A   1      41.338  30.913  34.562  1.00  0.00    -0.354 N 
ATOM     31  N   UNL A   1      41.514  29.251  32.131  1.00  0.00    -0.248 NA
ATOM     32  C   UNL A   1      42.539  27.547  30.909  1.00  0.00     0.031 C 
ATOM     33  C   UNL A   1      42.738  30.471  36.228  1.00  0.00     0.029 A 
ATOM     34  C   UNL A   1      42.375  30.078  34.950  1.00  0.00     0.049 A 
ATOM     35  H   UNL A   1      40.882  30.879  33.689  1.00  0.00     0.167 HD
ATOM     36  C   UNL A   1      42.511  28.677  32.905  1.00  0.00     0.074 A 
ATOM     37  C   UNL A   1      43.079  27.601  32.118  1.00  0.00     0.031 C 
ATOM     38  C   UNL A   1      42.930  29.017  34.149  1.00  0.00     0.037 A 
BRANCH  25  39
ATOM     39  C   UNL A   1      39.826  33.719  36.703  1.00  0.00     0.064 A 
ATOM     40  C   UNL A   1      40.449  34.974  36.793  1.00  0.00     0.173 A 
ATOM     41  C   UNL A   1      38.960  33.344  37.742  1.00  0.00     0.173 A 
ATOM     42  F   UNL A   1      41.293  35.378  35.831  1.00  0.00    -0.203 F 
ATOM     43  C   UNL A   1      40.226  35.810  37.885  1.00  0.00     0.198 A 
ATOM     44  C   UNL A   1      38.717  34.195  38.818  1.00  0.00     0.198 A 
ATOM     45  F   UNL A   1      38.332  32.159  37.705  1.00  0.00    -0.203 F 
ATOM     46  F   UNL A   1      40.860  36.988  37.963  1.00  0.00    -0.200 F 
ATOM     47  C   UNL A   1      39.355  35.424  38.891  1.00  0.00     0.200 A 
ATOM     48  F   UNL A   1      37.860  33.827  39.781  1.00  0.00    -0.200 F 
ATOM     49  F   UNL A   1      39.130  36.237  39.933  1.00  0.00    -0.200 F 
ENDBRANCH  25  39
BRANCH  26  50
ATOM     50  C   UNL A   1      40.817  27.960  28.568  1.00  0.00     0.064 A 
ATOM     51  C   UNL A   1      40.160  26.730  28.429  1.00  0.00     0.173 A 
ATOM     52  C   UNL A   1      41.645  28.378  27.512  1.00  0.00     0.173 A 
ATOM     53  F   UNL A   1      39.370  26.278  29.414  1.00  0.00    -0.203 F 
ATOM     54  C   UNL A   1      40.347  25.939  27.297  1.00  0.00     0.198 A 
ATOM     55  C   UNL A   1      41.798  27.606  26.364  1.00  0.00     0.198 A 
ATOM     56  F   UNL A   1      42.290  29.552  27.589  1.00  0.00    -0.203 F 
ATOM     57  F   UNL A   1      39.753  24.740  27.216  1.00  0.00    -0.200 F 
ATOM     58  C   UNL A   1      41.160  26.380  26.264  1.00  0.00     0.200 A 
ATOM     59  F   UNL A   1      42.565  28.050  25.360  1.00  0.00    -0.200 F 
ATOM     60  F   UNL A   1      41.335  25.621  25.173  1.00  0.00    -0.200 F 
ENDBRANCH  26  50
BRANCH  38  61
ATOM     61  C   UNL A   1      44.039  28.191  34.734  1.00  0.00     0.064 A 
ATOM     62  C   UNL A   1      45.387  28.547  34.569  1.00  0.00     0.173 A 
ATOM     63  C   UNL A   1      43.751  27.028  35.462  1.00  0.00     0.173 A 
ATOM     64  F   UNL A   1      45.716  29.641  33.864  1.00  0.00    -0.203 F 
ATOM     65  C   UNL A   1      46.406  27.744  35.074  1.00  0.00     0.198 A 
ATOM     66  C   UNL A   1      44.771  26.248  35.998  1.00  0.00     0.198 A 
ATOM     67  F   UNL A   1      42.480  26.647  35.654  1.00  0.00    -0.203 F 
ATOM     68  F   UNL A   1      47.686  28.065  34.841  1.00  0.00    -0.200 F 
ATOM     69  C   UNL A   1      46.097  26.598  35.793  1.00  0.00     0.200 A 
ATOM     70  F   UNL A   1      44.471  25.149  36.704  1.00  0.00    -0.200 F 
ATOM     71  F   UNL A   1      47.078  25.826  36.276  1.00  0.00    -0.200 F 
ENDBRANCH  38  61
ENDBRANCH  12  13
ENDBRANCH   5   7
ENDBRANCH   2   3
ENDBRANCH   1   2
BRANCH   1  72
ATOM     72  C   UNL A   1      31.778  30.554  26.928  1.00  0.00     0.117 C 
BRANCH  72  73
ATOM     73  N   UNL A   1      33.120  30.287  27.411  1.00  0.00    -0.356 N 
ATOM     74  C   UNL A   1      34.025  29.305  27.199  1.00  0.00     0.223 C 
ATOM     75  H   UNL A   1      33.445  30.978  28.032  1.00  0.00     0.163 HD
ATOM     76  O   UNL A   1      35.040  29.379  27.906  1.00  0.00    -0.275 OA
BRANCH  74  77
ATOM     77  C   UNL A   1      33.914  28.187  26.147  1.00  0.00     0.078 C 
ATOM     78  C   UNL A   1      32.906  27.146  26.689  1.00  0.00     0.014 C 
ATOM     79  C   UNL A   1      33.618  28.580  24.701  1.00  0.00     0.014 C 
ATOM     80  C   UNL A   1      32.568  26.025  25.705  1.00  0.00     0.006 C 
ATOM     81  C   UNL A   1      33.294  27.403  23.789  1.00  0.00     0.006 C 
ATOM     82  C   UNL A   1      32.142  26.553  24.331  1.00  0.00     0.008 C 
BRANCH  82  83
ATOM     83  C   UNL A   1      30.787  27.295  24.409  1.00  0.00     0.119 C 
BRANCH  83  84
ATOM     84  N   UNL A   1      30.173  27.369  23.102  1.00  0.00    -0.360 N 
ATOM     85  H   UNL A   1      30.251  26.573  22.527  1.00  0.00     0.162 HD
BRANCH  84  86
ATOM     86  C   UNL A   1      29.503  28.427  22.596  1.00  0.00     0.205 A 
ATOM     87  N   UNL A   1      30.074  29.268  21.757  1.00  0.00    -0.121 NA
ATOM     88  S   UNL A   1      27.871  28.854  22.962  1.00  0.00    -0.083 S 
ATOM     89  N   UNL A   1      29.228  30.269  21.325  1.00  0.00    -0.145 NA
ATOM     90  C   UNL A   1      28.044  30.169  21.884  1.00  0.00     0.204 A 
ENDBRANCH  84  86
ENDBRANCH  83  84
ENDBRANCH  82  83
ENDBRANCH  74  77
ENDBRANCH  72  73
ENDBRANCH   1  72
TORSDOF 13
ENDMDL
MODEL 2
REMARK VINA RESULT:     -11.8      4.266      6.911
REMARK SMILES O=C(NCCCNC(=O)[C@H]1CC[C@@H](CNc2nncs2)CC1)c1ccc(-c2c3nc(c(-c4c(F)c(F)c(F)c(F)c4F)c4ccc([nH]4)c(-c4c(F)c(F)c(F)c(F)c4F)c4nc(c(-c5c(F)c(F)c(F)c(F)c5F)c5ccc2[nH]5)C=C4)C=C3)cc1
REMARK SMILES IDX 5 1 4 2 3 3 1 4 2 5 23 7 24 8 85 9 25 10 84 11 26 12 27 13
REMARK SMILES IDX 28 14 78 15 29 16 83 17 77 18 79 19 30 20 82 21 76 22 75 23
REMARK SMILES IDX 31 25 63 26 43 27 62 28 44 29 47 30 61 31 80 32 45 33 46 34
REMARK SMILES IDX 60 36 81 37 48 38 32 39 33 40 41 41 34 42 35 43 39 44 42 45
REMARK SMILES IDX 36 46 37 47 40 48 38 49 64 50 65 51 73 52 66 53 67 54 71 55
REMARK SMILES IDX 74 56 68 57 69 58 72 59 70 60 49 61 50 62 58 63 51 64 52 65
REMARK SMILES IDX 56 66 59 67 53 68 54 69 57 70 55 71 6 72 7 73 8 74 9 76
REMARK SMILES IDX 10 77 22 78 11 79 21 80 12 81 13 82 14 83 15 84 16 86 17 87
REMARK SMILES IDX 20 88 18 89 19 90
REMARK H PARENT 3 6 79 24 47 35 7 75 15 85
REMARK Flexibility Score: inf
ROOT
ATOM      1  C   UNL A   1      35.239  33.358  28.280  1.00  0.00     0.042 C 
ENDROOT
BRANCH   1   2
ATOM      2  C   UNL A   1      34.553  32.336  29.175  1.00  0.00     0.118 C 
BRANCH   2   3
ATOM      3  N   UNL A   1      34.000  31.223  28.407  1.00  0.00    -0.352 N 
ATOM      4  O   UNL A   1      34.019  29.467  26.996  1.00  0.00    -0.269 OA
ATOM      5  C   UNL A   1      34.624  30.155  27.807  1.00  0.00     0.251 C 
ATOM      6  H   UNL A   1      33.020  31.240  28.302  1.00  0.00     0.163 HD
BRANCH   5   7
ATOM      7  C   UNL A   1      36.027  29.841  28.147  1.00  0.00     0.039 A 
ATOM      8  C   UNL A   1      37.043  30.136  27.239  1.00  0.00     0.014 A 
ATOM      9  C   UNL A   1      36.339  29.280  29.389  1.00  0.00     0.014 A 
ATOM     10  C   UNL A   1      38.333  29.701  27.486  1.00  0.00     0.010 A 
ATOM     11  C   UNL A   1      37.670  28.970  29.696  1.00  0.00     0.010 A 
ATOM     12  C   UNL A   1      38.674  29.156  28.735  1.00  0.00    -0.014 A 
BRANCH  12  13
ATOM     13  C   UNL A   1      40.109  28.894  29.006  1.00  0.00     0.031 A 
ATOM     14  C   UNL A   1      40.942  29.835  29.825  1.00  0.00     0.074 A 
ATOM     15  C   UNL A   1      40.627  27.731  28.562  1.00  0.00     0.049 A 
ATOM     16  N   UNL A   1      42.184  29.701  30.218  1.00  0.00    -0.248 NA
ATOM     17  C   UNL A   1      40.312  31.093  30.253  1.00  0.00     0.031 C 
ATOM     18  C   UNL A   1      39.909  26.754  27.737  1.00  0.00     0.029 A 
ATOM     19  N   UNL A   1      41.849  27.147  28.772  1.00  0.00    -0.354 N 
ATOM     20  C   UNL A   1      42.486  30.852  30.932  1.00  0.00     0.074 A 
ATOM     21  C   UNL A   1      41.310  31.696  30.886  1.00  0.00     0.031 C 
ATOM     22  C   UNL A   1      40.670  25.665  27.576  1.00  0.00     0.029 A 
ATOM     23  C   UNL A   1      41.960  25.899  28.208  1.00  0.00     0.049 A 
ATOM     24  H   UNL A   1      42.575  27.579  29.277  1.00  0.00     0.167 HD
ATOM     25  C   UNL A   1      43.636  31.165  31.575  1.00  0.00     0.037 A 
ATOM     26  C   UNL A   1      42.997  25.044  28.181  1.00  0.00     0.037 A 
ATOM     27  C   UNL A   1      44.801  30.315  31.611  1.00  0.00     0.049 A 
ATOM     28  C   UNL A   1      44.264  25.432  28.884  1.00  0.00     0.074 A 
ATOM     29  C   UNL A   1      46.017  30.539  32.233  1.00  0.00     0.029 A 
ATOM     30  N   UNL A   1      44.895  29.074  30.995  1.00  0.00    -0.354 N 
ATOM     31  N   UNL A   1      44.528  26.516  29.573  1.00  0.00    -0.248 NA
ATOM     32  C   UNL A   1      45.378  24.480  28.807  1.00  0.00     0.031 C 
ATOM     33  C   UNL A   1      46.860  29.458  31.956  1.00  0.00     0.029 A 
ATOM     34  C   UNL A   1      46.152  28.529  31.209  1.00  0.00     0.049 A 
ATOM     35  H   UNL A   1      44.173  28.643  30.481  1.00  0.00     0.167 HD
ATOM     36  C   UNL A   1      45.833  26.375  30.018  1.00  0.00     0.074 A 
ATOM     37  C   UNL A   1      46.292  25.080  29.555  1.00  0.00     0.031 C 
ATOM     38  C   UNL A   1      46.591  27.242  30.734  1.00  0.00     0.037 A 
BRANCH  25  39
ATOM     39  C   UNL A   1      43.702  32.486  32.289  1.00  0.00     0.064 A 
ATOM     40  C   UNL A   1      44.108  33.658  31.632  1.00  0.00     0.173 A 
ATOM     41  C   UNL A   1      43.297  32.596  33.629  1.00  0.00     0.173 A 
ATOM     42  F   UNL A   1      44.513  33.609  30.353  1.00  0.00    -0.203 F 
ATOM     43  C   UNL A   1      44.123  34.885  32.293  1.00  0.00     0.198 A 
ATOM     44  C   UNL A   1      43.286  33.828  34.278  1.00  0.00     0.198 A 
ATOM     45  F   UNL A   1      42.893  31.510  34.304  1.00  0.00    -0.203 F 
ATOM     46  F   UNL A   1      44.548  35.983  31.653  1.00  0.00    -0.200 F 
ATOM     47  C   UNL A   1      43.704  34.970  33.612  1.00  0.00     0.200 A 
ATOM     48  F   UNL A   1      42.864  33.911  35.547  1.00  0.00    -0.200 F 
ATOM     49  F   UNL A   1      43.705  36.153  34.241  1.00  0.00    -0.200 F 
ENDBRANCH  25  39
BRANCH  26  50
ATOM     50  C   UNL A   1      42.883  23.761  27.437  1.00  0.00     0.064 A 
ATOM     51  C   UNL A   1      43.280  23.653  26.098  1.00  0.00     0.173 A 
ATOM     52  C   UNL A   1      42.366  22.612  28.057  1.00  0.00     0.173 A 
ATOM     53  F   UNL A   1      43.768  24.725  25.455  1.00  0.00    -0.203 F 
ATOM     54  C   UNL A   1      43.138  22.456  25.400  1.00  0.00     0.198 A 
ATOM     55  C   UNL A   1      42.262  21.405  27.371  1.00  0.00     0.198 A 
ATOM     56  F   UNL A   1      41.978  22.657  29.341  1.00  0.00    -0.203 F 
ATOM     57  F   UNL A   1      43.472  22.395  24.104  1.00  0.00    -0.200 F 
ATOM     58  C   UNL A   1      42.636  21.331  26.039  1.00  0.00     0.200 A 
ATOM     59  F   UNL A   1      41.800  20.317  28.001  1.00  0.00    -0.200 F 
ATOM     60  F   UNL A   1      42.505  20.178  25.368  1.00  0.00    -0.200 F 
ENDBRANCH  26  50
BRANCH  38  61
ATOM     61  C   UNL A   1      47.983  26.795  31.076  1.00  0.00     0.064 A 
ATOM     62  C   UNL A   1      49.085  27.146  30.280  1.00  0.00     0.173 A 
ATOM     63  C   UNL A   1      48.217  26.003  32.210  1.00  0.00     0.173 A 
ATOM     64  F   UNL A   1      48.911  27.887  29.174  1.00  0.00    -0.203 F 
ATOM     65  C   UNL A   1      50.362  26.682  30.582  1.00  0.00     0.198 A 
ATOM     66  C   UNL A   1      49.501  25.573  32.529  1.00  0.00     0.198 A 
ATOM     67  F   UNL A   1      47.200  25.646  33.007  1.00  0.00    -0.203 F 
ATOM     68  F   UNL A   1      51.386  26.969  29.766  1.00  0.00    -0.200 F 
ATOM     69  C   UNL A   1      50.569  25.901  31.709  1.00  0.00     0.200 A 
ATOM     70  F   UNL A   1      49.703  24.830  33.626  1.00  0.00    -0.200 F 
ATOM     71  F   UNL A   1      51.799  25.453  31.996  1.00  0.00    -0.200 F 
ENDBRANCH  38  61
ENDBRANCH  12  13
ENDBRANCH   5   7
ENDBRANCH   2   3
ENDBRANCH   1   2
BRANCH   1  72
ATOM     72  C   UNL A   1      35.768  34.546  29.074  1.00  0.00     0.117 C 
BRANCH  72  73
ATOM     73  N   UNL A   1      37.218  34.533  29.137  1.00  0.00    -0.356 N 
ATOM     74  C   UNL A   1      38.122  34.220  30.092  1.00  0.00     0.223 C 
ATOM     75  H   UNL A   1      37.638  34.817  28.293  1.00  0.00     0.163 HD
ATOM     76  O   UNL A   1      39.299  34.456  29.785  1.00  0.00    -0.275 OA
BRANCH  74  77
ATOM     77  C   UNL A   1      37.811  33.563  31.448  1.00  0.00     0.078 C 
ATOM     78  C   UNL A   1      37.074  34.616  32.310  1.00  0.00     0.014 C 
ATOM     79  C   UNL A   1      37.098  32.211  31.453  1.00  0.00     0.014 C 
ATOM     80  C   UNL A   1      36.564  34.088  33.651  1.00  0.00     0.006 C 
ATOM     81  C   UNL A   1      36.625  31.760  32.829  1.00  0.00     0.006 C 
ATOM     82  C   UNL A   1      35.737  32.806  33.506  1.00  0.00     0.008 C 
BRANCH  82  83
ATOM     83  C   UNL A   1      34.403  33.078  32.770  1.00  0.00     0.119 C 
BRANCH  83  84
ATOM     84  N   UNL A   1      33.801  34.302  33.250  1.00  0.00    -0.360 N 
ATOM     85  H   UNL A   1      33.568  34.340  34.206  1.00  0.00     0.162 HD
BRANCH  84  86
ATOM     86  C   UNL A   1      33.527  35.398  32.510  1.00  0.00     0.205 A 
ATOM     87  N   UNL A   1      32.839  35.319  31.387  1.00  0.00    -0.121 NA
ATOM     88  S   UNL A   1      34.027  37.009  32.873  1.00  0.00    -0.083 S 
ATOM     89  N   UNL A   1      32.633  36.542  30.784  1.00  0.00    -0.145 NA
ATOM     90  C   UNL A   1      33.208  37.511  31.459  1.00  0.00     0.204 A 
ENDBRANCH  84  86
ENDBRANCH  83  84
ENDBRANCH  82  83
ENDBRANCH  74  77
ENDBRANCH  72  73
ENDBRANCH   1  72
TORSDOF 13
ENDMDL
MODEL 3
REMARK VINA RESULT:     -11.7      4.268      9.921
REMARK SMILES O=C(NCCCNC(=O)[C@H]1CC[C@@H](CNc2nncs2)CC1)c1ccc(-c2c3nc(c(-c4c(F)c(F)c(F)c(F)c4F)c4ccc([nH]4)c(-c4c(F)c(F)c(F)c(F)c4F)c4nc(c(-c5c(F)c(F)c(F)c(F)c5F)c5ccc2[nH]5)C=C4)C=C3)cc1
REMARK SMILES IDX 5 1 4 2 3 3 1 4 2 5 23 7 24 8 85 9 25 10 84 11 26 12 27 13
REMARK SMILES IDX 28 14 78 15 29 16 83 17 77 18 79 19 30 20 82 21 76 22 75 23
REMARK SMILES IDX 31 25 63 26 43 27 62 28 44 29 47 30 61 31 80 32 45 33 46 34
REMARK SMILES IDX 60 36 81 37 48 38 32 39 33 40 41 41 34 42 35 43 39 44 42 45
REMARK SMILES IDX 36 46 37 47 40 48 38 49 64 50 65 51 73 52 66 53 67 54 71 55
REMARK SMILES IDX 74 56 68 57 69 58 72 59 70 60 49 61 50 62 58 63 51 64 52 65
REMARK SMILES IDX 56 66 59 67 53 68 54 69 57 70 55 71 6 72 7 73 8 74 9 76
REMARK SMILES IDX 10 77 22 78 11 79 21 80 12 81 13 82 14 83 15 84 16 86 17 87
REMARK SMILES IDX 20 88 18 89 19 90
REMARK H PARENT 3 6 79 24 47 35 7 75 15 85
REMARK Flexibility Score: inf
ROOT
ATOM      1  C   UNL A   1      35.276  33.404  28.279  1.00  0.00     0.042 C 
ENDROOT
BRANCH   1   2
ATOM      2  C   UNL A   1      34.550  32.361  29.117  1.00  0.00     0.118 C 
BRANCH   2   3
ATOM      3  N   UNL A   1      34.022  31.274  28.296  1.00  0.00    -0.352 N 
ATOM      4  O   UNL A   1      34.094  29.535  26.866  1.00  0.00    -0.269 OA
ATOM      5  C   UNL A   1      34.658  30.196  27.728  1.00  0.00     0.251 C 
ATOM      6  H   UNL A   1      33.053  31.320  28.122  1.00  0.00     0.163 HD
BRANCH   5   7
ATOM      7  C   UNL A   1      36.024  29.837  28.162  1.00  0.00     0.039 A 
ATOM      8  C   UNL A   1      37.105  30.074  27.315  1.00  0.00     0.014 A 
ATOM      9  C   UNL A   1      36.236  29.293  29.433  1.00  0.00     0.014 A 
ATOM     10  C   UNL A   1      38.359  29.597  27.653  1.00  0.00     0.010 A 
ATOM     11  C   UNL A   1      37.531  28.942  29.830  1.00  0.00     0.010 A 
ATOM     12  C   UNL A   1      38.600  29.068  28.932  1.00  0.00    -0.014 A 
BRANCH  12  13
ATOM     13  C   UNL A   1      40.004  28.759  29.298  1.00  0.00     0.031 A 
ATOM     14  C   UNL A   1      40.700  27.531  28.790  1.00  0.00     0.074 A 
ATOM     15  C   UNL A   1      40.671  29.667  30.040  1.00  0.00     0.049 A 
ATOM     16  N   UNL A   1      41.949  27.170  28.953  1.00  0.00    -0.248 NA
ATOM     17  C   UNL A   1      39.899  26.578  28.007  1.00  0.00     0.031 C 
ATOM     18  C   UNL A   1      40.081  30.885  30.604  1.00  0.00     0.029 A 
ATOM     19  N   UNL A   1      41.989  29.738  30.410  1.00  0.00    -0.354 N 
ATOM     20  C   UNL A   1      42.082  25.951  28.301  1.00  0.00     0.074 A 
ATOM     21  C   UNL A   1      40.778  25.612  27.772  1.00  0.00     0.031 C 
ATOM     22  C   UNL A   1      41.042  31.617  31.179  1.00  0.00     0.029 A 
ATOM     23  C   UNL A   1      42.297  30.883  31.105  1.00  0.00     0.049 A 
ATOM     24  H   UNL A   1      42.648  29.039  30.199  1.00  0.00     0.167 HD
ATOM     25  C   UNL A   1      43.197  25.196  28.150  1.00  0.00     0.037 A 
ATOM     26  C   UNL A   1      43.459  31.289  31.645  1.00  0.00     0.037 A 
ATOM     27  C   UNL A   1      44.489  25.546  28.685  1.00  0.00     0.049 A 
ATOM     28  C   UNL A   1      44.669  30.417  31.480  1.00  0.00     0.074 A 
ATOM     29  C   UNL A   1      45.682  24.849  28.590  1.00  0.00     0.029 A 
ATOM     30  N   UNL A   1      44.759  26.694  29.419  1.00  0.00    -0.354 N 
ATOM     31  N   UNL A   1      44.785  29.277  30.843  1.00  0.00    -0.248 NA
ATOM     32  C   UNL A   1      45.909  30.886  32.107  1.00  0.00     0.031 C 
ATOM     33  C   UNL A   1      46.660  25.550  29.303  1.00  0.00     0.029 A 
ATOM     34  C   UNL A   1      46.094  26.716  29.796  1.00  0.00     0.049 A 
ATOM     35  H   UNL A   1      44.099  27.390  29.640  1.00  0.00     0.167 HD
ATOM     36  C   UNL A   1      46.110  28.895  30.984  1.00  0.00     0.074 A 
ATOM     37  C   UNL A   1      46.767  29.947  31.734  1.00  0.00     0.031 C 
ATOM     38  C   UNL A   1      46.726  27.770  30.547  1.00  0.00     0.037 A 
BRANCH  25  39
ATOM     39  C   UNL A   1      43.071  23.909  27.384  1.00  0.00     0.064 A 
ATOM     40  C   UNL A   1      43.453  23.815  26.036  1.00  0.00     0.173 A 
ATOM     41  C   UNL A   1      42.621  22.740  28.018  1.00  0.00     0.173 A 
ATOM     42  F   UNL A   1      43.882  24.904  25.379  1.00  0.00    -0.203 F 
ATOM     43  C   UNL A   1      43.372  22.606  25.349  1.00  0.00     0.198 A 
ATOM     44  C   UNL A   1      42.569  21.527  27.337  1.00  0.00     0.198 A 
ATOM     45  F   UNL A   1      42.251  22.771  29.307  1.00  0.00    -0.203 F 
ATOM     46  F   UNL A   1      43.710  22.550  24.054  1.00  0.00    -0.200 F 
ATOM     47  C   UNL A   1      42.939  21.462  26.002  1.00  0.00     0.200 A 
ATOM     48  F   UNL A   1      42.167  20.419  27.974  1.00  0.00    -0.200 F 
ATOM     49  F   UNL A   1      42.877  20.296  25.344  1.00  0.00    -0.200 F 
ENDBRANCH  25  39
BRANCH  26  50
ATOM     50  C   UNL A   1      43.517  32.559  32.415  1.00  0.00     0.064 A 
ATOM     51  C   UNL A   1      43.811  33.780  31.793  1.00  0.00     0.173 A 
ATOM     52  C   UNL A   1      43.281  32.575  33.800  1.00  0.00     0.173 A 
ATOM     53  F   UNL A   1      44.059  33.818  30.476  1.00  0.00    -0.203 F 
ATOM     54  C   UNL A   1      43.896  34.960  32.529  1.00  0.00     0.198 A 
ATOM     55  C   UNL A   1      43.325  33.761  34.528  1.00  0.00     0.198 A 
ATOM     56  F   UNL A   1      42.986  31.436  34.444  1.00  0.00    -0.203 F 
ATOM     57  F   UNL A   1      44.237  36.103  31.920  1.00  0.00    -0.200 F 
ATOM     58  C   UNL A   1      43.647  34.950  33.894  1.00  0.00     0.200 A 
ATOM     59  F   UNL A   1      43.059  33.748  35.840  1.00  0.00    -0.200 F 
ATOM     60  F   UNL A   1      43.723  36.087  34.600  1.00  0.00    -0.200 F 
ENDBRANCH  26  50
BRANCH  38  61
ATOM     61  C   UNL A   1      48.191  27.644  30.852  1.00  0.00     0.064 A 
ATOM     62  C   UNL A   1      48.648  27.018  32.023  1.00  0.00     0.173 A 
ATOM     63  C   UNL A   1      49.149  28.159  29.966  1.00  0.00     0.173 A 
ATOM     64  F   UNL A   1      47.771  26.526  32.912  1.00  0.00    -0.203 F 
ATOM     65  C   UNL A   1      50.008  26.954  32.316  1.00  0.00     0.198 A 
ATOM     66  C   UNL A   1      50.508  28.059  30.244  1.00  0.00     0.198 A 
ATOM     67  F   UNL A   1      48.765  28.760  28.830  1.00  0.00    -0.203 F 
ATOM     68  F   UNL A   1      50.416  26.418  33.475  1.00  0.00    -0.200 F 
ATOM     69  C   UNL A   1      50.936  27.470  31.424  1.00  0.00     0.200 A 
ATOM     70  F   UNL A   1      51.405  28.544  29.375  1.00  0.00    -0.200 F 
ATOM     71  F   UNL A   1      52.244  27.409  31.709  1.00  0.00    -0.200 F 
ENDBRANCH  38  61
ENDBRANCH  12  13
ENDBRANCH   5   7
ENDBRANCH   2   3
ENDBRANCH   1   2
BRANCH   1  72
ATOM     72  C   UNL A   1      35.780  34.565  29.127  1.00  0.00     0.117 C 
BRANCH  72  73
ATOM     73  N   UNL A   1      37.228  34.558  29.222  1.00  0.00    -0.356 N 
ATOM     74  C   UNL A   1      38.112  34.247  30.197  1.00  0.00     0.223 C 
ATOM     75  H   UNL A   1      37.666  34.843  28.388  1.00  0.00     0.163 HD
ATOM     76  O   UNL A   1      39.295  34.488  29.917  1.00  0.00    -0.275 OA
BRANCH  74  77
ATOM     77  C   UNL A   1      37.772  33.589  31.546  1.00  0.00     0.078 C 
ATOM     78  C   UNL A   1      37.016  34.640  32.393  1.00  0.00     0.014 C 
ATOM     79  C   UNL A   1      37.060  32.237  31.534  1.00  0.00     0.014 C 
ATOM     80  C   UNL A   1      36.478  34.111  33.723  1.00  0.00     0.006 C 
ATOM     81  C   UNL A   1      36.559  31.784  32.899  1.00  0.00     0.006 C 
ATOM     82  C   UNL A   1      35.655  32.828  33.558  1.00  0.00     0.008 C 
BRANCH  82  83
ATOM     83  C   UNL A   1      34.338  33.100  32.795  1.00  0.00     0.119 C 
BRANCH  83  84
ATOM     84  N   UNL A   1      33.712  34.310  33.279  1.00  0.00    -0.360 N 
ATOM     85  H   UNL A   1      33.457  34.330  34.230  1.00  0.00     0.162 HD
BRANCH  84  86
ATOM     86  C   UNL A   1      33.444  35.415  32.550  1.00  0.00     0.205 A 
ATOM     87  N   UNL A   1      32.743  35.353  31.435  1.00  0.00    -0.121 NA
ATOM     88  S   UNL A   1      33.971  37.017  32.918  1.00  0.00    -0.083 S 
ATOM     89  N   UNL A   1      32.547  36.584  30.842  1.00  0.00    -0.145 NA
ATOM     90  C   UNL A   1      33.142  37.540  31.517  1.00  0.00     0.204 A 
ENDBRANCH  84  86
ENDBRANCH  83  84
ENDBRANCH  82  83
ENDBRANCH  74  77
ENDBRANCH  72  73
ENDBRANCH   1  72
TORSDOF 13
ENDMDL
