MODEL 1
REMARK VINA RESULT:     -11.6      0.000      0.000
REMARK SMILES Cc1cc(C)c(C(=O)NCCCNC(=O)c2ccc(-c3c4nc(c(-c5c(F)c(F)c(F)c(F)c5F)c5ccc([nH]5)c(-c5c(F)c(F)c(F)c(F)c5F)c5nc(c(-c6c(F)c(F)c(F)c(F)c6F)c6ccc3[nH]6)C=C5)C=C4)cc2)c(N[C@@H](CO)C(C)C)n1
REMARK SMILES IDX 10 1 9 2 7 3 8 4 6 6 1 7 2 8 3 9 87 10 4 11 79 12 5 13 80 14
REMARK SMILES IDX 81 16 82 17 83 18 84 20 85 21 86 22 11 23 12 24 13 25 14 26
REMARK SMILES IDX 15 28 16 29 17 30 78 31 18 32 77 33 19 34 20 35 21 36 71 37
REMARK SMILES IDX 22 38 76 39 70 40 72 41 23 42 75 43 69 44 68 45 24 47 56 48
REMARK SMILES IDX 36 49 55 50 37 51 40 52 54 53 73 54 38 55 39 56 53 58 74 59
REMARK SMILES IDX 41 60 25 61 26 62 34 63 27 64 28 65 32 66 35 67 29 68 30 69
REMARK SMILES IDX 33 70 31 71 57 72 58 73 66 74 59 75 60 76 64 77 67 78 61 79
REMARK SMILES IDX 62 80 65 81 63 82 42 83 43 84 51 85 44 86 45 87 49 88 52 89
REMARK SMILES IDX 46 90 47 91 50 92 48 93
REMARK H PARENT 9 5 80 15 83 19 13 27 72 46 40 57
REMARK Flexibility Score: inf
ROOT
ATOM      1  C   UNL A   1      32.434  27.080  26.766  1.00  0.00     0.118 C 
ENDROOT
BRANCH   1   2
ATOM      2  N   UNL A   1      31.495  25.977  26.871  1.00  0.00    -0.352 N 
ATOM      3  C   UNL A   1      31.597  24.655  26.495  1.00  0.00     0.255 C 
ATOM      4  O   UNL A   1      30.638  23.924  26.753  1.00  0.00    -0.269 OA
ATOM      5  H   UNL A   1      30.633  26.216  27.283  1.00  0.00     0.163 HD
BRANCH   3   6
ATOM      6  C   UNL A   1      32.758  24.105  25.734  1.00  0.00     0.085 A 
ATOM      7  C   UNL A   1      36.038  22.940  23.283  1.00  0.00     0.067 C 
ATOM      8  C   UNL A   1      34.879  23.296  24.162  1.00  0.00     0.040 A 
ATOM      9  C   UNL A   1      34.889  22.985  25.508  1.00  0.00     0.028 A 
ATOM     10  N   UNL A   1      33.833  23.910  23.580  1.00  0.00    -0.236 NA
ATOM     11  C   UNL A   1      33.789  23.331  26.306  1.00  0.00    -0.033 A 
ATOM     12  C   UNL A   1      32.775  24.298  24.333  1.00  0.00     0.139 A 
ATOM     13  C   UNL A   1      33.779  22.773  27.699  1.00  0.00     0.045 C 
BRANCH  12  14
ATOM     14  N   UNL A   1      31.720  24.883  23.648  1.00  0.00    -0.364 N 
ATOM     15  H   UNL A   1      30.863  24.404  23.580  1.00  0.00     0.162 HD
BRANCH  14  16
ATOM     16  C   UNL A   1      31.858  26.206  23.025  1.00  0.00     0.108 C 
BRANCH  16  17
ATOM     17  C   UNL A   1      31.923  26.025  21.488  1.00  0.00     0.181 C 
BRANCH  17  18
ATOM     18  O   UNL A   1      33.217  26.319  20.963  1.00  0.00    -0.394 OA
ATOM     19  H   UNL A   1      33.850  25.651  21.270  1.00  0.00     0.210 HD
ENDBRANCH  17  18
ENDBRANCH  16  17
BRANCH  16  20
ATOM     20  C   UNL A   1      30.692  27.117  23.490  1.00  0.00     0.007 C 
ATOM     21  C   UNL A   1      30.263  28.075  22.369  1.00  0.00     0.009 C 
ATOM     22  C   UNL A   1      29.471  26.294  23.922  1.00  0.00     0.009 C 
ENDBRANCH  16  20
ENDBRANCH  14  16
ENDBRANCH  12  14
ENDBRANCH   3   6
ENDBRANCH   1   2
BRANCH   1  23
ATOM     23  C   UNL A   1      31.804  28.448  26.554  1.00  0.00     0.042 C 
BRANCH  23  24
ATOM     24  C   UNL A   1      32.688  29.479  25.862  1.00  0.00     0.118 C 
BRANCH  24  25
ATOM     25  N   UNL A   1      32.555  30.837  26.378  1.00  0.00    -0.352 N 
ATOM     26  C   UNL A   1      33.329  31.591  27.229  1.00  0.00     0.251 C 
ATOM     27  H   UNL A   1      31.751  31.307  26.053  1.00  0.00     0.163 HD
ATOM     28  O   UNL A   1      32.932  32.707  27.563  1.00  0.00    -0.269 OA
BRANCH  26  29
ATOM     29  C   UNL A   1      34.601  31.080  27.794  1.00  0.00     0.039 A 
ATOM     30  C   UNL A   1      35.655  31.978  28.005  1.00  0.00     0.014 A 
ATOM     31  C   UNL A   1      34.788  29.735  28.103  1.00  0.00     0.014 A 
ATOM     32  C   UNL A   1      36.838  31.545  28.614  1.00  0.00     0.010 A 
ATOM     33  C   UNL A   1      35.906  29.332  28.825  1.00  0.00     0.010 A 
ATOM     34  C   UNL A   1      36.952  30.229  29.085  1.00  0.00    -0.014 A 
BRANCH  34  35
ATOM     35  C   UNL A   1      38.150  29.758  29.832  1.00  0.00     0.031 A 
ATOM     36  C   UNL A   1      38.416  30.260  31.229  1.00  0.00     0.074 A 
ATOM     37  C   UNL A   1      39.051  28.956  29.227  1.00  0.00     0.049 A 
ATOM     38  N   UNL A   1      39.464  30.075  31.994  1.00  0.00    -0.248 NA
ATOM     39  C   UNL A   1      37.385  31.122  31.830  1.00  0.00     0.031 C 
ATOM     40  C   UNL A   1      38.952  28.452  27.857  1.00  0.00     0.029 A 
ATOM     41  N   UNL A   1      40.236  28.436  29.685  1.00  0.00    -0.354 N 
ATOM     42  C   UNL A   1      39.232  30.826  33.139  1.00  0.00     0.074 A 
ATOM     43  C   UNL A   1      37.976  31.517  32.947  1.00  0.00     0.031 C 
ATOM     44  C   UNL A   1      40.012  27.669  27.597  1.00  0.00     0.029 A 
ATOM     45  C   UNL A   1      40.887  27.651  28.764  1.00  0.00     0.049 A 
ATOM     46  H   UNL A   1      40.587  28.609  30.589  1.00  0.00     0.167 HD
ATOM     47  C   UNL A   1      39.982  30.910  34.265  1.00  0.00     0.037 A 
ATOM     48  C   UNL A   1      42.060  26.994  28.849  1.00  0.00     0.037 A 
ATOM     49  C   UNL A   1      41.201  30.177  34.481  1.00  0.00     0.049 A 
ATOM     50  C   UNL A   1      42.852  27.068  30.127  1.00  0.00     0.074 A 
ATOM     51  C   UNL A   1      41.993  30.132  35.614  1.00  0.00     0.029 A 
ATOM     52  N   UNL A   1      41.798  29.349  33.542  1.00  0.00    -0.354 N 
ATOM     53  N   UNL A   1      42.589  27.730  31.227  1.00  0.00    -0.248 NA
ATOM     54  C   UNL A   1      44.101  26.295  30.176  1.00  0.00     0.031 C 
ATOM     55  C   UNL A   1      43.089  29.305  35.350  1.00  0.00     0.029 A 
ATOM     56  C   UNL A   1      42.955  28.798  34.068  1.00  0.00     0.049 A 
ATOM     57  H   UNL A   1      41.451  29.180  32.636  1.00  0.00     0.167 HD
ATOM     58  C   UNL A   1      43.620  27.431  32.107  1.00  0.00     0.074 A 
ATOM     59  C   UNL A   1      44.506  26.516  31.418  1.00  0.00     0.031 C 
ATOM     60  C   UNL A   1      43.817  27.877  33.372  1.00  0.00     0.037 A 
BRANCH  47  61
ATOM     61  C   UNL A   1      39.492  31.816  35.359  1.00  0.00     0.064 A 
ATOM     62  C   UNL A   1      38.609  31.362  36.352  1.00  0.00     0.173 A 
ATOM     63  C   UNL A   1      39.928  33.148  35.432  1.00  0.00     0.173 A 
ATOM     64  F   UNL A   1      38.151  30.101  36.322  1.00  0.00    -0.203 F 
ATOM     65  C   UNL A   1      38.153  32.216  37.353  1.00  0.00     0.198 A 
ATOM     66  C   UNL A   1      39.497  33.990  36.454  1.00  0.00     0.198 A 
ATOM     67  F   UNL A   1      40.777  33.632  34.513  1.00  0.00    -0.203 F 
ATOM     68  F   UNL A   1      37.265  31.775  38.254  1.00  0.00    -0.200 F 
ATOM     69  C   UNL A   1      38.603  33.526  37.407  1.00  0.00     0.200 A 
ATOM     70  F   UNL A   1      39.942  35.252  36.513  1.00  0.00    -0.200 F 
ATOM     71  F   UNL A   1      38.166  34.345  38.374  1.00  0.00    -0.200 F 
ENDBRANCH  47  61
BRANCH  48  72
ATOM     72  C   UNL A   1      42.537  26.173  27.705  1.00  0.00     0.064 A 
ATOM     73  C   UNL A   1      43.421  26.708  26.759  1.00  0.00     0.173 A 
ATOM     74  C   UNL A   1      42.119  24.846  27.531  1.00  0.00     0.173 A 
ATOM     75  F   UNL A   1      43.832  27.980  26.873  1.00  0.00    -0.203 F 
ATOM     76  C   UNL A   1      43.853  25.956  25.670  1.00  0.00     0.198 A 
ATOM     77  C   UNL A   1      42.574  24.084  26.455  1.00  0.00     0.198 A 
ATOM     78  F   UNL A   1      41.279  24.283  28.412  1.00  0.00    -0.203 F 
ATOM     79  F   UNL A   1      44.663  26.509  24.755  1.00  0.00    -0.200 F 
ATOM     80  C   UNL A   1      43.434  24.643  25.520  1.00  0.00     0.200 A 
ATOM     81  F   UNL A   1      42.179  22.811  26.323  1.00  0.00    -0.200 F 
ATOM     82  F   UNL A   1      43.853  23.918  24.475  1.00  0.00    -0.200 F 
ENDBRANCH  48  72
BRANCH  60  83
ATOM     83  C   UNL A   1      45.012  27.348  34.109  1.00  0.00     0.064 A 
ATOM     84  C   UNL A   1      46.247  28.012  34.083  1.00  0.00     0.173 A 
ATOM     85  C   UNL A   1      44.908  26.180  34.880  1.00  0.00     0.173 A 
ATOM     86  F   UNL A   1      46.400  29.123  33.349  1.00  0.00    -0.203 F 
ATOM     87  C   UNL A   1      47.341  27.510  34.782  1.00  0.00     0.198 A 
ATOM     88  C   UNL A   1      45.996  25.699  35.601  1.00  0.00     0.198 A 
ATOM     89  F   UNL A   1      43.746  25.511  34.942  1.00  0.00    -0.203 F 
ATOM     90  F   UNL A   1      48.525  28.135  34.705  1.00  0.00    -0.200 F 
ATOM     91  C   UNL A   1      47.213  26.359  35.545  1.00  0.00     0.200 A 
ATOM     92  F   UNL A   1      45.867  24.593  36.348  1.00  0.00    -0.200 F 
ATOM     93  F   UNL A   1      48.267  25.882  36.221  1.00  0.00    -0.200 F 
ENDBRANCH  60  83
ENDBRANCH  34  35
ENDBRANCH  26  29
ENDBRANCH  24  25
ENDBRANCH  23  24
ENDBRANCH   1  23
TORSDOF 15
ENDMDL
MODEL 2
REMARK VINA RESULT:     -11.6      0.544      7.498
REMARK SMILES Cc1cc(C)c(C(=O)NCCCNC(=O)c2ccc(-c3c4nc(c(-c5c(F)c(F)c(F)c(F)c5F)c5ccc([nH]5)c(-c5c(F)c(F)c(F)c(F)c5F)c5nc(c(-c6c(F)c(F)c(F)c(F)c6F)c6ccc3[nH]6)C=C5)C=C4)cc2)c(N[C@@H](CO)C(C)C)n1
REMARK SMILES IDX 10 1 9 2 7 3 8 4 6 6 1 7 2 8 3 9 87 10 4 11 79 12 5 13 80 14
REMARK SMILES IDX 81 16 82 17 83 18 84 20 85 21 86 22 11 23 12 24 13 25 14 26
REMARK SMILES IDX 15 28 16 29 17 30 78 31 18 32 77 33 19 34 20 35 21 36 71 37
REMARK SMILES IDX 22 38 76 39 70 40 72 41 23 42 75 43 69 44 68 45 24 47 56 48
REMARK SMILES IDX 36 49 55 50 37 51 40 52 54 53 73 54 38 55 39 56 53 58 74 59
REMARK SMILES IDX 41 60 25 61 26 62 34 63 27 64 28 65 32 66 35 67 29 68 30 69
REMARK SMILES IDX 33 70 31 71 57 72 58 73 66 74 59 75 60 76 64 77 67 78 61 79
REMARK SMILES IDX 62 80 65 81 63 82 42 83 43 84 51 85 44 86 45 87 49 88 52 89
REMARK SMILES IDX 46 90 47 91 50 92 48 93
REMARK H PARENT 9 5 80 15 83 19 13 27 72 46 40 57
REMARK Flexibility Score: inf
ROOT
ATOM      1  C   UNL A   1      32.368  27.047  26.885  1.00  0.00     0.118 C 
ENDROOT
BRANCH   1   2
ATOM      2  N   UNL A   1      31.402  25.963  26.883  1.00  0.00    -0.352 N 
ATOM      3  C   UNL A   1      31.505  24.652  26.468  1.00  0.00     0.255 C 
ATOM      4  O   UNL A   1      30.515  23.934  26.631  1.00  0.00    -0.269 OA
ATOM      5  H   UNL A   1      30.517  26.206  27.241  1.00  0.00     0.163 HD
BRANCH   3   6
ATOM      6  C   UNL A   1      32.706  24.103  25.773  1.00  0.00     0.085 A 
ATOM      7  C   UNL A   1      36.117  22.938  23.507  1.00  0.00     0.067 C 
ATOM      8  C   UNL A   1      34.911  23.295  24.320  1.00  0.00     0.040 A 
ATOM      9  C   UNL A   1      34.850  22.989  25.667  1.00  0.00     0.028 A 
ATOM     10  N   UNL A   1      33.896  23.902  23.680  1.00  0.00    -0.236 NA
ATOM     11  C   UNL A   1      33.707  23.334  26.403  1.00  0.00    -0.033 A 
ATOM     12  C   UNL A   1      32.798  24.290  24.374  1.00  0.00     0.139 A 
ATOM     13  C   UNL A   1      33.624  22.782  27.796  1.00  0.00     0.045 C 
BRANCH  12  14
ATOM     14  N   UNL A   1      31.779  24.870  23.631  1.00  0.00    -0.364 N 
ATOM     15  H   UNL A   1      30.921  24.397  23.537  1.00  0.00     0.162 HD
BRANCH  14  16
ATOM     16  C   UNL A   1      31.958  26.176  22.984  1.00  0.00     0.108 C 
BRANCH  16  17
ATOM     17  C   UNL A   1      31.916  25.978  21.449  1.00  0.00     0.181 C 
BRANCH  17  18
ATOM     18  O   UNL A   1      33.165  26.284  20.830  1.00  0.00    -0.394 OA
ATOM     19  H   UNL A   1      33.565  25.469  20.487  1.00  0.00     0.210 HD
ENDBRANCH  17  18
ENDBRANCH  16  17
BRANCH  16  20
ATOM     20  C   UNL A   1      30.880  27.160  23.508  1.00  0.00     0.007 C 
ATOM     21  C   UNL A   1      30.617  28.279  22.490  1.00  0.00     0.009 C 
ATOM     22  C   UNL A   1      29.555  26.443  23.800  1.00  0.00     0.009 C 
ENDBRANCH  16  20
ENDBRANCH  14  16
ENDBRANCH  12  14
ENDBRANCH   3   6
ENDBRANCH   1   2
BRANCH   1  23
ATOM     23  C   UNL A   1      31.772  28.443  26.794  1.00  0.00     0.042 C 
BRANCH  23  24
ATOM     24  C   UNL A   1      32.562  29.442  25.956  1.00  0.00     0.118 C 
BRANCH  24  25
ATOM     25  N   UNL A   1      32.369  30.839  26.334  1.00  0.00    -0.352 N 
ATOM     26  C   UNL A   1      33.108  31.706  27.103  1.00  0.00     0.251 C 
ATOM     27  H   UNL A   1      31.547  31.238  25.966  1.00  0.00     0.163 HD
ATOM     28  O   UNL A   1      32.663  32.832  27.325  1.00  0.00    -0.269 OA
BRANCH  26  29
ATOM     29  C   UNL A   1      34.400  31.310  27.714  1.00  0.00     0.039 A 
ATOM     30  C   UNL A   1      35.378  32.291  27.919  1.00  0.00     0.014 A 
ATOM     31  C   UNL A   1      34.679  29.993  28.070  1.00  0.00     0.014 A 
ATOM     32  C   UNL A   1      36.575  31.967  28.569  1.00  0.00     0.010 A 
ATOM     33  C   UNL A   1      35.806  29.698  28.830  1.00  0.00     0.010 A 
ATOM     34  C   UNL A   1      36.775  30.678  29.085  1.00  0.00    -0.014 A 
BRANCH  34  35
ATOM     35  C   UNL A   1      37.986  30.323  29.874  1.00  0.00     0.031 A 
ATOM     36  C   UNL A   1      39.007  29.371  29.305  1.00  0.00     0.074 A 
ATOM     37  C   UNL A   1      38.125  30.776  31.137  1.00  0.00     0.049 A 
ATOM     38  N   UNL A   1      40.057  28.836  29.879  1.00  0.00    -0.248 NA
ATOM     39  C   UNL A   1      38.797  28.927  27.917  1.00  0.00     0.031 C 
ATOM     40  C   UNL A   1      37.179  31.648  31.835  1.00  0.00     0.029 A 
ATOM     41  N   UNL A   1      39.113  30.552  32.064  1.00  0.00    -0.354 N 
ATOM     42  C   UNL A   1      40.600  27.969  28.939  1.00  0.00     0.074 A 
ATOM     43  C   UNL A   1      39.735  28.002  27.782  1.00  0.00     0.031 C 
ATOM     44  C   UNL A   1      37.647  31.912  33.065  1.00  0.00     0.029 A 
ATOM     45  C   UNL A   1      38.903  31.195  33.260  1.00  0.00     0.049 A 
ATOM     46  H   UNL A   1      39.899  29.985  31.889  1.00  0.00     0.167 HD
ATOM     47  C   UNL A   1      41.736  27.234  29.020  1.00  0.00     0.037 A 
ATOM     48  C   UNL A   1      39.638  31.203  34.390  1.00  0.00     0.037 A 
ATOM     49  C   UNL A   1      42.629  27.247  30.148  1.00  0.00     0.049 A 
ATOM     50  C   UNL A   1      40.918  30.413  34.438  1.00  0.00     0.074 A 
ATOM     51  C   UNL A   1      43.842  26.600  30.296  1.00  0.00     0.029 A 
ATOM     52  N   UNL A   1      42.406  27.955  31.319  1.00  0.00    -0.354 N 
ATOM     53  N   UNL A   1      41.454  29.649  33.519  1.00  0.00    -0.248 NA
ATOM     54  C   UNL A   1      41.698  30.494  35.680  1.00  0.00     0.031 C 
ATOM     55  C   UNL A   1      44.338  26.888  31.572  1.00  0.00     0.029 A 
ATOM     56  C   UNL A   1      43.456  27.751  32.200  1.00  0.00     0.049 A 
ATOM     57  H   UNL A   1      41.618  28.518  31.499  1.00  0.00     0.167 HD
ATOM     58  C   UNL A   1      42.646  29.184  34.056  1.00  0.00     0.074 A 
ATOM     59  C   UNL A   1      42.762  29.764  35.379  1.00  0.00     0.031 C 
ATOM     60  C   UNL A   1      43.562  28.349  33.506  1.00  0.00     0.037 A 
BRANCH  47  61
ATOM     61  C   UNL A   1      42.086  26.367  27.844  1.00  0.00     0.064 A 
ATOM     62  C   UNL A   1      41.496  25.107  27.657  1.00  0.00     0.173 A 
ATOM     63  C   UNL A   1      43.005  26.808  26.879  1.00  0.00     0.173 A 
ATOM     64  F   UNL A   1      40.622  24.631  28.556  1.00  0.00    -0.203 F 
ATOM     65  C   UNL A   1      41.840  24.308  26.569  1.00  0.00     0.198 A 
ATOM     66  C   UNL A   1      43.320  26.021  25.775  1.00  0.00     0.198 A 
ATOM     67  F   UNL A   1      43.594  28.007  27.005  1.00  0.00    -0.203 F 
ATOM     68  F   UNL A   1      41.307  23.085  26.445  1.00  0.00    -0.200 F 
ATOM     69  C   UNL A   1      42.745  24.768  25.626  1.00  0.00     0.200 A 
ATOM     70  F   UNL A   1      44.185  26.472  24.857  1.00  0.00    -0.200 F 
ATOM     71  F   UNL A   1      43.071  23.999  24.577  1.00  0.00    -0.200 F 
ENDBRANCH  47  61
BRANCH  48  72
ATOM     72  C   UNL A   1      39.204  32.019  35.554  1.00  0.00     0.064 A 
ATOM     73  C   UNL A   1      38.369  31.474  36.539  1.00  0.00     0.173 A 
ATOM     74  C   UNL A   1      39.606  33.354  35.705  1.00  0.00     0.173 A 
ATOM     75  F   UNL A   1      37.942  30.207  36.427  1.00  0.00    -0.203 F 
ATOM     76  C   UNL A   1      37.936  32.237  37.620  1.00  0.00     0.198 A 
ATOM     77  C   UNL A   1      39.194  34.109  36.801  1.00  0.00     0.198 A 
ATOM     78  F   UNL A   1      40.409  33.921  34.793  1.00  0.00    -0.203 F 
ATOM     79  F   UNL A   1      37.101  31.704  38.523  1.00  0.00    -0.200 F 
ATOM     80  C   UNL A   1      38.352  33.553  37.754  1.00  0.00     0.200 A 
ATOM     81  F   UNL A   1      39.611  35.375  36.935  1.00  0.00    -0.200 F 
ATOM     82  F   UNL A   1      37.938  34.287  38.796  1.00  0.00    -0.200 F 
ENDBRANCH  48  72
BRANCH  60  83
ATOM     83  C   UNL A   1      44.790  28.047  34.314  1.00  0.00     0.064 A 
ATOM     84  C   UNL A   1      44.847  26.949  35.184  1.00  0.00     0.173 A 
ATOM     85  C   UNL A   1      45.935  28.848  34.187  1.00  0.00     0.173 A 
ATOM     86  F   UNL A   1      43.774  26.163  35.351  1.00  0.00    -0.203 F 
ATOM     87  C   UNL A   1      46.000  26.680  35.918  1.00  0.00     0.198 A 
ATOM     88  C   UNL A   1      47.093  28.559  34.899  1.00  0.00     0.198 A 
ATOM     89  F   UNL A   1      45.931  29.908  33.363  1.00  0.00    -0.203 F 
ATOM     90  F   UNL A   1      46.018  25.653  36.779  1.00  0.00    -0.200 F 
ATOM     91  C   UNL A   1      47.123  27.480  35.770  1.00  0.00     0.200 A 
ATOM     92  F   UNL A   1      48.182  29.325  34.746  1.00  0.00    -0.200 F 
ATOM     93  F   UNL A   1      48.233  27.215  36.473  1.00  0.00    -0.200 F 
ENDBRANCH  60  83
ENDBRANCH  34  35
ENDBRANCH  26  29
ENDBRANCH  24  25
ENDBRANCH  23  24
ENDBRANCH   1  23
TORSDOF 15
ENDMDL
MODEL 3
REMARK VINA RESULT:     -11.4      1.111      2.281
REMARK SMILES Cc1cc(C)c(C(=O)NCCCNC(=O)c2ccc(-c3c4nc(c(-c5c(F)c(F)c(F)c(F)c5F)c5ccc([nH]5)c(-c5c(F)c(F)c(F)c(F)c5F)c5nc(c(-c6c(F)c(F)c(F)c(F)c6F)c6ccc3[nH]6)C=C5)C=C4)cc2)c(N[C@@H](CO)C(C)C)n1
REMARK SMILES IDX 10 1 9 2 7 3 8 4 6 6 1 7 2 8 3 9 87 10 4 11 79 12 5 13 80 14
REMARK SMILES IDX 81 16 82 17 83 18 84 20 85 21 86 22 11 23 12 24 13 25 14 26
REMARK SMILES IDX 15 28 16 29 17 30 78 31 18 32 77 33 19 34 20 35 21 36 71 37
REMARK SMILES IDX 22 38 76 39 70 40 72 41 23 42 75 43 69 44 68 45 24 47 56 48
REMARK SMILES IDX 36 49 55 50 37 51 40 52 54 53 73 54 38 55 39 56 53 58 74 59
REMARK SMILES IDX 41 60 25 61 26 62 34 63 27 64 28 65 32 66 35 67 29 68 30 69
REMARK SMILES IDX 33 70 31 71 57 72 58 73 66 74 59 75 60 76 64 77 67 78 61 79
REMARK SMILES IDX 62 80 65 81 63 82 42 83 43 84 51 85 44 86 45 87 49 88 52 89
REMARK SMILES IDX 46 90 47 91 50 92 48 93
REMARK H PARENT 9 5 80 15 83 19 13 27 72 46 40 57
REMARK Flexibility Score: inf
ROOT
ATOM      1  C   UNL A   1      32.124  27.731  26.729  1.00  0.00     0.118 C 
ENDROOT
BRANCH   1   2
ATOM      2  N   UNL A   1      30.990  26.831  26.833  1.00  0.00    -0.352 N 
ATOM      3  C   UNL A   1      30.499  25.880  25.964  1.00  0.00     0.255 C 
ATOM      4  O   UNL A   1      29.527  25.222  26.345  1.00  0.00    -0.269 OA
ATOM      5  H   UNL A   1      30.479  26.916  27.671  1.00  0.00     0.163 HD
BRANCH   3   6
ATOM      6  C   UNL A   1      31.032  25.674  24.585  1.00  0.00     0.085 A 
ATOM      7  C   UNL A   1      32.530  25.579  20.601  1.00  0.00     0.067 C 
ATOM      8  C   UNL A   1      31.989  25.558  21.998  1.00  0.00     0.040 A 
ATOM      9  C   UNL A   1      32.453  24.643  22.923  1.00  0.00     0.028 A 
ATOM     10  N   UNL A   1      31.028  26.451  22.298  1.00  0.00    -0.236 NA
ATOM     11  C   UNL A   1      31.927  24.647  24.223  1.00  0.00    -0.033 A 
ATOM     12  C   UNL A   1      30.534  26.510  23.558  1.00  0.00     0.139 A 
ATOM     13  C   UNL A   1      32.321  23.495  25.101  1.00  0.00     0.045 C 
BRANCH  12  14
ATOM     14  N   UNL A   1      29.516  27.428  23.772  1.00  0.00    -0.364 N 
ATOM     15  H   UNL A   1      28.615  27.105  24.002  1.00  0.00     0.162 HD
BRANCH  14  16
ATOM     16  C   UNL A   1      29.758  28.873  23.662  1.00  0.00     0.108 C 
BRANCH  16  17
ATOM     17  C   UNL A   1      31.104  29.094  22.929  1.00  0.00     0.181 C 
BRANCH  17  18
ATOM     18  O   UNL A   1      30.925  29.651  21.627  1.00  0.00    -0.394 OA
ATOM     19  H   UNL A   1      30.243  29.151  21.152  1.00  0.00     0.210 HD
ENDBRANCH  17  18
ENDBRANCH  16  17
BRANCH  16  20
ATOM     20  C   UNL A   1      28.552  29.543  22.953  1.00  0.00     0.007 C 
ATOM     21  C   UNL A   1      27.278  28.703  23.126  1.00  0.00     0.009 C 
ATOM     22  C   UNL A   1      28.287  30.951  23.501  1.00  0.00     0.009 C 
ENDBRANCH  16  20
ENDBRANCH  14  16
ENDBRANCH  12  14
ENDBRANCH   3   6
ENDBRANCH   1   2
BRANCH   1  23
ATOM     23  C   UNL A   1      31.797  29.207  26.901  1.00  0.00     0.042 C 
BRANCH  23  24
ATOM     24  C   UNL A   1      32.669  30.171  26.104  1.00  0.00     0.118 C 
BRANCH  24  25
ATOM     25  N   UNL A   1      32.652  31.547  26.589  1.00  0.00    -0.352 N 
ATOM     26  C   UNL A   1      33.492  32.253  27.418  1.00  0.00     0.251 C 
ATOM     27  H   UNL A   1      31.888  32.074  26.258  1.00  0.00     0.163 HD
ATOM     28  O   UNL A   1      33.191  33.405  27.728  1.00  0.00    -0.269 OA
BRANCH  26  29
ATOM     29  C   UNL A   1      34.721  31.651  27.989  1.00  0.00     0.039 A 
ATOM     30  C   UNL A   1      35.847  32.464  28.173  1.00  0.00     0.014 A 
ATOM     31  C   UNL A   1      34.798  30.304  28.328  1.00  0.00     0.014 A 
ATOM     32  C   UNL A   1      36.995  31.949  28.786  1.00  0.00     0.010 A 
ATOM     33  C   UNL A   1      35.885  29.826  29.054  1.00  0.00     0.010 A 
ATOM     34  C   UNL A   1      37.003  30.639  29.287  1.00  0.00    -0.014 A 
BRANCH  34  35
ATOM     35  C   UNL A   1      38.164  30.088  30.039  1.00  0.00     0.031 A 
ATOM     36  C   UNL A   1      38.415  30.517  31.463  1.00  0.00     0.074 A 
ATOM     37  C   UNL A   1      39.047  29.278  29.419  1.00  0.00     0.049 A 
ATOM     38  N   UNL A   1      39.436  30.256  32.242  1.00  0.00    -0.248 NA
ATOM     39  C   UNL A   1      37.404  31.391  32.079  1.00  0.00     0.031 C 
ATOM     40  C   UNL A   1      38.961  28.839  28.026  1.00  0.00     0.029 A 
ATOM     41  N   UNL A   1      40.200  28.691  29.880  1.00  0.00    -0.354 N 
ATOM     42  C   UNL A   1      39.206  30.964  33.415  1.00  0.00     0.074 A 
ATOM     43  C   UNL A   1      37.983  31.713  33.225  1.00  0.00     0.031 C 
ATOM     44  C   UNL A   1      39.996  28.027  27.755  1.00  0.00     0.029 A 
ATOM     45  C   UNL A   1      40.841  27.922  28.939  1.00  0.00     0.049 A 
ATOM     46  H   UNL A   1      40.535  28.810  30.798  1.00  0.00     0.167 HD
ATOM     47  C   UNL A   1      39.931  30.968  34.560  1.00  0.00     0.037 A 
ATOM     48  C   UNL A   1      41.985  27.215  29.020  1.00  0.00     0.037 A 
ATOM     49  C   UNL A   1      41.115  30.178  34.770  1.00  0.00     0.049 A 
ATOM     50  C   UNL A   1      42.749  27.201  30.317  1.00  0.00     0.074 A 
ATOM     51  C   UNL A   1      41.877  30.052  35.917  1.00  0.00     0.029 A 
ATOM     52  N   UNL A   1      41.701  29.369  33.808  1.00  0.00    -0.354 N 
ATOM     53  N   UNL A   1      42.485  27.824  31.440  1.00  0.00    -0.248 NA
ATOM     54  C   UNL A   1      43.965  26.378  30.359  1.00  0.00     0.031 C 
ATOM     55  C   UNL A   1      42.946  29.193  35.640  1.00  0.00     0.029 A 
ATOM     56  C   UNL A   1      42.824  28.749  34.334  1.00  0.00     0.049 A 
ATOM     57  H   UNL A   1      41.371  29.254  32.887  1.00  0.00     0.167 HD
ATOM     58  C   UNL A   1      43.482  27.445  32.329  1.00  0.00     0.074 A 
ATOM     59  C   UNL A   1      44.348  26.527  31.619  1.00  0.00     0.031 C 
ATOM     60  C   UNL A   1      43.665  27.826  33.617  1.00  0.00     0.037 A 
BRANCH  47  61
ATOM     61  C   UNL A   1      39.451  31.844  35.683  1.00  0.00     0.064 A 
ATOM     62  C   UNL A   1      38.507  31.391  36.617  1.00  0.00     0.173 A 
ATOM     63  C   UNL A   1      39.956  33.143  35.841  1.00  0.00     0.173 A 
ATOM     64  F   UNL A   1      37.981  30.162  36.505  1.00  0.00    -0.203 F 
ATOM     65  C   UNL A   1      38.061  32.218  37.646  1.00  0.00     0.198 A 
ATOM     66  C   UNL A   1      39.534  33.955  36.890  1.00  0.00     0.198 A 
ATOM     67  F   UNL A   1      40.866  33.624  34.980  1.00  0.00    -0.203 F 
ATOM     68  F   UNL A   1      37.116  31.783  38.490  1.00  0.00    -0.200 F 
ATOM     69  C   UNL A   1      38.580  33.496  37.785  1.00  0.00     0.200 A 
ATOM     70  F   UNL A   1      40.046  35.185  37.033  1.00  0.00    -0.200 F 
ATOM     71  F   UNL A   1      38.153  34.288  38.778  1.00  0.00    -0.200 F 
ENDBRANCH  47  61
BRANCH  48  72
ATOM     72  C   UNL A   1      42.457  26.427  27.852  1.00  0.00     0.064 A 
ATOM     73  C   UNL A   1      41.971  25.134  27.617  1.00  0.00     0.173 A 
ATOM     74  C   UNL A   1      43.401  26.943  26.952  1.00  0.00     0.173 A 
ATOM     75  F   UNL A   1      41.082  24.590  28.462  1.00  0.00    -0.203 F 
ATOM     76  C   UNL A   1      42.425  24.377  26.540  1.00  0.00     0.198 A 
ATOM     77  C   UNL A   1      43.835  26.195  25.858  1.00  0.00     0.198 A 
ATOM     78  F   UNL A   1      43.893  28.178  27.128  1.00  0.00    -0.203 F 
ATOM     79  F   UNL A   1      41.977  23.126  26.366  1.00  0.00    -0.200 F 
ATOM     80  C   UNL A   1      43.353  24.909  25.658  1.00  0.00     0.200 A 
ATOM     81  F   UNL A   1      44.720  26.719  25.000  1.00  0.00    -0.200 F 
ATOM     82  F   UNL A   1      43.788  24.183  24.620  1.00  0.00    -0.200 F 
ENDBRANCH  48  72
BRANCH  60  83
ATOM     83  C   UNL A   1      44.820  27.217  34.356  1.00  0.00     0.064 A 
ATOM     84  C   UNL A   1      44.690  26.014  35.064  1.00  0.00     0.173 A 
ATOM     85  C   UNL A   1      46.083  27.829  34.323  1.00  0.00     0.173 A 
ATOM     86  F   UNL A   1      43.500  25.399  35.137  1.00  0.00    -0.203 F 
ATOM     87  C   UNL A   1      45.776  25.459  35.735  1.00  0.00     0.198 A 
ATOM     88  C   UNL A   1      47.172  27.256  34.971  1.00  0.00     0.198 A 
ATOM     89  F   UNL A   1      46.260  28.979  33.655  1.00  0.00    -0.203 F 
ATOM     90  F   UNL A   1      45.618  24.333  36.445  1.00  0.00    -0.200 F 
ATOM     91  C   UNL A   1      47.017  26.077  35.682  1.00  0.00     0.200 A 
ATOM     92  F   UNL A   1      48.374  27.847  34.908  1.00  0.00    -0.200 F 
ATOM     93  F   UNL A   1      48.062  25.538  36.324  1.00  0.00    -0.200 F 
ENDBRANCH  60  83
ENDBRANCH  34  35
ENDBRANCH  26  29
ENDBRANCH  24  25
ENDBRANCH  23  24
ENDBRANCH   1  23
TORSDOF 15
ENDMDL
