MODEL 1
REMARK VINA RESULT:     -12.6      0.000      0.000
REMARK SMILES O=C(NCCCNC(=O)[C@@]1([NH2+]C2CC2)CCC[C@@H]([NH+]2CCS(=O)(=O)CC2)C1)c1ccc(-c2c3nc(c(-c4c(F)c(F)c(F)c(F)c4F)c4ccc([nH]4)c(-c4c(F)c(F)c(F)c(F)c4F)c4nc(c(-c5c(F)c(F)c(F)c(F)c5F)c5ccc2[nH]5)C=C4)C=C3)cc1
REMARK SMILES IDX 5 1 4 2 3 3 1 4 2 5 28 7 29 8 90 9 30 10 89 11 31 12 32 13
REMARK SMILES IDX 33 14 83 15 34 16 88 17 82 18 84 19 35 20 87 21 81 22 80 23
REMARK SMILES IDX 36 25 68 26 48 27 67 28 49 29 52 30 66 31 85 32 50 33 51 34
REMARK SMILES IDX 65 36 86 37 53 38 37 39 38 40 46 41 39 42 40 43 44 44 47 45
REMARK SMILES IDX 41 46 42 47 45 48 43 49 69 50 70 51 78 52 71 53 72 54 76 55
REMARK SMILES IDX 79 56 73 57 74 58 77 59 75 60 54 61 55 62 63 63 56 64 57 65
REMARK SMILES IDX 61 66 64 67 58 68 59 69 62 70 60 71 6 72 7 73 8 74 9 76
REMARK SMILES IDX 10 77 15 78 27 79 16 80 18 81 17 82 11 83 12 86 13 87 14 88
REMARK SMILES IDX 19 89 20 90 26 91 21 93 25 94 22 95 23 96 24 97
REMARK H PARENT 3 6 84 24 52 35 7 75 11 84 11 85 19 92
REMARK Flexibility Score: inf
ROOT
ATOM      1  C   UNL A   1      38.509  19.577  24.963  1.00  0.00     0.042 C 
ENDROOT
BRANCH   1   2
ATOM      2  C   UNL A   1      39.434  19.893  26.126  1.00  0.00     0.118 C 
BRANCH   2   3
ATOM      3  N   UNL A   1      40.570  18.979  26.148  1.00  0.00    -0.352 N 
ATOM      4  O   UNL A   1      42.719  18.411  25.751  1.00  0.00    -0.269 OA
ATOM      5  C   UNL A   1      41.908  19.274  26.069  1.00  0.00     0.251 C 
ATOM      6  H   UNL A   1      40.348  18.023  26.231  1.00  0.00     0.163 HD
BRANCH   5   7
ATOM      7  C   UNL A   1      42.359  20.645  26.374  1.00  0.00     0.039 A 
ATOM      8  C   UNL A   1      42.631  21.530  25.329  1.00  0.00     0.014 A 
ATOM      9  C   UNL A   1      42.486  21.063  27.701  1.00  0.00     0.014 A 
ATOM     10  C   UNL A   1      43.183  22.769  25.600  1.00  0.00     0.010 A 
ATOM     11  C   UNL A   1      42.917  22.363  27.974  1.00  0.00     0.010 A 
ATOM     12  C   UNL A   1      43.284  23.219  26.923  1.00  0.00    -0.014 A 
BRANCH  12  13
ATOM     13  C   UNL A   1      43.664  24.633  27.160  1.00  0.00     0.031 A 
ATOM     14  C   UNL A   1      42.683  25.624  27.706  1.00  0.00     0.074 A 
ATOM     15  C   UNL A   1      44.933  24.995  26.895  1.00  0.00     0.049 A 
ATOM     16  N   UNL A   1      42.858  26.895  27.966  1.00  0.00    -0.248 NA
ATOM     17  C   UNL A   1      41.325  25.136  27.990  1.00  0.00     0.031 C 
ATOM     18  C   UNL A   1      45.967  24.106  26.353  1.00  0.00     0.029 A 
ATOM     19  N   UNL A   1      45.584  26.190  27.060  1.00  0.00    -0.354 N 
ATOM     20  C   UNL A   1      41.635  27.363  28.424  1.00  0.00     0.074 A 
ATOM     21  C   UNL A   1      40.714  26.247  28.380  1.00  0.00     0.031 C 
ATOM     22  C   UNL A   1      47.129  24.767  26.285  1.00  0.00     0.029 A 
ATOM     23  C   UNL A   1      46.905  26.148  26.689  1.00  0.00     0.049 A 
ATOM     24  H   UNL A   1      45.146  26.999  27.410  1.00  0.00     0.167 HD
ATOM     25  C   UNL A   1      41.318  28.611  28.845  1.00  0.00     0.037 A 
ATOM     26  C   UNL A   1      47.830  27.122  26.646  1.00  0.00     0.037 A 
ATOM     27  C   UNL A   1      42.253  29.709  28.886  1.00  0.00     0.049 A 
ATOM     28  C   UNL A   1      47.435  28.505  27.075  1.00  0.00     0.074 A 
ATOM     29  C   UNL A   1      42.042  31.005  29.322  1.00  0.00     0.029 A 
ATOM     30  N   UNL A   1      43.574  29.642  28.464  1.00  0.00    -0.354 N 
ATOM     31  N   UNL A   1      46.282  28.929  27.535  1.00  0.00    -0.248 NA
ATOM     32  C   UNL A   1      48.464  29.544  26.974  1.00  0.00     0.031 C 
ATOM     33  C   UNL A   1      43.215  31.737  29.106  1.00  0.00     0.029 A 
ATOM     34  C   UNL A   1      44.180  30.881  28.601  1.00  0.00     0.049 A 
ATOM     35  H   UNL A   1      44.016  28.832  28.118  1.00  0.00     0.167 HD
ATOM     36  C   UNL A   1      46.454  30.279  27.798  1.00  0.00     0.074 A 
ATOM     37  C   UNL A   1      47.829  30.596  27.470  1.00  0.00     0.031 C 
ATOM     38  C   UNL A   1      45.552  31.176  28.268  1.00  0.00     0.037 A 
BRANCH  25  39
ATOM     39  C   UNL A   1      39.899  28.869  29.268  1.00  0.00     0.064 A 
ATOM     40  C   UNL A   1      38.917  29.288  28.357  1.00  0.00     0.173 A 
ATOM     41  C   UNL A   1      39.505  28.653  30.599  1.00  0.00     0.173 A 
ATOM     42  F   UNL A   1      39.240  29.521  27.076  1.00  0.00    -0.203 F 
ATOM     43  C   UNL A   1      37.603  29.506  28.768  1.00  0.00     0.198 A 
ATOM     44  C   UNL A   1      38.184  28.840  30.998  1.00  0.00     0.198 A 
ATOM     45  F   UNL A   1      40.401  28.246  31.511  1.00  0.00    -0.203 F 
ATOM     46  F   UNL A   1      36.695  29.954  27.890  1.00  0.00    -0.200 F 
ATOM     47  C   UNL A   1      37.237  29.274  30.084  1.00  0.00     0.200 A 
ATOM     48  F   UNL A   1      37.830  28.601  32.268  1.00  0.00    -0.200 F 
ATOM     49  F   UNL A   1      35.971  29.476  30.475  1.00  0.00    -0.200 F 
ENDBRANCH  25  39
BRANCH  26  50
ATOM     50  C   UNL A   1      49.202  26.821  26.159  1.00  0.00     0.064 A 
ATOM     51  C   UNL A   1      50.186  26.330  27.027  1.00  0.00     0.173 A 
ATOM     52  C   UNL A   1      49.553  27.008  24.814  1.00  0.00     0.173 A 
ATOM     53  F   UNL A   1      49.903  26.147  28.325  1.00  0.00    -0.203 F 
ATOM     54  C   UNL A   1      51.475  26.059  26.572  1.00  0.00     0.198 A 
ATOM     55  C   UNL A   1      50.831  26.703  24.352  1.00  0.00     0.198 A 
ATOM     56  F   UNL A   1      48.646  27.467  23.939  1.00  0.00    -0.203 F 
ATOM     57  F   UNL A   1      52.411  25.638  27.433  1.00  0.00    -0.200 F 
ATOM     58  C   UNL A   1      51.794  26.238  25.235  1.00  0.00     0.200 A 
ATOM     59  F   UNL A   1      51.128  26.856  23.055  1.00  0.00    -0.200 F 
ATOM     60  F   UNL A   1      53.032  25.970  24.796  1.00  0.00    -0.200 F 
ENDBRANCH  26  50
BRANCH  38  61
ATOM     61  C   UNL A   1      46.042  32.579  28.487  1.00  0.00     0.064 A 
ATOM     62  C   UNL A   1      46.625  32.978  29.698  1.00  0.00     0.173 A 
ATOM     63  C   UNL A   1      45.945  33.530  27.460  1.00  0.00     0.173 A 
ATOM     64  F   UNL A   1      46.723  32.112  30.718  1.00  0.00    -0.203 F 
ATOM     65  C   UNL A   1      47.063  34.287  29.885  1.00  0.00     0.198 A 
ATOM     66  C   UNL A   1      46.418  34.827  27.636  1.00  0.00     0.198 A 
ATOM     67  F   UNL A   1      45.400  33.198  26.279  1.00  0.00    -0.203 F 
ATOM     68  F   UNL A   1      47.560  34.661  31.071  1.00  0.00    -0.200 F 
ATOM     69  C   UNL A   1      46.967  35.207  28.851  1.00  0.00     0.200 A 
ATOM     70  F   UNL A   1      46.339  35.709  26.632  1.00  0.00    -0.200 F 
ATOM     71  F   UNL A   1      47.395  36.463  29.030  1.00  0.00    -0.200 F 
ENDBRANCH  38  61
ENDBRANCH  12  13
ENDBRANCH   5   7
ENDBRANCH   2   3
ENDBRANCH   1   2
BRANCH   1  72
ATOM     72  C   UNL A   1      37.201  20.339  25.081  1.00  0.00     0.118 C 
BRANCH  72  73
ATOM     73  N   UNL A   1      37.222  21.522  24.241  1.00  0.00    -0.351 N 
ATOM     74  C   UNL A   1      36.275  22.380  23.787  1.00  0.00     0.281 C 
ATOM     75  H   UNL A   1      38.127  21.753  23.930  1.00  0.00     0.163 HD
ATOM     76  O   UNL A   1      36.641  23.047  22.804  1.00  0.00    -0.268 OA
BRANCH  74  77
ATOM     77  C   UNL A   1      34.921  22.700  24.510  1.00  0.00     0.181 C 
ATOM     78  C   UNL A   1      34.966  23.114  25.984  1.00  0.00     0.079 C 
ATOM     79  C   UNL A   1      34.495  23.959  23.691  1.00  0.00     0.144 C 
ATOM     80  C   UNL A   1      33.683  23.763  26.488  1.00  0.00     0.013 C 
ATOM     81  C   UNL A   1      33.454  24.953  24.239  1.00  0.00     0.190 C 
ATOM     82  C   UNL A   1      33.483  25.092  25.771  1.00  0.00     0.065 C 
BRANCH  77  83
ATOM     83  N   UNL A   1      33.911  21.651  24.251  1.00  0.00    -0.331 N 
ATOM     84  H   UNL A   1      34.116  21.306  23.314  1.00  0.00     0.347 HD
ATOM     85  H   UNL A   1      33.059  22.168  24.469  1.00  0.00     0.347 HD
BRANCH  83  86
ATOM     86  C   UNL A   1      33.698  20.453  25.065  1.00  0.00     0.183 C 
ATOM     87  C   UNL A   1      32.529  19.517  25.000  1.00  0.00     0.071 C 
ATOM     88  C   UNL A   1      33.892  19.051  24.571  1.00  0.00     0.071 C 
ENDBRANCH  83  86
ENDBRANCH  77  83
BRANCH  81  89
ATOM     89  N   UNL A   1      33.564  26.328  23.692  1.00  0.00    -0.331 N 
ATOM     90  C   UNL A   1      33.130  27.420  24.564  1.00  0.00     0.278 C 
ATOM     91  C   UNL A   1      33.283  26.592  22.277  1.00  0.00     0.278 C 
ATOM     92  H   UNL A   1      34.584  26.331  23.695  1.00  0.00     0.348 HD
ATOM     93  C   UNL A   1      31.638  27.701  24.526  1.00  0.00     0.198 C 
ATOM     94  C   UNL A   1      31.802  26.692  21.944  1.00  0.00     0.198 C 
ATOM     95  S   UNL A   1      31.074  28.013  22.870  1.00  0.00     0.161 S 
ATOM     96  O   UNL A   1      29.633  27.827  22.853  1.00  0.00    -0.228 OA
ATOM     97  O   UNL A   1      31.654  29.258  22.408  1.00  0.00    -0.228 OA
ENDBRANCH  81  89
ENDBRANCH  74  77
ENDBRANCH  72  73
ENDBRANCH   1  72
TORSDOF 13
ENDMDL
MODEL 2
REMARK VINA RESULT:     -12.6      5.570     10.189
REMARK SMILES O=C(NCCCNC(=O)[C@@]1([NH2+]C2CC2)CCC[C@@H]([NH+]2CCS(=O)(=O)CC2)C1)c1ccc(-c2c3nc(c(-c4c(F)c(F)c(F)c(F)c4F)c4ccc([nH]4)c(-c4c(F)c(F)c(F)c(F)c4F)c4nc(c(-c5c(F)c(F)c(F)c(F)c5F)c5ccc2[nH]5)C=C4)C=C3)cc1
REMARK SMILES IDX 5 1 4 2 3 3 1 4 2 5 28 7 29 8 90 9 30 10 89 11 31 12 32 13
REMARK SMILES IDX 33 14 83 15 34 16 88 17 82 18 84 19 35 20 87 21 81 22 80 23
REMARK SMILES IDX 36 25 68 26 48 27 67 28 49 29 52 30 66 31 85 32 50 33 51 34
REMARK SMILES IDX 65 36 86 37 53 38 37 39 38 40 46 41 39 42 40 43 44 44 47 45
REMARK SMILES IDX 41 46 42 47 45 48 43 49 69 50 70 51 78 52 71 53 72 54 76 55
REMARK SMILES IDX 79 56 73 57 74 58 77 59 75 60 54 61 55 62 63 63 56 64 57 65
REMARK SMILES IDX 61 66 64 67 58 68 59 69 62 70 60 71 6 72 7 73 8 74 9 76
REMARK SMILES IDX 10 77 15 78 27 79 16 80 18 81 17 82 11 83 12 86 13 87 14 88
REMARK SMILES IDX 19 89 20 90 26 91 21 93 25 94 22 95 23 96 24 97
REMARK H PARENT 3 6 84 24 52 35 7 75 11 84 11 85 19 92
REMARK Flexibility Score: inf
ROOT
ATOM      1  C   UNL A   1      31.425  32.234  26.928  1.00  0.00     0.042 C 
ENDROOT
BRANCH   1   2
ATOM      2  C   UNL A   1      32.754  32.939  27.133  1.00  0.00     0.118 C 
BRANCH   2   3
ATOM      3  N   UNL A   1      32.550  34.294  27.635  1.00  0.00    -0.352 N 
ATOM      4  O   UNL A   1      32.528  35.873  29.249  1.00  0.00    -0.269 OA
ATOM      5  C   UNL A   1      33.049  34.868  28.778  1.00  0.00     0.251 C 
ATOM      6  H   UNL A   1      31.980  34.874  27.079  1.00  0.00     0.163 HD
BRANCH   5   7
ATOM      7  C   UNL A   1      34.225  34.259  29.430  1.00  0.00     0.039 A 
ATOM      8  C   UNL A   1      34.038  33.335  30.460  1.00  0.00     0.014 A 
ATOM      9  C   UNL A   1      35.513  34.588  29.003  1.00  0.00     0.014 A 
ATOM     10  C   UNL A   1      35.129  32.863  31.169  1.00  0.00     0.010 A 
ATOM     11  C   UNL A   1      36.615  34.006  29.634  1.00  0.00     0.010 A 
ATOM     12  C   UNL A   1      36.429  33.152  30.732  1.00  0.00    -0.014 A 
BRANCH  12  13
ATOM     13  C   UNL A   1      37.562  32.445  31.377  1.00  0.00     0.031 A 
ATOM     14  C   UNL A   1      38.015  32.796  32.761  1.00  0.00     0.074 A 
ATOM     15  C   UNL A   1      38.159  31.453  30.688  1.00  0.00     0.049 A 
ATOM     16  N   UNL A   1      38.990  32.275  33.462  1.00  0.00    -0.248 NA
ATOM     17  C   UNL A   1      37.291  33.876  33.449  1.00  0.00     0.031 C 
ATOM     18  C   UNL A   1      37.797  31.037  29.328  1.00  0.00     0.029 A 
ATOM     19  N   UNL A   1      39.173  30.600  31.031  1.00  0.00    -0.354 N 
ATOM     20  C   UNL A   1      39.012  32.973  34.662  1.00  0.00     0.074 A 
ATOM     21  C   UNL A   1      37.970  33.975  34.584  1.00  0.00     0.031 C 
ATOM     22  C   UNL A   1      38.535  29.977  28.978  1.00  0.00     0.029 A 
ATOM     23  C   UNL A   1      39.484  29.695  30.046  1.00  0.00     0.049 A 
ATOM     24  H   UNL A   1      39.635  30.632  31.901  1.00  0.00     0.167 HD
ATOM     25  C   UNL A   1      39.827  32.784  35.727  1.00  0.00     0.037 A 
ATOM     26  C   UNL A   1      40.449  28.761  29.992  1.00  0.00     0.037 A 
ATOM     27  C   UNL A   1      40.856  31.776  35.786  1.00  0.00     0.049 A 
ATOM     28  C   UNL A   1      41.365  28.609  31.171  1.00  0.00     0.074 A 
ATOM     29  C   UNL A   1      41.717  31.482  36.828  1.00  0.00     0.029 A 
ATOM     30  N   UNL A   1      41.170  30.903  34.752  1.00  0.00    -0.354 N 
ATOM     31  N   UNL A   1      41.357  29.254  32.312  1.00  0.00    -0.248 NA
ATOM     32  C   UNL A   1      42.428  27.605  31.053  1.00  0.00     0.031 C 
ATOM     33  C   UNL A   1      42.592  30.476  36.404  1.00  0.00     0.029 A 
ATOM     34  C   UNL A   1      42.233  30.091  35.123  1.00  0.00     0.049 A 
ATOM     35  H   UNL A   1      40.707  30.864  33.885  1.00  0.00     0.167 HD
ATOM     36  C   UNL A   1      42.397  28.720  33.057  1.00  0.00     0.074 A 
ATOM     37  C   UNL A   1      42.999  27.682  32.245  1.00  0.00     0.031 C 
ATOM     38  C   UNL A   1      42.818  29.062  34.300  1.00  0.00     0.037 A 
BRANCH  25  39
ATOM     39  C   UNL A   1      39.663  33.702  36.906  1.00  0.00     0.064 A 
ATOM     40  C   UNL A   1      40.305  34.949  36.971  1.00  0.00     0.173 A 
ATOM     41  C   UNL A   1      38.815  33.348  37.968  1.00  0.00     0.173 A 
ATOM     42  F   UNL A   1      41.135  35.333  35.990  1.00  0.00    -0.203 F 
ATOM     43  C   UNL A   1      40.126  35.791  38.067  1.00  0.00     0.198 A 
ATOM     44  C   UNL A   1      38.613  34.208  39.045  1.00  0.00     0.198 A 
ATOM     45  F   UNL A   1      38.170  32.172  37.955  1.00  0.00    -0.203 F 
ATOM     46  F   UNL A   1      40.791  36.954  38.130  1.00  0.00    -0.200 F 
ATOM     47  C   UNL A   1      39.275  35.425  39.097  1.00  0.00     0.200 A 
ATOM     48  F   UNL A   1      37.778  33.857  40.033  1.00  0.00    -0.200 F 
ATOM     49  F   UNL A   1      39.098  36.240  40.146  1.00  0.00    -0.200 F 
ENDBRANCH  25  39
BRANCH  26  50
ATOM     50  C   UNL A   1      40.603  27.923  28.774  1.00  0.00     0.064 A 
ATOM     51  C   UNL A   1      41.420  28.334  27.713  1.00  0.00     0.173 A 
ATOM     52  C   UNL A   1      39.944  26.690  28.652  1.00  0.00     0.173 A 
ATOM     53  F   UNL A   1      42.060  29.511  27.776  1.00  0.00    -0.203 F 
ATOM     54  C   UNL A   1      41.554  27.553  26.567  1.00  0.00     0.198 A 
ATOM     55  C   UNL A   1      40.108  25.894  27.521  1.00  0.00     0.198 A 
ATOM     56  F   UNL A   1      39.158  26.246  29.643  1.00  0.00    -0.203 F 
ATOM     57  F   UNL A   1      42.302  27.992  25.545  1.00  0.00    -0.200 F 
ATOM     58  C   UNL A   1      40.905  26.332  26.474  1.00  0.00     0.200 A 
ATOM     59  F   UNL A   1      39.497  24.704  27.447  1.00  0.00    -0.200 F 
ATOM     60  F   UNL A   1      41.041  25.578  25.375  1.00  0.00    -0.200 F 
ENDBRANCH  26  50
BRANCH  38  61
ATOM     61  C   UNL A   1      43.964  28.275  34.868  1.00  0.00     0.064 A 
ATOM     62  C   UNL A   1      45.293  28.701  34.732  1.00  0.00     0.173 A 
ATOM     63  C   UNL A   1      43.724  27.089  35.579  1.00  0.00     0.173 A 
ATOM     64  F   UNL A   1      45.577  29.818  34.044  1.00  0.00    -0.203 F 
ATOM     65  C   UNL A   1      46.342  27.952  35.257  1.00  0.00     0.198 A 
ATOM     66  C   UNL A   1      44.771  26.362  36.136  1.00  0.00     0.198 A 
ATOM     67  F   UNL A   1      42.470  26.641  35.743  1.00  0.00    -0.203 F 
ATOM     68  F   UNL A   1      47.608  28.346  35.061  1.00  0.00    -0.200 F 
ATOM     69  C   UNL A   1      46.080  26.788  35.965  1.00  0.00     0.200 A 
ATOM     70  F   UNL A   1      44.515  25.248  36.833  1.00  0.00    -0.200 F 
ATOM     71  F   UNL A   1      47.090  26.072  36.477  1.00  0.00    -0.200 F 
ENDBRANCH  38  61
ENDBRANCH  12  13
ENDBRANCH   5   7
ENDBRANCH   2   3
ENDBRANCH   1   2
BRANCH   1  72
ATOM     72  C   UNL A   1      31.597  30.969  26.106  1.00  0.00     0.118 C 
BRANCH  72  73
ATOM     73  N   UNL A   1      31.730  29.812  26.972  1.00  0.00    -0.351 N 
ATOM     74  C   UNL A   1      31.642  28.471  26.785  1.00  0.00     0.281 C 
ATOM     75  H   UNL A   1      31.928  30.056  27.905  1.00  0.00     0.163 HD
ATOM     76  O   UNL A   1      31.458  27.836  27.837  1.00  0.00    -0.268 OA
BRANCH  74  77
ATOM     77  C   UNL A   1      31.944  27.723  25.441  1.00  0.00     0.181 C 
ATOM     78  C   UNL A   1      33.294  27.968  24.762  1.00  0.00     0.079 C 
ATOM     79  C   UNL A   1      31.956  26.255  25.974  1.00  0.00     0.144 C 
ATOM     80  C   UNL A   1      33.652  26.937  23.698  1.00  0.00     0.013 C 
ATOM     81  C   UNL A   1      32.628  25.123  25.176  1.00  0.00     0.190 C 
ATOM     82  C   UNL A   1      33.852  25.583  24.366  1.00  0.00     0.065 C 
BRANCH  77  83
ATOM     83  N   UNL A   1      30.811  27.833  24.496  1.00  0.00    -0.331 N 
ATOM     84  H   UNL A   1      29.977  27.878  25.081  1.00  0.00     0.347 HD
ATOM     85  H   UNL A   1      31.009  27.039  23.888  1.00  0.00     0.347 HD
BRANCH  83  86
ATOM     86  C   UNL A   1      30.636  28.885  23.493  1.00  0.00     0.183 C 
ATOM     87  C   UNL A   1      29.648  28.900  22.367  1.00  0.00     0.071 C 
ATOM     88  C   UNL A   1      29.514  29.879  23.499  1.00  0.00     0.071 C 
ENDBRANCH  83  86
ENDBRANCH  77  83
BRANCH  81  89
ATOM     89  N   UNL A   1      33.078  23.971  25.996  1.00  0.00    -0.331 N 
ATOM     90  C   UNL A   1      34.245  23.233  25.511  1.00  0.00     0.278 C 
ATOM     91  C   UNL A   1      32.101  23.103  26.662  1.00  0.00     0.278 C 
ATOM     92  H   UNL A   1      33.392  24.550  26.776  1.00  0.00     0.348 HD
ATOM     93  C   UNL A   1      33.930  22.165  24.480  1.00  0.00     0.198 C 
ATOM     94  C   UNL A   1      31.462  22.068  25.750  1.00  0.00     0.198 C 
ATOM     95  S   UNL A   1      32.717  21.013  25.081  1.00  0.00     0.161 S 
ATOM     96  O   UNL A   1      32.153  20.326  23.931  1.00  0.00    -0.228 OA
ATOM     97  O   UNL A   1      33.296  20.256  26.173  1.00  0.00    -0.228 OA
ENDBRANCH  81  89
ENDBRANCH  74  77
ENDBRANCH  72  73
ENDBRANCH   1  72
TORSDOF 13
ENDMDL
MODEL 3
REMARK VINA RESULT:     -12.6      5.526     10.088
REMARK SMILES O=C(NCCCNC(=O)[C@@]1([NH2+]C2CC2)CCC[C@@H]([NH+]2CCS(=O)(=O)CC2)C1)c1ccc(-c2c3nc(c(-c4c(F)c(F)c(F)c(F)c4F)c4ccc([nH]4)c(-c4c(F)c(F)c(F)c(F)c4F)c4nc(c(-c5c(F)c(F)c(F)c(F)c5F)c5ccc2[nH]5)C=C4)C=C3)cc1
REMARK SMILES IDX 5 1 4 2 3 3 1 4 2 5 28 7 29 8 90 9 30 10 89 11 31 12 32 13
REMARK SMILES IDX 33 14 83 15 34 16 88 17 82 18 84 19 35 20 87 21 81 22 80 23
REMARK SMILES IDX 36 25 68 26 48 27 67 28 49 29 52 30 66 31 85 32 50 33 51 34
REMARK SMILES IDX 65 36 86 37 53 38 37 39 38 40 46 41 39 42 40 43 44 44 47 45
REMARK SMILES IDX 41 46 42 47 45 48 43 49 69 50 70 51 78 52 71 53 72 54 76 55
REMARK SMILES IDX 79 56 73 57 74 58 77 59 75 60 54 61 55 62 63 63 56 64 57 65
REMARK SMILES IDX 61 66 64 67 58 68 59 69 62 70 60 71 6 72 7 73 8 74 9 76
REMARK SMILES IDX 10 77 15 78 27 79 16 80 18 81 17 82 11 83 12 86 13 87 14 88
REMARK SMILES IDX 19 89 20 90 26 91 21 93 25 94 22 95 23 96 24 97
REMARK H PARENT 3 6 84 24 52 35 7 75 11 84 11 85 19 92
REMARK Flexibility Score: inf
ROOT
ATOM      1  C   UNL A   1      31.371  32.252  26.901  1.00  0.00     0.042 C 
ENDROOT
BRANCH   1   2
ATOM      2  C   UNL A   1      32.718  32.891  27.193  1.00  0.00     0.118 C 
BRANCH   2   3
ATOM      3  N   UNL A   1      32.552  34.267  27.647  1.00  0.00    -0.352 N 
ATOM      4  O   UNL A   1      32.608  35.907  29.198  1.00  0.00    -0.269 OA
ATOM      5  C   UNL A   1      33.098  34.876  28.749  1.00  0.00     0.251 C 
ATOM      6  H   UNL A   1      31.971  34.834  27.089  1.00  0.00     0.163 HD
BRANCH   5   7
ATOM      7  C   UNL A   1      34.285  34.275  29.386  1.00  0.00     0.039 A 
ATOM      8  C   UNL A   1      34.120  33.381  30.445  1.00  0.00     0.014 A 
ATOM      9  C   UNL A   1      35.564  34.579  28.914  1.00  0.00     0.014 A 
ATOM     10  C   UNL A   1      35.225  32.918  31.137  1.00  0.00     0.010 A 
ATOM     11  C   UNL A   1      36.679  34.004  29.530  1.00  0.00     0.010 A 
ATOM     12  C   UNL A   1      36.515  33.181  30.656  1.00  0.00    -0.014 A 
BRANCH  12  13
ATOM     13  C   UNL A   1      37.660  32.482  31.288  1.00  0.00     0.031 A 
ATOM     14  C   UNL A   1      38.125  32.834  32.667  1.00  0.00     0.074 A 
ATOM     15  C   UNL A   1      38.255  31.494  30.592  1.00  0.00     0.049 A 
ATOM     16  N   UNL A   1      39.111  32.319  33.358  1.00  0.00    -0.248 NA
ATOM     17  C   UNL A   1      37.402  33.909  33.364  1.00  0.00     0.031 C 
ATOM     18  C   UNL A   1      37.882  31.077  29.236  1.00  0.00     0.029 A 
ATOM     19  N   UNL A   1      39.279  30.647  30.924  1.00  0.00    -0.354 N 
ATOM     20  C   UNL A   1      39.140  33.016  34.558  1.00  0.00     0.074 A 
ATOM     21  C   UNL A   1      38.092  34.012  34.492  1.00  0.00     0.031 C 
ATOM     22  C   UNL A   1      38.623  30.022  28.877  1.00  0.00     0.029 A 
ATOM     23  C   UNL A   1      39.585  29.745  29.934  1.00  0.00     0.049 A 
ATOM     24  H   UNL A   1      39.750  30.682  31.788  1.00  0.00     0.167 HD
ATOM     25  C   UNL A   1      39.968  32.832  35.614  1.00  0.00     0.037 A 
ATOM     26  C   UNL A   1      40.555  28.817  29.870  1.00  0.00     0.037 A 
ATOM     27  C   UNL A   1      41.004  31.830  35.661  1.00  0.00     0.049 A 
ATOM     28  C   UNL A   1      41.485  28.670  31.039  1.00  0.00     0.074 A 
ATOM     29  C   UNL A   1      41.878  31.541  36.694  1.00  0.00     0.029 A 
ATOM     30  N   UNL A   1      41.313  30.960  34.624  1.00  0.00    -0.354 N 
ATOM     31  N   UNL A   1      41.484  29.315  32.181  1.00  0.00    -0.248 NA
ATOM     32  C   UNL A   1      42.552  27.673  30.908  1.00  0.00     0.031 C 
ATOM     33  C   UNL A   1      42.754  30.541  36.260  1.00  0.00     0.029 A 
ATOM     34  C   UNL A   1      42.384  30.155  34.983  1.00  0.00     0.049 A 
ATOM     35  H   UNL A   1      40.840  30.919  33.761  1.00  0.00     0.167 HD
ATOM     36  C   UNL A   1      42.535  28.787  32.914  1.00  0.00     0.074 A 
ATOM     37  C   UNL A   1      43.135  27.753  32.095  1.00  0.00     0.031 C 
ATOM     38  C   UNL A   1      42.967  29.130  34.152  1.00  0.00     0.037 A 
BRANCH  25  39
ATOM     39  C   UNL A   1      39.810  33.748  36.796  1.00  0.00     0.064 A 
ATOM     40  C   UNL A   1      40.436  35.004  36.850  1.00  0.00     0.173 A 
ATOM     41  C   UNL A   1      38.985  33.383  37.872  1.00  0.00     0.173 A 
ATOM     42  F   UNL A   1      41.244  35.399  35.855  1.00  0.00    -0.203 F 
ATOM     43  C   UNL A   1      40.263  35.844  37.948  1.00  0.00     0.198 A 
ATOM     44  C   UNL A   1      38.789  34.240  38.952  1.00  0.00     0.198 A 
ATOM     45  F   UNL A   1      38.357  32.197  37.869  1.00  0.00    -0.203 F 
ATOM     46  F   UNL A   1      40.912  37.016  38.000  1.00  0.00    -0.200 F 
ATOM     47  C   UNL A   1      39.435  35.466  38.993  1.00  0.00     0.200 A 
ATOM     48  F   UNL A   1      37.976  33.877  39.953  1.00  0.00    -0.200 F 
ATOM     49  F   UNL A   1      39.263  36.279  40.044  1.00  0.00    -0.200 F 
ENDBRANCH  25  39
BRANCH  26  50
ATOM     50  C   UNL A   1      40.701  27.981  28.650  1.00  0.00     0.064 A 
ATOM     51  C   UNL A   1      40.043  26.750  28.534  1.00  0.00     0.173 A 
ATOM     52  C   UNL A   1      41.493  28.403  27.571  1.00  0.00     0.173 A 
ATOM     53  F   UNL A   1      39.286  26.297  29.543  1.00  0.00    -0.203 F 
ATOM     54  C   UNL A   1      40.191  25.962  27.393  1.00  0.00     0.198 A 
ATOM     55  C   UNL A   1      41.610  27.631  26.417  1.00  0.00     0.198 A 
ATOM     56  F   UNL A   1      42.137  29.578  27.626  1.00  0.00    -0.203 F 
ATOM     57  F   UNL A   1      39.591  24.765  27.328  1.00  0.00    -0.200 F 
ATOM     58  C   UNL A   1      40.967  26.406  26.334  1.00  0.00     0.200 A 
ATOM     59  F   UNL A   1      42.343  28.076  25.388  1.00  0.00    -0.200 F 
ATOM     60  F   UNL A   1      41.102  25.651  25.235  1.00  0.00    -0.200 F 
ENDBRANCH  26  50
BRANCH  38  61
ATOM     61  C   UNL A   1      44.124  28.350  34.708  1.00  0.00     0.064 A 
ATOM     62  C   UNL A   1      45.449  28.784  34.556  1.00  0.00     0.173 A 
ATOM     63  C   UNL A   1      43.899  27.163  35.423  1.00  0.00     0.173 A 
ATOM     64  F   UNL A   1      45.719  29.901  33.865  1.00  0.00    -0.203 F 
ATOM     65  C   UNL A   1      46.508  28.040  35.070  1.00  0.00     0.198 A 
ATOM     66  C   UNL A   1      44.957  26.443  35.967  1.00  0.00     0.198 A 
ATOM     67  F   UNL A   1      42.650  26.708  35.601  1.00  0.00    -0.203 F 
ATOM     68  F   UNL A   1      47.770  28.442  34.860  1.00  0.00    -0.200 F 
ATOM     69  C   UNL A   1      46.261  26.876  35.782  1.00  0.00     0.200 A 
ATOM     70  F   UNL A   1      44.715  25.327  36.668  1.00  0.00    -0.200 F 
ATOM     71  F   UNL A   1      47.281  26.166  36.282  1.00  0.00    -0.200 F 
ENDBRANCH  38  61
ENDBRANCH  12  13
ENDBRANCH   5   7
ENDBRANCH   2   3
ENDBRANCH   1   2
BRANCH   1  72
ATOM     72  C   UNL A   1      31.532  30.980  26.090  1.00  0.00     0.118 C 
BRANCH  72  73
ATOM     73  N   UNL A   1      31.702  29.834  26.965  1.00  0.00    -0.351 N 
ATOM     74  C   UNL A   1      31.636  28.490  26.794  1.00  0.00     0.281 C 
ATOM     75  H   UNL A   1      31.911  30.091  27.892  1.00  0.00     0.163 HD
ATOM     76  O   UNL A   1      31.483  27.863  27.856  1.00  0.00    -0.268 OA
BRANCH  74  77
ATOM     77  C   UNL A   1      31.930  27.734  25.452  1.00  0.00     0.181 C 
ATOM     78  C   UNL A   1      33.247  28.026  24.728  1.00  0.00     0.079 C 
ATOM     79  C   UNL A   1      32.023  26.277  26.007  1.00  0.00     0.144 C 
ATOM     80  C   UNL A   1      33.617  26.994  23.669  1.00  0.00     0.013 C 
ATOM     81  C   UNL A   1      32.720  25.162  25.206  1.00  0.00     0.190 C 
ATOM     82  C   UNL A   1      33.897  25.661  24.351  1.00  0.00     0.065 C 
BRANCH  77  83
ATOM     83  N   UNL A   1      30.765  27.779  24.542  1.00  0.00    -0.331 N 
ATOM     84  H   UNL A   1      29.952  27.620  25.138  1.00  0.00     0.347 HD
ATOM     85  H   UNL A   1      31.064  27.105  23.837  1.00  0.00     0.347 HD
BRANCH  83  86
ATOM     86  C   UNL A   1      30.399  28.904  23.681  1.00  0.00     0.183 C 
ATOM     87  C   UNL A   1      30.677  29.043  22.215  1.00  0.00     0.071 C 
ATOM     88  C   UNL A   1      29.264  28.882  22.701  1.00  0.00     0.071 C 
ENDBRANCH  83  86
ENDBRANCH  77  83
BRANCH  81  89
ATOM     89  N   UNL A   1      33.246  24.044  26.029  1.00  0.00    -0.331 N 
ATOM     90  C   UNL A   1      34.376  23.297  25.479  1.00  0.00     0.278 C 
ATOM     91  C   UNL A   1      32.334  23.196  26.803  1.00  0.00     0.278 C 
ATOM     92  H   UNL A   1      33.616  24.654  26.758  1.00  0.00     0.348 HD
ATOM     93  C   UNL A   1      33.990  22.188  24.516  1.00  0.00     0.198 C 
ATOM     94  C   UNL A   1      31.633  22.123  25.984  1.00  0.00     0.198 C 
ATOM     95  S   UNL A   1      32.840  21.052  25.256  1.00  0.00     0.161 S 
ATOM     96  O   UNL A   1      32.192  20.318  24.181  1.00  0.00    -0.228 OA
ATOM     97  O   UNL A   1      33.512  20.340  26.324  1.00  0.00    -0.228 OA
ENDBRANCH  81  89
ENDBRANCH  74  77
ENDBRANCH  72  73
ENDBRANCH   1  72
TORSDOF 13
ENDMDL
