MODEL 1
REMARK VINA RESULT:     -12.2      0.000      0.000
REMARK SMILES CCN(CC(C)(C)O)C(=O)Nc1ccc(C(=O)NCCCNC(=O)c2ccc(-c3c4nc(c(-c5c(F)c(F)c(F)c(F)c5F)c5ccc([nH]5)c(-c5c(F)c(F)c(F)c(F)c5F)c5nc(c(-c6c(F)c(F)c(F)c(F)c6F)c6ccc3[nH]6)C=C5)C=C4)cc2)c(O)c1
REMARK SMILES IDX 16 1 17 2 18 3 15 5 12 6 13 7 90 8 14 9 88 10 11 11 9 12
REMARK SMILES IDX 10 13 3 15 2 16 1 17 4 18 5 19 6 20 7 21 8 22 89 24 19 26
REMARK SMILES IDX 20 27 21 28 22 29 23 30 24 32 25 33 26 34 87 35 27 36 86 37
REMARK SMILES IDX 28 38 29 39 30 40 80 41 31 42 85 43 79 44 81 45 32 46 84 47
REMARK SMILES IDX 78 48 77 49 33 51 65 52 45 53 64 54 46 55 49 56 63 57 82 58
REMARK SMILES IDX 47 59 48 60 62 62 83 63 50 64 34 65 35 66 43 67 36 68 37 69
REMARK SMILES IDX 41 70 44 71 38 72 39 73 42 74 40 75 66 76 67 77 75 78 68 79
REMARK SMILES IDX 69 80 73 81 76 82 70 83 71 84 74 85 72 86 51 87 52 88 60 89
REMARK SMILES IDX 53 90 54 91 58 92 61 93 55 94 56 95 59 96 57 97
REMARK H PARENT 18 4 11 14 8 23 89 25 22 31 81 50 49 61
REMARK Flexibility Score: inf
ROOT
ATOM      1  C   UNL A   1      31.075  29.112  24.344  1.00  0.00     0.255 C 
ATOM      2  O   UNL A   1      30.496  29.003  23.266  1.00  0.00    -0.269 OA
ATOM      3  N   UNL A   1      31.153  30.333  24.941  1.00  0.00    -0.352 N 
ATOM      4  H   UNL A   1      30.773  31.079  24.424  1.00  0.00     0.163 HD
ENDROOT
BRANCH   1   5
ATOM      5  C   UNL A   1      31.814  27.974  24.902  1.00  0.00     0.081 A 
ATOM      6  C   UNL A   1      32.882  25.498  25.750  1.00  0.00     0.046 A 
ATOM      7  C   UNL A   1      31.548  25.799  25.801  1.00  0.00     0.027 A 
ATOM      8  C   UNL A   1      33.731  26.529  25.338  1.00  0.00     0.073 A 
ATOM      9  C   UNL A   1      30.987  26.979  25.367  1.00  0.00     0.020 A 
ATOM     10  C   UNL A   1      33.199  27.777  24.959  1.00  0.00     0.130 A 
BRANCH   6  11
ATOM     11  N   UNL A   1      33.402  24.271  26.180  1.00  0.00    -0.308 N 
ATOM     12  C   UNL A   1      33.595  22.998  25.771  1.00  0.00     0.321 C 
ATOM     13  O   UNL A   1      33.943  22.265  26.713  1.00  0.00    -0.248 OA
ATOM     14  H   UNL A   1      33.746  24.369  27.097  1.00  0.00     0.171 HD
BRANCH  12  15
ATOM     15  N   UNL A   1      33.516  22.478  24.501  1.00  0.00    -0.322 N 
BRANCH  15  16
ATOM     16  C   UNL A   1      34.361  23.159  23.501  1.00  0.00     0.118 C 
ATOM     17  C   UNL A   1      35.853  22.999  23.802  1.00  0.00     0.027 C 
ENDBRANCH  15  16
BRANCH  15  18
ATOM     18  C   UNL A   1      32.674  21.426  23.896  1.00  0.00     0.155 C 
BRANCH  18  19
ATOM     19  C   UNL A   1      32.906  19.943  24.426  1.00  0.00     0.077 C 
ATOM     20  C   UNL A   1      32.368  18.786  23.550  1.00  0.00     0.043 C 
ATOM     21  C   UNL A   1      34.409  19.733  24.726  1.00  0.00     0.043 C 
BRANCH  19  22
ATOM     22  O   UNL A   1      32.220  19.817  25.685  1.00  0.00    -0.389 OA
ATOM     23  H   UNL A   1      32.346  20.626  26.206  1.00  0.00     0.211 HD
ENDBRANCH  19  22
ENDBRANCH  18  19
ENDBRANCH  15  18
ENDBRANCH  12  15
ENDBRANCH   6  11
BRANCH  10  24
ATOM     24  O   UNL A   1      34.098  28.768  24.677  1.00  0.00    -0.507 OA
ATOM     25  H   UNL A   1      33.901  29.406  24.019  1.00  0.00     0.293 HD
ENDBRANCH  10  24
ENDBRANCH   1   5
BRANCH   3  26
ATOM     26  C   UNL A   1      31.714  30.694  26.228  1.00  0.00     0.118 C 
BRANCH  26  27
ATOM     27  C   UNL A   1      31.496  32.145  26.607  1.00  0.00     0.042 C 
BRANCH  27  28
ATOM     28  C   UNL A   1      32.646  32.761  27.379  1.00  0.00     0.118 C 
BRANCH  28  29
ATOM     29  N   UNL A   1      32.451  34.183  27.657  1.00  0.00    -0.352 N 
ATOM     30  C   UNL A   1      32.993  34.992  28.622  1.00  0.00     0.251 C 
ATOM     31  H   UNL A   1      31.824  34.635  27.047  1.00  0.00     0.163 HD
ATOM     32  O   UNL A   1      32.511  36.107  28.831  1.00  0.00    -0.269 OA
BRANCH  30  33
ATOM     33  C   UNL A   1      34.123  34.514  29.436  1.00  0.00     0.039 A 
ATOM     34  C   UNL A   1      33.882  33.846  30.638  1.00  0.00     0.014 A 
ATOM     35  C   UNL A   1      35.430  34.706  28.995  1.00  0.00     0.014 A 
ATOM     36  C   UNL A   1      34.954  33.294  31.343  1.00  0.00     0.010 A 
ATOM     37  C   UNL A   1      36.467  34.022  29.603  1.00  0.00     0.010 A 
ATOM     38  C   UNL A   1      36.249  33.329  30.800  1.00  0.00    -0.014 A 
BRANCH  38  39
ATOM     39  C   UNL A   1      37.408  32.692  31.474  1.00  0.00     0.031 A 
ATOM     40  C   UNL A   1      38.114  31.540  30.809  1.00  0.00     0.074 A 
ATOM     41  C   UNL A   1      37.760  33.082  32.714  1.00  0.00     0.049 A 
ATOM     42  N   UNL A   1      39.063  30.769  31.273  1.00  0.00    -0.248 NA
ATOM     43  C   UNL A   1      37.657  31.171  29.458  1.00  0.00     0.031 C 
ATOM     44  C   UNL A   1      37.106  34.137  33.492  1.00  0.00     0.029 A 
ATOM     45  N   UNL A   1      38.751  32.626  33.547  1.00  0.00    -0.354 N 
ATOM     46  C   UNL A   1      39.287  29.814  30.289  1.00  0.00     0.074 A 
ATOM     47  C   UNL A   1      38.323  30.049  29.240  1.00  0.00     0.031 C 
ATOM     48  C   UNL A   1      37.737  34.273  34.668  1.00  0.00     0.029 A 
ATOM     49  C   UNL A   1      38.807  33.285  34.750  1.00  0.00     0.049 A 
ATOM     50  H   UNL A   1      39.365  31.894  33.304  1.00  0.00     0.167 HD
ATOM     51  C   UNL A   1      40.236  28.850  30.245  1.00  0.00     0.037 A 
ATOM     52  C   UNL A   1      39.628  33.106  35.802  1.00  0.00     0.037 A 
ATOM     53  C   UNL A   1      41.223  28.655  31.272  1.00  0.00     0.049 A 
ATOM     54  C   UNL A   1      40.689  32.042  35.723  1.00  0.00     0.074 A 
ATOM     55  C   UNL A   1      42.280  27.764  31.296  1.00  0.00     0.029 A 
ATOM     56  N   UNL A   1      41.272  29.371  32.460  1.00  0.00    -0.354 N 
ATOM     57  N   UNL A   1      40.943  31.196  34.753  1.00  0.00    -0.248 NA
ATOM     58  C   UNL A   1      41.582  31.911  36.882  1.00  0.00     0.031 C 
ATOM     59  C   UNL A   1      42.936  27.901  32.522  1.00  0.00     0.029 A 
ATOM     60  C   UNL A   1      42.328  28.922  33.236  1.00  0.00     0.049 A 
ATOM     61  H   UNL A   1      40.650  30.089  32.714  1.00  0.00     0.167 HD
ATOM     62  C   UNL A   1      42.042  30.457  35.169  1.00  0.00     0.074 A 
ATOM     63  C   UNL A   1      42.414  30.964  36.474  1.00  0.00     0.031 C 
ATOM     64  C   UNL A   1      42.686  29.450  34.529  1.00  0.00     0.037 A 
BRANCH  51  65
ATOM     65  C   UNL A   1      40.256  27.948  29.043  1.00  0.00     0.064 A 
ATOM     66  C   UNL A   1      39.553  26.732  29.017  1.00  0.00     0.173 A 
ATOM     67  C   UNL A   1      40.975  28.310  27.894  1.00  0.00     0.173 A 
ATOM     68  F   UNL A   1      38.861  26.329  30.094  1.00  0.00    -0.203 F 
ATOM     69  C   UNL A   1      39.604  25.896  27.906  1.00  0.00     0.198 A 
ATOM     70  C   UNL A   1      40.992  27.489  26.769  1.00  0.00     0.198 A 
ATOM     71  F   UNL A   1      41.662  29.462  27.860  1.00  0.00    -0.203 F 
ATOM     72  F   UNL A   1      38.980  24.710  27.933  1.00  0.00    -0.200 F 
ATOM     73  C   UNL A   1      40.316  26.278  26.780  1.00  0.00     0.200 A 
ATOM     74  F   UNL A   1      41.670  27.867  25.676  1.00  0.00    -0.200 F 
ATOM     75  F   UNL A   1      40.360  25.475  25.708  1.00  0.00    -0.200 F 
ENDBRANCH  51  65
BRANCH  52  76
ATOM     76  C   UNL A   1      39.501  33.977  37.001  1.00  0.00     0.064 A 
ATOM     77  C   UNL A   1      40.104  35.243  37.036  1.00  0.00     0.173 A 
ATOM     78  C   UNL A   1      38.774  33.571  38.128  1.00  0.00     0.173 A 
ATOM     79  F   UNL A   1      40.823  35.672  35.988  1.00  0.00    -0.203 F 
ATOM     80  C   UNL A   1      40.002  36.059  38.161  1.00  0.00     0.198 A 
ATOM     81  C   UNL A   1      38.648  34.400  39.242  1.00  0.00     0.198 A 
ATOM     82  F   UNL A   1      38.171  32.373  38.143  1.00  0.00    -0.203 F 
ATOM     83  F   UNL A   1      40.626  37.244  38.184  1.00  0.00    -0.200 F 
ATOM     84  C   UNL A   1      39.269  35.639  39.261  1.00  0.00     0.200 A 
ATOM     85  F   UNL A   1      37.923  33.998  40.294  1.00  0.00    -0.200 F 
ATOM     86  F   UNL A   1      39.167  36.426  40.341  1.00  0.00    -0.200 F 
ENDBRANCH  52  76
BRANCH  64  87
ATOM     87  C   UNL A   1      43.885  28.856  35.209  1.00  0.00     0.064 A 
ATOM     88  C   UNL A   1      43.778  27.752  36.067  1.00  0.00     0.173 A 
ATOM     89  C   UNL A   1      45.167  29.372  34.958  1.00  0.00     0.173 A 
ATOM     90  F   UNL A   1      42.573  27.231  36.349  1.00  0.00    -0.203 F 
ATOM     91  C   UNL A   1      44.906  27.202  36.669  1.00  0.00     0.198 A 
ATOM     92  C   UNL A   1      46.295  28.798  35.533  1.00  0.00     0.198 A 
ATOM     93  F   UNL A   1      45.325  30.421  34.138  1.00  0.00    -0.203 F 
ATOM     94  F   UNL A   1      44.775  26.179  37.523  1.00  0.00    -0.200 F 
ATOM     95  C   UNL A   1      46.164  27.719  36.394  1.00  0.00     0.200 A 
ATOM     96  F   UNL A   1      47.511  29.286  35.252  1.00  0.00    -0.200 F 
ATOM     97  F   UNL A   1      47.250  27.180  36.966  1.00  0.00    -0.200 F 
ENDBRANCH  64  87
ENDBRANCH  38  39
ENDBRANCH  30  33
ENDBRANCH  28  29
ENDBRANCH  27  28
ENDBRANCH  26  27
ENDBRANCH   3  26
TORSDOF 17
ENDMDL
MODEL 2
REMARK VINA RESULT:     -11.9      2.084      7.862
REMARK SMILES CCN(CC(C)(C)O)C(=O)Nc1ccc(C(=O)NCCCNC(=O)c2ccc(-c3c4nc(c(-c5c(F)c(F)c(F)c(F)c5F)c5ccc([nH]5)c(-c5c(F)c(F)c(F)c(F)c5F)c5nc(c(-c6c(F)c(F)c(F)c(F)c6F)c6ccc3[nH]6)C=C5)C=C4)cc2)c(O)c1
REMARK SMILES IDX 16 1 17 2 18 3 15 5 12 6 13 7 90 8 14 9 88 10 11 11 9 12
REMARK SMILES IDX 10 13 3 15 2 16 1 17 4 18 5 19 6 20 7 21 8 22 89 24 19 26
REMARK SMILES IDX 20 27 21 28 22 29 23 30 24 32 25 33 26 34 87 35 27 36 86 37
REMARK SMILES IDX 28 38 29 39 30 40 80 41 31 42 85 43 79 44 81 45 32 46 84 47
REMARK SMILES IDX 78 48 77 49 33 51 65 52 45 53 64 54 46 55 49 56 63 57 82 58
REMARK SMILES IDX 47 59 48 60 62 62 83 63 50 64 34 65 35 66 43 67 36 68 37 69
REMARK SMILES IDX 41 70 44 71 38 72 39 73 42 74 40 75 66 76 67 77 75 78 68 79
REMARK SMILES IDX 69 80 73 81 76 82 70 83 71 84 74 85 72 86 51 87 52 88 60 89
REMARK SMILES IDX 53 90 54 91 58 92 61 93 55 94 56 95 59 96 57 97
REMARK H PARENT 18 4 11 14 8 23 89 25 22 31 81 50 49 61
REMARK Flexibility Score: inf
ROOT
ATOM      1  C   UNL A   1      30.888  28.483  22.630  1.00  0.00     0.255 C 
ATOM      2  O   UNL A   1      30.085  28.879  21.789  1.00  0.00    -0.269 OA
ATOM      3  N   UNL A   1      31.523  29.386  23.426  1.00  0.00    -0.352 N 
ATOM      4  H   UNL A   1      31.327  30.331  23.230  1.00  0.00     0.163 HD
ENDROOT
BRANCH   1   5
ATOM      5  C   UNL A   1      31.282  27.069  22.665  1.00  0.00     0.081 A 
ATOM      6  C   UNL A   1      31.539  24.255  22.726  1.00  0.00     0.046 A 
ATOM      7  C   UNL A   1      30.642  24.945  23.495  1.00  0.00     0.027 A 
ATOM      8  C   UNL A   1      32.414  25.029  21.956  1.00  0.00     0.073 A 
ATOM      9  C   UNL A   1      30.464  26.311  23.470  1.00  0.00     0.020 A 
ATOM     10  C   UNL A   1      32.312  26.434  21.964  1.00  0.00     0.130 A 
BRANCH   6  11
ATOM     11  N   UNL A   1      31.665  22.862  22.768  1.00  0.00    -0.308 N 
ATOM     12  C   UNL A   1      32.293  21.873  23.442  1.00  0.00     0.321 C 
ATOM     13  O   UNL A   1      32.165  20.778  22.867  1.00  0.00    -0.248 OA
ATOM     14  H   UNL A   1      31.104  22.465  22.065  1.00  0.00     0.171 HD
BRANCH  12  15
ATOM     15  N   UNL A   1      32.956  21.932  24.645  1.00  0.00    -0.322 N 
BRANCH  15  16
ATOM     16  C   UNL A   1      33.349  20.623  25.198  1.00  0.00     0.118 C 
ATOM     17  C   UNL A   1      34.837  20.331  24.987  1.00  0.00     0.027 C 
ENDBRANCH  15  16
BRANCH  15  18
ATOM     18  C   UNL A   1      33.272  23.044  25.564  1.00  0.00     0.155 C 
BRANCH  18  19
ATOM     19  C   UNL A   1      34.502  23.969  25.157  1.00  0.00     0.077 C 
ATOM     20  C   UNL A   1      35.157  23.710  23.778  1.00  0.00     0.043 C 
ATOM     21  C   UNL A   1      34.092  25.456  25.283  1.00  0.00     0.043 C 
BRANCH  19  22
ATOM     22  O   UNL A   1      35.549  23.754  26.120  1.00  0.00    -0.389 OA
ATOM     23  H   UNL A   1      35.799  22.816  26.124  1.00  0.00     0.211 HD
ENDBRANCH  19  22
ENDBRANCH  18  19
ENDBRANCH  15  18
ENDBRANCH  12  15
ENDBRANCH   6  11
BRANCH  10  24
ATOM     24  O   UNL A   1      33.273  27.123  21.275  1.00  0.00    -0.507 OA
ATOM     25  H   UNL A   1      33.314  28.057  21.338  1.00  0.00     0.293 HD
ENDBRANCH  10  24
ENDBRANCH   1   5
BRANCH   3  26
ATOM     26  C   UNL A   1      32.446  29.161  24.521  1.00  0.00     0.118 C 
BRANCH  26  27
ATOM     27  C   UNL A   1      31.770  28.967  25.863  1.00  0.00     0.042 C 
BRANCH  27  28
ATOM     28  C   UNL A   1      32.517  29.592  27.026  1.00  0.00     0.118 C 
BRANCH  28  29
ATOM     29  N   UNL A   1      32.634  31.044  26.915  1.00  0.00    -0.352 N 
ATOM     30  C   UNL A   1      33.582  31.909  27.399  1.00  0.00     0.251 C 
ATOM     31  H   UNL A   1      31.910  31.475  26.406  1.00  0.00     0.163 HD
ATOM     32  O   UNL A   1      33.366  33.122  27.398  1.00  0.00    -0.269 OA
BRANCH  30  33
ATOM     33  C   UNL A   1      34.840  31.385  27.957  1.00  0.00     0.039 A 
ATOM     34  C   UNL A   1      35.964  32.209  28.036  1.00  0.00     0.014 A 
ATOM     35  C   UNL A   1      34.903  30.075  28.426  1.00  0.00     0.014 A 
ATOM     36  C   UNL A   1      37.116  31.742  28.673  1.00  0.00     0.010 A 
ATOM     37  C   UNL A   1      35.979  29.672  29.197  1.00  0.00     0.010 A 
ATOM     38  C   UNL A   1      37.111  30.489  29.308  1.00  0.00    -0.014 A 
BRANCH  38  39
ATOM     39  C   UNL A   1      38.284  29.978  30.061  1.00  0.00     0.031 A 
ATOM     40  C   UNL A   1      38.513  30.433  31.478  1.00  0.00     0.074 A 
ATOM     41  C   UNL A   1      39.185  29.190  29.445  1.00  0.00     0.049 A 
ATOM     42  N   UNL A   1      39.532  30.206  32.269  1.00  0.00    -0.248 NA
ATOM     43  C   UNL A   1      37.484  31.304  32.072  1.00  0.00     0.031 C 
ATOM     44  C   UNL A   1      39.110  28.740  28.053  1.00  0.00     0.029 A 
ATOM     45  N   UNL A   1      40.352  28.635  29.908  1.00  0.00    -0.354 N 
ATOM     46  C   UNL A   1      39.277  30.930  33.427  1.00  0.00     0.074 A 
ATOM     47  C   UNL A   1      38.054  31.666  33.210  1.00  0.00     0.031 C 
ATOM     48  C   UNL A   1      40.161  27.949  27.788  1.00  0.00     0.029 A 
ATOM     49  C   UNL A   1      41.009  27.873  28.973  1.00  0.00     0.049 A 
ATOM     50  H   UNL A   1      40.686  28.770  30.825  1.00  0.00     0.167 HD
ATOM     51  C   UNL A   1      39.978  30.949  34.584  1.00  0.00     0.037 A 
ATOM     52  C   UNL A   1      42.169  27.196  29.063  1.00  0.00     0.037 A 
ATOM     53  C   UNL A   1      41.168  30.173  34.808  1.00  0.00     0.049 A 
ATOM     54  C   UNL A   1      42.922  27.215  30.366  1.00  0.00     0.074 A 
ATOM     55  C   UNL A   1      41.915  30.053  35.966  1.00  0.00     0.029 A 
ATOM     56  N   UNL A   1      41.782  29.381  33.849  1.00  0.00    -0.354 N 
ATOM     57  N   UNL A   1      42.630  27.839  31.482  1.00  0.00    -0.248 NA
ATOM     58  C   UNL A   1      44.162  26.430  30.424  1.00  0.00     0.031 C 
ATOM     59  C   UNL A   1      43.012  29.233  35.692  1.00  0.00     0.029 A 
ATOM     60  C   UNL A   1      42.915  28.789  34.382  1.00  0.00     0.049 A 
ATOM     61  H   UNL A   1      41.461  29.259  32.926  1.00  0.00     0.167 HD
ATOM     62  C   UNL A   1      43.630  27.497  32.384  1.00  0.00     0.074 A 
ATOM     63  C   UNL A   1      44.529  26.600  31.687  1.00  0.00     0.031 C 
ATOM     64  C   UNL A   1      43.789  27.890  33.671  1.00  0.00     0.037 A 
BRANCH  51  65
ATOM     65  C   UNL A   1      39.468  31.825  35.693  1.00  0.00     0.064 A 
ATOM     66  C   UNL A   1      39.931  33.138  35.874  1.00  0.00     0.173 A 
ATOM     67  C   UNL A   1      38.488  31.351  36.580  1.00  0.00     0.173 A 
ATOM     68  F   UNL A   1      40.878  33.638  35.064  1.00  0.00    -0.203 F 
ATOM     69  C   UNL A   1      39.466  33.927  36.922  1.00  0.00     0.198 A 
ATOM     70  C   UNL A   1      37.997  32.157  37.604  1.00  0.00     0.198 A 
ATOM     71  F   UNL A   1      38.006  30.106  36.453  1.00  0.00    -0.203 F 
ATOM     72  F   UNL A   1      39.975  35.153  37.113  1.00  0.00    -0.200 F 
ATOM     73  C   UNL A   1      38.494  33.439  37.781  1.00  0.00     0.200 A 
ATOM     74  F   UNL A   1      37.047  31.688  38.426  1.00  0.00    -0.200 F 
ATOM     75  F   UNL A   1      38.044  34.201  38.787  1.00  0.00    -0.200 F 
ENDBRANCH  51  65
BRANCH  52  76
ATOM     76  C   UNL A   1      42.666  26.415  27.899  1.00  0.00     0.064 A 
ATOM     77  C   UNL A   1      43.542  26.993  26.968  1.00  0.00     0.173 A 
ATOM     78  C   UNL A   1      42.287  25.081  27.695  1.00  0.00     0.173 A 
ATOM     79  F   UNL A   1      43.922  28.271  27.111  1.00  0.00    -0.203 F 
ATOM     80  C   UNL A   1      44.000  26.274  25.866  1.00  0.00     0.198 A 
ATOM     81  C   UNL A   1      42.770  24.352  26.609  1.00  0.00     0.198 A 
ATOM     82  F   UNL A   1      41.459  24.478  28.560  1.00  0.00    -0.203 F 
ATOM     83  F   UNL A   1      44.799  26.866  24.968  1.00  0.00    -0.200 F 
ATOM     84  C   UNL A   1      43.619  24.952  25.691  1.00  0.00     0.200 A 
ATOM     85  F   UNL A   1      42.414  23.071  26.454  1.00  0.00    -0.200 F 
ATOM     86  F   UNL A   1      44.064  24.258  24.635  1.00  0.00    -0.200 F 
ENDBRANCH  52  76
BRANCH  64  87
ATOM     87  C   UNL A   1      44.955  27.320  34.426  1.00  0.00     0.064 A 
ATOM     88  C   UNL A   1      46.190  27.980  34.487  1.00  0.00     0.173 A 
ATOM     89  C   UNL A   1      44.815  26.119  35.139  1.00  0.00     0.173 A 
ATOM     90  F   UNL A   1      46.379  29.125  33.812  1.00  0.00    -0.203 F 
ATOM     91  C   UNL A   1      47.252  27.446  35.213  1.00  0.00     0.198 A 
ATOM     92  C   UNL A   1      45.866  25.606  35.892  1.00  0.00     0.198 A 
ATOM     93  F   UNL A   1      43.651  25.453  35.121  1.00  0.00    -0.203 F 
ATOM     94  F   UNL A   1      48.438  28.069  35.217  1.00  0.00    -0.200 F 
ATOM     95  C   UNL A   1      47.086  26.265  35.922  1.00  0.00     0.200 A 
ATOM     96  F   UNL A   1      45.699  24.475  36.591  1.00  0.00    -0.200 F 
ATOM     97  F   UNL A   1      48.105  25.759  36.630  1.00  0.00    -0.200 F 
ENDBRANCH  64  87
ENDBRANCH  38  39
ENDBRANCH  30  33
ENDBRANCH  28  29
ENDBRANCH  27  28
ENDBRANCH  26  27
ENDBRANCH   3  26
TORSDOF 17
ENDMDL
MODEL 3
REMARK VINA RESULT:     -11.9      0.868      2.049
REMARK SMILES CCN(CC(C)(C)O)C(=O)Nc1ccc(C(=O)NCCCNC(=O)c2ccc(-c3c4nc(c(-c5c(F)c(F)c(F)c(F)c5F)c5ccc([nH]5)c(-c5c(F)c(F)c(F)c(F)c5F)c5nc(c(-c6c(F)c(F)c(F)c(F)c6F)c6ccc3[nH]6)C=C5)C=C4)cc2)c(O)c1
REMARK SMILES IDX 16 1 17 2 18 3 15 5 12 6 13 7 90 8 14 9 88 10 11 11 9 12
REMARK SMILES IDX 10 13 3 15 2 16 1 17 4 18 5 19 6 20 7 21 8 22 89 24 19 26
REMARK SMILES IDX 20 27 21 28 22 29 23 30 24 32 25 33 26 34 87 35 27 36 86 37
REMARK SMILES IDX 28 38 29 39 30 40 80 41 31 42 85 43 79 44 81 45 32 46 84 47
REMARK SMILES IDX 78 48 77 49 33 51 65 52 45 53 64 54 46 55 49 56 63 57 82 58
REMARK SMILES IDX 47 59 48 60 62 62 83 63 50 64 34 65 35 66 43 67 36 68 37 69
REMARK SMILES IDX 41 70 44 71 38 72 39 73 42 74 40 75 66 76 67 77 75 78 68 79
REMARK SMILES IDX 69 80 73 81 76 82 70 83 71 84 74 85 72 86 51 87 52 88 60 89
REMARK SMILES IDX 53 90 54 91 58 92 61 93 55 94 56 95 59 96 57 97
REMARK H PARENT 18 4 11 14 8 23 89 25 22 31 81 50 49 61
REMARK Flexibility Score: inf
ROOT
ATOM      1  C   UNL A   1      30.907  28.909  24.289  1.00  0.00     0.255 C 
ATOM      2  O   UNL A   1      30.128  28.757  23.351  1.00  0.00    -0.269 OA
ATOM      3  N   UNL A   1      31.016  30.131  24.877  1.00  0.00    -0.352 N 
ATOM      4  H   UNL A   1      30.482  30.847  24.461  1.00  0.00     0.163 HD
ENDROOT
BRANCH   1   5
ATOM      5  C   UNL A   1      31.828  27.829  24.665  1.00  0.00     0.081 A 
ATOM      6  C   UNL A   1      33.947  26.016  25.124  1.00  0.00     0.046 A 
ATOM      7  C   UNL A   1      33.683  26.570  23.901  1.00  0.00     0.027 A 
ATOM      8  C   UNL A   1      33.041  26.319  26.146  1.00  0.00     0.073 A 
ATOM      9  C   UNL A   1      32.682  27.481  23.645  1.00  0.00     0.020 A 
ATOM     10  C   UNL A   1      31.960  27.187  25.901  1.00  0.00     0.130 A 
BRANCH   6  11
ATOM     11  N   UNL A   1      34.994  25.112  25.341  1.00  0.00    -0.308 N 
ATOM     12  C   UNL A   1      35.234  23.804  25.579  1.00  0.00     0.321 C 
ATOM     13  O   UNL A   1      36.420  23.610  25.902  1.00  0.00    -0.248 OA
ATOM     14  H   UNL A   1      35.850  25.596  25.310  1.00  0.00     0.171 HD
BRANCH  12  15
ATOM     15  N   UNL A   1      34.385  22.731  25.447  1.00  0.00    -0.322 N 
BRANCH  15  16
ATOM     16  C   UNL A   1      34.921  21.454  25.955  1.00  0.00     0.118 C 
ATOM     17  C   UNL A   1      34.644  20.292  24.998  1.00  0.00     0.027 C 
ENDBRANCH  15  16
BRANCH  15  18
ATOM     18  C   UNL A   1      33.067  22.566  24.800  1.00  0.00     0.155 C 
BRANCH  18  19
ATOM     19  C   UNL A   1      31.797  22.642  25.757  1.00  0.00     0.077 C 
ATOM     20  C   UNL A   1      32.053  22.958  27.251  1.00  0.00     0.043 C 
ATOM     21  C   UNL A   1      30.769  23.637  25.169  1.00  0.00     0.043 C 
BRANCH  19  22
ATOM     22  O   UNL A   1      31.163  21.350  25.746  1.00  0.00    -0.389 OA
ATOM     23  H   UNL A   1      30.819  21.150  26.631  1.00  0.00     0.211 HD
ENDBRANCH  19  22
ENDBRANCH  18  19
ENDBRANCH  15  18
ENDBRANCH  12  15
ENDBRANCH   6  11
BRANCH  10  24
ATOM     24  O   UNL A   1      31.057  27.345  26.916  1.00  0.00    -0.507 OA
ATOM     25  H   UNL A   1      30.930  26.658  27.542  1.00  0.00     0.293 HD
ENDBRANCH  10  24
ENDBRANCH   1   5
BRANCH   3  26
ATOM     26  C   UNL A   1      31.802  30.534  26.028  1.00  0.00     0.118 C 
BRANCH  26  27
ATOM     27  C   UNL A   1      31.519  31.945  26.499  1.00  0.00     0.042 C 
BRANCH  27  28
ATOM     28  C   UNL A   1      32.635  32.554  27.328  1.00  0.00     0.118 C 
BRANCH  28  29
ATOM     29  N   UNL A   1      32.449  33.982  27.575  1.00  0.00    -0.352 N 
ATOM     30  C   UNL A   1      33.003  34.811  28.516  1.00  0.00     0.251 C 
ATOM     31  H   UNL A   1      31.818  34.424  26.961  1.00  0.00     0.163 HD
ATOM     32  O   UNL A   1      32.528  35.932  28.704  1.00  0.00    -0.269 OA
BRANCH  30  33
ATOM     33  C   UNL A   1      34.139  34.346  29.329  1.00  0.00     0.039 A 
ATOM     34  C   UNL A   1      33.906  33.679  30.534  1.00  0.00     0.014 A 
ATOM     35  C   UNL A   1      35.443  34.550  28.887  1.00  0.00     0.014 A 
ATOM     36  C   UNL A   1      34.984  33.139  31.239  1.00  0.00     0.010 A 
ATOM     37  C   UNL A   1      36.488  33.878  29.495  1.00  0.00     0.010 A 
ATOM     38  C   UNL A   1      36.278  33.186  30.695  1.00  0.00    -0.014 A 
BRANCH  38  39
ATOM     39  C   UNL A   1      37.444  32.562  31.369  1.00  0.00     0.031 A 
ATOM     40  C   UNL A   1      38.160  31.415  30.706  1.00  0.00     0.074 A 
ATOM     41  C   UNL A   1      37.794  32.959  32.607  1.00  0.00     0.049 A 
ATOM     42  N   UNL A   1      39.118  30.654  31.171  1.00  0.00    -0.248 NA
ATOM     43  C   UNL A   1      37.705  31.037  29.357  1.00  0.00     0.031 C 
ATOM     44  C   UNL A   1      37.131  34.010  33.382  1.00  0.00     0.029 A 
ATOM     45  N   UNL A   1      38.791  32.515  33.440  1.00  0.00    -0.354 N 
ATOM     46  C   UNL A   1      39.349  29.699  30.190  1.00  0.00     0.074 A 
ATOM     47  C   UNL A   1      38.382  29.921  29.141  1.00  0.00     0.031 C 
ATOM     48  C   UNL A   1      37.763  34.157  34.557  1.00  0.00     0.029 A 
ATOM     49  C   UNL A   1      38.842  33.179  34.640  1.00  0.00     0.049 A 
ATOM     50  H   UNL A   1      39.411  31.789  33.198  1.00  0.00     0.167 HD
ATOM     51  C   UNL A   1      40.308  28.744  30.147  1.00  0.00     0.037 A 
ATOM     52  C   UNL A   1      39.666  33.011  35.692  1.00  0.00     0.037 A 
ATOM     53  C   UNL A   1      41.298  28.562  31.173  1.00  0.00     0.049 A 
ATOM     54  C   UNL A   1      40.738  31.957  35.615  1.00  0.00     0.074 A 
ATOM     55  C   UNL A   1      42.363  27.681  31.198  1.00  0.00     0.029 A 
ATOM     56  N   UNL A   1      41.342  29.281  32.359  1.00  0.00    -0.354 N 
ATOM     57  N   UNL A   1      40.998  31.111  34.647  1.00  0.00    -0.248 NA
ATOM     58  C   UNL A   1      41.634  31.838  36.772  1.00  0.00     0.031 C 
ATOM     59  C   UNL A   1      43.020  27.828  32.423  1.00  0.00     0.029 A 
ATOM     60  C   UNL A   1      42.403  28.845  33.135  1.00  0.00     0.049 A 
ATOM     61  H   UNL A   1      40.713  29.995  32.611  1.00  0.00     0.167 HD
ATOM     62  C   UNL A   1      42.105  30.383  35.063  1.00  0.00     0.074 A 
ATOM     63  C   UNL A   1      42.474  30.898  36.366  1.00  0.00     0.031 C 
ATOM     64  C   UNL A   1      42.757  29.380  34.426  1.00  0.00     0.037 A 
BRANCH  51  65
ATOM     65  C   UNL A   1      40.335  27.838  28.948  1.00  0.00     0.064 A 
ATOM     66  C   UNL A   1      39.616  26.632  28.914  1.00  0.00     0.173 A 
ATOM     67  C   UNL A   1      41.077  28.188  27.810  1.00  0.00     0.173 A 
ATOM     68  F   UNL A   1      38.901  26.241  29.981  1.00  0.00    -0.203 F 
ATOM     69  C   UNL A   1      39.673  25.792  27.806  1.00  0.00     0.198 A 
ATOM     70  C   UNL A   1      41.100  27.363  26.687  1.00  0.00     0.198 A 
ATOM     71  F   UNL A   1      41.779  29.330  27.783  1.00  0.00    -0.203 F 
ATOM     72  F   UNL A   1      39.033  24.614  27.826  1.00  0.00    -0.200 F 
ATOM     73  C   UNL A   1      40.408  26.161  26.691  1.00  0.00     0.200 A 
ATOM     74  F   UNL A   1      41.800  27.729  25.604  1.00  0.00    -0.200 F 
ATOM     75  F   UNL A   1      40.458  25.354  25.622  1.00  0.00    -0.200 F 
ENDBRANCH  51  65
BRANCH  52  76
ATOM     76  C   UNL A   1      39.533  33.885  36.888  1.00  0.00     0.064 A 
ATOM     77  C   UNL A   1      38.783  33.472  37.999  1.00  0.00     0.173 A 
ATOM     78  C   UNL A   1      40.152  35.141  36.951  1.00  0.00     0.173 A 
ATOM     79  F   UNL A   1      38.159  32.286  37.982  1.00  0.00    -0.203 F 
ATOM     80  C   UNL A   1      38.640  34.292  39.117  1.00  0.00     0.198 A 
ATOM     81  C   UNL A   1      40.034  35.948  38.082  1.00  0.00     0.198 A 
ATOM     82  F   UNL A   1      40.888  35.580  35.919  1.00  0.00    -0.203 F 
ATOM     83  F   UNL A   1      37.881  33.891  40.146  1.00  0.00    -0.200 F 
ATOM     84  C   UNL A   1      39.271  35.526  39.160  1.00  0.00     0.200 A 
ATOM     85  F   UNL A   1      40.660  37.131  38.126  1.00  0.00    -0.200 F 
ATOM     86  F   UNL A   1      39.139  36.311  40.238  1.00  0.00    -0.200 F 
ENDBRANCH  52  76
BRANCH  64  87
ATOM     87  C   UNL A   1      43.963  28.800  35.106  1.00  0.00     0.064 A 
ATOM     88  C   UNL A   1      45.244  29.340  34.927  1.00  0.00     0.173 A 
ATOM     89  C   UNL A   1      43.823  27.717  35.989  1.00  0.00     0.173 A 
ATOM     90  F   UNL A   1      45.433  30.367  34.084  1.00  0.00    -0.203 F 
ATOM     91  C   UNL A   1      46.346  28.802  35.587  1.00  0.00     0.198 A 
ATOM     92  C   UNL A   1      44.920  27.205  36.673  1.00  0.00     0.198 A 
ATOM     93  F   UNL A   1      42.618  27.170  36.202  1.00  0.00    -0.203 F 
ATOM     94  F   UNL A   1      47.568  29.303  35.363  1.00  0.00    -0.200 F 
ATOM     95  C   UNL A   1      46.181  27.742  36.466  1.00  0.00     0.200 A 
ATOM     96  F   UNL A   1      44.756  26.193  37.536  1.00  0.00    -0.200 F 
ATOM     97  F   UNL A   1      47.242  27.233  37.109  1.00  0.00    -0.200 F 
ENDBRANCH  64  87
ENDBRANCH  38  39
ENDBRANCH  30  33
ENDBRANCH  28  29
ENDBRANCH  27  28
ENDBRANCH  26  27
ENDBRANCH   3  26
TORSDOF 17
ENDMDL
