MODEL 1
REMARK VINA RESULT:     -13.0      0.000      0.000
REMARK SMILES O=C(NCCCNC(=O)c1ccc(-c2c3nc(c(-c4c(F)c(F)c(F)c(F)c4F)c4ccc([nH]4)c(-c4c(F)c(F)c(F)c(F)c4F)c4nc(c(-c5c(F)c(F)c(F)c(F)c5F)c5ccc2[nH]5)C=C4)C=C3)cc1)C1=C([O-])N(c2ccc3c(c2)OCCO3)CC1
REMARK SMILES IDX 5 1 4 2 3 3 1 4 2 5 73 7 74 8 88 9 75 10 76 11 87 12 77 13
REMARK SMILES IDX 78 14 82 15 79 16 81 17 80 18 83 19 86 20 84 21 85 22 6 23
REMARK SMILES IDX 7 24 8 25 9 27 10 28 11 29 72 30 12 31 71 32 13 33 14 34
REMARK SMILES IDX 15 35 65 36 16 37 70 38 64 39 66 40 17 41 69 42 63 43 62 44
REMARK SMILES IDX 18 46 50 47 30 48 49 49 31 50 34 51 48 52 67 53 32 54 33 55
REMARK SMILES IDX 47 57 68 58 35 59 19 60 20 61 28 62 21 63 22 64 26 65 29 66
REMARK SMILES IDX 23 67 24 68 27 69 25 70 51 71 52 72 60 73 53 74 54 75 58 76
REMARK SMILES IDX 61 77 55 78 56 79 59 80 57 81 36 82 37 83 45 84 38 85 39 86
REMARK SMILES IDX 43 87 46 88 40 89 41 90 44 91 42 92
REMARK H PARENT 3 6 7 26 66 45 34 56
REMARK Flexibility Score: inf
ROOT
ATOM      1  C   UNL A   1      35.309  23.260  26.469  1.00  0.00     0.042 C 
ENDROOT
BRANCH   1   2
ATOM      2  C   UNL A   1      34.067  24.035  26.060  1.00  0.00     0.118 C 
BRANCH   2   3
ATOM      3  N   UNL A   1      32.877  23.652  26.801  1.00  0.00    -0.352 N 
ATOM      4  O   UNL A   1      30.699  23.535  27.344  1.00  0.00    -0.270 OA
ATOM      5  C   UNL A   1      31.562  23.924  26.556  1.00  0.00     0.248 C 
ATOM      6  H   UNL A   1      33.045  23.114  27.608  1.00  0.00     0.163 HD
BRANCH   5   7
ATOM      7  C   UNL A   1      31.226  24.625  25.323  1.00  0.00     0.027 C 
ATOM      8  C   UNL A   1      30.986  25.937  25.178  1.00  0.00    -0.028 C 
ATOM      9  C   UNL A   1      31.029  23.934  24.005  1.00  0.00     0.064 C 
ATOM     10  O   UNL A   1      30.982  26.878  26.153  1.00  0.00    -0.860 OA
ATOM     11  N   UNL A   1      30.851  26.287  23.849  1.00  0.00    -0.354 N 
ATOM     12  C   UNL A   1      31.183  25.103  23.021  1.00  0.00     0.126 C 
BRANCH  11  13
ATOM     13  C   UNL A   1      29.821  27.065  23.281  1.00  0.00     0.044 A 
ATOM     14  C   UNL A   1      28.503  26.864  23.711  1.00  0.00     0.030 A 
ATOM     15  C   UNL A   1      30.138  28.217  22.546  1.00  0.00     0.076 A 
ATOM     16  C   UNL A   1      27.546  27.866  23.537  1.00  0.00     0.052 A 
ATOM     17  C   UNL A   1      29.214  29.251  22.454  1.00  0.00     0.163 A 
ATOM     18  C   UNL A   1      27.934  29.085  22.987  1.00  0.00     0.161 A 
ATOM     19  O   UNL A   1      29.686  30.437  21.958  1.00  0.00    -0.486 OA
ATOM     20  O   UNL A   1      27.049  30.129  23.091  1.00  0.00    -0.486 OA
ATOM     21  C   UNL A   1      28.737  31.507  22.051  1.00  0.00     0.271 C 
ATOM     22  C   UNL A   1      27.797  31.343  23.236  1.00  0.00     0.271 C 
ENDBRANCH  11  13
ENDBRANCH   5   7
ENDBRANCH   2   3
ENDBRANCH   1   2
BRANCH   1  23
ATOM     23  C   UNL A   1      36.514  23.477  25.566  1.00  0.00     0.118 C 
BRANCH  23  24
ATOM     24  N   UNL A   1      37.607  22.555  25.843  1.00  0.00    -0.352 N 
ATOM     25  C   UNL A   1      38.867  22.770  26.342  1.00  0.00     0.251 C 
ATOM     26  H   UNL A   1      37.407  21.614  25.637  1.00  0.00     0.163 HD
ATOM     27  O   UNL A   1      39.678  21.845  26.340  1.00  0.00    -0.269 OA
BRANCH  25  28
ATOM     28  C   UNL A   1      39.276  24.094  26.861  1.00  0.00     0.039 A 
ATOM     29  C   UNL A   1      38.940  24.430  28.176  1.00  0.00     0.014 A 
ATOM     30  C   UNL A   1      39.941  25.024  26.059  1.00  0.00     0.014 A 
ATOM     31  C   UNL A   1      39.325  25.666  28.704  1.00  0.00     0.010 A 
ATOM     32  C   UNL A   1      40.404  26.216  26.611  1.00  0.00     0.010 A 
ATOM     33  C   UNL A   1      40.090  26.555  27.934  1.00  0.00    -0.014 A 
BRANCH  33  34
ATOM     34  C   UNL A   1      40.545  27.860  28.478  1.00  0.00     0.031 A 
ATOM     35  C   UNL A   1      41.994  28.063  28.829  1.00  0.00     0.074 A 
ATOM     36  C   UNL A   1      39.648  28.833  28.727  1.00  0.00     0.049 A 
ATOM     37  N   UNL A   1      42.570  29.079  29.419  1.00  0.00    -0.248 NA
ATOM     38  C   UNL A   1      42.911  26.961  28.499  1.00  0.00     0.031 C 
ATOM     39  C   UNL A   1      38.209  28.744  28.480  1.00  0.00     0.029 A 
ATOM     40  N   UNL A   1      39.818  30.087  29.259  1.00  0.00    -0.354 N 
ATOM     41  C   UNL A   1      43.904  28.722  29.566  1.00  0.00     0.074 A 
ATOM     42  C   UNL A   1      44.047  27.384  29.036  1.00  0.00     0.031 C 
ATOM     43  C   UNL A   1      37.629  29.901  28.840  1.00  0.00     0.029 A 
ATOM     44  C   UNL A   1      38.649  30.799  29.372  1.00  0.00     0.049 A 
ATOM     45  H   UNL A   1      40.694  30.443  29.534  1.00  0.00     0.167 HD
ATOM     46  C   UNL A   1      44.923  29.452  30.080  1.00  0.00     0.037 A 
ATOM     47  C   UNL A   1      38.427  32.037  29.853  1.00  0.00     0.037 A 
ATOM     48  C   UNL A   1      44.794  30.803  30.557  1.00  0.00     0.049 A 
ATOM     49  C   UNL A   1      39.585  32.849  30.364  1.00  0.00     0.074 A 
ATOM     50  C   UNL A   1      45.777  31.647  31.041  1.00  0.00     0.029 A 
ATOM     51  N   UNL A   1      43.602  31.511  30.595  1.00  0.00    -0.354 N 
ATOM     52  N   UNL A   1      40.849  32.516  30.458  1.00  0.00    -0.248 NA
ATOM     53  C   UNL A   1      39.286  34.210  30.827  1.00  0.00     0.031 C 
ATOM     54  C   UNL A   1      45.178  32.862  31.390  1.00  0.00     0.029 A 
ATOM     55  C   UNL A   1      43.826  32.784  31.096  1.00  0.00     0.049 A 
ATOM     56  H   UNL A   1      42.727  31.163  30.310  1.00  0.00     0.167 HD
ATOM     57  C   UNL A   1      41.500  33.633  30.964  1.00  0.00     0.074 A 
ATOM     58  C   UNL A   1      40.492  34.656  31.148  1.00  0.00     0.031 C 
ATOM     59  C   UNL A   1      42.813  33.794  31.253  1.00  0.00     0.037 A 
BRANCH  46  60
ATOM     60  C   UNL A   1      46.272  28.801  30.143  1.00  0.00     0.064 A 
ATOM     61  C   UNL A   1      46.683  28.074  31.270  1.00  0.00     0.173 A 
ATOM     62  C   UNL A   1      47.154  28.884  29.056  1.00  0.00     0.173 A 
ATOM     63  F   UNL A   1      45.881  27.979  32.341  1.00  0.00    -0.203 F 
ATOM     64  C   UNL A   1      47.942  27.480  31.318  1.00  0.00     0.198 A 
ATOM     65  C   UNL A   1      48.401  28.266  29.097  1.00  0.00     0.198 A 
ATOM     66  F   UNL A   1      46.806  29.564  27.953  1.00  0.00    -0.203 F 
ATOM     67  F   UNL A   1      48.332  26.832  32.425  1.00  0.00    -0.200 F 
ATOM     68  C   UNL A   1      48.797  27.570  30.230  1.00  0.00     0.200 A 
ATOM     69  F   UNL A   1      49.224  28.347  28.042  1.00  0.00    -0.200 F 
ATOM     70  F   UNL A   1      50.006  26.996  30.278  1.00  0.00    -0.200 F 
ENDBRANCH  46  60
BRANCH  47  71
ATOM     71  C   UNL A   1      37.055  32.600  29.837  1.00  0.00     0.064 A 
ATOM     72  C   UNL A   1      36.210  32.455  30.947  1.00  0.00     0.173 A 
ATOM     73  C   UNL A   1      36.561  33.293  28.723  1.00  0.00     0.173 A 
ATOM     74  F   UNL A   1      36.635  31.782  32.026  1.00  0.00    -0.203 F 
ATOM     75  C   UNL A   1      34.915  32.967  30.935  1.00  0.00     0.198 A 
ATOM     76  C   UNL A   1      35.273  33.823  28.722  1.00  0.00     0.198 A 
ATOM     77  F   UNL A   1      37.334  33.461  27.640  1.00  0.00    -0.203 F 
ATOM     78  F   UNL A   1      34.115  32.782  31.994  1.00  0.00    -0.200 F 
ATOM     79  C   UNL A   1      34.449  33.655  29.825  1.00  0.00     0.200 A 
ATOM     80  F   UNL A   1      34.829  34.497  27.652  1.00  0.00    -0.200 F 
ATOM     81  F   UNL A   1      33.203  34.150  29.816  1.00  0.00    -0.200 F 
ENDBRANCH  47  71
BRANCH  59  82
ATOM     82  C   UNL A   1      43.242  35.137  31.759  1.00  0.00     0.064 A 
ATOM     83  C   UNL A   1      43.223  35.446  33.127  1.00  0.00     0.173 A 
ATOM     84  C   UNL A   1      43.707  36.114  30.866  1.00  0.00     0.173 A 
ATOM     85  F   UNL A   1      42.772  34.549  34.015  1.00  0.00    -0.203 F 
ATOM     86  C   UNL A   1      43.636  36.695  33.581  1.00  0.00     0.198 A 
ATOM     87  C   UNL A   1      44.141  37.355  31.327  1.00  0.00     0.198 A 
ATOM     88  F   UNL A   1      43.746  35.863  29.549  1.00  0.00    -0.203 F 
ATOM     89  F   UNL A   1      43.574  36.985  34.888  1.00  0.00    -0.200 F 
ATOM     90  C   UNL A   1      44.100  37.646  32.682  1.00  0.00     0.200 A 
ATOM     91  F   UNL A   1      44.594  38.268  30.459  1.00  0.00    -0.200 F 
ATOM     92  F   UNL A   1      44.500  38.846  33.122  1.00  0.00    -0.200 F 
ENDBRANCH  59  82
ENDBRANCH  33  34
ENDBRANCH  25  28
ENDBRANCH  23  24
ENDBRANCH   1  23
TORSDOF 11
ENDMDL
MODEL 2
REMARK VINA RESULT:     -12.9      4.647     10.633
REMARK SMILES O=C(NCCCNC(=O)c1ccc(-c2c3nc(c(-c4c(F)c(F)c(F)c(F)c4F)c4ccc([nH]4)c(-c4c(F)c(F)c(F)c(F)c4F)c4nc(c(-c5c(F)c(F)c(F)c(F)c5F)c5ccc2[nH]5)C=C4)C=C3)cc1)C1=C([O-])N(c2ccc3c(c2)OCCO3)CC1
REMARK SMILES IDX 5 1 4 2 3 3 1 4 2 5 73 7 74 8 88 9 75 10 76 11 87 12 77 13
REMARK SMILES IDX 78 14 82 15 79 16 81 17 80 18 83 19 86 20 84 21 85 22 6 23
REMARK SMILES IDX 7 24 8 25 9 27 10 28 11 29 72 30 12 31 71 32 13 33 14 34
REMARK SMILES IDX 15 35 65 36 16 37 70 38 64 39 66 40 17 41 69 42 63 43 62 44
REMARK SMILES IDX 18 46 50 47 30 48 49 49 31 50 34 51 48 52 67 53 32 54 33 55
REMARK SMILES IDX 47 57 68 58 35 59 19 60 20 61 28 62 21 63 22 64 26 65 29 66
REMARK SMILES IDX 23 67 24 68 27 69 25 70 51 71 52 72 60 73 53 74 54 75 58 76
REMARK SMILES IDX 61 77 55 78 56 79 59 80 57 81 36 82 37 83 45 84 38 85 39 86
REMARK SMILES IDX 43 87 46 88 40 89 41 90 44 91 42 92
REMARK H PARENT 3 6 7 26 66 45 34 56
REMARK Flexibility Score: inf
ROOT
ATOM      1  C   UNL A   1      33.548  33.937  28.312  1.00  0.00     0.042 C 
ENDROOT
BRANCH   1   2
ATOM      2  C   UNL A   1      33.880  35.089  29.247  1.00  0.00     0.118 C 
BRANCH   2   3
ATOM      3  N   UNL A   1      32.875  35.305  30.276  1.00  0.00    -0.352 N 
ATOM      4  O   UNL A   1      31.950  35.320  32.323  1.00  0.00    -0.270 OA
ATOM      5  C   UNL A   1      32.943  35.113  31.625  1.00  0.00     0.248 C 
ATOM      6  H   UNL A   1      32.010  35.641  29.948  1.00  0.00     0.163 HD
BRANCH   5   7
ATOM      7  C   UNL A   1      34.225  34.718  32.197  1.00  0.00     0.027 C 
ATOM      8  C   UNL A   1      34.733  33.478  32.267  1.00  0.00    -0.028 C 
ATOM      9  C   UNL A   1      35.159  35.678  32.875  1.00  0.00     0.064 C 
ATOM     10  O   UNL A   1      34.147  32.333  31.841  1.00  0.00    -0.860 OA
ATOM     11  N   UNL A   1      36.033  33.485  32.731  1.00  0.00    -0.354 N 
ATOM     12  C   UNL A   1      36.480  34.895  32.841  1.00  0.00     0.126 C 
BRANCH  11  13
ATOM     13  C   UNL A   1      36.569  32.673  33.752  1.00  0.00     0.044 A 
ATOM     14  C   UNL A   1      37.185  31.464  33.405  1.00  0.00     0.030 A 
ATOM     15  C   UNL A   1      36.763  33.202  35.037  1.00  0.00     0.076 A 
ATOM     16  C   UNL A   1      38.098  30.866  34.275  1.00  0.00     0.052 A 
ATOM     17  C   UNL A   1      37.739  32.659  35.864  1.00  0.00     0.163 A 
ATOM     18  C   UNL A   1      38.431  31.515  35.461  1.00  0.00     0.161 A 
ATOM     19  O   UNL A   1      38.054  33.387  36.981  1.00  0.00    -0.486 OA
ATOM     20  O   UNL A   1      39.525  31.048  36.146  1.00  0.00    -0.486 OA
ATOM     21  C   UNL A   1      39.181  32.867  37.696  1.00  0.00     0.271 C 
ATOM     22  C   UNL A   1      40.169  32.160  36.781  1.00  0.00     0.271 C 
ENDBRANCH  11  13
ENDBRANCH   5   7
ENDBRANCH   2   3
ENDBRANCH   1   2
BRANCH   1  23
ATOM     23  C   UNL A   1      34.498  32.753  28.408  1.00  0.00     0.118 C 
BRANCH  23  24
ATOM     24  N   UNL A   1      33.870  31.488  28.048  1.00  0.00    -0.352 N 
ATOM     25  C   UNL A   1      34.393  30.228  27.901  1.00  0.00     0.251 C 
ATOM     26  H   UNL A   1      32.902  31.548  27.882  1.00  0.00     0.163 HD
ATOM     27  O   UNL A   1      33.686  29.338  27.431  1.00  0.00    -0.269 OA
BRANCH  25  28
ATOM     28  C   UNL A   1      35.793  29.926  28.273  1.00  0.00     0.039 A 
ATOM     29  C   UNL A   1      36.059  29.482  29.573  1.00  0.00     0.014 A 
ATOM     30  C   UNL A   1      36.849  30.118  27.380  1.00  0.00     0.014 A 
ATOM     31  C   UNL A   1      37.368  29.171  29.953  1.00  0.00     0.010 A 
ATOM     32  C   UNL A   1      38.138  29.723  27.728  1.00  0.00     0.010 A 
ATOM     33  C   UNL A   1      38.413  29.258  29.022  1.00  0.00    -0.014 A 
BRANCH  33  34
ATOM     34  C   UNL A   1      39.808  28.900  29.385  1.00  0.00     0.031 A 
ATOM     35  C   UNL A   1      40.624  29.833  30.237  1.00  0.00     0.074 A 
ATOM     36  C   UNL A   1      40.364  27.777  28.892  1.00  0.00     0.049 A 
ATOM     37  N   UNL A   1      41.889  29.762  30.567  1.00  0.00    -0.248 NA
ATOM     38  C   UNL A   1      39.934  31.023  30.758  1.00  0.00     0.031 C 
ATOM     39  C   UNL A   1      39.695  26.814  28.015  1.00  0.00     0.029 A 
ATOM     40  N   UNL A   1      41.627  27.265  29.047  1.00  0.00    -0.354 N 
ATOM     41  C   UNL A   1      42.152  30.913  31.300  1.00  0.00     0.074 A 
ATOM     42  C   UNL A   1      40.928  31.682  31.335  1.00  0.00     0.031 C 
ATOM     43  C   UNL A   1      40.549  25.817  27.727  1.00  0.00     0.029 A 
ATOM     44  C   UNL A   1      41.830  26.087  28.371  1.00  0.00     0.049 A 
ATOM     45  H   UNL A   1      42.322  27.700  29.592  1.00  0.00     0.167 HD
ATOM     46  C   UNL A   1      43.306  31.285  31.903  1.00  0.00     0.037 A 
ATOM     47  C   UNL A   1      42.929  25.314  28.281  1.00  0.00     0.037 A 
ATOM     48  C   UNL A   1      44.508  30.495  31.915  1.00  0.00     0.049 A 
ATOM     49  C   UNL A   1      44.179  25.721  29.009  1.00  0.00     0.074 A 
ATOM     50  C   UNL A   1      45.710  30.758  32.548  1.00  0.00     0.029 A 
ATOM     51  N   UNL A   1      44.652  29.276  31.269  1.00  0.00    -0.354 N 
ATOM     52  N   UNL A   1      44.403  26.789  29.734  1.00  0.00    -0.248 NA
ATOM     53  C   UNL A   1      45.327  24.808  28.913  1.00  0.00     0.031 C 
ATOM     54  C   UNL A   1      46.589  29.706  32.271  1.00  0.00     0.029 A 
ATOM     55  C   UNL A   1      45.925  28.774  31.490  1.00  0.00     0.049 A 
ATOM     56  H   UNL A   1      43.955  28.833  30.735  1.00  0.00     0.167 HD
ATOM     57  C   UNL A   1      45.703  26.667  30.201  1.00  0.00     0.074 A 
ATOM     58  C   UNL A   1      46.217  25.414  29.686  1.00  0.00     0.031 C 
ATOM     59  C   UNL A   1      46.410  27.517  30.984  1.00  0.00     0.037 A 
BRANCH  46  60
ATOM     60  C   UNL A   1      43.317  32.607  32.611  1.00  0.00     0.064 A 
ATOM     61  C   UNL A   1      43.066  32.705  33.987  1.00  0.00     0.173 A 
ATOM     62  C   UNL A   1      43.604  33.788  31.909  1.00  0.00     0.173 A 
ATOM     63  F   UNL A   1      42.772  31.606  34.699  1.00  0.00    -0.203 F 
ATOM     64  C   UNL A   1      43.074  33.940  34.630  1.00  0.00     0.198 A 
ATOM     65  C   UNL A   1      43.636  35.018  32.560  1.00  0.00     0.198 A 
ATOM     66  F   UNL A   1      43.854  33.747  30.591  1.00  0.00    -0.203 F 
ATOM     67  F   UNL A   1      42.783  34.014  35.937  1.00  0.00    -0.200 F 
ATOM     68  C   UNL A   1      43.364  35.094  33.918  1.00  0.00     0.200 A 
ATOM     69  F   UNL A   1      43.925  36.132  31.873  1.00  0.00    -0.200 F 
ATOM     70  F   UNL A   1      43.372  36.281  34.539  1.00  0.00    -0.200 F 
ENDBRANCH  46  60
BRANCH  47  71
ATOM     71  C   UNL A   1      42.882  24.053  27.500  1.00  0.00     0.064 A 
ATOM     72  C   UNL A   1      42.519  22.846  28.113  1.00  0.00     0.173 A 
ATOM     73  C   UNL A   1      43.192  24.027  26.133  1.00  0.00     0.173 A 
ATOM     74  F   UNL A   1      42.233  22.822  29.423  1.00  0.00    -0.203 F 
ATOM     75  C   UNL A   1      42.486  21.655  27.392  1.00  0.00     0.198 A 
ATOM     76  C   UNL A   1      43.137  22.839  25.408  1.00  0.00     0.198 A 
ATOM     77  F   UNL A   1      43.540  25.158  25.501  1.00  0.00    -0.203 F 
ATOM     78  F   UNL A   1      42.172  20.509  28.010  1.00  0.00    -0.200 F 
ATOM     79  C   UNL A   1      42.790  21.653  26.039  1.00  0.00     0.200 A 
ATOM     80  F   UNL A   1      43.421  22.842  24.099  1.00  0.00    -0.200 F 
ATOM     81  F   UNL A   1      42.755  20.507  25.344  1.00  0.00    -0.200 F 
ENDBRANCH  47  71
BRANCH  59  82
ATOM     82  C   UNL A   1      47.798  27.102  31.366  1.00  0.00     0.064 A 
ATOM     83  C   UNL A   1      48.038  26.277  32.474  1.00  0.00     0.173 A 
ATOM     84  C   UNL A   1      48.895  27.508  30.592  1.00  0.00     0.173 A 
ATOM     85  F   UNL A   1      47.022  25.877  33.250  1.00  0.00    -0.203 F 
ATOM     86  C   UNL A   1      49.334  25.891  32.806  1.00  0.00     0.198 A 
ATOM     87  C   UNL A   1      50.188  27.102  30.916  1.00  0.00     0.198 A 
ATOM     88  F   UNL A   1      48.714  28.295  29.521  1.00  0.00    -0.203 F 
ATOM     89  F   UNL A   1      49.547  25.135  33.892  1.00  0.00    -0.200 F 
ATOM     90  C   UNL A   1      50.406  26.299  32.025  1.00  0.00     0.200 A 
ATOM     91  F   UNL A   1      51.220  27.490  30.156  1.00  0.00    -0.200 F 
ATOM     92  F   UNL A   1      51.651  25.923  32.346  1.00  0.00    -0.200 F 
ENDBRANCH  59  82
ENDBRANCH  33  34
ENDBRANCH  25  28
ENDBRANCH  23  24
ENDBRANCH   1  23
TORSDOF 11
ENDMDL
MODEL 3
REMARK VINA RESULT:     -12.8      1.124      2.340
REMARK SMILES O=C(NCCCNC(=O)c1ccc(-c2c3nc(c(-c4c(F)c(F)c(F)c(F)c4F)c4ccc([nH]4)c(-c4c(F)c(F)c(F)c(F)c4F)c4nc(c(-c5c(F)c(F)c(F)c(F)c5F)c5ccc2[nH]5)C=C4)C=C3)cc1)C1=C([O-])N(c2ccc3c(c2)OCCO3)CC1
REMARK SMILES IDX 5 1 4 2 3 3 1 4 2 5 73 7 74 8 88 9 75 10 76 11 87 12 77 13
REMARK SMILES IDX 78 14 82 15 79 16 81 17 80 18 83 19 86 20 84 21 85 22 6 23
REMARK SMILES IDX 7 24 8 25 9 27 10 28 11 29 72 30 12 31 71 32 13 33 14 34
REMARK SMILES IDX 15 35 65 36 16 37 70 38 64 39 66 40 17 41 69 42 63 43 62 44
REMARK SMILES IDX 18 46 50 47 30 48 49 49 31 50 34 51 48 52 67 53 32 54 33 55
REMARK SMILES IDX 47 57 68 58 35 59 19 60 20 61 28 62 21 63 22 64 26 65 29 66
REMARK SMILES IDX 23 67 24 68 27 69 25 70 51 71 52 72 60 73 53 74 54 75 58 76
REMARK SMILES IDX 61 77 55 78 56 79 59 80 57 81 36 82 37 83 45 84 38 85 39 86
REMARK SMILES IDX 43 87 46 88 40 89 41 90 44 91 42 92
REMARK H PARENT 3 6 7 26 66 45 34 56
REMARK Flexibility Score: inf
ROOT
ATOM      1  C   UNL A   1      35.729  23.706  25.998  1.00  0.00     0.042 C 
ENDROOT
BRANCH   1   2
ATOM      2  C   UNL A   1      34.386  23.877  25.308  1.00  0.00     0.118 C 
BRANCH   2   3
ATOM      3  N   UNL A   1      34.425  23.585  23.884  1.00  0.00    -0.352 N 
ATOM      4  O   UNL A   1      33.889  23.722  21.707  1.00  0.00    -0.270 OA
ATOM      5  C   UNL A   1      33.738  24.152  22.850  1.00  0.00     0.248 C 
ATOM      6  H   UNL A   1      35.044  22.864  23.625  1.00  0.00     0.163 HD
BRANCH   5   7
ATOM      7  C   UNL A   1      32.883  25.297  23.143  1.00  0.00     0.027 C 
ATOM      8  C   UNL A   1      31.552  25.291  23.309  1.00  0.00    -0.028 C 
ATOM      9  C   UNL A   1      33.391  26.706  23.234  1.00  0.00     0.064 C 
ATOM     10  O   UNL A   1      30.723  24.223  23.215  1.00  0.00    -0.860 OA
ATOM     11  N   UNL A   1      31.084  26.522  23.725  1.00  0.00    -0.354 N 
ATOM     12  C   UNL A   1      32.252  27.392  24.005  1.00  0.00     0.126 C 
BRANCH  11  13
ATOM     13  C   UNL A   1      30.000  27.241  23.182  1.00  0.00     0.044 A 
ATOM     14  C   UNL A   1      28.705  26.967  23.641  1.00  0.00     0.030 A 
ATOM     15  C   UNL A   1      30.235  28.409  22.441  1.00  0.00     0.076 A 
ATOM     16  C   UNL A   1      27.691  27.914  23.490  1.00  0.00     0.052 A 
ATOM     17  C   UNL A   1      29.254  29.389  22.371  1.00  0.00     0.163 A 
ATOM     18  C   UNL A   1      27.997  29.152  22.932  1.00  0.00     0.161 A 
ATOM     19  O   UNL A   1      29.648  30.600  21.866  1.00  0.00    -0.486 OA
ATOM     20  O   UNL A   1      27.058  30.146  23.057  1.00  0.00    -0.486 OA
ATOM     21  C   UNL A   1      28.643  31.615  21.981  1.00  0.00     0.271 C 
ATOM     22  C   UNL A   1      27.741  31.400  23.187  1.00  0.00     0.271 C 
ENDBRANCH  11  13
ENDBRANCH   5   7
ENDBRANCH   2   3
ENDBRANCH   1   2
BRANCH   1  23
ATOM     23  C   UNL A   1      36.928  23.743  25.062  1.00  0.00     0.118 C 
BRANCH  23  24
ATOM     24  N   UNL A   1      37.962  22.782  25.422  1.00  0.00    -0.352 N 
ATOM     25  C   UNL A   1      39.158  22.942  26.076  1.00  0.00     0.251 C 
ATOM     26  H   UNL A   1      37.770  21.856  25.148  1.00  0.00     0.163 HD
ATOM     27  O   UNL A   1      39.944  21.998  26.124  1.00  0.00    -0.269 OA
BRANCH  25  28
ATOM     28  C   UNL A   1      39.528  24.231  26.702  1.00  0.00     0.039 A 
ATOM     29  C   UNL A   1      39.156  24.460  28.031  1.00  0.00     0.014 A 
ATOM     30  C   UNL A   1      40.190  25.231  25.987  1.00  0.00     0.014 A 
ATOM     31  C   UNL A   1      39.505  25.660  28.658  1.00  0.00     0.010 A 
ATOM     32  C   UNL A   1      40.617  26.387  26.638  1.00  0.00     0.010 A 
ATOM     33  C   UNL A   1      40.267  26.619  27.975  1.00  0.00    -0.014 A 
BRANCH  33  34
ATOM     34  C   UNL A   1      40.683  27.887  28.626  1.00  0.00     0.031 A 
ATOM     35  C   UNL A   1      42.108  28.068  29.076  1.00  0.00     0.074 A 
ATOM     36  C   UNL A   1      39.770  28.843  28.881  1.00  0.00     0.049 A 
ATOM     37  N   UNL A   1      42.643  29.045  29.763  1.00  0.00    -0.248 NA
ATOM     38  C   UNL A   1      43.048  26.989  28.735  1.00  0.00     0.031 C 
ATOM     39  C   UNL A   1      38.348  28.769  28.541  1.00  0.00     0.029 A 
ATOM     40  N   UNL A   1      39.902  30.061  29.499  1.00  0.00    -0.354 N 
ATOM     41  C   UNL A   1      43.967  28.680  29.968  1.00  0.00     0.074 A 
ATOM     42  C   UNL A   1      44.147  27.377  29.366  1.00  0.00     0.031 C 
ATOM     43  C   UNL A   1      37.743  29.902  28.936  1.00  0.00     0.029 A 
ATOM     44  C   UNL A   1      38.726  30.764  29.584  1.00  0.00     0.049 A 
ATOM     45  H   UNL A   1      40.758  30.399  29.848  1.00  0.00     0.167 HD
ATOM     46  C   UNL A   1      44.950  29.377  30.588  1.00  0.00     0.037 A 
ATOM     47  C   UNL A   1      38.470  31.970  30.128  1.00  0.00     0.037 A 
ATOM     48  C   UNL A   1      44.787  30.695  31.139  1.00  0.00     0.049 A 
ATOM     49  C   UNL A   1      39.592  32.748  30.757  1.00  0.00     0.074 A 
ATOM     50  C   UNL A   1      45.736  31.508  31.733  1.00  0.00     0.029 A 
ATOM     51  N   UNL A   1      43.592  31.399  31.149  1.00  0.00    -0.354 N 
ATOM     52  N   UNL A   1      40.849  32.411  30.907  1.00  0.00    -0.248 NA
ATOM     53  C   UNL A   1      39.260  34.078  31.285  1.00  0.00     0.031 C 
ATOM     54  C   UNL A   1      45.112  32.698  32.120  1.00  0.00     0.029 A 
ATOM     55  C   UNL A   1      43.781  32.638  31.740  1.00  0.00     0.049 A 
ATOM     56  H   UNL A   1      42.738  31.069  30.790  1.00  0.00     0.167 HD
ATOM     57  C   UNL A   1      41.463  33.494  31.520  1.00  0.00     0.074 A 
ATOM     58  C   UNL A   1      40.442  34.504  31.706  1.00  0.00     0.031 C 
ATOM     59  C   UNL A   1      42.756  33.637  31.898  1.00  0.00     0.037 A 
BRANCH  46  60
ATOM     60  C   UNL A   1      46.295  28.723  30.692  1.00  0.00     0.064 A 
ATOM     61  C   UNL A   1      47.268  28.882  29.695  1.00  0.00     0.173 A 
ATOM     62  C   UNL A   1      46.625  27.948  31.815  1.00  0.00     0.173 A 
ATOM     63  F   UNL A   1      46.995  29.601  28.596  1.00  0.00    -0.203 F 
ATOM     64  C   UNL A   1      48.511  28.264  29.802  1.00  0.00     0.198 A 
ATOM     65  C   UNL A   1      47.878  27.353  31.931  1.00  0.00     0.198 A 
ATOM     66  F   UNL A   1      45.730  27.768  32.798  1.00  0.00    -0.203 F 
ATOM     67  F   UNL A   1      49.407  28.391  28.813  1.00  0.00    -0.200 F 
ATOM     68  C   UNL A   1      48.818  27.506  30.922  1.00  0.00     0.200 A 
ATOM     69  F   UNL A   1      48.176  26.627  33.017  1.00  0.00    -0.200 F 
ATOM     70  F   UNL A   1      50.015  26.914  31.024  1.00  0.00    -0.200 F 
ENDBRANCH  46  60
BRANCH  47  71
ATOM     71  C   UNL A   1      37.099  32.533  30.063  1.00  0.00     0.064 A 
ATOM     72  C   UNL A   1      36.701  33.320  28.974  1.00  0.00     0.173 A 
ATOM     73  C   UNL A   1      36.162  32.296  31.079  1.00  0.00     0.173 A 
ATOM     74  F   UNL A   1      37.571  33.588  27.990  1.00  0.00    -0.203 F 
ATOM     75  C   UNL A   1      35.421  33.865  28.911  1.00  0.00     0.198 A 
ATOM     76  C   UNL A   1      34.875  32.823  31.004  1.00  0.00     0.198 A 
ATOM     77  F   UNL A   1      36.496  31.544  32.138  1.00  0.00    -0.203 F 
ATOM     78  F   UNL A   1      35.076  34.645  27.877  1.00  0.00    -0.200 F 
ATOM     79  C   UNL A   1      34.507  33.613  29.924  1.00  0.00     0.200 A 
ATOM     80  F   UNL A   1      33.991  32.569  31.978  1.00  0.00    -0.200 F 
ATOM     81  F   UNL A   1      33.274  34.134  29.861  1.00  0.00    -0.200 F 
ENDBRANCH  47  71
BRANCH  59  82
ATOM     82  C   UNL A   1      43.148  34.946  32.512  1.00  0.00     0.064 A 
ATOM     83  C   UNL A   1      43.613  36.013  31.730  1.00  0.00     0.173 A 
ATOM     84  C   UNL A   1      43.025  35.144  33.895  1.00  0.00     0.173 A 
ATOM     85  F   UNL A   1      43.761  35.864  30.406  1.00  0.00    -0.203 F 
ATOM     86  C   UNL A   1      43.961  37.226  32.316  1.00  0.00     0.198 A 
ATOM     87  C   UNL A   1      43.353  36.367  34.475  1.00  0.00     0.198 A 
ATOM     88  F   UNL A   1      42.582  34.153  34.684  1.00  0.00    -0.203 F 
ATOM     89  F   UNL A   1      44.441  38.221  31.556  1.00  0.00    -0.200 F 
ATOM     90  C   UNL A   1      43.826  37.404  33.686  1.00  0.00     0.200 A 
ATOM     91  F   UNL A   1      43.215  36.539  35.796  1.00  0.00    -0.200 F 
ATOM     92  F   UNL A   1      44.159  38.575  34.246  1.00  0.00    -0.200 F 
ENDBRANCH  59  82
ENDBRANCH  33  34
ENDBRANCH  25  28
ENDBRANCH  23  24
ENDBRANCH   1  23
TORSDOF 11
ENDMDL
