MODEL 1
REMARK VINA RESULT:     -12.4      0.000      0.000
REMARK SMILES O=C(NCCCNC(=O)c1cncc(C(=O)c2ccsc2)c1)c1ccc(-c2c3nc(c(-c4c(F)c(F)c(F)c(F)c4F)c4ccc([nH]4)c(-c4c(F)c(F)c(F)c(F)c4F)c4nc(c(-c5c(F)c(F)c(F)c(F)c5F)c5ccc2[nH]5)C=C4)C=C3)cc1
REMARK SMILES IDX 5 1 4 2 3 3 1 4 2 5 23 7 24 8 85 9 25 10 84 11 26 12 27 13
REMARK SMILES IDX 28 14 78 15 29 16 83 17 77 18 79 19 30 20 82 21 76 22 75 23
REMARK SMILES IDX 31 25 63 26 43 27 62 28 44 29 47 30 61 31 80 32 45 33 46 34
REMARK SMILES IDX 60 36 81 37 48 38 32 39 33 40 41 41 34 42 35 43 39 44 42 45
REMARK SMILES IDX 36 46 37 47 40 48 38 49 64 50 65 51 73 52 66 53 67 54 71 55
REMARK SMILES IDX 74 56 68 57 69 58 72 59 70 60 49 61 50 62 58 63 51 64 52 65
REMARK SMILES IDX 56 66 59 67 53 68 54 69 57 70 55 71 6 72 7 73 8 74 9 76
REMARK SMILES IDX 10 77 11 78 22 79 12 80 14 81 13 82 15 83 16 84 17 85 18 86
REMARK SMILES IDX 21 87 19 88 20 89
REMARK H PARENT 3 6 79 24 47 35 7 75
REMARK Flexibility Score: inf
ROOT
ATOM      1  C   UNL A   1      31.400  31.941  26.606  1.00  0.00     0.042 C 
ENDROOT
BRANCH   1   2
ATOM      2  C   UNL A   1      32.704  32.671  26.882  1.00  0.00     0.118 C 
BRANCH   2   3
ATOM      3  N   UNL A   1      32.496  33.974  27.500  1.00  0.00    -0.352 N 
ATOM      4  O   UNL A   1      32.648  35.589  29.061  1.00  0.00    -0.269 OA
ATOM      5  C   UNL A   1      33.107  34.553  28.587  1.00  0.00     0.251 C 
ATOM      6  H   UNL A   1      31.808  34.531  27.069  1.00  0.00     0.163 HD
BRANCH   5   7
ATOM      7  C   UNL A   1      34.299  33.929  29.199  1.00  0.00     0.039 A 
ATOM      8  C   UNL A   1      34.172  32.836  30.056  1.00  0.00     0.014 A 
ATOM      9  C   UNL A   1      35.569  34.422  28.883  1.00  0.00     0.014 A 
ATOM     10  C   UNL A   1      35.286  32.348  30.726  1.00  0.00     0.010 A 
ATOM     11  C   UNL A   1      36.703  33.855  29.471  1.00  0.00     0.010 A 
ATOM     12  C   UNL A   1      36.567  32.832  30.422  1.00  0.00    -0.014 A 
BRANCH  12  13
ATOM     13  C   UNL A   1      37.746  32.188  31.055  1.00  0.00     0.031 A 
ATOM     14  C   UNL A   1      38.171  32.535  32.452  1.00  0.00     0.074 A 
ATOM     15  C   UNL A   1      38.410  31.247  30.355  1.00  0.00     0.049 A 
ATOM     16  N   UNL A   1      39.159  32.041  33.158  1.00  0.00    -0.248 NA
ATOM     17  C   UNL A   1      37.398  33.572  33.149  1.00  0.00     0.031 C 
ATOM     18  C   UNL A   1      38.095  30.841  28.983  1.00  0.00     0.029 A 
ATOM     19  N   UNL A   1      39.469  30.449  30.701  1.00  0.00    -0.354 N 
ATOM     20  C   UNL A   1      39.137  32.718  34.370  1.00  0.00     0.074 A 
ATOM     21  C   UNL A   1      38.055  33.676  34.297  1.00  0.00     0.031 C 
ATOM     22  C   UNL A   1      38.903  29.835  28.623  1.00  0.00     0.029 A 
ATOM     23  C   UNL A   1      39.839  29.573  29.709  1.00  0.00     0.049 A 
ATOM     24  H   UNL A   1      39.921  30.498  31.574  1.00  0.00     0.167 HD
ATOM     25  C   UNL A   1      39.944  32.545  35.444  1.00  0.00     0.037 A 
ATOM     26  C   UNL A   1      40.835  28.669  29.670  1.00  0.00     0.037 A 
ATOM     27  C   UNL A   1      41.010  31.578  35.512  1.00  0.00     0.049 A 
ATOM     28  C   UNL A   1      41.725  28.518  30.868  1.00  0.00     0.074 A 
ATOM     29  C   UNL A   1      41.858  31.301  36.570  1.00  0.00     0.029 A 
ATOM     30  N   UNL A   1      41.377  30.731  34.476  1.00  0.00    -0.354 N 
ATOM     31  N   UNL A   1      41.671  29.139  32.020  1.00  0.00    -0.248 NA
ATOM     32  C   UNL A   1      42.818  27.544  30.758  1.00  0.00     0.031 C 
ATOM     33  C   UNL A   1      42.769  30.321  36.159  1.00  0.00     0.029 A 
ATOM     34  C   UNL A   1      42.455  29.949  34.862  1.00  0.00     0.049 A 
ATOM     35  H   UNL A   1      40.936  30.689  33.597  1.00  0.00     0.167 HD
ATOM     36  C   UNL A   1      42.710  28.624  32.779  1.00  0.00     0.074 A 
ATOM     37  C   UNL A   1      43.364  27.620  31.964  1.00  0.00     0.031 C 
ATOM     38  C   UNL A   1      43.094  28.955  34.036  1.00  0.00     0.037 A 
BRANCH  25  39
ATOM     39  C   UNL A   1      39.721  33.432  36.636  1.00  0.00     0.064 A 
ATOM     40  C   UNL A   1      40.364  34.673  36.765  1.00  0.00     0.173 A 
ATOM     41  C   UNL A   1      38.807  33.061  37.635  1.00  0.00     0.173 A 
ATOM     42  F   UNL A   1      41.255  35.070  35.844  1.00  0.00    -0.203 F 
ATOM     43  C   UNL A   1      40.116  35.498  37.859  1.00  0.00     0.198 A 
ATOM     44  C   UNL A   1      38.542  33.901  38.713  1.00  0.00     0.198 A 
ATOM     45  F   UNL A   1      38.160  31.889  37.557  1.00  0.00    -0.203 F 
ATOM     46  F   UNL A   1      40.771  36.661  37.981  1.00  0.00    -0.200 F 
ATOM     47  C   UNL A   1      39.200  35.116  38.828  1.00  0.00     0.200 A 
ATOM     48  F   UNL A   1      37.646  33.536  39.641  1.00  0.00    -0.200 F 
ATOM     49  F   UNL A   1      38.955  35.917  39.874  1.00  0.00    -0.200 F 
ENDBRANCH  25  39
BRANCH  26  50
ATOM     50  C   UNL A   1      41.039  27.851  28.448  1.00  0.00     0.064 A 
ATOM     51  C   UNL A   1      40.405  26.610  28.293  1.00  0.00     0.173 A 
ATOM     52  C   UNL A   1      41.858  28.301  27.401  1.00  0.00     0.173 A 
ATOM     53  F   UNL A   1      39.626  26.131  29.274  1.00  0.00    -0.203 F 
ATOM     54  C   UNL A   1      40.596  25.844  27.146  1.00  0.00     0.198 A 
ATOM     55  C   UNL A   1      42.022  27.549  26.241  1.00  0.00     0.198 A 
ATOM     56  F   UNL A   1      42.481  29.485  27.496  1.00  0.00    -0.203 F 
ATOM     57  F   UNL A   1      40.012  24.642  27.041  1.00  0.00    -0.200 F 
ATOM     58  C   UNL A   1      41.398  26.317  26.117  1.00  0.00     0.200 A 
ATOM     59  F   UNL A   1      42.782  28.019  25.242  1.00  0.00    -0.200 F 
ATOM     60  F   UNL A   1      41.573  25.583  25.010  1.00  0.00    -0.200 F 
ENDBRANCH  26  50
BRANCH  38  61
ATOM     61  C   UNL A   1      44.260  28.207  34.610  1.00  0.00     0.064 A 
ATOM     62  C   UNL A   1      45.570  28.698  34.507  1.00  0.00     0.173 A 
ATOM     63  C   UNL A   1      44.061  26.996  35.288  1.00  0.00     0.173 A 
ATOM     64  F   UNL A   1      45.812  29.842  33.851  1.00  0.00    -0.203 F 
ATOM     65  C   UNL A   1      46.642  27.986  35.038  1.00  0.00     0.198 A 
ATOM     66  C   UNL A   1      45.133  26.303  35.844  1.00  0.00     0.198 A 
ATOM     67  F   UNL A   1      42.827  26.486  35.418  1.00  0.00    -0.203 F 
ATOM     68  F   UNL A   1      47.891  28.446  34.880  1.00  0.00    -0.200 F 
ATOM     69  C   UNL A   1      46.423  26.793  35.711  1.00  0.00     0.200 A 
ATOM     70  F   UNL A   1      44.918  25.156  36.504  1.00  0.00    -0.200 F 
ATOM     71  F   UNL A   1      47.457  26.112  36.223  1.00  0.00    -0.200 F 
ENDBRANCH  38  61
ENDBRANCH  12  13
ENDBRANCH   5   7
ENDBRANCH   2   3
ENDBRANCH   1   2
BRANCH   1  72
ATOM     72  C   UNL A   1      31.570  30.440  26.447  1.00  0.00     0.118 C 
BRANCH  72  73
ATOM     73  N   UNL A   1      32.572  30.099  25.441  1.00  0.00    -0.352 N 
ATOM     74  C   UNL A   1      32.554  29.140  24.457  1.00  0.00     0.252 C 
ATOM     75  H   UNL A   1      33.392  30.643  25.473  1.00  0.00     0.163 HD
ATOM     76  O   UNL A   1      33.584  28.854  23.855  1.00  0.00    -0.269 OA
BRANCH  74  77
ATOM     77  C   UNL A   1      31.300  28.452  24.120  1.00  0.00     0.058 A 
ATOM     78  C   UNL A   1      31.135  27.114  24.434  1.00  0.00     0.124 A 
ATOM     79  C   UNL A   1      30.254  29.125  23.489  1.00  0.00     0.029 A 
ATOM     80  N   UNL A   1      29.973  26.448  24.229  1.00  0.00    -0.263 NA
ATOM     81  C   UNL A   1      29.025  28.491  23.317  1.00  0.00     0.042 A 
ATOM     82  C   UNL A   1      28.939  27.155  23.699  1.00  0.00     0.123 A 
BRANCH  81  83
ATOM     83  C   UNL A   1      27.792  29.210  22.894  1.00  0.00     0.195 C 
ATOM     84  O   UNL A   1      26.697  28.731  23.170  1.00  0.00    -0.289 OA
BRANCH  83  85
ATOM     85  C   UNL A   1      27.912  30.535  22.285  1.00  0.00     0.033 A 
ATOM     86  C   UNL A   1      28.001  31.805  22.952  1.00  0.00     0.024 A 
ATOM     87  C   UNL A   1      27.974  30.703  20.912  1.00  0.00     0.077 A 
ATOM     88  C   UNL A   1      28.047  32.865  22.074  1.00  0.00     0.065 A 
ATOM     89  S   UNL A   1      28.031  32.348  20.446  1.00  0.00    -0.152 S 
ENDBRANCH  83  85
ENDBRANCH  81  83
ENDBRANCH  74  77
ENDBRANCH  72  73
ENDBRANCH   1  72
TORSDOF 12
ENDMDL
MODEL 2
REMARK VINA RESULT:     -12.3      0.066      1.154
REMARK SMILES O=C(NCCCNC(=O)c1cncc(C(=O)c2ccsc2)c1)c1ccc(-c2c3nc(c(-c4c(F)c(F)c(F)c(F)c4F)c4ccc([nH]4)c(-c4c(F)c(F)c(F)c(F)c4F)c4nc(c(-c5c(F)c(F)c(F)c(F)c5F)c5ccc2[nH]5)C=C4)C=C3)cc1
REMARK SMILES IDX 5 1 4 2 3 3 1 4 2 5 23 7 24 8 85 9 25 10 84 11 26 12 27 13
REMARK SMILES IDX 28 14 78 15 29 16 83 17 77 18 79 19 30 20 82 21 76 22 75 23
REMARK SMILES IDX 31 25 63 26 43 27 62 28 44 29 47 30 61 31 80 32 45 33 46 34
REMARK SMILES IDX 60 36 81 37 48 38 32 39 33 40 41 41 34 42 35 43 39 44 42 45
REMARK SMILES IDX 36 46 37 47 40 48 38 49 64 50 65 51 73 52 66 53 67 54 71 55
REMARK SMILES IDX 74 56 68 57 69 58 72 59 70 60 49 61 50 62 58 63 51 64 52 65
REMARK SMILES IDX 56 66 59 67 53 68 54 69 57 70 55 71 6 72 7 73 8 74 9 76
REMARK SMILES IDX 10 77 11 78 22 79 12 80 14 81 13 82 15 83 16 84 17 85 18 86
REMARK SMILES IDX 21 87 19 88 20 89
REMARK H PARENT 3 6 79 24 47 35 7 75
REMARK Flexibility Score: inf
ROOT
ATOM      1  C   UNL A   1      31.464  31.830  26.693  1.00  0.00     0.042 C 
ENDROOT
BRANCH   1   2
ATOM      2  C   UNL A   1      32.744  32.631  26.861  1.00  0.00     0.118 C 
BRANCH   2   3
ATOM      3  N   UNL A   1      32.516  33.924  27.492  1.00  0.00    -0.352 N 
ATOM      4  O   UNL A   1      32.638  35.524  29.071  1.00  0.00    -0.269 OA
ATOM      5  C   UNL A   1      33.113  34.498  28.589  1.00  0.00     0.251 C 
ATOM      6  H   UNL A   1      31.825  34.478  27.062  1.00  0.00     0.163 HD
BRANCH   5   7
ATOM      7  C   UNL A   1      34.308  33.882  29.203  1.00  0.00     0.039 A 
ATOM      8  C   UNL A   1      34.184  32.805  30.081  1.00  0.00     0.014 A 
ATOM      9  C   UNL A   1      35.577  34.364  28.867  1.00  0.00     0.014 A 
ATOM     10  C   UNL A   1      35.302  32.326  30.751  1.00  0.00     0.010 A 
ATOM     11  C   UNL A   1      36.714  33.804  29.457  1.00  0.00     0.010 A 
ATOM     12  C   UNL A   1      36.582  32.800  30.428  1.00  0.00    -0.014 A 
BRANCH  12  13
ATOM     13  C   UNL A   1      37.764  32.163  31.062  1.00  0.00     0.031 A 
ATOM     14  C   UNL A   1      38.187  32.514  32.460  1.00  0.00     0.074 A 
ATOM     15  C   UNL A   1      38.435  31.225  30.364  1.00  0.00     0.049 A 
ATOM     16  N   UNL A   1      39.177  32.028  33.167  1.00  0.00    -0.248 NA
ATOM     17  C   UNL A   1      37.407  33.549  33.154  1.00  0.00     0.031 C 
ATOM     18  C   UNL A   1      38.122  30.814  28.993  1.00  0.00     0.029 A 
ATOM     19  N   UNL A   1      39.498  30.433  30.713  1.00  0.00    -0.354 N 
ATOM     20  C   UNL A   1      39.150  32.707  34.378  1.00  0.00     0.074 A 
ATOM     21  C   UNL A   1      38.062  33.658  34.302  1.00  0.00     0.031 C 
ATOM     22  C   UNL A   1      38.937  29.813  28.636  1.00  0.00     0.029 A 
ATOM     23  C   UNL A   1      39.873  29.557  29.723  1.00  0.00     0.049 A 
ATOM     24  H   UNL A   1      39.948  30.487  31.586  1.00  0.00     0.167 HD
ATOM     25  C   UNL A   1      39.957  32.540  35.453  1.00  0.00     0.037 A 
ATOM     26  C   UNL A   1      40.874  28.659  29.686  1.00  0.00     0.037 A 
ATOM     27  C   UNL A   1      41.028  31.579  35.524  1.00  0.00     0.049 A 
ATOM     28  C   UNL A   1      41.764  28.515  30.885  1.00  0.00     0.074 A 
ATOM     29  C   UNL A   1      41.877  31.308  36.583  1.00  0.00     0.029 A 
ATOM     30  N   UNL A   1      41.400  30.732  34.489  1.00  0.00    -0.354 N 
ATOM     31  N   UNL A   1      41.706  29.138  32.036  1.00  0.00    -0.248 NA
ATOM     32  C   UNL A   1      42.863  27.547  30.778  1.00  0.00     0.031 C 
ATOM     33  C   UNL A   1      42.793  30.333  36.174  1.00  0.00     0.029 A 
ATOM     34  C   UNL A   1      42.483  29.957  34.878  1.00  0.00     0.049 A 
ATOM     35  H   UNL A   1      40.960  30.687  33.610  1.00  0.00     0.167 HD
ATOM     36  C   UNL A   1      42.747  28.629  32.797  1.00  0.00     0.074 A 
ATOM     37  C   UNL A   1      43.407  27.628  31.984  1.00  0.00     0.031 C 
ATOM     38  C   UNL A   1      43.128  28.966  34.054  1.00  0.00     0.037 A 
BRANCH  25  39
ATOM     39  C   UNL A   1      39.728  33.428  36.643  1.00  0.00     0.064 A 
ATOM     40  C   UNL A   1      40.377  34.664  36.780  1.00  0.00     0.173 A 
ATOM     41  C   UNL A   1      38.801  33.062  37.633  1.00  0.00     0.173 A 
ATOM     42  F   UNL A   1      41.280  35.056  35.868  1.00  0.00    -0.203 F 
ATOM     43  C   UNL A   1      40.124  35.490  37.872  1.00  0.00     0.198 A 
ATOM     44  C   UNL A   1      38.531  33.903  38.709  1.00  0.00     0.198 A 
ATOM     45  F   UNL A   1      38.148  31.894  37.548  1.00  0.00    -0.203 F 
ATOM     46  F   UNL A   1      40.786  36.649  38.000  1.00  0.00    -0.200 F 
ATOM     47  C   UNL A   1      39.196  35.114  38.831  1.00  0.00     0.200 A 
ATOM     48  F   UNL A   1      37.624  33.543  39.628  1.00  0.00    -0.200 F 
ATOM     49  F   UNL A   1      38.946  35.916  39.876  1.00  0.00    -0.200 F 
ENDBRANCH  25  39
BRANCH  26  50
ATOM     50  C   UNL A   1      41.084  27.840  28.465  1.00  0.00     0.064 A 
ATOM     51  C   UNL A   1      40.416  26.620  28.289  1.00  0.00     0.173 A 
ATOM     52  C   UNL A   1      41.943  28.269  27.442  1.00  0.00     0.173 A 
ATOM     53  F   UNL A   1      39.599  26.161  29.248  1.00  0.00    -0.203 F 
ATOM     54  C   UNL A   1      40.613  25.853  27.143  1.00  0.00     0.198 A 
ATOM     55  C   UNL A   1      42.112  27.517  26.283  1.00  0.00     0.198 A 
ATOM     56  F   UNL A   1      42.598  29.433  27.558  1.00  0.00    -0.203 F 
ATOM     57  F   UNL A   1      39.995  24.671  27.018  1.00  0.00    -0.200 F 
ATOM     58  C   UNL A   1      41.455  26.305  26.137  1.00  0.00     0.200 A 
ATOM     59  F   UNL A   1      42.912  27.967  25.306  1.00  0.00    -0.200 F 
ATOM     60  F   UNL A   1      41.635  25.571  25.032  1.00  0.00    -0.200 F 
ENDBRANCH  26  50
BRANCH  38  61
ATOM     61  C   UNL A   1      44.297  28.225  34.630  1.00  0.00     0.064 A 
ATOM     62  C   UNL A   1      44.133  27.013  35.317  1.00  0.00     0.173 A 
ATOM     63  C   UNL A   1      45.599  28.724  34.476  1.00  0.00     0.173 A 
ATOM     64  F   UNL A   1      42.906  26.505  35.506  1.00  0.00    -0.203 F 
ATOM     65  C   UNL A   1      45.229  26.342  35.853  1.00  0.00     0.198 A 
ATOM     66  C   UNL A   1      46.695  28.034  34.988  1.00  0.00     0.198 A 
ATOM     67  F   UNL A   1      45.810  29.876  33.824  1.00  0.00    -0.203 F 
ATOM     68  F   UNL A   1      45.043  25.213  36.552  1.00  0.00    -0.200 F 
ATOM     69  C   UNL A   1      46.508  26.849  35.683  1.00  0.00     0.200 A 
ATOM     70  F   UNL A   1      47.932  28.520  34.813  1.00  0.00    -0.200 F 
ATOM     71  F   UNL A   1      47.561  26.200  36.198  1.00  0.00    -0.200 F 
ENDBRANCH  38  61
ENDBRANCH  12  13
ENDBRANCH   5   7
ENDBRANCH   2   3
ENDBRANCH   1   2
BRANCH   1  72
ATOM     72  C   UNL A   1      31.702  30.341  26.505  1.00  0.00     0.118 C 
BRANCH  72  73
ATOM     73  N   UNL A   1      32.640  30.063  25.421  1.00  0.00    -0.352 N 
ATOM     74  C   UNL A   1      32.567  29.152  24.395  1.00  0.00     0.252 C 
ATOM     75  H   UNL A   1      33.455  30.615  25.426  1.00  0.00     0.163 HD
ATOM     76  O   UNL A   1      33.558  28.909  23.715  1.00  0.00    -0.269 OA
BRANCH  74  77
ATOM     77  C   UNL A   1      31.301  28.464  24.106  1.00  0.00     0.058 A 
ATOM     78  C   UNL A   1      31.125  27.144  24.483  1.00  0.00     0.124 A 
ATOM     79  C   UNL A   1      30.253  29.120  23.460  1.00  0.00     0.029 A 
ATOM     80  N   UNL A   1      29.953  26.482  24.325  1.00  0.00    -0.263 NA
ATOM     81  C   UNL A   1      29.014  28.494  23.335  1.00  0.00     0.042 A 
ATOM     82  C   UNL A   1      28.919  27.178  23.778  1.00  0.00     0.123 A 
BRANCH  81  83
ATOM     83  C   UNL A   1      27.784  29.208  22.896  1.00  0.00     0.195 C 
ATOM     84  O   UNL A   1      26.688  28.731  23.172  1.00  0.00    -0.289 OA
BRANCH  83  85
ATOM     85  C   UNL A   1      27.906  30.526  22.273  1.00  0.00     0.033 A 
ATOM     86  C   UNL A   1      28.017  31.801  22.927  1.00  0.00     0.024 A 
ATOM     87  C   UNL A   1      27.950  30.680  20.899  1.00  0.00     0.077 A 
ATOM     88  C   UNL A   1      28.059  32.852  22.038  1.00  0.00     0.065 A 
ATOM     89  S   UNL A   1      28.015  32.320  20.416  1.00  0.00    -0.152 S 
ENDBRANCH  83  85
ENDBRANCH  81  83
ENDBRANCH  74  77
ENDBRANCH  72  73
ENDBRANCH   1  72
TORSDOF 12
ENDMDL
MODEL 3
REMARK VINA RESULT:     -12.2      0.370      7.404
REMARK SMILES O=C(NCCCNC(=O)c1cncc(C(=O)c2ccsc2)c1)c1ccc(-c2c3nc(c(-c4c(F)c(F)c(F)c(F)c4F)c4ccc([nH]4)c(-c4c(F)c(F)c(F)c(F)c4F)c4nc(c(-c5c(F)c(F)c(F)c(F)c5F)c5ccc2[nH]5)C=C4)C=C3)cc1
REMARK SMILES IDX 5 1 4 2 3 3 1 4 2 5 23 7 24 8 85 9 25 10 84 11 26 12 27 13
REMARK SMILES IDX 28 14 78 15 29 16 83 17 77 18 79 19 30 20 82 21 76 22 75 23
REMARK SMILES IDX 31 25 63 26 43 27 62 28 44 29 47 30 61 31 80 32 45 33 46 34
REMARK SMILES IDX 60 36 81 37 48 38 32 39 33 40 41 41 34 42 35 43 39 44 42 45
REMARK SMILES IDX 36 46 37 47 40 48 38 49 64 50 65 51 73 52 66 53 67 54 71 55
REMARK SMILES IDX 74 56 68 57 69 58 72 59 70 60 49 61 50 62 58 63 51 64 52 65
REMARK SMILES IDX 56 66 59 67 53 68 54 69 57 70 55 71 6 72 7 73 8 74 9 76
REMARK SMILES IDX 10 77 11 78 22 79 12 80 14 81 13 82 15 83 16 84 17 85 18 86
REMARK SMILES IDX 21 87 19 88 20 89
REMARK H PARENT 3 6 79 24 47 35 7 75
REMARK Flexibility Score: inf
ROOT
ATOM      1  C   UNL A   1      31.398  31.881  26.653  1.00  0.00     0.042 C 
ENDROOT
BRANCH   1   2
ATOM      2  C   UNL A   1      32.683  32.690  26.713  1.00  0.00     0.118 C 
BRANCH   2   3
ATOM      3  N   UNL A   1      32.499  33.988  27.346  1.00  0.00    -0.352 N 
ATOM      4  O   UNL A   1      32.647  35.569  28.942  1.00  0.00    -0.269 OA
ATOM      5  C   UNL A   1      33.086  34.525  28.467  1.00  0.00     0.251 C 
ATOM      6  H   UNL A   1      31.850  34.578  26.899  1.00  0.00     0.163 HD
BRANCH   5   7
ATOM      7  C   UNL A   1      34.228  33.845  29.115  1.00  0.00     0.039 A 
ATOM      8  C   UNL A   1      34.035  32.691  29.874  1.00  0.00     0.014 A 
ATOM      9  C   UNL A   1      35.519  34.350  28.932  1.00  0.00     0.014 A 
ATOM     10  C   UNL A   1      35.095  32.144  30.584  1.00  0.00     0.010 A 
ATOM     11  C   UNL A   1      36.605  33.730  29.556  1.00  0.00     0.010 A 
ATOM     12  C   UNL A   1      36.397  32.638  30.413  1.00  0.00    -0.014 A 
BRANCH  12  13
ATOM     13  C   UNL A   1      37.524  31.937  31.078  1.00  0.00     0.031 A 
ATOM     14  C   UNL A   1      38.350  30.917  30.349  1.00  0.00     0.074 A 
ATOM     15  C   UNL A   1      37.817  32.266  32.352  1.00  0.00     0.049 A 
ATOM     16  N   UNL A   1      39.385  30.238  30.778  1.00  0.00    -0.248 NA
ATOM     17  C   UNL A   1      37.965  30.611  28.964  1.00  0.00     0.031 C 
ATOM     18  C   UNL A   1      37.072  33.232  33.163  1.00  0.00     0.029 A 
ATOM     19  N   UNL A   1      38.825  31.845  33.180  1.00  0.00    -0.354 N 
ATOM     20  C   UNL A   1      39.763  29.414  29.726  1.00  0.00     0.074 A 
ATOM     21  C   UNL A   1      38.832  29.658  28.646  1.00  0.00     0.031 C 
ATOM     22  C   UNL A   1      37.678  33.371  34.350  1.00  0.00     0.029 A 
ATOM     23  C   UNL A   1      38.809  32.455  34.411  1.00  0.00     0.049 A 
ATOM     24  H   UNL A   1      39.494  31.173  32.919  1.00  0.00     0.167 HD
ATOM     25  C   UNL A   1      40.799  28.543  29.671  1.00  0.00     0.037 A 
ATOM     26  C   UNL A   1      39.607  32.283  35.481  1.00  0.00     0.037 A 
ATOM     27  C   UNL A   1      41.731  28.319  30.747  1.00  0.00     0.049 A 
ATOM     28  C   UNL A   1      40.732  31.294  35.395  1.00  0.00     0.074 A 
ATOM     29  C   UNL A   1      42.835  27.484  30.774  1.00  0.00     0.029 A 
ATOM     30  N   UNL A   1      41.663  28.930  31.992  1.00  0.00    -0.354 N 
ATOM     31  N   UNL A   1      41.100  30.547  34.382  1.00  0.00    -0.248 NA
ATOM     32  C   UNL A   1      41.549  31.118  36.601  1.00  0.00     0.031 C 
ATOM     33  C   UNL A   1      43.407  27.554  32.049  1.00  0.00     0.029 A 
ATOM     34  C   UNL A   1      42.692  28.471  32.801  1.00  0.00     0.049 A 
ATOM     35  H   UNL A   1      40.986  29.592  32.260  1.00  0.00     0.167 HD
ATOM     36  C   UNL A   1      42.198  29.825  34.822  1.00  0.00     0.074 A 
ATOM     37  C   UNL A   1      42.451  30.240  36.187  1.00  0.00     0.031 C 
ATOM     38  C   UNL A   1      42.928  28.895  34.158  1.00  0.00     0.037 A 
BRANCH  25  39
ATOM     39  C   UNL A   1      40.978  27.748  28.409  1.00  0.00     0.064 A 
ATOM     40  C   UNL A   1      41.804  28.192  27.366  1.00  0.00     0.173 A 
ATOM     41  C   UNL A   1      40.357  26.496  28.265  1.00  0.00     0.173 A 
ATOM     42  F   UNL A   1      42.412  29.385  27.448  1.00  0.00    -0.203 F 
ATOM     43  C   UNL A   1      41.986  27.424  26.218  1.00  0.00     0.198 A 
ATOM     44  C   UNL A   1      40.563  25.719  27.128  1.00  0.00     0.198 A 
ATOM     45  F   UNL A   1      39.561  26.022  29.234  1.00  0.00    -0.203 F 
ATOM     46  F   UNL A   1      42.751  27.886  25.219  1.00  0.00    -0.200 F 
ATOM     47  C   UNL A   1      41.373  26.185  26.104  1.00  0.00     0.200 A 
ATOM     48  F   UNL A   1      39.979  24.517  27.025  1.00  0.00    -0.200 F 
ATOM     49  F   UNL A   1      41.558  25.443  25.003  1.00  0.00    -0.200 F 
ENDBRANCH  25  39
BRANCH  26  50
ATOM     50  C   UNL A   1      39.356  33.062  36.719  1.00  0.00     0.064 A 
ATOM     51  C   UNL A   1      38.453  32.607  37.690  1.00  0.00     0.173 A 
ATOM     52  C   UNL A   1      40.028  34.269  36.966  1.00  0.00     0.173 A 
ATOM     53  F   UNL A   1      37.775  31.468  37.490  1.00  0.00    -0.203 F 
ATOM     54  C   UNL A   1      38.219  33.339  38.852  1.00  0.00     0.198 A 
ATOM     55  C   UNL A   1      39.818  34.982  38.144  1.00  0.00     0.198 A 
ATOM     56  F   UNL A   1      40.909  34.743  36.073  1.00  0.00    -0.203 F 
ATOM     57  F   UNL A   1      37.320  32.903  39.745  1.00  0.00    -0.200 F 
ATOM     58  C   UNL A   1      38.908  34.521  39.082  1.00  0.00     0.200 A 
ATOM     59  F   UNL A   1      40.500  36.113  38.370  1.00  0.00    -0.200 F 
ATOM     60  F   UNL A   1      38.689  35.218  40.205  1.00  0.00    -0.200 F 
ENDBRANCH  26  50
BRANCH  38  61
ATOM     61  C   UNL A   1      44.083  28.286  34.895  1.00  0.00     0.064 A 
ATOM     62  C   UNL A   1      45.350  28.887  34.900  1.00  0.00     0.173 A 
ATOM     63  C   UNL A   1      43.914  27.097  35.620  1.00  0.00     0.173 A 
ATOM     64  F   UNL A   1      45.566  30.014  34.206  1.00  0.00    -0.203 F 
ATOM     65  C   UNL A   1      46.414  28.303  35.583  1.00  0.00     0.198 A 
ATOM     66  C   UNL A   1      44.973  26.533  36.326  1.00  0.00     0.198 A 
ATOM     67  F   UNL A   1      42.721  26.485  35.650  1.00  0.00    -0.203 F 
ATOM     68  F   UNL A   1      47.630  28.866  35.531  1.00  0.00    -0.200 F 
ATOM     69  C   UNL A   1      46.224  27.131  36.300  1.00  0.00     0.200 A 
ATOM     70  F   UNL A   1      44.785  25.406  37.027  1.00  0.00    -0.200 F 
ATOM     71  F   UNL A   1      47.249  26.573  36.958  1.00  0.00    -0.200 F 
ENDBRANCH  38  61
ENDBRANCH  12  13
ENDBRANCH   5   7
ENDBRANCH   2   3
ENDBRANCH   1   2
BRANCH   1  72
ATOM     72  C   UNL A   1      31.630  30.387  26.508  1.00  0.00     0.118 C 
BRANCH  72  73
ATOM     73  N   UNL A   1      32.620  30.076  25.481  1.00  0.00    -0.352 N 
ATOM     74  C   UNL A   1      32.600  29.129  24.485  1.00  0.00     0.252 C 
ATOM     75  H   UNL A   1      33.431  30.633  25.506  1.00  0.00     0.163 HD
ATOM     76  O   UNL A   1      33.624  28.869  23.862  1.00  0.00    -0.269 OA
BRANCH  74  77
ATOM     77  C   UNL A   1      31.352  28.424  24.160  1.00  0.00     0.058 A 
ATOM     78  C   UNL A   1      31.201  27.090  24.496  1.00  0.00     0.124 A 
ATOM     79  C   UNL A   1      30.299  29.077  23.521  1.00  0.00     0.029 A 
ATOM     80  N   UNL A   1      30.045  26.409  24.303  1.00  0.00    -0.263 NA
ATOM     81  C   UNL A   1      29.076  28.429  23.361  1.00  0.00     0.042 A 
ATOM     82  C   UNL A   1      29.003  27.099  23.764  1.00  0.00     0.123 A 
BRANCH  81  83
ATOM     83  C   UNL A   1      27.836  29.130  22.928  1.00  0.00     0.195 C 
ATOM     84  O   UNL A   1      26.746  28.631  23.191  1.00  0.00    -0.289 OA
BRANCH  83  85
ATOM     85  C   UNL A   1      27.940  30.459  22.325  1.00  0.00     0.033 A 
ATOM     86  C   UNL A   1      27.985  31.728  22.998  1.00  0.00     0.024 A 
ATOM     87  C   UNL A   1      28.031  30.633  20.955  1.00  0.00     0.077 A 
ATOM     88  C   UNL A   1      28.027  32.792  22.124  1.00  0.00     0.065 A 
ATOM     89  S   UNL A   1      28.062  32.279  20.495  1.00  0.00    -0.152 S 
ENDBRANCH  83  85
ENDBRANCH  81  83
ENDBRANCH  74  77
ENDBRANCH  72  73
ENDBRANCH   1  72
TORSDOF 12
ENDMDL
