MODEL 1
REMARK VINA RESULT:     -12.3      0.000      0.000
REMARK SMILES C[C@H]1Cc2cc(C(=O)[C@H](Br)CC(=O)NCCCNC(=O)c3ccc(-c4c5nc(c(-c6c(F)c(F)c(F)c(F)c6F)c6ccc([nH]6)c(-c6c(F)c(F)c(F)c(F)c6F)c6nc(c(-c7c(F)c(F)c(F)c(F)c7F)c7ccc4[nH]7)C=C6)C=C5)cc3)ccc2O1
REMARK SMILES IDX 15 1 14 2 12 3 13 4 11 6 9 7 10 8 7 9 8 10 6 11 1 12 2 13
REMARK SMILES IDX 3 14 87 15 4 16 86 17 5 18 85 19 84 20 16 21 17 22 18 23
REMARK SMILES IDX 19 24 20 26 21 27 22 28 83 29 23 30 82 31 24 32 25 33 26 34
REMARK SMILES IDX 76 35 27 36 81 37 75 38 77 39 28 40 80 41 74 42 73 43 29 45
REMARK SMILES IDX 61 46 41 47 60 48 42 49 45 50 59 51 78 52 43 53 44 54 58 56
REMARK SMILES IDX 79 57 46 58 30 59 31 60 39 61 32 62 33 63 37 64 40 65 34 66
REMARK SMILES IDX 35 67 38 68 36 69 62 70 63 71 71 72 64 73 65 74 69 75 72 76
REMARK SMILES IDX 66 77 67 78 70 79 68 80 47 81 48 82 56 83 49 84 50 85 54 86
REMARK SMILES IDX 57 87 51 88 52 89 55 90 53 91
REMARK H PARENT 14 5 18 25 77 44 45 55
REMARK Flexibility Score: inf
ROOT
ATOM      1  C   UNL A   1      31.760  30.497  25.863  1.00  0.00     0.117 C 
ENDROOT
BRANCH   1   2
ATOM      2  N   UNL A   1      33.158  30.140  26.071  1.00  0.00    -0.356 N 
ATOM      3  C   UNL A   1      33.720  28.916  26.261  1.00  0.00     0.221 C 
ATOM      4  O   UNL A   1      34.898  28.840  26.612  1.00  0.00    -0.275 OA
ATOM      5  H   UNL A   1      33.788  30.897  26.076  1.00  0.00     0.163 HD
BRANCH   3   6
ATOM      6  C   UNL A   1      32.919  27.677  25.977  1.00  0.00     0.123 C 
BRANCH   6   7
ATOM      7  C   UNL A   1      33.669  26.651  25.149  1.00  0.00     0.138 C 
ATOM      8  Br  UNL A   1      33.475  24.838  25.864  1.00  0.00    -0.080 Br
BRANCH   7   9
ATOM      9  C   UNL A   1      33.060  26.649  23.758  1.00  0.00     0.176 C 
ATOM     10  O   UNL A   1      33.642  26.192  22.773  1.00  0.00    -0.293 OA
BRANCH   9  11
ATOM     11  C   UNL A   1      31.648  27.104  23.591  1.00  0.00     0.019 A 
ATOM     12  C   UNL A   1      27.601  30.968  23.200  1.00  0.00     0.053 C 
ATOM     13  C   UNL A   1      28.160  29.866  22.310  1.00  0.00     0.174 C 
ATOM     14  C   UNL A   1      29.676  30.006  22.099  1.00  0.00     0.084 C 
ATOM     15  O   UNL A   1      27.857  28.584  22.924  1.00  0.00    -0.490 OA
ATOM     16  C   UNL A   1      30.146  28.768  22.749  1.00  0.00    -0.001 A 
ATOM     17  C   UNL A   1      29.072  28.017  23.181  1.00  0.00     0.123 A 
ATOM     18  C   UNL A   1      31.442  28.327  22.936  1.00  0.00     0.019 A 
ATOM     19  C   UNL A   1      29.240  26.805  23.817  1.00  0.00     0.047 A 
ATOM     20  C   UNL A   1      30.542  26.345  24.029  1.00  0.00     0.015 A 
ENDBRANCH   9  11
ENDBRANCH   7   9
ENDBRANCH   6   7
ENDBRANCH   3   6
ENDBRANCH   1   2
BRANCH   1  21
ATOM     21  C   UNL A   1      31.436  31.840  26.499  1.00  0.00     0.042 C 
BRANCH  21  22
ATOM     22  C   UNL A   1      32.634  32.456  27.203  1.00  0.00     0.118 C 
BRANCH  22  23
ATOM     23  N   UNL A   1      32.420  33.860  27.524  1.00  0.00    -0.352 N 
ATOM     24  C   UNL A   1      33.018  34.653  28.477  1.00  0.00     0.251 C 
ATOM     25  H   UNL A   1      31.741  34.313  26.974  1.00  0.00     0.163 HD
ATOM     26  O   UNL A   1      32.545  35.751  28.741  1.00  0.00    -0.269 OA
BRANCH  24  27
ATOM     27  C   UNL A   1      34.211  34.167  29.207  1.00  0.00     0.039 A 
ATOM     28  C   UNL A   1      35.495  34.500  28.780  1.00  0.00     0.014 A 
ATOM     29  C   UNL A   1      34.043  33.360  30.335  1.00  0.00     0.014 A 
ATOM     30  C   UNL A   1      36.595  33.855  29.332  1.00  0.00     0.010 A 
ATOM     31  C   UNL A   1      35.162  32.817  30.976  1.00  0.00     0.010 A 
ATOM     32  C   UNL A   1      36.446  33.014  30.445  1.00  0.00    -0.014 A 
BRANCH  32  33
ATOM     33  C   UNL A   1      37.648  32.365  31.034  1.00  0.00     0.031 A 
ATOM     34  C   UNL A   1      38.120  32.722  32.419  1.00  0.00     0.074 A 
ATOM     35  C   UNL A   1      38.288  31.407  30.334  1.00  0.00     0.049 A 
ATOM     36  N   UNL A   1      39.150  32.259  33.085  1.00  0.00    -0.248 NA
ATOM     37  C   UNL A   1      37.344  33.733  33.154  1.00  0.00     0.031 C 
ATOM     38  C   UNL A   1      37.918  30.962  28.988  1.00  0.00     0.029 A 
ATOM     39  N   UNL A   1      39.358  30.613  30.661  1.00  0.00    -0.354 N 
ATOM     40  C   UNL A   1      39.154  32.933  34.299  1.00  0.00     0.074 A 
ATOM     41  C   UNL A   1      38.048  33.865  34.269  1.00  0.00     0.031 C 
ATOM     42  C   UNL A   1      38.702  29.935  28.633  1.00  0.00     0.029 A 
ATOM     43  C   UNL A   1      39.684  29.702  29.685  1.00  0.00     0.049 A 
ATOM     44  H   UNL A   1      39.846  30.688  31.513  1.00  0.00     0.167 HD
ATOM     45  C   UNL A   1      39.992  32.773  35.352  1.00  0.00     0.037 A 
ATOM     46  C   UNL A   1      40.676  28.794  29.629  1.00  0.00     0.037 A 
ATOM     47  C   UNL A   1      41.073  31.822  35.390  1.00  0.00     0.049 A 
ATOM     48  C   UNL A   1      41.628  28.681  30.786  1.00  0.00     0.074 A 
ATOM     49  C   UNL A   1      41.963  31.571  36.420  1.00  0.00     0.029 A 
ATOM     50  N   UNL A   1      41.409  30.962  34.354  1.00  0.00    -0.354 N 
ATOM     51  N   UNL A   1      41.615  29.319  31.930  1.00  0.00    -0.248 NA
ATOM     52  C   UNL A   1      42.740  27.733  30.639  1.00  0.00     0.031 C 
ATOM     53  C   UNL A   1      42.869  30.600  35.988  1.00  0.00     0.029 A 
ATOM     54  C   UNL A   1      42.511  30.201  34.710  1.00  0.00     0.049 A 
ATOM     55  H   UNL A   1      40.934  30.902  33.493  1.00  0.00     0.167 HD
ATOM     56  C   UNL A   1      42.702  28.841  32.645  1.00  0.00     0.074 A 
ATOM     57  C   UNL A   1      43.342  27.842  31.815  1.00  0.00     0.031 C 
ATOM     58  C   UNL A   1      43.135  29.205  33.877  1.00  0.00     0.037 A 
BRANCH  45  59
ATOM     59  C   UNL A   1      39.786  33.644  36.559  1.00  0.00     0.064 A 
ATOM     60  C   UNL A   1      40.372  34.915  36.659  1.00  0.00     0.173 A 
ATOM     61  C   UNL A   1      38.926  33.237  37.591  1.00  0.00     0.173 A 
ATOM     62  F   UNL A   1      41.208  35.350  35.704  1.00  0.00    -0.203 F 
ATOM     63  C   UNL A   1      40.118  35.737  37.754  1.00  0.00     0.198 A 
ATOM     64  C   UNL A   1      38.650  34.074  38.669  1.00  0.00     0.198 A 
ATOM     65  F   UNL A   1      38.331  32.035  37.542  1.00  0.00    -0.203 F 
ATOM     66  F   UNL A   1      40.715  36.934  37.844  1.00  0.00    -0.200 F 
ATOM     67  C   UNL A   1      39.249  35.321  38.752  1.00  0.00     0.200 A 
ATOM     68  F   UNL A   1      37.796  33.678  39.623  1.00  0.00    -0.200 F 
ATOM     69  F   UNL A   1      38.990  36.124  39.794  1.00  0.00    -0.200 F 
ENDBRANCH  45  59
BRANCH  46  70
ATOM     70  C   UNL A   1      40.809  27.924  28.431  1.00  0.00     0.064 A 
ATOM     71  C   UNL A   1      41.566  28.334  27.325  1.00  0.00     0.173 A 
ATOM     72  C   UNL A   1      40.212  26.655  28.377  1.00  0.00     0.173 A 
ATOM     73  F   UNL A   1      42.141  29.546  27.319  1.00  0.00    -0.203 F 
ATOM     74  C   UNL A   1      41.718  27.510  26.212  1.00  0.00     0.198 A 
ATOM     75  C   UNL A   1      40.392  25.820  27.278  1.00  0.00     0.198 A 
ATOM     76  F   UNL A   1      39.479  26.214  29.411  1.00  0.00    -0.203 F 
ATOM     77  F   UNL A   1      42.420  27.940  25.154  1.00  0.00    -0.200 F 
ATOM     78  C   UNL A   1      41.139  26.250  26.194  1.00  0.00     0.200 A 
ATOM     79  F   UNL A   1      39.848  24.595  27.275  1.00  0.00    -0.200 F 
ATOM     80  F   UNL A   1      41.300  25.451  25.130  1.00  0.00    -0.200 F 
ENDBRANCH  46  70
BRANCH  58  81
ATOM     81  C   UNL A   1      44.352  28.514  34.420  1.00  0.00     0.064 A 
ATOM     82  C   UNL A   1      45.634  29.058  34.258  1.00  0.00     0.173 A 
ATOM     83  C   UNL A   1      44.225  27.341  35.180  1.00  0.00     0.173 A 
ATOM     84  F   UNL A   1      45.810  30.169  33.527  1.00  0.00    -0.203 F 
ATOM     85  C   UNL A   1      46.747  28.448  34.832  1.00  0.00     0.198 A 
ATOM     86  C   UNL A   1      45.335  26.752  35.778  1.00  0.00     0.198 A 
ATOM     87  F   UNL A   1      43.019  26.786  35.369  1.00  0.00    -0.203 F 
ATOM     88  F   UNL A   1      47.967  28.967  34.638  1.00  0.00    -0.200 F 
ATOM     89  C   UNL A   1      46.595  27.303  35.601  1.00  0.00     0.200 A 
ATOM     90  F   UNL A   1      45.183  25.656  36.536  1.00  0.00    -0.200 F 
ATOM     91  F   UNL A   1      47.663  26.730  36.170  1.00  0.00    -0.200 F 
ENDBRANCH  58  81
ENDBRANCH  32  33
ENDBRANCH  24  27
ENDBRANCH  22  23
ENDBRANCH  21  22
ENDBRANCH   1  21
TORSDOF 13
ENDMDL
MODEL 2
REMARK VINA RESULT:     -12.3      6.054     11.216
REMARK SMILES C[C@H]1Cc2cc(C(=O)[C@H](Br)CC(=O)NCCCNC(=O)c3ccc(-c4c5nc(c(-c6c(F)c(F)c(F)c(F)c6F)c6ccc([nH]6)c(-c6c(F)c(F)c(F)c(F)c6F)c6nc(c(-c7c(F)c(F)c(F)c(F)c7F)c7ccc4[nH]7)C=C6)C=C5)cc3)ccc2O1
REMARK SMILES IDX 15 1 14 2 12 3 13 4 11 6 9 7 10 8 7 9 8 10 6 11 1 12 2 13
REMARK SMILES IDX 3 14 87 15 4 16 86 17 5 18 85 19 84 20 16 21 17 22 18 23
REMARK SMILES IDX 19 24 20 26 21 27 22 28 83 29 23 30 82 31 24 32 25 33 26 34
REMARK SMILES IDX 76 35 27 36 81 37 75 38 77 39 28 40 80 41 74 42 73 43 29 45
REMARK SMILES IDX 61 46 41 47 60 48 42 49 45 50 59 51 78 52 43 53 44 54 58 56
REMARK SMILES IDX 79 57 46 58 30 59 31 60 39 61 32 62 33 63 37 64 40 65 34 66
REMARK SMILES IDX 35 67 38 68 36 69 62 70 63 71 71 72 64 73 65 74 69 75 72 76
REMARK SMILES IDX 66 77 67 78 70 79 68 80 47 81 48 82 56 83 49 84 50 85 54 86
REMARK SMILES IDX 57 87 51 88 52 89 55 90 53 91
REMARK H PARENT 14 5 18 25 77 44 45 55
REMARK Flexibility Score: inf
ROOT
ATOM      1  C   UNL A   1      36.891  20.640  25.018  1.00  0.00     0.117 C 
ENDROOT
BRANCH   1   2
ATOM      2  N   UNL A   1      37.264  21.852  25.737  1.00  0.00    -0.356 N 
ATOM      3  C   UNL A   1      36.728  23.101  25.664  1.00  0.00     0.221 C 
ATOM      4  O   UNL A   1      37.308  24.040  26.211  1.00  0.00    -0.275 OA
ATOM      5  H   UNL A   1      38.013  21.753  26.367  1.00  0.00     0.163 HD
BRANCH   3   6
ATOM      6  C   UNL A   1      35.407  23.306  24.977  1.00  0.00     0.123 C 
BRANCH   6   7
ATOM      7  C   UNL A   1      34.414  24.098  25.806  1.00  0.00     0.138 C 
ATOM      8  Br  UNL A   1      33.739  25.669  24.849  1.00  0.00    -0.080 Br
BRANCH   7   9
ATOM      9  C   UNL A   1      33.223  23.199  26.080  1.00  0.00     0.176 C 
ATOM     10  O   UNL A   1      32.399  23.429  26.966  1.00  0.00    -0.293 OA
BRANCH   9  11
ATOM     11  C   UNL A   1      32.962  22.052  25.160  1.00  0.00     0.019 A 
ATOM     12  C   UNL A   1      33.909  16.928  23.083  1.00  0.00     0.053 C 
ATOM     13  C   UNL A   1      32.748  17.642  23.763  1.00  0.00     0.174 C 
ATOM     14  C   UNL A   1      33.155  18.244  25.118  1.00  0.00     0.084 C 
ATOM     15  O   UNL A   1      32.272  18.689  22.875  1.00  0.00    -0.490 OA
ATOM     16  C   UNL A   1      32.968  19.679  24.834  1.00  0.00    -0.001 A 
ATOM     17  C   UNL A   1      32.464  19.853  23.561  1.00  0.00     0.123 A 
ATOM     18  C   UNL A   1      33.217  20.764  25.653  1.00  0.00     0.019 A 
ATOM     19  C   UNL A   1      32.191  21.105  23.050  1.00  0.00     0.047 A 
ATOM     20  C   UNL A   1      32.447  22.217  23.857  1.00  0.00     0.015 A 
ENDBRANCH   9  11
ENDBRANCH   7   9
ENDBRANCH   6   7
ENDBRANCH   3   6
ENDBRANCH   1   2
BRANCH   1  21
ATOM     21  C   UNL A   1      38.035  19.638  25.004  1.00  0.00     0.042 C 
BRANCH  21  22
ATOM     22  C   UNL A   1      39.255  20.134  25.762  1.00  0.00     0.118 C 
BRANCH  22  23
ATOM     23  N   UNL A   1      40.283  19.110  25.880  1.00  0.00    -0.352 N 
ATOM     24  C   UNL A   1      41.642  19.234  26.056  1.00  0.00     0.251 C 
ATOM     25  H   UNL A   1      39.955  18.184  25.824  1.00  0.00     0.163 HD
ATOM     26  O   UNL A   1      42.368  18.258  25.909  1.00  0.00    -0.269 OA
BRANCH  24  27
ATOM     27  C   UNL A   1      42.232  20.550  26.390  1.00  0.00     0.039 A 
ATOM     28  C   UNL A   1      42.297  20.990  27.711  1.00  0.00     0.014 A 
ATOM     29  C   UNL A   1      42.724  21.361  25.364  1.00  0.00     0.014 A 
ATOM     30  C   UNL A   1      42.639  22.309  27.983  1.00  0.00     0.010 A 
ATOM     31  C   UNL A   1      43.196  22.645  25.657  1.00  0.00     0.010 A 
ATOM     32  C   UNL A   1      43.104  23.152  26.962  1.00  0.00    -0.014 A 
BRANCH  32  33
ATOM     33  C   UNL A   1      43.494  24.549  27.292  1.00  0.00     0.031 A 
ATOM     34  C   UNL A   1      44.886  25.052  27.011  1.00  0.00     0.074 A 
ATOM     35  C   UNL A   1      42.569  25.388  27.800  1.00  0.00     0.049 A 
ATOM     36  N   UNL A   1      45.398  26.236  27.239  1.00  0.00    -0.248 NA
ATOM     37  C   UNL A   1      45.831  24.104  26.401  1.00  0.00     0.031 C 
ATOM     38  C   UNL A   1      41.183  25.024  28.104  1.00  0.00     0.029 A 
ATOM     39  N   UNL A   1      42.638  26.719  28.123  1.00  0.00    -0.354 N 
ATOM     40  C   UNL A   1      46.720  26.169  26.820  1.00  0.00     0.074 A 
ATOM     41  C   UNL A   1      46.948  24.817  26.358  1.00  0.00     0.031 C 
ATOM     42  C   UNL A   1      40.518  26.117  28.505  1.00  0.00     0.029 A 
ATOM     43  C   UNL A   1      41.446  27.239  28.568  1.00  0.00     0.049 A 
ATOM     44  H   UNL A   1      43.462  27.252  28.045  1.00  0.00     0.167 HD
ATOM     45  C   UNL A   1      47.653  27.151  26.804  1.00  0.00     0.037 A 
ATOM     46  C   UNL A   1      41.136  28.475  29.002  1.00  0.00     0.037 A 
ATOM     47  C   UNL A   1      47.412  28.504  27.236  1.00  0.00     0.049 A 
ATOM     48  C   UNL A   1      42.206  29.528  29.031  1.00  0.00     0.074 A 
ATOM     49  C   UNL A   1      48.288  29.576  27.237  1.00  0.00     0.029 A 
ATOM     50  N   UNL A   1      46.207  28.972  27.741  1.00  0.00    -0.354 N 
ATOM     51  N   UNL A   1      43.450  29.452  28.625  1.00  0.00    -0.248 NA
ATOM     52  C   UNL A   1      41.835  30.835  29.589  1.00  0.00     0.031 C 
ATOM     53  C   UNL A   1      47.632  30.677  27.791  1.00  0.00     0.029 A 
ATOM     54  C   UNL A   1      46.327  30.310  28.083  1.00  0.00     0.049 A 
ATOM     55  H   UNL A   1      45.389  28.434  27.840  1.00  0.00     0.167 HD
ATOM     56  C   UNL A   1      44.006  30.700  28.863  1.00  0.00     0.074 A 
ATOM     57  C   UNL A   1      42.958  31.523  29.429  1.00  0.00     0.031 C 
ATOM     58  C   UNL A   1      45.274  31.121  28.640  1.00  0.00     0.037 A 
BRANCH  45  59
ATOM     59  C   UNL A   1      49.029  26.812  26.306  1.00  0.00     0.064 A 
ATOM     60  C   UNL A   1      49.980  26.194  27.132  1.00  0.00     0.173 A 
ATOM     61  C   UNL A   1      49.374  27.033  24.964  1.00  0.00     0.173 A 
ATOM     62  F   UNL A   1      49.704  25.967  28.426  1.00  0.00    -0.203 F 
ATOM     63  C   UNL A   1      51.228  25.825  26.637  1.00  0.00     0.198 A 
ATOM     64  C   UNL A   1      50.612  26.634  24.464  1.00  0.00     0.198 A 
ATOM     65  F   UNL A   1      48.499  27.612  24.126  1.00  0.00    -0.203 F 
ATOM     66  F   UNL A   1      52.132  25.265  27.453  1.00  0.00    -0.200 F 
ATOM     67  C   UNL A   1      51.539  26.035  25.302  1.00  0.00     0.200 A 
ATOM     68  F   UNL A   1      50.903  26.822  23.169  1.00  0.00    -0.200 F 
ATOM     69  F   UNL A   1      52.734  25.659  24.823  1.00  0.00    -0.200 F 
ENDBRANCH  45  59
BRANCH  46  70
ATOM     70  C   UNL A   1      39.747  28.772  29.442  1.00  0.00     0.064 A 
ATOM     71  C   UNL A   1      38.796  29.268  28.540  1.00  0.00     0.173 A 
ATOM     72  C   UNL A   1      39.332  28.536  30.762  1.00  0.00     0.173 A 
ATOM     73  F   UNL A   1      39.149  29.528  27.271  1.00  0.00    -0.203 F 
ATOM     74  C   UNL A   1      37.487  29.520  28.941  1.00  0.00     0.198 A 
ATOM     75  C   UNL A   1      38.014  28.758  31.153  1.00  0.00     0.198 A 
ATOM     76  F   UNL A   1      40.202  28.059  31.664  1.00  0.00    -0.203 F 
ATOM     77  F   UNL A   1      36.606  30.026  28.066  1.00  0.00    -0.200 F 
ATOM     78  C   UNL A   1      37.094  29.255  30.244  1.00  0.00     0.200 A 
ATOM     79  F   UNL A   1      37.635  28.480  32.409  1.00  0.00    -0.200 F 
ATOM     80  F   UNL A   1      35.830  29.481  30.625  1.00  0.00    -0.200 F 
ENDBRANCH  46  70
BRANCH  58  81
ATOM     81  C   UNL A   1      45.608  32.541  28.991  1.00  0.00     0.064 A 
ATOM     82  C   UNL A   1      45.385  33.589  28.086  1.00  0.00     0.173 A 
ATOM     83  C   UNL A   1      46.077  32.867  30.273  1.00  0.00     0.173 A 
ATOM     84  F   UNL A   1      44.954  33.328  26.843  1.00  0.00    -0.203 F 
ATOM     85  C   UNL A   1      45.628  34.911  28.450  1.00  0.00     0.198 A 
ATOM     86  C   UNL A   1      46.287  34.192  30.643  1.00  0.00     0.198 A 
ATOM     87  F   UNL A   1      46.299  31.901  31.177  1.00  0.00    -0.203 F 
ATOM     88  F   UNL A   1      45.439  35.894  27.559  1.00  0.00    -0.200 F 
ATOM     89  C   UNL A   1      46.066  35.212  29.731  1.00  0.00     0.200 A 
ATOM     90  F   UNL A   1      46.693  34.482  31.888  1.00  0.00    -0.200 F 
ATOM     91  F   UNL A   1      46.277  36.487  30.086  1.00  0.00    -0.200 F 
ENDBRANCH  58  81
ENDBRANCH  32  33
ENDBRANCH  24  27
ENDBRANCH  22  23
ENDBRANCH  21  22
ENDBRANCH   1  21
TORSDOF 13
ENDMDL
MODEL 3
REMARK VINA RESULT:     -12.3      1.521      3.406
REMARK SMILES C[C@H]1Cc2cc(C(=O)[C@H](Br)CC(=O)NCCCNC(=O)c3ccc(-c4c5nc(c(-c6c(F)c(F)c(F)c(F)c6F)c6ccc([nH]6)c(-c6c(F)c(F)c(F)c(F)c6F)c6nc(c(-c7c(F)c(F)c(F)c(F)c7F)c7ccc4[nH]7)C=C6)C=C5)cc3)ccc2O1
REMARK SMILES IDX 15 1 14 2 12 3 13 4 11 6 9 7 10 8 7 9 8 10 6 11 1 12 2 13
REMARK SMILES IDX 3 14 87 15 4 16 86 17 5 18 85 19 84 20 16 21 17 22 18 23
REMARK SMILES IDX 19 24 20 26 21 27 22 28 83 29 23 30 82 31 24 32 25 33 26 34
REMARK SMILES IDX 76 35 27 36 81 37 75 38 77 39 28 40 80 41 74 42 73 43 29 45
REMARK SMILES IDX 61 46 41 47 60 48 42 49 45 50 59 51 78 52 43 53 44 54 58 56
REMARK SMILES IDX 79 57 46 58 30 59 31 60 39 61 32 62 33 63 37 64 40 65 34 66
REMARK SMILES IDX 35 67 38 68 36 69 62 70 63 71 71 72 64 73 65 74 69 75 72 76
REMARK SMILES IDX 66 77 67 78 70 79 68 80 47 81 48 82 56 83 49 84 50 85 54 86
REMARK SMILES IDX 57 87 51 88 52 89 55 90 53 91
REMARK H PARENT 14 5 18 25 77 44 45 55
REMARK Flexibility Score: inf
ROOT
ATOM      1  C   UNL A   1      31.581  30.775  26.215  1.00  0.00     0.117 C 
ENDROOT
BRANCH   1   2
ATOM      2  N   UNL A   1      32.874  30.291  26.682  1.00  0.00    -0.356 N 
ATOM      3  C   UNL A   1      33.674  29.320  26.163  1.00  0.00     0.221 C 
ATOM      4  O   UNL A   1      34.641  28.922  26.813  1.00  0.00    -0.275 OA
ATOM      5  H   UNL A   1      33.219  30.730  27.493  1.00  0.00     0.163 HD
BRANCH   3   6
ATOM      6  C   UNL A   1      33.406  28.796  24.780  1.00  0.00     0.123 C 
BRANCH   6   7
ATOM      7  C   UNL A   1      32.845  27.386  24.770  1.00  0.00     0.138 C 
ATOM      8  Br  UNL A   1      30.900  27.365  24.534  1.00  0.00    -0.080 Br
BRANCH   7   9
ATOM      9  C   UNL A   1      33.445  26.662  23.578  1.00  0.00     0.176 C 
ATOM     10  O   UNL A   1      33.691  27.221  22.508  1.00  0.00    -0.293 OA
BRANCH   9  11
ATOM     11  C   UNL A   1      33.874  25.242  23.742  1.00  0.00     0.019 A 
ATOM     12  C   UNL A   1      37.481  21.188  25.163  1.00  0.00     0.053 C 
ATOM     13  C   UNL A   1      36.086  21.620  25.595  1.00  0.00     0.174 C 
ATOM     14  C   UNL A   1      36.045  23.095  26.026  1.00  0.00     0.084 C 
ATOM     15  O   UNL A   1      35.175  21.399  24.484  1.00  0.00    -0.490 OA
ATOM     16  C   UNL A   1      35.145  23.645  24.994  1.00  0.00    -0.001 A 
ATOM     17  C   UNL A   1      34.690  22.636  24.169  1.00  0.00     0.123 A 
ATOM     18  C   UNL A   1      34.744  24.953  24.804  1.00  0.00     0.019 A 
ATOM     19  C   UNL A   1      33.826  22.884  23.124  1.00  0.00     0.047 A 
ATOM     20  C   UNL A   1      33.417  24.202  22.905  1.00  0.00     0.015 A 
ENDBRANCH   9  11
ENDBRANCH   7   9
ENDBRANCH   6   7
ENDBRANCH   3   6
ENDBRANCH   1   2
BRANCH   1  21
ATOM     21  C   UNL A   1      31.406  32.254  26.526  1.00  0.00     0.042 C 
BRANCH  21  22
ATOM     22  C   UNL A   1      32.605  32.845  27.249  1.00  0.00     0.118 C 
BRANCH  22  23
ATOM     23  N   UNL A   1      32.391  34.236  27.622  1.00  0.00    -0.352 N 
ATOM     24  C   UNL A   1      32.982  34.991  28.609  1.00  0.00     0.251 C 
ATOM     25  H   UNL A   1      31.719  34.712  27.082  1.00  0.00     0.163 HD
ATOM     26  O   UNL A   1      32.509  36.080  28.910  1.00  0.00    -0.269 OA
BRANCH  24  27
ATOM     27  C   UNL A   1      34.167  34.475  29.331  1.00  0.00     0.039 A 
ATOM     28  C   UNL A   1      35.446  34.605  28.792  1.00  0.00     0.014 A 
ATOM     29  C   UNL A   1      33.996  33.843  30.567  1.00  0.00     0.014 A 
ATOM     30  C   UNL A   1      36.510  33.920  29.365  1.00  0.00     0.010 A 
ATOM     31  C   UNL A   1      35.096  33.267  31.212  1.00  0.00     0.010 A 
ATOM     32  C   UNL A   1      36.353  33.251  30.589  1.00  0.00    -0.014 A 
BRANCH  32  33
ATOM     33  C   UNL A   1      37.521  32.554  31.193  1.00  0.00     0.031 A 
ATOM     34  C   UNL A   1      37.991  32.895  32.583  1.00  0.00     0.074 A 
ATOM     35  C   UNL A   1      38.128  31.569  30.503  1.00  0.00     0.049 A 
ATOM     36  N   UNL A   1      38.993  32.393  33.262  1.00  0.00    -0.248 NA
ATOM     37  C   UNL A   1      37.249  33.939  33.306  1.00  0.00     0.031 C 
ATOM     38  C   UNL A   1      37.757  31.136  29.154  1.00  0.00     0.029 A 
ATOM     39  N   UNL A   1      39.161  30.732  30.844  1.00  0.00    -0.354 N 
ATOM     40  C   UNL A   1      39.011  33.068  34.475  1.00  0.00     0.074 A 
ATOM     41  C   UNL A   1      37.945  34.045  34.430  1.00  0.00     0.031 C 
ATOM     42  C   UNL A   1      38.502  30.077  28.809  1.00  0.00     0.029 A 
ATOM     43  C   UNL A   1      39.461  29.806  29.873  1.00  0.00     0.049 A 
ATOM     44  H   UNL A   1      39.642  30.790  31.701  1.00  0.00     0.167 HD
ATOM     45  C   UNL A   1      39.829  32.877  35.537  1.00  0.00     0.037 A 
ATOM     46  C   UNL A   1      40.415  28.858  29.831  1.00  0.00     0.037 A 
ATOM     47  C   UNL A   1      40.870  31.882  35.589  1.00  0.00     0.049 A 
ATOM     48  C   UNL A   1      41.348  28.710  30.999  1.00  0.00     0.074 A 
ATOM     49  C   UNL A   1      41.737  31.598  36.630  1.00  0.00     0.029 A 
ATOM     50  N   UNL A   1      41.182  31.007  34.559  1.00  0.00    -0.354 N 
ATOM     51  N   UNL A   1      41.348  29.350  32.142  1.00  0.00    -0.248 NA
ATOM     52  C   UNL A   1      42.422  27.716  30.867  1.00  0.00     0.031 C 
ATOM     53  C   UNL A   1      42.607  30.589  36.212  1.00  0.00     0.029 A 
ATOM     54  C   UNL A   1      42.248  30.202  34.930  1.00  0.00     0.049 A 
ATOM     55  H   UNL A   1      40.716  30.964  33.693  1.00  0.00     0.167 HD
ATOM     56  C   UNL A   1      42.407  28.830  32.871  1.00  0.00     0.074 A 
ATOM     57  C   UNL A   1      43.015  27.803  32.050  1.00  0.00     0.031 C 
ATOM     58  C   UNL A   1      42.840  29.179  34.106  1.00  0.00     0.037 A 
BRANCH  45  59
ATOM     59  C   UNL A   1      39.646  33.758  36.740  1.00  0.00     0.064 A 
ATOM     60  C   UNL A   1      40.205  35.044  36.803  1.00  0.00     0.173 A 
ATOM     61  C   UNL A   1      38.833  33.345  37.807  1.00  0.00     0.173 A 
ATOM     62  F   UNL A   1      40.996  35.486  35.814  1.00  0.00    -0.203 F 
ATOM     63  C   UNL A   1      39.969  35.875  37.896  1.00  0.00     0.198 A 
ATOM     64  C   UNL A   1      38.575  34.190  38.884  1.00  0.00     0.198 A 
ATOM     65  F   UNL A   1      38.265  32.129  37.794  1.00  0.00    -0.203 F 
ATOM     66  F   UNL A   1      40.540  37.086  37.950  1.00  0.00    -0.200 F 
ATOM     67  C   UNL A   1      39.147  35.452  38.930  1.00  0.00     0.200 A 
ATOM     68  F   UNL A   1      37.765  33.786  39.872  1.00  0.00    -0.200 F 
ATOM     69  F   UNL A   1      38.905  36.262  39.970  1.00  0.00    -0.200 F 
ENDBRANCH  45  59
BRANCH  46  70
ATOM     70  C   UNL A   1      40.527  27.981  28.636  1.00  0.00     0.064 A 
ATOM     71  C   UNL A   1      39.849  26.756  28.576  1.00  0.00     0.173 A 
ATOM     72  C   UNL A   1      41.284  28.362  27.517  1.00  0.00     0.173 A 
ATOM     73  F   UNL A   1      39.128  26.338  29.627  1.00  0.00    -0.203 F 
ATOM     74  C   UNL A   1      39.928  25.945  27.446  1.00  0.00     0.198 A 
ATOM     75  C   UNL A   1      41.335  27.566  26.376  1.00  0.00     0.198 A 
ATOM     76  F   UNL A   1      41.950  29.527  27.522  1.00  0.00    -0.203 F 
ATOM     77  F   UNL A   1      39.297  24.762  27.429  1.00  0.00    -0.200 F 
ATOM     78  C   UNL A   1      40.662  26.355  26.344  1.00  0.00     0.200 A 
ATOM     79  F   UNL A   1      42.029  27.977  25.306  1.00  0.00    -0.200 F 
ATOM     80  F   UNL A   1      40.723  25.582  25.251  1.00  0.00    -0.200 F 
ENDBRANCH  46  70
BRANCH  58  81
ATOM     81  C   UNL A   1      44.021  28.440  34.665  1.00  0.00     0.064 A 
ATOM     82  C   UNL A   1      43.865  27.230  35.356  1.00  0.00     0.173 A 
ATOM     83  C   UNL A   1      45.325  28.903  34.433  1.00  0.00     0.173 A 
ATOM     84  F   UNL A   1      42.638  26.754  35.617  1.00  0.00    -0.203 F 
ATOM     85  C   UNL A   1      44.973  26.515  35.804  1.00  0.00     0.198 A 
ATOM     86  C   UNL A   1      46.431  28.169  34.853  1.00  0.00     0.198 A 
ATOM     87  F   UNL A   1      45.527  30.051  33.770  1.00  0.00    -0.203 F 
ATOM     88  F   UNL A   1      44.801  25.378  36.491  1.00  0.00    -0.200 F 
ATOM     89  C   UNL A   1      46.254  26.978  35.541  1.00  0.00     0.200 A 
ATOM     90  F   UNL A   1      47.668  28.610  34.582  1.00  0.00    -0.200 F 
ATOM     91  F   UNL A   1      47.319  26.277  35.953  1.00  0.00    -0.200 F 
ENDBRANCH  58  81
ENDBRANCH  32  33
ENDBRANCH  24  27
ENDBRANCH  22  23
ENDBRANCH  21  22
ENDBRANCH   1  21
TORSDOF 13
ENDMDL
