MODEL 1
REMARK VINA RESULT:     -10.7      0.000      0.000
REMARK SMILES O=C(Cc1ccccc1Cl)Nc1ccc(C(=O)NCCCNC(=O)c2ccc(-c3c4nc(c(-c5c(F)c(F)c(F)c(F)c5F)c5ccc([nH]5)c(-c5c(F)c(F)c(F)c(F)c5F)c5nc(c(-c6c(F)c(F)c(F)c(F)c6F)c6ccc3[nH]6)C=C5)C=C4)cc2)cc1
REMARK SMILES IDX 19 1 18 2 16 3 17 4 15 6 12 7 13 8 89 9 14 10 88 11 11 12
REMARK SMILES IDX 1 13 2 14 3 16 4 17 5 18 9 19 6 20 8 21 10 22 7 23 20 24
REMARK SMILES IDX 21 25 22 26 23 27 24 29 25 30 26 31 87 32 27 33 86 34 28 35
REMARK SMILES IDX 29 36 30 37 80 38 31 39 85 40 79 41 81 42 32 43 84 44 78 45
REMARK SMILES IDX 77 46 33 48 65 49 45 50 64 51 46 52 49 53 63 54 82 55 47 56
REMARK SMILES IDX 48 57 62 59 83 60 50 61 34 62 35 63 43 64 36 65 37 66 41 67
REMARK SMILES IDX 44 68 38 69 39 70 42 71 40 72 66 73 67 74 75 75 68 76 69 77
REMARK SMILES IDX 73 78 76 79 70 80 71 81 74 82 72 83 51 84 52 85 60 86 53 87
REMARK SMILES IDX 54 88 58 89 61 90 55 91 56 92 59 93 57 94
REMARK H PARENT 18 5 11 15 22 28 81 47 49 58
REMARK Flexibility Score: inf
ROOT
ATOM      1  C   UNL A   1      42.797  23.242  26.118  1.00  0.00     0.118 C 
ENDROOT
BRANCH   1   2
ATOM      2  N   UNL A   1      43.923  23.254  25.198  1.00  0.00    -0.352 N 
ATOM      3  C   UNL A   1      44.853  24.220  24.900  1.00  0.00     0.251 C 
ATOM      4  O   UNL A   1      45.757  23.929  24.119  1.00  0.00    -0.269 OA
ATOM      5  H   UNL A   1      44.040  22.415  24.695  1.00  0.00     0.163 HD
BRANCH   3   6
ATOM      6  C   UNL A   1      44.843  25.571  25.524  1.00  0.00     0.039 A 
ATOM      7  C   UNL A   1      44.781  28.210  26.521  1.00  0.00     0.041 A 
ATOM      8  C   UNL A   1      43.751  27.742  25.702  1.00  0.00     0.027 A 
ATOM      9  C   UNL A   1      45.786  27.324  26.910  1.00  0.00     0.027 A 
ATOM     10  C   UNL A   1      43.790  26.436  25.194  1.00  0.00     0.016 A 
ATOM     11  C   UNL A   1      45.800  26.008  26.439  1.00  0.00     0.016 A 
BRANCH   7  12
ATOM     12  N   UNL A   1      44.743  29.552  26.950  1.00  0.00    -0.326 N 
ATOM     13  O   UNL A   1      46.300  30.490  25.504  1.00  0.00    -0.274 OA
ATOM     14  C   UNL A   1      45.549  30.576  26.476  1.00  0.00     0.228 C 
ATOM     15  H   UNL A   1      44.087  29.783  27.646  1.00  0.00     0.169 HD
BRANCH  14  16
ATOM     16  C   UNL A   1      45.557  31.837  27.321  1.00  0.00     0.137 C 
BRANCH  16  17
ATOM     17  C   UNL A   1      44.680  32.970  26.842  1.00  0.00    -0.020 A 
ATOM     18  C   UNL A   1      44.394  33.071  25.469  1.00  0.00     0.006 A 
ATOM     19  C   UNL A   1      44.134  33.927  27.714  1.00  0.00     0.044 A 
ATOM     20  C   UNL A   1      43.577  34.092  24.982  1.00  0.00     0.000 A 
ATOM     21  C   UNL A   1      43.308  34.942  27.223  1.00  0.00     0.021 A 
ATOM     22  Cl  UNL A   1      44.445  33.894  29.411  1.00  0.00    -0.084 Cl
ATOM     23  C   UNL A   1      43.030  35.023  25.860  1.00  0.00     0.002 A 
ENDBRANCH  16  17
ENDBRANCH  14  16
ENDBRANCH   7  12
ENDBRANCH   3   6
ENDBRANCH   1   2
BRANCH   1  24
ATOM     24  C   UNL A   1      42.055  21.906  26.068  1.00  0.00     0.042 C 
BRANCH  24  25
ATOM     25  C   UNL A   1      40.775  21.891  26.899  1.00  0.00     0.118 C 
BRANCH  25  26
ATOM     26  N   UNL A   1      39.609  22.264  26.114  1.00  0.00    -0.352 N 
ATOM     27  C   UNL A   1      38.851  23.407  26.148  1.00  0.00     0.251 C 
ATOM     28  H   UNL A   1      39.317  21.591  25.457  1.00  0.00     0.163 HD
ATOM     29  O   UNL A   1      37.784  23.445  25.542  1.00  0.00    -0.269 OA
BRANCH  27  30
ATOM     30  C   UNL A   1      39.296  24.591  26.916  1.00  0.00     0.039 A 
ATOM     31  C   UNL A   1      40.054  25.567  26.260  1.00  0.00     0.014 A 
ATOM     32  C   UNL A   1      39.023  24.723  28.281  1.00  0.00     0.014 A 
ATOM     33  C   UNL A   1      40.496  26.694  26.958  1.00  0.00     0.010 A 
ATOM     34  C   UNL A   1      39.410  25.877  28.961  1.00  0.00     0.010 A 
ATOM     35  C   UNL A   1      40.155  26.870  28.308  1.00  0.00    -0.014 A 
BRANCH  35  36
ATOM     36  C   UNL A   1      40.570  28.087  29.051  1.00  0.00     0.031 A 
ATOM     37  C   UNL A   1      41.959  28.195  29.615  1.00  0.00     0.074 A 
ATOM     38  C   UNL A   1      39.673  29.065  29.274  1.00  0.00     0.049 A 
ATOM     39  N   UNL A   1      42.482  29.140  30.354  1.00  0.00    -0.248 NA
ATOM     40  C   UNL A   1      42.874  27.080  29.329  1.00  0.00     0.031 C 
ATOM     41  C   UNL A   1      38.284  29.057  28.817  1.00  0.00     0.029 A 
ATOM     42  N   UNL A   1      39.793  30.251  29.956  1.00  0.00    -0.354 N 
ATOM     43  C   UNL A   1      43.777  28.725  30.638  1.00  0.00     0.074 A 
ATOM     44  C   UNL A   1      43.947  27.425  30.027  1.00  0.00     0.031 C 
ATOM     45  C   UNL A   1      37.683  30.188  29.217  1.00  0.00     0.029 A 
ATOM     46  C   UNL A   1      38.633  30.985  29.987  1.00  0.00     0.049 A 
ATOM     47  H   UNL A   1      40.629  30.547  30.381  1.00  0.00     0.167 HD
ATOM     48  C   UNL A   1      44.740  29.380  31.330  1.00  0.00     0.037 A 
ATOM     49  C   UNL A   1      38.364  32.164  30.579  1.00  0.00     0.037 A 
ATOM     50  C   UNL A   1      44.576  30.686  31.912  1.00  0.00     0.049 A 
ATOM     51  C   UNL A   1      39.453  32.874  31.334  1.00  0.00     0.074 A 
ATOM     52  C   UNL A   1      45.512  31.461  32.575  1.00  0.00     0.029 A 
ATOM     53  N   UNL A   1      43.393  31.411  31.903  1.00  0.00    -0.354 N 
ATOM     54  N   UNL A   1      40.692  32.503  31.541  1.00  0.00    -0.248 NA
ATOM     55  C   UNL A   1      39.106  34.171  31.932  1.00  0.00     0.031 C 
ATOM     56  C   UNL A   1      44.884  32.637  33.001  1.00  0.00     0.029 A 
ATOM     57  C   UNL A   1      43.569  32.615  32.566  1.00  0.00     0.049 A 
ATOM     58  H   UNL A   1      42.552  31.114  31.486  1.00  0.00     0.167 HD
ATOM     59  C   UNL A   1      41.280  33.527  32.271  1.00  0.00     0.074 A 
ATOM     60  C   UNL A   1      40.264  34.542  32.459  1.00  0.00     0.031 C 
ATOM     61  C   UNL A   1      42.549  33.617  32.741  1.00  0.00     0.037 A 
BRANCH  48  62
ATOM     62  C   UNL A   1      46.063  28.689  31.496  1.00  0.00     0.064 A 
ATOM     63  C   UNL A   1      46.347  27.901  32.621  1.00  0.00     0.173 A 
ATOM     64  C   UNL A   1      47.049  28.790  30.501  1.00  0.00     0.173 A 
ATOM     65  F   UNL A   1      45.443  27.779  33.605  1.00  0.00    -0.203 F 
ATOM     66  C   UNL A   1      47.579  27.267  32.761  1.00  0.00     0.198 A 
ATOM     67  C   UNL A   1      48.268  28.132  30.631  1.00  0.00     0.198 A 
ATOM     68  F   UNL A   1      46.827  29.526  29.401  1.00  0.00    -0.203 F 
ATOM     69  F   UNL A   1      47.846  26.561  33.869  1.00  0.00    -0.200 F 
ATOM     70  C   UNL A   1      48.536  27.378  31.764  1.00  0.00     0.200 A 
ATOM     71  F   UNL A   1      49.187  28.230  29.661  1.00  0.00    -0.200 F 
ATOM     72  F   UNL A   1      49.720  26.765  31.898  1.00  0.00    -0.200 F 
ENDBRANCH  48  62
BRANCH  49  73
ATOM     73  C   UNL A   1      37.008  32.757  30.453  1.00  0.00     0.064 A 
ATOM     74  C   UNL A   1      36.050  32.578  31.460  1.00  0.00     0.173 A 
ATOM     75  C   UNL A   1      36.647  33.525  29.337  1.00  0.00     0.173 A 
ATOM     76  F   UNL A   1      36.344  31.834  32.538  1.00  0.00    -0.203 F 
ATOM     77  C   UNL A   1      34.777  33.134  31.351  1.00  0.00     0.198 A 
ATOM     78  C   UNL A   1      35.383  34.102  29.240  1.00  0.00     0.198 A 
ATOM     79  F   UNL A   1      37.530  33.729  28.348  1.00  0.00    -0.203 F 
ATOM     80  F   UNL A   1      33.869  32.917  32.312  1.00  0.00    -0.200 F 
ATOM     81  C   UNL A   1      34.448  33.901  30.244  1.00  0.00     0.200 A 
ATOM     82  F   UNL A   1      35.071  34.853  28.175  1.00  0.00    -0.200 F 
ATOM     83  F   UNL A   1      33.226  34.443  30.142  1.00  0.00    -0.200 F 
ENDBRANCH  49  73
BRANCH  61  84
ATOM     84  C   UNL A   1      42.919  34.868  33.481  1.00  0.00     0.064 A 
ATOM     85  C   UNL A   1      43.282  36.041  32.804  1.00  0.00     0.173 A 
ATOM     86  C   UNL A   1      42.873  34.903  34.882  1.00  0.00     0.173 A 
ATOM     87  F   UNL A   1      43.356  36.053  31.464  1.00  0.00    -0.203 F 
ATOM     88  C   UNL A   1      43.607  37.199  33.506  1.00  0.00     0.198 A 
ATOM     89  C   UNL A   1      43.172  36.071  35.579  1.00  0.00     0.198 A 
ATOM     90  F   UNL A   1      42.527  33.808  35.576  1.00  0.00    -0.203 F 
ATOM     91  F   UNL A   1      43.993  38.297  32.841  1.00  0.00    -0.200 F 
ATOM     92  C   UNL A   1      43.545  37.215  34.891  1.00  0.00     0.200 A 
ATOM     93  F   UNL A   1      43.101  36.087  36.918  1.00  0.00    -0.200 F 
ATOM     94  F   UNL A   1      43.852  38.332  35.565  1.00  0.00    -0.200 F 
ENDBRANCH  61  84
ENDBRANCH  35  36
ENDBRANCH  27  30
ENDBRANCH  25  26
ENDBRANCH  24  25
ENDBRANCH   1  24
TORSDOF 13
ENDMDL
MODEL 2
REMARK VINA RESULT:     -10.6      4.323     10.346
REMARK SMILES O=C(Cc1ccccc1Cl)Nc1ccc(C(=O)NCCCNC(=O)c2ccc(-c3c4nc(c(-c5c(F)c(F)c(F)c(F)c5F)c5ccc([nH]5)c(-c5c(F)c(F)c(F)c(F)c5F)c5nc(c(-c6c(F)c(F)c(F)c(F)c6F)c6ccc3[nH]6)C=C5)C=C4)cc2)cc1
REMARK SMILES IDX 19 1 18 2 16 3 17 4 15 6 12 7 13 8 89 9 14 10 88 11 11 12
REMARK SMILES IDX 1 13 2 14 3 16 4 17 5 18 9 19 6 20 8 21 10 22 7 23 20 24
REMARK SMILES IDX 21 25 22 26 23 27 24 29 25 30 26 31 87 32 27 33 86 34 28 35
REMARK SMILES IDX 29 36 30 37 80 38 31 39 85 40 79 41 81 42 32 43 84 44 78 45
REMARK SMILES IDX 77 46 33 48 65 49 45 50 64 51 46 52 49 53 63 54 82 55 47 56
REMARK SMILES IDX 48 57 62 59 83 60 50 61 34 62 35 63 43 64 36 65 37 66 41 67
REMARK SMILES IDX 44 68 38 69 39 70 42 71 40 72 66 73 67 74 75 75 68 76 69 77
REMARK SMILES IDX 73 78 76 79 70 80 71 81 74 82 72 83 51 84 52 85 60 86 53 87
REMARK SMILES IDX 54 88 58 89 61 90 55 91 56 92 59 93 57 94
REMARK H PARENT 18 5 11 15 22 28 81 47 49 58
REMARK Flexibility Score: inf
ROOT
ATOM      1  C   UNL A   1      36.657  20.551  24.888  1.00  0.00     0.118 C 
ENDROOT
BRANCH   1   2
ATOM      2  N   UNL A   1      35.396  19.875  25.148  1.00  0.00    -0.352 N 
ATOM      3  C   UNL A   1      34.092  20.287  25.019  1.00  0.00     0.251 C 
ATOM      4  O   UNL A   1      33.203  19.467  25.245  1.00  0.00    -0.269 OA
ATOM      5  H   UNL A   1      35.495  18.953  25.477  1.00  0.00     0.163 HD
BRANCH   3   6
ATOM      6  C   UNL A   1      33.716  21.653  24.564  1.00  0.00     0.039 A 
ATOM      7  C   UNL A   1      32.934  24.280  23.892  1.00  0.00     0.041 A 
ATOM      8  C   UNL A   1      33.669  24.039  25.056  1.00  0.00     0.027 A 
ATOM      9  C   UNL A   1      32.678  23.216  23.027  1.00  0.00     0.027 A 
ATOM     10  C   UNL A   1      34.043  22.733  25.397  1.00  0.00     0.016 A 
ATOM     11  C   UNL A   1      33.092  21.919  23.347  1.00  0.00     0.016 A 
BRANCH   7  12
ATOM     12  N   UNL A   1      32.512  25.597  23.622  1.00  0.00    -0.326 N 
ATOM     13  O   UNL A   1      33.936  26.134  21.868  1.00  0.00    -0.274 OA
ATOM     14  C   UNL A   1      33.083  26.456  22.696  1.00  0.00     0.228 C 
ATOM     15  H   UNL A   1      31.745  25.937  24.136  1.00  0.00     0.169 HD
BRANCH  14  16
ATOM     16  C   UNL A   1      32.678  27.914  22.829  1.00  0.00     0.137 C 
BRANCH  16  17
ATOM     17  C   UNL A   1      32.722  28.497  24.222  1.00  0.00    -0.020 A 
ATOM     18  C   UNL A   1      33.846  28.240  25.029  1.00  0.00     0.006 A 
ATOM     19  C   UNL A   1      31.687  29.290  24.744  1.00  0.00     0.044 A 
ATOM     20  C   UNL A   1      33.937  28.769  26.315  1.00  0.00     0.000 A 
ATOM     21  C   UNL A   1      31.787  29.826  26.031  1.00  0.00     0.021 A 
ATOM     22  Cl  UNL A   1      30.263  29.642  23.835  1.00  0.00    -0.084 Cl
ATOM     23  C   UNL A   1      32.911  29.567  26.814  1.00  0.00     0.002 A 
ENDBRANCH  16  17
ENDBRANCH  14  16
ENDBRANCH   7  12
ENDBRANCH   3   6
ENDBRANCH   1   2
BRANCH   1  24
ATOM     24  C   UNL A   1      37.835  19.582  24.988  1.00  0.00     0.042 C 
BRANCH  24  25
ATOM     25  C   UNL A   1      39.029  20.155  25.746  1.00  0.00     0.118 C 
BRANCH  25  26
ATOM     26  N   UNL A   1      40.131  19.209  25.826  1.00  0.00    -0.352 N 
ATOM     27  C   UNL A   1      41.465  19.427  26.062  1.00  0.00     0.251 C 
ATOM     28  H   UNL A   1      39.881  18.266  25.689  1.00  0.00     0.163 HD
ATOM     29  O   UNL A   1      42.267  18.513  25.891  1.00  0.00    -0.269 OA
BRANCH  27  30
ATOM     30  C   UNL A   1      41.952  20.751  26.507  1.00  0.00     0.039 A 
ATOM     31  C   UNL A   1      42.295  21.699  25.536  1.00  0.00     0.014 A 
ATOM     32  C   UNL A   1      42.127  21.050  27.861  1.00  0.00     0.014 A 
ATOM     33  C   UNL A   1      42.764  22.957  25.921  1.00  0.00     0.010 A 
ATOM     34  C   UNL A   1      42.535  22.326  28.247  1.00  0.00     0.010 A 
ATOM     35  C   UNL A   1      42.864  23.289  27.281  1.00  0.00    -0.014 A 
BRANCH  35  36
ATOM     36  C   UNL A   1      43.309  24.639  27.710  1.00  0.00     0.031 A 
ATOM     37  C   UNL A   1      42.299  25.696  28.058  1.00  0.00     0.074 A 
ATOM     38  C   UNL A   1      44.623  24.931  27.722  1.00  0.00     0.049 A 
ATOM     39  N   UNL A   1      42.489  26.950  28.380  1.00  0.00    -0.248 NA
ATOM     40  C   UNL A   1      40.884  25.295  28.014  1.00  0.00     0.031 C 
ATOM     41  C   UNL A   1      45.696  24.005  27.364  1.00  0.00     0.029 A 
ATOM     42  N   UNL A   1      45.278  26.096  28.035  1.00  0.00    -0.354 N 
ATOM     43  C   UNL A   1      41.222  27.492  28.557  1.00  0.00     0.074 A 
ATOM     44  C   UNL A   1      40.270  26.442  28.266  1.00  0.00     0.031 C 
ATOM     45  C   UNL A   1      46.877  24.631  27.490  1.00  0.00     0.029 A 
ATOM     46  C   UNL A   1      46.642  26.011  27.905  1.00  0.00     0.049 A 
ATOM     47  H   UNL A   1      44.814  26.915  28.325  1.00  0.00     0.167 HD
ATOM     48  C   UNL A   1      40.887  28.746  28.945  1.00  0.00     0.037 A 
ATOM     49  C   UNL A   1      47.595  26.944  28.090  1.00  0.00     0.037 A 
ATOM     50  C   UNL A   1      41.838  29.779  29.261  1.00  0.00     0.049 A 
ATOM     51  C   UNL A   1      47.197  28.326  28.528  1.00  0.00     0.074 A 
ATOM     52  C   UNL A   1      41.599  31.060  29.727  1.00  0.00     0.029 A 
ATOM     53  N   UNL A   1      43.214  29.648  29.140  1.00  0.00    -0.354 N 
ATOM     54  N   UNL A   1      46.000  28.808  28.755  1.00  0.00    -0.248 NA
ATOM     55  C   UNL A   1      48.284  29.291  28.742  1.00  0.00     0.031 C 
ATOM     56  C   UNL A   1      42.829  31.718  29.849  1.00  0.00     0.029 A 
ATOM     57  C   UNL A   1      43.836  30.833  29.504  1.00  0.00     0.049 A 
ATOM     58  H   UNL A   1      43.680  28.834  28.842  1.00  0.00     0.167 HD
ATOM     59  C   UNL A   1      46.189  30.122  29.161  1.00  0.00     0.074 A 
ATOM     60  C   UNL A   1      47.618  30.357  29.161  1.00  0.00     0.031 C 
ATOM     61  C   UNL A   1      45.261  31.049  29.503  1.00  0.00     0.037 A 
BRANCH  48  62
ATOM     62  C   UNL A   1      39.424  29.070  29.049  1.00  0.00     0.064 A 
ATOM     63  C   UNL A   1      38.743  29.019  30.275  1.00  0.00     0.173 A 
ATOM     64  C   UNL A   1      38.700  29.466  27.914  1.00  0.00     0.173 A 
ATOM     65  F   UNL A   1      39.387  28.637  31.389  1.00  0.00    -0.203 F 
ATOM     66  C   UNL A   1      37.387  29.320  30.354  1.00  0.00     0.198 A 
ATOM     67  C   UNL A   1      37.351  29.794  28.002  1.00  0.00     0.198 A 
ATOM     68  F   UNL A   1      39.304  29.538  26.717  1.00  0.00    -0.203 F 
ATOM     69  F   UNL A   1      36.746  29.216  31.528  1.00  0.00    -0.200 F 
ATOM     70  C   UNL A   1      36.692  29.714  29.221  1.00  0.00     0.200 A 
ATOM     71  F   UNL A   1      36.685  30.186  26.907  1.00  0.00    -0.200 F 
ATOM     72  F   UNL A   1      35.387  30.007  29.299  1.00  0.00    -0.200 F 
ENDBRANCH  48  62
BRANCH  49  73
ATOM     73  C   UNL A   1      49.022  26.587  27.886  1.00  0.00     0.064 A 
ATOM     74  C   UNL A   1      49.852  26.299  28.978  1.00  0.00     0.173 A 
ATOM     75  C   UNL A   1      49.580  26.511  26.602  1.00  0.00     0.173 A 
ATOM     76  F   UNL A   1      49.367  26.378  30.226  1.00  0.00    -0.203 F 
ATOM     77  C   UNL A   1      51.191  25.959  28.795  1.00  0.00     0.198 A 
ATOM     78  C   UNL A   1      50.912  26.147  26.418  1.00  0.00     0.198 A 
ATOM     79  F   UNL A   1      48.825  26.774  25.525  1.00  0.00    -0.203 F 
ATOM     80  F   UNL A   1      51.971  25.723  29.858  1.00  0.00    -0.200 F 
ATOM     81  C   UNL A   1      51.718  25.877  27.514  1.00  0.00     0.200 A 
ATOM     82  F   UNL A   1      51.416  26.056  25.179  1.00  0.00    -0.200 F 
ATOM     83  F   UNL A   1      53.003  25.543  27.337  1.00  0.00    -0.200 F 
ENDBRANCH  49  73
BRANCH  61  84
ATOM     84  C   UNL A   1      45.762  32.395  29.934  1.00  0.00     0.064 A 
ATOM     85  C   UNL A   1      46.090  32.664  31.270  1.00  0.00     0.173 A 
ATOM     86  C   UNL A   1      45.952  33.417  28.991  1.00  0.00     0.173 A 
ATOM     87  F   UNL A   1      45.909  31.724  32.212  1.00  0.00    -0.203 F 
ATOM     88  C   UNL A   1      46.569  33.914  31.651  1.00  0.00     0.198 A 
ATOM     89  C   UNL A   1      46.457  34.657  29.372  1.00  0.00     0.198 A 
ATOM     90  F   UNL A   1      45.657  33.208  27.699  1.00  0.00    -0.203 F 
ATOM     91  F   UNL A   1      46.835  34.163  32.942  1.00  0.00    -0.200 F 
ATOM     92  C   UNL A   1      46.759  34.906  30.702  1.00  0.00     0.200 A 
ATOM     93  F   UNL A   1      46.651  35.611  28.450  1.00  0.00    -0.200 F 
ATOM     94  F   UNL A   1      47.227  36.107  31.069  1.00  0.00    -0.200 F 
ENDBRANCH  61  84
ENDBRANCH  35  36
ENDBRANCH  27  30
ENDBRANCH  25  26
ENDBRANCH  24  25
ENDBRANCH   1  24
TORSDOF 13
ENDMDL
MODEL 3
REMARK VINA RESULT:     -10.6      5.258     10.231
REMARK SMILES O=C(Cc1ccccc1Cl)Nc1ccc(C(=O)NCCCNC(=O)c2ccc(-c3c4nc(c(-c5c(F)c(F)c(F)c(F)c5F)c5ccc([nH]5)c(-c5c(F)c(F)c(F)c(F)c5F)c5nc(c(-c6c(F)c(F)c(F)c(F)c6F)c6ccc3[nH]6)C=C5)C=C4)cc2)cc1
REMARK SMILES IDX 19 1 18 2 16 3 17 4 15 6 12 7 13 8 89 9 14 10 88 11 11 12
REMARK SMILES IDX 1 13 2 14 3 16 4 17 5 18 9 19 6 20 8 21 10 22 7 23 20 24
REMARK SMILES IDX 21 25 22 26 23 27 24 29 25 30 26 31 87 32 27 33 86 34 28 35
REMARK SMILES IDX 29 36 30 37 80 38 31 39 85 40 79 41 81 42 32 43 84 44 78 45
REMARK SMILES IDX 77 46 33 48 65 49 45 50 64 51 46 52 49 53 63 54 82 55 47 56
REMARK SMILES IDX 48 57 62 59 83 60 50 61 34 62 35 63 43 64 36 65 37 66 41 67
REMARK SMILES IDX 44 68 38 69 39 70 42 71 40 72 66 73 67 74 75 75 68 76 69 77
REMARK SMILES IDX 73 78 76 79 70 80 71 81 74 82 72 83 51 84 52 85 60 86 53 87
REMARK SMILES IDX 54 88 58 89 61 90 55 91 56 92 59 93 57 94
REMARK H PARENT 18 5 11 15 22 28 81 47 49 58
REMARK Flexibility Score: inf
ROOT
ATOM      1  C   UNL A   1      31.401  30.520  25.900  1.00  0.00     0.118 C 
ENDROOT
BRANCH   1   2
ATOM      2  N   UNL A   1      30.889  30.434  24.541  1.00  0.00    -0.352 N 
ATOM      3  C   UNL A   1      30.645  29.360  23.720  1.00  0.00     0.251 C 
ATOM      4  O   UNL A   1      30.133  29.577  22.623  1.00  0.00    -0.269 OA
ATOM      5  H   UNL A   1      30.680  31.306  24.135  1.00  0.00     0.163 HD
BRANCH   3   6
ATOM      6  C   UNL A   1      30.917  27.954  24.125  1.00  0.00     0.039 A 
ATOM      7  C   UNL A   1      31.593  25.289  24.762  1.00  0.00     0.041 A 
ATOM      8  C   UNL A   1      32.578  26.279  24.737  1.00  0.00     0.027 A 
ATOM      9  C   UNL A   1      30.263  25.659  24.560  1.00  0.00     0.027 A 
ATOM     10  C   UNL A   1      32.244  27.600  24.405  1.00  0.00     0.016 A 
ATOM     11  C   UNL A   1      29.926  26.986  24.273  1.00  0.00     0.016 A 
BRANCH   7  12
ATOM     12  N   UNL A   1      31.980  23.961  25.026  1.00  0.00    -0.326 N 
ATOM     13  O   UNL A   1      31.575  23.860  27.311  1.00  0.00    -0.274 OA
ATOM     14  C   UNL A   1      32.021  23.363  26.276  1.00  0.00     0.228 C 
ATOM     15  H   UNL A   1      32.244  23.408  24.256  1.00  0.00     0.169 HD
BRANCH  14  16
ATOM     16  C   UNL A   1      32.787  22.053  26.343  1.00  0.00     0.137 C 
BRANCH  16  17
ATOM     17  C   UNL A   1      34.255  22.116  25.993  1.00  0.00    -0.020 A 
ATOM     18  C   UNL A   1      35.004  23.232  26.411  1.00  0.00     0.006 A 
ATOM     19  C   UNL A   1      34.906  21.103  25.270  1.00  0.00     0.044 A 
ATOM     20  C   UNL A   1      36.365  23.327  26.124  1.00  0.00     0.000 A 
ATOM     21  C   UNL A   1      36.273  21.198  24.994  1.00  0.00     0.021 A 
ATOM     22  Cl  UNL A   1      34.065  19.707  24.702  1.00  0.00    -0.084 Cl
ATOM     23  C   UNL A   1      37.001  22.307  25.421  1.00  0.00     0.002 A 
ENDBRANCH  16  17
ENDBRANCH  14  16
ENDBRANCH   7  12
ENDBRANCH   3   6
ENDBRANCH   1   2
BRANCH   1  24
ATOM     24  C   UNL A   1      31.251  31.934  26.460  1.00  0.00     0.042 C 
BRANCH  24  25
ATOM     25  C   UNL A   1      32.532  32.479  27.084  1.00  0.00     0.118 C 
BRANCH  25  26
ATOM     26  N   UNL A   1      32.401  33.874  27.473  1.00  0.00    -0.352 N 
ATOM     27  C   UNL A   1      33.061  34.586  28.443  1.00  0.00     0.251 C 
ATOM     28  H   UNL A   1      31.734  34.388  26.962  1.00  0.00     0.163 HD
ATOM     29  O   UNL A   1      32.663  35.706  28.749  1.00  0.00    -0.269 OA
BRANCH  27  30
ATOM     30  C   UNL A   1      34.239  34.016  29.134  1.00  0.00     0.039 A 
ATOM     31  C   UNL A   1      34.028  33.121  30.189  1.00  0.00     0.014 A 
ATOM     32  C   UNL A   1      35.541  34.394  28.793  1.00  0.00     0.014 A 
ATOM     33  C   UNL A   1      35.118  32.571  30.867  1.00  0.00     0.010 A 
ATOM     34  C   UNL A   1      36.629  33.797  29.427  1.00  0.00     0.010 A 
ATOM     35  C   UNL A   1      36.428  32.885  30.474  1.00  0.00    -0.014 A 
BRANCH  35  36
ATOM     36  C   UNL A   1      37.600  32.267  31.147  1.00  0.00     0.031 A 
ATOM     37  C   UNL A   1      38.345  31.141  30.489  1.00  0.00     0.074 A 
ATOM     38  C   UNL A   1      37.949  32.680  32.380  1.00  0.00     0.049 A 
ATOM     39  N   UNL A   1      39.341  30.426  30.949  1.00  0.00    -0.248 NA
ATOM     40  C   UNL A   1      37.895  30.749  29.145  1.00  0.00     0.031 C 
ATOM     41  C   UNL A   1      37.277  33.733  33.139  1.00  0.00     0.029 A 
ATOM     42  N   UNL A   1      38.949  32.251  33.217  1.00  0.00    -0.354 N 
ATOM     43  C   UNL A   1      39.622  29.490  29.962  1.00  0.00     0.074 A 
ATOM     44  C   UNL A   1      38.666  29.699  28.897  1.00  0.00     0.031 C 
ATOM     45  C   UNL A   1      37.891  33.880  34.324  1.00  0.00     0.029 A 
ATOM     46  C   UNL A   1      38.976  32.909  34.421  1.00  0.00     0.049 A 
ATOM     47  H   UNL A   1      39.586  31.540  32.977  1.00  0.00     0.167 HD
ATOM     48  C   UNL A   1      40.602  28.554  29.941  1.00  0.00     0.037 A 
ATOM     49  C   UNL A   1      39.781  32.741  35.488  1.00  0.00     0.037 A 
ATOM     50  C   UNL A   1      41.569  28.368  30.990  1.00  0.00     0.049 A 
ATOM     51  C   UNL A   1      40.865  31.701  35.436  1.00  0.00     0.074 A 
ATOM     52  C   UNL A   1      42.640  27.492  31.033  1.00  0.00     0.029 A 
ATOM     53  N   UNL A   1      41.580  29.071  32.187  1.00  0.00    -0.354 N 
ATOM     54  N   UNL A   1      41.163  30.865  34.471  1.00  0.00    -0.248 NA
ATOM     55  C   UNL A   1      41.729  31.586  36.619  1.00  0.00     0.031 C 
ATOM     56  C   UNL A   1      43.275  27.637  32.272  1.00  0.00     0.029 A 
ATOM     57  C   UNL A   1      42.628  28.634  32.983  1.00  0.00     0.049 A 
ATOM     58  H   UNL A   1      40.939  29.776  32.434  1.00  0.00     0.167 HD
ATOM     59  C   UNL A   1      42.260  30.143  34.918  1.00  0.00     0.074 A 
ATOM     60  C   UNL A   1      42.584  30.648  36.237  1.00  0.00     0.031 C 
ATOM     61  C   UNL A   1      42.939  29.150  34.292  1.00  0.00     0.037 A 
BRANCH  48  62
ATOM     62  C   UNL A   1      40.675  27.657  28.739  1.00  0.00     0.064 A 
ATOM     63  C   UNL A   1      39.917  26.479  28.652  1.00  0.00     0.173 A 
ATOM     64  C   UNL A   1      41.489  27.994  27.647  1.00  0.00     0.173 A 
ATOM     65  F   UNL A   1      39.130  26.106  29.673  1.00  0.00    -0.203 F 
ATOM     66  C   UNL A   1      39.996  25.657  27.531  1.00  0.00     0.198 A 
ATOM     67  C   UNL A   1      41.544  27.184  26.516  1.00  0.00     0.198 A 
ATOM     68  F   UNL A   1      42.229  29.113  27.675  1.00  0.00    -0.203 F 
ATOM     69  F   UNL A   1      39.302  24.510  27.493  1.00  0.00    -0.200 F 
ATOM     70  C   UNL A   1      40.804  26.012  26.462  1.00  0.00     0.200 A 
ATOM     71  F   UNL A   1      42.315  27.536  25.478  1.00  0.00    -0.200 F 
ATOM     72  F   UNL A   1      40.877  25.221  25.383  1.00  0.00    -0.200 F 
ENDBRANCH  48  62
BRANCH  49  73
ATOM     73  C   UNL A   1      39.603  33.602  36.685  1.00  0.00     0.064 A 
ATOM     74  C   UNL A   1      40.241  34.847  36.774  1.00  0.00     0.173 A 
ATOM     75  C   UNL A   1      38.784  33.209  37.753  1.00  0.00     0.173 A 
ATOM     76  F   UNL A   1      41.050  35.256  35.785  1.00  0.00    -0.203 F 
ATOM     77  C   UNL A   1      40.076  35.662  37.892  1.00  0.00     0.198 A 
ATOM     78  C   UNL A   1      38.600  34.035  38.859  1.00  0.00     0.198 A 
ATOM     79  F   UNL A   1      38.148  32.028  37.713  1.00  0.00    -0.203 F 
ATOM     80  F   UNL A   1      40.726  36.831  37.967  1.00  0.00    -0.200 F 
ATOM     81  C   UNL A   1      39.250  35.258  38.930  1.00  0.00     0.200 A 
ATOM     82  F   UNL A   1      37.792  33.648  39.856  1.00  0.00    -0.200 F 
ATOM     83  F   UNL A   1      39.085  36.045  40.002  1.00  0.00    -0.200 F 
ENDBRANCH  49  73
BRANCH  61  84
ATOM     84  C   UNL A   1      44.117  28.564  35.011  1.00  0.00     0.064 A 
ATOM     85  C   UNL A   1      45.401  29.112  34.887  1.00  0.00     0.173 A 
ATOM     86  C   UNL A   1      43.951  27.463  35.865  1.00  0.00     0.173 A 
ATOM     87  F   UNL A   1      45.614  30.156  34.070  1.00  0.00    -0.203 F 
ATOM     88  C   UNL A   1      46.481  28.565  35.575  1.00  0.00     0.198 A 
ATOM     89  C   UNL A   1      45.028  26.936  36.571  1.00  0.00     0.198 A 
ATOM     90  F   UNL A   1      42.740  26.904  36.021  1.00  0.00    -0.203 F 
ATOM     91  F   UNL A   1      47.709  29.079  35.407  1.00  0.00    -0.200 F 
ATOM     92  C   UNL A   1      46.293  27.484  36.421  1.00  0.00     0.200 A 
ATOM     93  F   UNL A   1      44.842  25.897  37.398  1.00  0.00    -0.200 F 
ATOM     94  F   UNL A   1      47.333  26.963  37.087  1.00  0.00    -0.200 F 
ENDBRANCH  61  84
ENDBRANCH  35  36
ENDBRANCH  27  30
ENDBRANCH  25  26
ENDBRANCH  24  25
ENDBRANCH   1  24
TORSDOF 13
ENDMDL
