MODEL 1
REMARK VINA RESULT:     -11.9      0.000      0.000
REMARK SMILES Cc1[nH]c2ccccc2c1[C@H]([NH3+])CC(=O)NCCCNC(=O)c1ccc(-c2c3nc(c(-c4c(F)c(F)c(F)c(F)c4F)c4ccc([nH]4)c(-c4c(F)c(F)c(F)c(F)c4F)c4nc(c(-c5c(F)c(F)c(F)c(F)c5F)c5ccc2[nH]5)C=C4)C=C3)cc1
REMARK SMILES IDX 18 1 17 2 16 3 14 4 15 5 13 7 11 8 10 9 1 10 2 11 3 12 4 13
REMARK SMILES IDX 9 15 5 16 8 17 6 18 7 19 12 20 19 24 20 25 21 26 22 28 23 29
REMARK SMILES IDX 24 30 85 31 25 32 84 33 26 34 27 35 28 36 78 37 29 38 83 39
REMARK SMILES IDX 77 40 79 41 30 42 82 43 76 44 75 45 31 47 63 48 43 49 62 50
REMARK SMILES IDX 44 51 47 52 61 53 80 54 45 55 46 56 60 58 81 59 48 60 32 61
REMARK SMILES IDX 33 62 41 63 34 64 35 65 39 66 42 67 36 68 37 69 40 70 38 71
REMARK SMILES IDX 64 72 65 73 73 74 66 75 67 76 71 77 74 78 68 79 69 80 72 81
REMARK SMILES IDX 70 82 49 83 50 84 58 85 51 86 52 87 56 88 59 89 53 90 54 91
REMARK SMILES IDX 57 92 55 93
REMARK H PARENT 16 6 3 14 12 21 12 22 12 23 20 27 79 46 47 57
REMARK Flexibility Score: inf
ROOT
ATOM      1  C   UNL A   1      37.881  19.764  24.993  1.00  0.00     0.042 C 
ENDROOT
BRANCH   1   2
ATOM      2  C   UNL A   1      36.832  20.853  24.798  1.00  0.00     0.117 C 
BRANCH   2   3
ATOM      3  N   UNL A   1      35.544  20.480  25.359  1.00  0.00    -0.356 N 
ATOM      4  C   UNL A   1      34.593  21.254  25.953  1.00  0.00     0.226 C 
ATOM      5  O   UNL A   1      33.602  20.700  26.434  1.00  0.00    -0.275 OA
ATOM      6  H   UNL A   1      35.325  19.521  25.299  1.00  0.00     0.163 HD
BRANCH   4   7
ATOM      7  C   UNL A   1      34.740  22.757  25.978  1.00  0.00     0.170 C 
BRANCH   7   8
ATOM      8  C   UNL A   1      33.873  23.447  24.922  1.00  0.00     0.223 C 
BRANCH   8   9
ATOM      9  C   UNL A   1      32.784  24.268  25.588  1.00  0.00     0.038 A 
ATOM     10  C   UNL A   1      30.750  22.636  26.106  1.00  0.00     0.065 C 
ATOM     11  C   UNL A   1      31.521  23.909  26.062  1.00  0.00     0.022 A 
ATOM     12  N   UNL A   1      30.935  25.044  26.574  1.00  0.00    -0.358 N 
ATOM     13  C   UNL A   1      31.792  26.111  26.518  1.00  0.00     0.046 A 
ATOM     14  H   UNL A   1      30.021  25.084  26.936  1.00  0.00     0.166 HD
ATOM     15  C   UNL A   1      32.957  25.663  25.908  1.00  0.00     0.009 A 
ATOM     16  C   UNL A   1      31.621  27.427  26.964  1.00  0.00     0.027 A 
ATOM     17  C   UNL A   1      34.019  26.579  25.742  1.00  0.00     0.011 A 
ATOM     18  C   UNL A   1      32.688  28.313  26.790  1.00  0.00     0.002 A 
ATOM     19  C   UNL A   1      33.872  27.896  26.189  1.00  0.00     0.001 A 
ENDBRANCH   8   9
BRANCH   8  20
ATOM     20  N   UNL A   1      33.268  22.528  23.955  1.00  0.00    -0.351 N 
ATOM     21  H   UNL A   1      33.704  21.610  24.041  1.00  0.00     0.345 HD
ATOM     22  H   UNL A   1      33.413  22.886  23.011  1.00  0.00     0.345 HD
ATOM     23  H   UNL A   1      32.269  22.448  24.140  1.00  0.00     0.345 HD
ENDBRANCH   8  20
ENDBRANCH   7   8
ENDBRANCH   4   7
ENDBRANCH   2   3
ENDBRANCH   1   2
BRANCH   1  24
ATOM     24  C   UNL A   1      38.996  20.157  25.954  1.00  0.00     0.118 C 
BRANCH  24  25
ATOM     25  N   UNL A   1      40.096  19.204  25.937  1.00  0.00    -0.352 N 
ATOM     26  C   UNL A   1      41.450  19.403  26.060  1.00  0.00     0.251 C 
ATOM     27  H   UNL A   1      39.827  18.265  25.819  1.00  0.00     0.163 HD
ATOM     28  O   UNL A   1      42.221  18.485  25.793  1.00  0.00    -0.269 OA
BRANCH  26  29
ATOM     29  C   UNL A   1      41.996  20.712  26.485  1.00  0.00     0.039 A 
ATOM     30  C   UNL A   1      42.391  21.626  25.502  1.00  0.00     0.014 A 
ATOM     31  C   UNL A   1      42.167  21.032  27.834  1.00  0.00     0.014 A 
ATOM     32  C   UNL A   1      42.886  22.880  25.871  1.00  0.00     0.010 A 
ATOM     33  C   UNL A   1      42.586  22.309  28.202  1.00  0.00     0.010 A 
ATOM     34  C   UNL A   1      42.951  23.246  27.225  1.00  0.00    -0.014 A 
BRANCH  34  35
ATOM     35  C   UNL A   1      43.390  24.604  27.637  1.00  0.00     0.031 A 
ATOM     36  C   UNL A   1      42.378  25.656  27.994  1.00  0.00     0.074 A 
ATOM     37  C   UNL A   1      44.701  24.912  27.622  1.00  0.00     0.049 A 
ATOM     38  N   UNL A   1      42.564  26.915  28.302  1.00  0.00    -0.248 NA
ATOM     39  C   UNL A   1      40.966  25.244  27.979  1.00  0.00     0.031 C 
ATOM     40  C   UNL A   1      45.780  23.995  27.255  1.00  0.00     0.029 A 
ATOM     41  N   UNL A   1      45.347  26.088  27.913  1.00  0.00    -0.354 N 
ATOM     42  C   UNL A   1      41.298  27.447  28.500  1.00  0.00     0.074 A 
ATOM     43  C   UNL A   1      40.348  26.388  28.231  1.00  0.00     0.031 C 
ATOM     44  C   UNL A   1      46.956  24.632  27.367  1.00  0.00     0.029 A 
ATOM     45  C   UNL A   1      46.711  26.013  27.773  1.00  0.00     0.049 A 
ATOM     46  H   UNL A   1      44.879  26.906  28.195  1.00  0.00     0.167 HD
ATOM     47  C   UNL A   1      40.958  28.699  28.890  1.00  0.00     0.037 A 
ATOM     48  C   UNL A   1      47.659  26.954  27.942  1.00  0.00     0.037 A 
ATOM     49  C   UNL A   1      41.903  29.743  29.184  1.00  0.00     0.049 A 
ATOM     50  C   UNL A   1      47.256  28.343  28.353  1.00  0.00     0.074 A 
ATOM     51  C   UNL A   1      41.662  31.018  29.669  1.00  0.00     0.029 A 
ATOM     52  N   UNL A   1      43.276  29.635  29.016  1.00  0.00    -0.354 N 
ATOM     53  N   UNL A   1      46.060  28.816  28.601  1.00  0.00    -0.248 NA
ATOM     54  C   UNL A   1      48.336  29.329  28.497  1.00  0.00     0.031 C 
ATOM     55  C   UNL A   1      42.885  31.694  29.751  1.00  0.00     0.029 A 
ATOM     56  C   UNL A   1      43.892  30.829  29.355  1.00  0.00     0.049 A 
ATOM     57  H   UNL A   1      43.744  28.828  28.700  1.00  0.00     0.167 HD
ATOM     58  C   UNL A   1      46.241  30.148  28.948  1.00  0.00     0.074 A 
ATOM     59  C   UNL A   1      47.666  30.404  28.891  1.00  0.00     0.031 C 
ATOM     60  C   UNL A   1      45.310  31.073  29.283  1.00  0.00     0.037 A 
BRANCH  47  61
ATOM     61  C   UNL A   1      39.495  29.006  29.021  1.00  0.00     0.064 A 
ATOM     62  C   UNL A   1      38.837  28.932  30.258  1.00  0.00     0.173 A 
ATOM     63  C   UNL A   1      38.746  29.399  27.902  1.00  0.00     0.173 A 
ATOM     64  F   UNL A   1      39.505  28.552  31.357  1.00  0.00    -0.203 F 
ATOM     65  C   UNL A   1      37.475  29.205  30.362  1.00  0.00     0.198 A 
ATOM     66  C   UNL A   1      37.391  29.699  28.015  1.00  0.00     0.198 A 
ATOM     67  F   UNL A   1      39.329  29.493  26.696  1.00  0.00    -0.203 F 
ATOM     68  F   UNL A   1      36.856  29.077  31.544  1.00  0.00    -0.200 F 
ATOM     69  C   UNL A   1      36.754  29.592  29.243  1.00  0.00     0.200 A 
ATOM     70  F   UNL A   1      36.698  30.083  26.934  1.00  0.00    -0.200 F 
ATOM     71  F   UNL A   1      35.445  29.855  29.345  1.00  0.00    -0.200 F 
ENDBRANCH  47  61
BRANCH  48  72
ATOM     72  C   UNL A   1      49.087  26.601  27.747  1.00  0.00     0.064 A 
ATOM     73  C   UNL A   1      49.910  26.322  28.847  1.00  0.00     0.173 A 
ATOM     74  C   UNL A   1      49.651  26.509  26.468  1.00  0.00     0.173 A 
ATOM     75  F   UNL A   1      49.418  26.418  30.091  1.00  0.00    -0.203 F 
ATOM     76  C   UNL A   1      51.246  25.969  28.675  1.00  0.00     0.198 A 
ATOM     77  C   UNL A   1      50.982  26.134  26.295  1.00  0.00     0.198 A 
ATOM     78  F   UNL A   1      48.903  26.764  25.384  1.00  0.00    -0.203 F 
ATOM     79  F   UNL A   1      52.018  25.733  29.744  1.00  0.00    -0.200 F 
ATOM     80  C   UNL A   1      51.779  25.868  27.398  1.00  0.00     0.200 A 
ATOM     81  F   UNL A   1      51.490  26.024  25.059  1.00  0.00    -0.200 F 
ATOM     82  F   UNL A   1      53.061  25.517  27.231  1.00  0.00    -0.200 F 
ENDBRANCH  48  72
BRANCH  60  83
ATOM     83  C   UNL A   1      45.801  32.449  29.619  1.00  0.00     0.064 A 
ATOM     84  C   UNL A   1      46.205  32.782  30.920  1.00  0.00     0.173 A 
ATOM     85  C   UNL A   1      45.905  33.433  28.624  1.00  0.00     0.173 A 
ATOM     86  F   UNL A   1      46.106  31.881  31.909  1.00  0.00    -0.203 F 
ATOM     87  C   UNL A   1      46.681  34.056  31.217  1.00  0.00     0.198 A 
ATOM     88  C   UNL A   1      46.404  34.698  28.920  1.00  0.00     0.198 A 
ATOM     89  F   UNL A   1      45.534  33.162  27.365  1.00  0.00    -0.203 F 
ATOM     90  F   UNL A   1      47.025  34.365  32.475  1.00  0.00    -0.200 F 
ATOM     91  C   UNL A   1      46.786  35.011  30.216  1.00  0.00     0.200 A 
ATOM     92  F   UNL A   1      46.514  35.616  27.950  1.00  0.00    -0.200 F 
ATOM     93  F   UNL A   1      47.250  36.235  30.502  1.00  0.00    -0.200 F 
ENDBRANCH  60  83
ENDBRANCH  34  35
ENDBRANCH  26  29
ENDBRANCH  24  25
ENDBRANCH   1  24
TORSDOF 13
ENDMDL
MODEL 2
REMARK VINA RESULT:     -11.9      3.189      7.731
REMARK SMILES Cc1[nH]c2ccccc2c1[C@H]([NH3+])CC(=O)NCCCNC(=O)c1ccc(-c2c3nc(c(-c4c(F)c(F)c(F)c(F)c4F)c4ccc([nH]4)c(-c4c(F)c(F)c(F)c(F)c4F)c4nc(c(-c5c(F)c(F)c(F)c(F)c5F)c5ccc2[nH]5)C=C4)C=C3)cc1
REMARK SMILES IDX 18 1 17 2 16 3 14 4 15 5 13 7 11 8 10 9 1 10 2 11 3 12 4 13
REMARK SMILES IDX 9 15 5 16 8 17 6 18 7 19 12 20 19 24 20 25 21 26 22 28 23 29
REMARK SMILES IDX 24 30 85 31 25 32 84 33 26 34 27 35 28 36 78 37 29 38 83 39
REMARK SMILES IDX 77 40 79 41 30 42 82 43 76 44 75 45 31 47 63 48 43 49 62 50
REMARK SMILES IDX 44 51 47 52 61 53 80 54 45 55 46 56 60 58 81 59 48 60 32 61
REMARK SMILES IDX 33 62 41 63 34 64 35 65 39 66 42 67 36 68 37 69 40 70 38 71
REMARK SMILES IDX 64 72 65 73 73 74 66 75 67 76 71 77 74 78 68 79 69 80 72 81
REMARK SMILES IDX 70 82 49 83 50 84 58 85 51 86 52 87 56 88 59 89 53 90 54 91
REMARK SMILES IDX 57 92 55 93
REMARK H PARENT 16 6 3 14 12 21 12 22 12 23 20 27 79 46 47 57
REMARK Flexibility Score: inf
ROOT
ATOM      1  C   UNL A   1      32.431  27.792  26.962  1.00  0.00     0.042 C 
ENDROOT
BRANCH   1   2
ATOM      2  C   UNL A   1      32.391  26.453  26.234  1.00  0.00     0.117 C 
BRANCH   2   3
ATOM      3  N   UNL A   1      31.372  25.567  26.772  1.00  0.00    -0.356 N 
ATOM      4  C   UNL A   1      31.224  24.219  26.631  1.00  0.00     0.226 C 
ATOM      5  O   UNL A   1      30.223  23.686  27.115  1.00  0.00    -0.275 OA
ATOM      6  H   UNL A   1      30.685  26.008  27.323  1.00  0.00     0.163 HD
BRANCH   4   7
ATOM      7  C   UNL A   1      32.287  23.404  25.934  1.00  0.00     0.170 C 
BRANCH   7   8
ATOM      8  C   UNL A   1      33.282  22.780  26.915  1.00  0.00     0.223 C 
BRANCH   8   9
ATOM      9  C   UNL A   1      34.207  21.820  26.189  1.00  0.00     0.038 A 
ATOM     10  C   UNL A   1      32.736  19.778  25.332  1.00  0.00     0.065 C 
ATOM     11  C   UNL A   1      33.955  20.604  25.552  1.00  0.00     0.022 A 
ATOM     12  N   UNL A   1      35.154  20.143  25.057  1.00  0.00    -0.358 N 
ATOM     13  C   UNL A   1      36.162  21.041  25.284  1.00  0.00     0.046 A 
ATOM     14  H   UNL A   1      35.271  19.280  24.598  1.00  0.00     0.166 HD
ATOM     15  C   UNL A   1      35.607  22.102  25.990  1.00  0.00     0.009 A 
ATOM     16  C   UNL A   1      37.512  20.992  24.915  1.00  0.00     0.027 A 
ATOM     17  C   UNL A   1      36.446  23.184  26.337  1.00  0.00     0.011 A 
ATOM     18  C   UNL A   1      38.319  22.076  25.270  1.00  0.00     0.002 A 
ATOM     19  C   UNL A   1      37.795  23.159  25.970  1.00  0.00     0.001 A 
ENDBRANCH   8   9
BRANCH   8  20
ATOM     20  N   UNL A   1      32.653  22.091  28.043  1.00  0.00    -0.351 N 
ATOM     21  H   UNL A   1      33.337  21.968  28.790  1.00  0.00     0.345 HD
ATOM     22  H   UNL A   1      32.314  21.178  27.738  1.00  0.00     0.345 HD
ATOM     23  H   UNL A   1      31.871  22.647  28.388  1.00  0.00     0.345 HD
ENDBRANCH   8  20
ENDBRANCH   7   8
ENDBRANCH   4   7
ENDBRANCH   2   3
ENDBRANCH   1   2
BRANCH   1  24
ATOM     24  C   UNL A   1      33.802  28.455  26.946  1.00  0.00     0.118 C 
BRANCH  24  25
ATOM     25  N   UNL A   1      33.744  29.845  27.373  1.00  0.00    -0.352 N 
ATOM     26  C   UNL A   1      34.629  30.586  28.119  1.00  0.00     0.251 C 
ATOM     27  H   UNL A   1      32.943  30.335  27.080  1.00  0.00     0.163 HD
ATOM     28  O   UNL A   1      34.282  31.680  28.555  1.00  0.00    -0.269 OA
BRANCH  26  29
ATOM     29  C   UNL A   1      35.986  30.077  28.426  1.00  0.00     0.039 A 
ATOM     30  C   UNL A   1      36.983  30.196  27.453  1.00  0.00     0.014 A 
ATOM     31  C   UNL A   1      36.275  29.446  29.639  1.00  0.00     0.014 A 
ATOM     32  C   UNL A   1      38.280  29.750  27.721  1.00  0.00     0.010 A 
ATOM     33  C   UNL A   1      37.584  29.073  29.937  1.00  0.00     0.010 A 
ATOM     34  C   UNL A   1      38.600  29.219  28.981  1.00  0.00    -0.014 A 
BRANCH  34  35
ATOM     35  C   UNL A   1      39.990  28.820  29.320  1.00  0.00     0.031 A 
ATOM     36  C   UNL A   1      40.867  29.729  30.135  1.00  0.00     0.074 A 
ATOM     37  C   UNL A   1      40.488  27.667  28.833  1.00  0.00     0.049 A 
ATOM     38  N   UNL A   1      42.126  29.589  30.465  1.00  0.00    -0.248 NA
ATOM     39  C   UNL A   1      40.253  30.973  30.623  1.00  0.00     0.031 C 
ATOM     40  C   UNL A   1      39.755  26.717  27.996  1.00  0.00     0.029 A 
ATOM     41  N   UNL A   1      41.734  27.104  28.963  1.00  0.00    -0.354 N 
ATOM     42  C   UNL A   1      42.458  30.730  31.182  1.00  0.00     0.074 A 
ATOM     43  C   UNL A   1      41.282  31.575  31.200  1.00  0.00     0.031 C 
ATOM     44  C   UNL A   1      40.554  25.678  27.708  1.00  0.00     0.029 A 
ATOM     45  C   UNL A   1      41.866  25.907  28.305  1.00  0.00     0.049 A 
ATOM     46  H   UNL A   1      42.462  27.519  29.479  1.00  0.00     0.167 HD
ATOM     47  C   UNL A   1      43.629  31.037  31.789  1.00  0.00     0.037 A 
ATOM     48  C   UNL A   1      42.929  25.089  28.187  1.00  0.00     0.037 A 
ATOM     49  C   UNL A   1      44.788  30.185  31.796  1.00  0.00     0.049 A 
ATOM     50  C   UNL A   1      44.226  25.461  28.849  1.00  0.00     0.074 A 
ATOM     51  C   UNL A   1      45.993  30.368  32.454  1.00  0.00     0.029 A 
ATOM     52  N   UNL A   1      44.890  28.986  31.105  1.00  0.00    -0.354 N 
ATOM     53  N   UNL A   1      44.508  26.511  29.580  1.00  0.00    -0.248 NA
ATOM     54  C   UNL A   1      45.353  24.539  28.662  1.00  0.00     0.031 C 
ATOM     55  C   UNL A   1      46.838  29.301  32.125  1.00  0.00     0.029 A 
ATOM     56  C   UNL A   1      46.147  28.434  31.294  1.00  0.00     0.049 A 
ATOM     57  H   UNL A   1      44.174  28.586  30.560  1.00  0.00     0.167 HD
ATOM     58  C   UNL A   1      45.836  26.370  29.955  1.00  0.00     0.074 A 
ATOM     59  C   UNL A   1      46.302  25.123  29.382  1.00  0.00     0.031 C 
ATOM     60  C   UNL A   1      46.600  27.199  30.707  1.00  0.00     0.037 A 
BRANCH  47  61
ATOM     61  C   UNL A   1      43.712  32.356  32.499  1.00  0.00     0.064 A 
ATOM     62  C   UNL A   1      43.354  32.488  33.849  1.00  0.00     0.173 A 
ATOM     63  C   UNL A   1      44.174  33.499  31.828  1.00  0.00     0.173 A 
ATOM     64  F   UNL A   1      42.897  31.428  34.533  1.00  0.00    -0.203 F 
ATOM     65  C   UNL A   1      43.422  33.722  34.491  1.00  0.00     0.198 A 
ATOM     66  C   UNL A   1      44.267  34.725  32.481  1.00  0.00     0.198 A 
ATOM     67  F   UNL A   1      44.535  33.426  30.537  1.00  0.00    -0.203 F 
ATOM     68  F   UNL A   1      43.025  33.834  35.766  1.00  0.00    -0.200 F 
ATOM     69  C   UNL A   1      43.882  34.838  33.809  1.00  0.00     0.200 A 
ATOM     70  F   UNL A   1      44.721  35.801  31.824  1.00  0.00    -0.200 F 
ATOM     71  F   UNL A   1      43.947  36.024  34.428  1.00  0.00    -0.200 F 
ENDBRANCH  47  61
BRANCH  48  72
ATOM     72  C   UNL A   1      42.798  23.821  27.428  1.00  0.00     0.064 A 
ATOM     73  C   UNL A   1      43.176  23.753  26.080  1.00  0.00     0.173 A 
ATOM     74  C   UNL A   1      42.320  22.650  28.033  1.00  0.00     0.173 A 
ATOM     75  F   UNL A   1      43.619  24.853  25.454  1.00  0.00    -0.203 F 
ATOM     76  C   UNL A   1      43.077  22.563  25.364  1.00  0.00     0.198 A 
ATOM     77  C   UNL A   1      42.242  21.454  27.323  1.00  0.00     0.198 A 
ATOM     78  F   UNL A   1      41.949  22.664  29.322  1.00  0.00    -0.203 F 
ATOM     79  F   UNL A   1      43.420  22.530  24.069  1.00  0.00    -0.200 F 
ATOM     80  C   UNL A   1      42.617  21.412  25.988  1.00  0.00     0.200 A 
ATOM     81  F   UNL A   1      41.810  20.342  27.932  1.00  0.00    -0.200 F 
ATOM     82  F   UNL A   1      42.533  20.264  25.303  1.00  0.00    -0.200 F 
ENDBRANCH  48  72
BRANCH  60  83
ATOM     83  C   UNL A   1      48.019  26.784  30.958  1.00  0.00     0.064 A 
ATOM     84  C   UNL A   1      48.351  25.916  32.008  1.00  0.00     0.173 A 
ATOM     85  C   UNL A   1      49.051  27.227  30.117  1.00  0.00     0.173 A 
ATOM     86  F   UNL A   1      47.401  25.481  32.850  1.00  0.00    -0.203 F 
ATOM     87  C   UNL A   1      49.668  25.520  32.219  1.00  0.00     0.198 A 
ATOM     88  C   UNL A   1      50.364  26.808  30.316  1.00  0.00     0.198 A 
ATOM     89  F   UNL A   1      48.784  28.055  29.097  1.00  0.00    -0.203 F 
ATOM     90  F   UNL A   1      49.969  24.721  33.253  1.00  0.00    -0.200 F 
ATOM     91  C   UNL A   1      50.672  25.960  31.369  1.00  0.00     0.200 A 
ATOM     92  F   UNL A   1      51.331  27.227  29.489  1.00  0.00    -0.200 F 
ATOM     93  F   UNL A   1      51.939  25.573  31.569  1.00  0.00    -0.200 F 
ENDBRANCH  60  83
ENDBRANCH  34  35
ENDBRANCH  26  29
ENDBRANCH  24  25
ENDBRANCH   1  24
TORSDOF 13
ENDMDL
MODEL 3
REMARK VINA RESULT:     -11.8      5.964     10.929
REMARK SMILES Cc1[nH]c2ccccc2c1[C@H]([NH3+])CC(=O)NCCCNC(=O)c1ccc(-c2c3nc(c(-c4c(F)c(F)c(F)c(F)c4F)c4ccc([nH]4)c(-c4c(F)c(F)c(F)c(F)c4F)c4nc(c(-c5c(F)c(F)c(F)c(F)c5F)c5ccc2[nH]5)C=C4)C=C3)cc1
REMARK SMILES IDX 18 1 17 2 16 3 14 4 15 5 13 7 11 8 10 9 1 10 2 11 3 12 4 13
REMARK SMILES IDX 9 15 5 16 8 17 6 18 7 19 12 20 19 24 20 25 21 26 22 28 23 29
REMARK SMILES IDX 24 30 85 31 25 32 84 33 26 34 27 35 28 36 78 37 29 38 83 39
REMARK SMILES IDX 77 40 79 41 30 42 82 43 76 44 75 45 31 47 63 48 43 49 62 50
REMARK SMILES IDX 44 51 47 52 61 53 80 54 45 55 46 56 60 58 81 59 48 60 32 61
REMARK SMILES IDX 33 62 41 63 34 64 35 65 39 66 42 67 36 68 37 69 40 70 38 71
REMARK SMILES IDX 64 72 65 73 73 74 66 75 67 76 71 77 74 78 68 79 69 80 72 81
REMARK SMILES IDX 70 82 49 83 50 84 58 85 51 86 52 87 56 88 59 89 53 90 54 91
REMARK SMILES IDX 57 92 55 93
REMARK H PARENT 16 6 3 14 12 21 12 22 12 23 20 27 79 46 47 57
REMARK Flexibility Score: inf
ROOT
ATOM      1  C   UNL A   1      31.247  32.164  26.776  1.00  0.00     0.042 C 
ENDROOT
BRANCH   1   2
ATOM      2  C   UNL A   1      31.418  30.951  25.868  1.00  0.00     0.117 C 
BRANCH   2   3
ATOM      3  N   UNL A   1      32.469  30.062  26.333  1.00  0.00    -0.356 N 
ATOM      4  C   UNL A   1      32.452  28.711  26.515  1.00  0.00     0.226 C 
ATOM      5  O   UNL A   1      33.449  28.173  27.003  1.00  0.00    -0.275 OA
ATOM      6  H   UNL A   1      33.323  30.503  26.549  1.00  0.00     0.163 HD
BRANCH   4   7
ATOM      7  C   UNL A   1      31.255  27.898  26.084  1.00  0.00     0.170 C 
BRANCH   7   8
ATOM      8  C   UNL A   1      31.461  27.231  24.722  1.00  0.00     0.223 C 
BRANCH   8   9
ATOM      9  C   UNL A   1      31.328  28.252  23.608  1.00  0.00     0.038 A 
ATOM     10  C   UNL A   1      33.773  28.774  22.701  1.00  0.00     0.065 C 
ATOM     11  C   UNL A   1      32.290  28.862  22.801  1.00  0.00     0.022 A 
ATOM     12  N   UNL A   1      31.629  29.717  21.948  1.00  0.00    -0.358 N 
ATOM     13  C   UNL A   1      30.273  29.637  22.119  1.00  0.00     0.046 A 
ATOM     14  H   UNL A   1      32.073  30.308  21.298  1.00  0.00     0.166 HD
ATOM     15  C   UNL A   1      30.048  28.731  23.148  1.00  0.00     0.009 A 
ATOM     16  C   UNL A   1      29.239  30.291  21.439  1.00  0.00     0.027 A 
ATOM     17  C   UNL A   1      28.712  28.453  23.514  1.00  0.00     0.011 A 
ATOM     18  C   UNL A   1      27.927  29.997  21.819  1.00  0.00     0.002 A 
ATOM     19  C   UNL A   1      27.665  29.089  22.841  1.00  0.00     0.001 A 
ENDBRANCH   8   9
BRANCH   8  20
ATOM     20  N   UNL A   1      30.555  26.109  24.466  1.00  0.00    -0.351 N 
ATOM     21  H   UNL A   1      30.476  25.537  25.306  1.00  0.00     0.345 HD
ATOM     22  H   UNL A   1      30.923  25.542  23.702  1.00  0.00     0.345 HD
ATOM     23  H   UNL A   1      29.634  26.467  24.212  1.00  0.00     0.345 HD
ENDBRANCH   8  20
ENDBRANCH   7   8
ENDBRANCH   4   7
ENDBRANCH   2   3
ENDBRANCH   1   2
BRANCH   1  24
ATOM     24  C   UNL A   1      32.565  32.811  27.184  1.00  0.00     0.118 C 
BRANCH  24  25
ATOM     25  N   UNL A   1      32.393  34.199  27.586  1.00  0.00    -0.352 N 
ATOM     26  C   UNL A   1      32.999  34.918  28.589  1.00  0.00     0.251 C 
ATOM     27  H   UNL A   1      31.739  34.705  27.054  1.00  0.00     0.163 HD
ATOM     28  O   UNL A   1      32.546  36.015  28.901  1.00  0.00    -0.269 OA
BRANCH  26  29
ATOM     29  C   UNL A   1      34.173  34.382  29.314  1.00  0.00     0.039 A 
ATOM     30  C   UNL A   1      33.969  33.731  30.535  1.00  0.00     0.014 A 
ATOM     31  C   UNL A   1      35.473  34.552  28.831  1.00  0.00     0.014 A 
ATOM     32  C   UNL A   1      35.054  33.191  31.230  1.00  0.00     0.010 A 
ATOM     33  C   UNL A   1      36.545  33.947  29.483  1.00  0.00     0.010 A 
ATOM     34  C   UNL A   1      36.348  33.261  30.690  1.00  0.00    -0.014 A 
BRANCH  34  35
ATOM     35  C   UNL A   1      37.503  32.618  31.368  1.00  0.00     0.031 A 
ATOM     36  C   UNL A   1      38.221  31.468  30.721  1.00  0.00     0.074 A 
ATOM     37  C   UNL A   1      37.861  33.025  32.600  1.00  0.00     0.049 A 
ATOM     38  N   UNL A   1      39.198  30.732  31.189  1.00  0.00    -0.248 NA
ATOM     39  C   UNL A   1      37.766  31.077  29.379  1.00  0.00     0.031 C 
ATOM     40  C   UNL A   1      37.220  34.103  33.354  1.00  0.00     0.029 A 
ATOM     41  N   UNL A   1      38.848  32.573  33.441  1.00  0.00    -0.354 N 
ATOM     42  C   UNL A   1      39.460  29.784  30.210  1.00  0.00     0.074 A 
ATOM     43  C   UNL A   1      38.510  30.007  29.140  1.00  0.00     0.031 C 
ATOM     44  C   UNL A   1      37.843  34.246  34.534  1.00  0.00     0.029 A 
ATOM     45  C   UNL A   1      38.901  33.245  34.637  1.00  0.00     0.049 A 
ATOM     46  H   UNL A   1      39.460  31.837  33.208  1.00  0.00     0.167 HD
ATOM     47  C   UNL A   1      40.419  28.828  30.194  1.00  0.00     0.037 A 
ATOM     48  C   UNL A   1      39.705  33.069  35.703  1.00  0.00     0.037 A 
ATOM     49  C   UNL A   1      41.382  28.624  31.243  1.00  0.00     0.049 A 
ATOM     50  C   UNL A   1      40.747  31.986  35.671  1.00  0.00     0.074 A 
ATOM     51  C   UNL A   1      42.446  27.739  31.282  1.00  0.00     0.029 A 
ATOM     52  N   UNL A   1      41.394  29.314  32.447  1.00  0.00    -0.354 N 
ATOM     53  N   UNL A   1      41.029  31.139  34.712  1.00  0.00    -0.248 NA
ATOM     54  C   UNL A   1      41.575  31.830  36.874  1.00  0.00     0.031 C 
ATOM     55  C   UNL A   1      43.074  27.863  32.527  1.00  0.00     0.029 A 
ATOM     56  C   UNL A   1      42.426  28.853  33.248  1.00  0.00     0.049 A 
ATOM     57  H   UNL A   1      40.762  30.027  32.695  1.00  0.00     0.167 HD
ATOM     58  C   UNL A   1      42.076  30.361  35.185  1.00  0.00     0.074 A 
ATOM     59  C   UNL A   1      42.390  30.846  36.514  1.00  0.00     0.031 C 
ATOM     60  C   UNL A   1      42.719  29.337  34.573  1.00  0.00     0.037 A 
BRANCH  47  61
ATOM     61  C   UNL A   1      40.473  27.926  28.995  1.00  0.00     0.064 A 
ATOM     62  C   UNL A   1      41.269  28.231  27.880  1.00  0.00     0.173 A 
ATOM     63  C   UNL A   1      39.735  26.732  28.968  1.00  0.00     0.173 A 
ATOM     64  F   UNL A   1      41.985  29.365  27.853  1.00  0.00    -0.203 F 
ATOM     65  C   UNL A   1      41.296  27.393  26.769  1.00  0.00     0.198 A 
ATOM     66  C   UNL A   1      39.787  25.883  27.866  1.00  0.00     0.198 A 
ATOM     67  F   UNL A   1      38.963  26.390  30.011  1.00  0.00    -0.203 F 
ATOM     68  F   UNL A   1      42.023  27.731  25.695  1.00  0.00    -0.200 F 
ATOM     69  C   UNL A   1      40.561  26.218  26.764  1.00  0.00     0.200 A 
ATOM     70  F   UNL A   1      39.084  24.742  27.866  1.00  0.00    -0.200 F 
ATOM     71  F   UNL A   1      40.589  25.412  25.694  1.00  0.00    -0.200 F 
ENDBRANCH  47  61
BRANCH  48  72
ATOM     72  C   UNL A   1      39.569  33.961  36.880  1.00  0.00     0.064 A 
ATOM     73  C   UNL A   1      38.802  33.572  37.986  1.00  0.00     0.173 A 
ATOM     74  C   UNL A   1      40.218  35.202  36.937  1.00  0.00     0.173 A 
ATOM     75  F   UNL A   1      38.146  32.402  37.967  1.00  0.00    -0.203 F 
ATOM     76  C   UNL A   1      38.685  34.393  39.105  1.00  0.00     0.198 A 
ATOM     77  C   UNL A   1      40.119  36.013  38.066  1.00  0.00     0.198 A 
ATOM     78  F   UNL A   1      40.966  35.617  35.905  1.00  0.00    -0.203 F 
ATOM     79  F   UNL A   1      37.924  34.010  40.139  1.00  0.00    -0.200 F 
ATOM     80  C   UNL A   1      39.349  35.610  39.147  1.00  0.00     0.200 A 
ATOM     81  F   UNL A   1      40.773  37.182  38.109  1.00  0.00    -0.200 F 
ATOM     82  F   UNL A   1      39.246  36.395  40.228  1.00  0.00    -0.200 F 
ENDBRANCH  48  72
BRANCH  60  83
ATOM     83  C   UNL A   1      43.830  28.675  35.331  1.00  0.00     0.064 A 
ATOM     84  C   UNL A   1      43.577  27.628  36.230  1.00  0.00     0.173 A 
ATOM     85  C   UNL A   1      45.163  29.064  35.131  1.00  0.00     0.173 A 
ATOM     86  F   UNL A   1      42.317  27.234  36.470  1.00  0.00    -0.203 F 
ATOM     87  C   UNL A   1      44.618  27.006  36.913  1.00  0.00     0.198 A 
ATOM     88  C   UNL A   1      46.203  28.423  35.797  1.00  0.00     0.198 A 
ATOM     89  F   UNL A   1      45.455  30.058  34.280  1.00  0.00    -0.203 F 
ATOM     90  F   UNL A   1      44.351  26.033  37.796  1.00  0.00    -0.200 F 
ATOM     91  C   UNL A   1      45.930  27.398  36.691  1.00  0.00     0.200 A 
ATOM     92  F   UNL A   1      47.470  28.796  35.575  1.00  0.00    -0.200 F 
ATOM     93  F   UNL A   1      46.931  26.793  37.345  1.00  0.00    -0.200 F 
ENDBRANCH  60  83
ENDBRANCH  34  35
ENDBRANCH  26  29
ENDBRANCH  24  25
ENDBRANCH   1  24
TORSDOF 13
ENDMDL
