MODEL 1
REMARK VINA RESULT:     -14.5      0.000      0.000
REMARK SMILES Cc1c(CCC(=O)N2CCC[C@H]2C(=O)NCCCNC(=O)c2ccc(-c3c4nc(c(-c5c(F)c(F)c(F)c(F)c5F)c5ccc([nH]5)c(-c5c(F)c(F)c(F)c(F)c5F)c5nc(c(-c6c(F)c(F)c(F)c(F)c6F)c6ccc3[nH]6)C=C5)C=C4)cc2)c(=O)oc2cc3oc4c(c3cc12)CCCC4
REMARK SMILES IDX 16 1 15 2 13 3 14 4 12 6 8 7 9 8 10 9 11 10 6 11 7 12 5 13
REMARK SMILES IDX 4 14 3 15 1 16 2 17 96 18 85 19 88 20 95 21 86 22 87 23
REMARK SMILES IDX 89 24 94 25 90 26 93 27 91 28 92 29 97 30 100 31 98 32 99 33
REMARK SMILES IDX 17 34 18 35 19 36 20 37 21 39 22 40 23 41 84 42 24 43 83 44
REMARK SMILES IDX 25 45 26 46 27 47 77 48 28 49 82 50 76 51 78 52 29 53 81 54
REMARK SMILES IDX 75 55 74 56 30 58 62 59 42 60 61 61 43 62 46 63 60 64 79 65
REMARK SMILES IDX 44 66 45 67 59 69 80 70 47 71 31 72 32 73 40 74 33 75 34 76
REMARK SMILES IDX 38 77 41 78 35 79 36 80 39 81 37 82 63 83 64 84 72 85 65 86
REMARK SMILES IDX 66 87 70 88 73 89 67 90 68 91 71 92 69 93 48 94 49 95 57 96
REMARK SMILES IDX 50 97 51 98 55 99 58 100 52 101 53 102 56 103 54 104
REMARK H PARENT 15 5 19 38 78 57 46 68
REMARK Flexibility Score: inf
ROOT
ATOM      1  C   UNL A   1      36.038  21.990  25.308  1.00  0.00     0.117 C 
ENDROOT
BRANCH   1   2
ATOM      2  N   UNL A   1      35.254  21.816  26.508  1.00  0.00    -0.354 N 
ATOM      3  C   UNL A   1      33.970  21.495  26.751  1.00  0.00     0.242 C 
ATOM      4  O   UNL A   1      33.646  21.656  27.941  1.00  0.00    -0.273 OA
ATOM      5  H   UNL A   1      35.775  21.964  27.331  1.00  0.00     0.163 HD
BRANCH   3   6
ATOM      6  C   UNL A   1      32.885  21.025  25.737  1.00  0.00     0.174 C 
ATOM      7  N   UNL A   1      32.533  21.558  24.399  1.00  0.00    -0.331 N 
ATOM      8  C   UNL A   1      32.491  20.481  23.412  1.00  0.00     0.120 C 
ATOM      9  C   UNL A   1      32.526  19.186  24.191  1.00  0.00     0.024 C 
ATOM     10  C   UNL A   1      33.304  19.564  25.427  1.00  0.00     0.037 C 
BRANCH   7  11
ATOM     11  C   UNL A   1      31.854  22.756  24.247  1.00  0.00     0.223 C 
ATOM     12  O   UNL A   1      30.972  23.089  25.043  1.00  0.00    -0.275 OA
BRANCH  11  13
ATOM     13  C   UNL A   1      32.212  23.696  23.084  1.00  0.00     0.105 C 
BRANCH  13  14
ATOM     14  C   UNL A   1      33.489  24.539  23.263  1.00  0.00     0.053 C 
BRANCH  14  15
ATOM     15  C   UNL A   1      33.192  25.983  23.567  1.00  0.00     0.042 A 
ATOM     16  C   UNL A   1      32.543  26.727  21.208  1.00  0.00     0.046 C 
ATOM     17  C   UNL A   1      32.612  26.829  22.702  1.00  0.00    -0.030 A 
ATOM     18  C   UNL A   1      31.842  27.888  23.339  1.00  0.00     0.022 A 
ATOM     19  C   UNL A   1      33.584  26.501  24.921  1.00  0.00     0.339 A 
ATOM     20  C   UNL A   1      32.330  28.487  24.494  1.00  0.00     0.142 A 
ATOM     21  C   UNL A   1      30.548  28.177  22.914  1.00  0.00     0.024 A 
ATOM     22  O   UNL A   1      34.115  25.773  25.752  1.00  0.00    -0.246 OA
ATOM     23  O   UNL A   1      33.403  27.868  25.158  1.00  0.00    -0.422 OA
ATOM     24  C   UNL A   1      31.740  29.622  25.065  1.00  0.00     0.095 A 
ATOM     25  C   UNL A   1      29.886  29.250  23.503  1.00  0.00     0.025 A 
ATOM     26  C   UNL A   1      30.554  30.021  24.449  1.00  0.00     0.138 A 
ATOM     27  C   UNL A   1      28.673  29.902  23.219  1.00  0.00     0.001 A 
ATOM     28  O   UNL A   1      29.929  31.237  24.554  1.00  0.00    -0.461 OA
ATOM     29  C   UNL A   1      28.912  31.188  23.651  1.00  0.00     0.108 A 
ATOM     30  C   UNL A   1      27.689  29.642  22.143  1.00  0.00     0.040 C 
ATOM     31  C   UNL A   1      28.596  32.353  22.778  1.00  0.00     0.076 C 
ATOM     32  C   UNL A   1      28.027  30.547  20.945  1.00  0.00     0.005 C 
ATOM     33  C   UNL A   1      28.810  31.847  21.314  1.00  0.00     0.008 C 
ENDBRANCH  14  15
ENDBRANCH  13  14
ENDBRANCH  11  13
ENDBRANCH   7  11
ENDBRANCH   3   6
ENDBRANCH   1   2
BRANCH   1  34
ATOM     34  C   UNL A   1      36.452  23.441  25.101  1.00  0.00     0.042 C 
BRANCH  34  35
ATOM     35  C   UNL A   1      37.927  23.669  25.454  1.00  0.00     0.118 C 
BRANCH  35  36
ATOM     36  N   UNL A   1      38.607  22.498  26.001  1.00  0.00    -0.352 N 
ATOM     37  C   UNL A   1      39.668  22.408  26.879  1.00  0.00     0.251 C 
ATOM     38  H   UNL A   1      38.250  21.632  25.694  1.00  0.00     0.163 HD
ATOM     39  O   UNL A   1      40.129  21.324  27.190  1.00  0.00    -0.269 OA
BRANCH  37  40
ATOM     40  C   UNL A   1      40.296  23.650  27.372  1.00  0.00     0.039 A 
ATOM     41  C   UNL A   1      39.564  24.564  28.129  1.00  0.00     0.014 A 
ATOM     42  C   UNL A   1      41.609  23.934  26.979  1.00  0.00     0.014 A 
ATOM     43  C   UNL A   1      40.058  25.843  28.307  1.00  0.00     0.010 A 
ATOM     44  C   UNL A   1      42.134  25.200  27.220  1.00  0.00     0.010 A 
ATOM     45  C   UNL A   1      41.326  26.173  27.814  1.00  0.00    -0.014 A 
BRANCH  45  46
ATOM     46  C   UNL A   1      41.714  27.579  27.948  1.00  0.00     0.031 A 
ATOM     47  C   UNL A   1      40.585  28.547  27.843  1.00  0.00     0.074 A 
ATOM     48  C   UNL A   1      42.776  27.914  28.709  1.00  0.00     0.049 A 
ATOM     49  N   UNL A   1      39.812  28.871  28.837  1.00  0.00    -0.248 NA
ATOM     50  C   UNL A   1      40.112  29.021  26.541  1.00  0.00     0.031 C 
ATOM     51  C   UNL A   1      43.112  27.311  30.003  1.00  0.00     0.029 A 
ATOM     52  N   UNL A   1      43.630  28.984  28.595  1.00  0.00    -0.354 N 
ATOM     53  C   UNL A   1      38.731  29.547  28.302  1.00  0.00     0.074 A 
ATOM     54  C   UNL A   1      38.961  29.622  26.876  1.00  0.00     0.031 C 
ATOM     55  C   UNL A   1      43.972  28.125  30.646  1.00  0.00     0.029 A 
ATOM     56  C   UNL A   1      44.341  29.226  29.763  1.00  0.00     0.049 A 
ATOM     57  H   UNL A   1      43.727  29.520  27.775  1.00  0.00     0.167 HD
ATOM     58  C   UNL A   1      37.699  30.014  29.052  1.00  0.00     0.037 A 
ATOM     59  C   UNL A   1      44.735  30.464  30.167  1.00  0.00     0.037 A 
ATOM     60  C   UNL A   1      37.814  29.813  30.463  1.00  0.00     0.049 A 
ATOM     61  C   UNL A   1      43.426  30.997  30.706  1.00  0.00     0.074 A 
ATOM     62  C   UNL A   1      37.403  28.874  31.384  1.00  0.00     0.029 A 
ATOM     63  N   UNL A   1      38.582  30.702  31.177  1.00  0.00    -0.354 N 
ATOM     64  N   UNL A   1      42.902  30.718  31.873  1.00  0.00    -0.248 NA
ATOM     65  C   UNL A   1      42.484  31.579  29.746  1.00  0.00     0.031 C 
ATOM     66  C   UNL A   1      38.302  29.005  32.488  1.00  0.00     0.029 A 
ATOM     67  C   UNL A   1      39.238  29.978  32.140  1.00  0.00     0.049 A 
ATOM     68  H   UNL A   1      38.649  31.673  31.026  1.00  0.00     0.167 HD
ATOM     69  C   UNL A   1      41.520  30.826  31.692  1.00  0.00     0.074 A 
ATOM     70  C   UNL A   1      41.332  31.407  30.382  1.00  0.00     0.031 C 
ATOM     71  C   UNL A   1      40.603  30.250  32.523  1.00  0.00     0.037 A 
BRANCH  58  72
ATOM     72  C   UNL A   1      36.590  30.831  28.532  1.00  0.00     0.064 A 
ATOM     73  C   UNL A   1      36.710  32.226  28.590  1.00  0.00     0.173 A 
ATOM     74  C   UNL A   1      35.354  30.283  28.178  1.00  0.00     0.173 A 
ATOM     75  F   UNL A   1      37.884  32.783  28.932  1.00  0.00    -0.203 F 
ATOM     76  C   UNL A   1      35.617  33.050  28.351  1.00  0.00     0.198 A 
ATOM     77  C   UNL A   1      34.260  31.111  27.931  1.00  0.00     0.198 A 
ATOM     78  F   UNL A   1      35.195  28.952  28.117  1.00  0.00    -0.203 F 
ATOM     79  F   UNL A   1      35.748  34.378  28.462  1.00  0.00    -0.200 F 
ATOM     80  C   UNL A   1      34.389  32.491  28.033  1.00  0.00     0.200 A 
ATOM     81  F   UNL A   1      33.071  30.576  27.624  1.00  0.00    -0.200 F 
ATOM     82  F   UNL A   1      33.326  33.284  27.839  1.00  0.00    -0.200 F 
ENDBRANCH  58  72
BRANCH  59  83
ATOM     83  C   UNL A   1      45.612  31.170  29.177  1.00  0.00     0.064 A 
ATOM     84  C   UNL A   1      46.974  31.350  29.514  1.00  0.00     0.173 A 
ATOM     85  C   UNL A   1      45.225  31.640  27.917  1.00  0.00     0.173 A 
ATOM     86  F   UNL A   1      47.410  31.042  30.746  1.00  0.00    -0.203 F 
ATOM     87  C   UNL A   1      47.910  31.818  28.593  1.00  0.00     0.198 A 
ATOM     88  C   UNL A   1      46.167  32.088  26.985  1.00  0.00     0.198 A 
ATOM     89  F   UNL A   1      43.939  31.653  27.546  1.00  0.00    -0.203 F 
ATOM     90  F   UNL A   1      49.202  31.911  28.939  1.00  0.00    -0.200 F 
ATOM     91  C   UNL A   1      47.510  32.153  27.314  1.00  0.00     0.200 A 
ATOM     92  F   UNL A   1      45.768  32.425  25.751  1.00  0.00    -0.200 F 
ATOM     93  F   UNL A   1      48.412  32.537  26.402  1.00  0.00    -0.200 F 
ENDBRANCH  59  83
BRANCH  71  94
ATOM     94  C   UNL A   1      41.153  29.650  33.768  1.00  0.00     0.064 A 
ATOM     95  C   UNL A   1      41.505  28.296  33.798  1.00  0.00     0.173 A 
ATOM     96  C   UNL A   1      41.377  30.419  34.918  1.00  0.00     0.173 A 
ATOM     97  F   UNL A   1      41.317  27.522  32.716  1.00  0.00    -0.203 F 
ATOM     98  C   UNL A   1      42.084  27.737  34.932  1.00  0.00     0.198 A 
ATOM     99  C   UNL A   1      41.981  29.864  36.041  1.00  0.00     0.198 A 
ATOM    100  F   UNL A   1      41.038  31.719  34.954  1.00  0.00    -0.203 F 
ATOM    101  F   UNL A   1      42.422  26.440  34.940  1.00  0.00    -0.200 F 
ATOM    102  C   UNL A   1      42.335  28.524  36.046  1.00  0.00     0.200 A 
ATOM    103  F   UNL A   1      42.238  30.631  37.111  1.00  0.00    -0.200 F 
ATOM    104  F   UNL A   1      42.931  27.994  37.123  1.00  0.00    -0.200 F 
ENDBRANCH  71  94
ENDBRANCH  45  46
ENDBRANCH  37  40
ENDBRANCH  35  36
ENDBRANCH  34  35
ENDBRANCH   1  34
TORSDOF 14
ENDMDL
MODEL 2
REMARK VINA RESULT:     -13.4      3.100      8.779
REMARK SMILES Cc1c(CCC(=O)N2CCC[C@H]2C(=O)NCCCNC(=O)c2ccc(-c3c4nc(c(-c5c(F)c(F)c(F)c(F)c5F)c5ccc([nH]5)c(-c5c(F)c(F)c(F)c(F)c5F)c5nc(c(-c6c(F)c(F)c(F)c(F)c6F)c6ccc3[nH]6)C=C5)C=C4)cc2)c(=O)oc2cc3oc4c(c3cc12)CCCC4
REMARK SMILES IDX 16 1 15 2 13 3 14 4 12 6 8 7 9 8 10 9 11 10 6 11 7 12 5 13
REMARK SMILES IDX 4 14 3 15 1 16 2 17 96 18 85 19 88 20 95 21 86 22 87 23
REMARK SMILES IDX 89 24 94 25 90 26 93 27 91 28 92 29 97 30 100 31 98 32 99 33
REMARK SMILES IDX 17 34 18 35 19 36 20 37 21 39 22 40 23 41 84 42 24 43 83 44
REMARK SMILES IDX 25 45 26 46 27 47 77 48 28 49 82 50 76 51 78 52 29 53 81 54
REMARK SMILES IDX 75 55 74 56 30 58 62 59 42 60 61 61 43 62 46 63 60 64 79 65
REMARK SMILES IDX 44 66 45 67 59 69 80 70 47 71 31 72 32 73 40 74 33 75 34 76
REMARK SMILES IDX 38 77 41 78 35 79 36 80 39 81 37 82 63 83 64 84 72 85 65 86
REMARK SMILES IDX 66 87 70 88 73 89 67 90 68 91 71 92 69 93 48 94 49 95 57 96
REMARK SMILES IDX 50 97 51 98 55 99 58 100 52 101 53 102 56 103 54 104
REMARK H PARENT 15 5 19 38 78 57 46 68
REMARK Flexibility Score: inf
ROOT
ATOM      1  C   UNL A   1      33.236  29.964  26.092  1.00  0.00     0.117 C 
ENDROOT
BRANCH   1   2
ATOM      2  N   UNL A   1      33.663  29.672  24.744  1.00  0.00    -0.354 N 
ATOM      3  C   UNL A   1      33.267  28.792  23.806  1.00  0.00     0.242 C 
ATOM      4  O   UNL A   1      34.047  28.730  22.839  1.00  0.00    -0.273 OA
ATOM      5  H   UNL A   1      34.406  30.244  24.445  1.00  0.00     0.163 HD
BRANCH   3   6
ATOM      6  C   UNL A   1      32.029  27.846  23.831  1.00  0.00     0.174 C 
ATOM      7  N   UNL A   1      30.971  27.686  24.857  1.00  0.00    -0.331 N 
ATOM      8  C   UNL A   1      29.647  27.760  24.245  1.00  0.00     0.120 C 
ATOM      9  C   UNL A   1      29.862  27.670  22.751  1.00  0.00     0.024 C 
ATOM     10  C   UNL A   1      31.230  28.280  22.575  1.00  0.00     0.037 C 
BRANCH   7  11
ATOM     11  C   UNL A   1      31.216  27.052  26.065  1.00  0.00     0.223 C 
ATOM     12  O   UNL A   1      30.667  27.432  27.102  1.00  0.00    -0.275 OA
BRANCH  11  13
ATOM     13  C   UNL A   1      32.169  25.847  26.116  1.00  0.00     0.105 C 
BRANCH  13  14
ATOM     14  C   UNL A   1      31.507  24.467  26.296  1.00  0.00     0.053 C 
BRANCH  14  15
ATOM     15  C   UNL A   1      31.925  23.480  25.239  1.00  0.00     0.042 A 
ATOM     16  C   UNL A   1      33.880  22.408  26.491  1.00  0.00     0.046 C 
ATOM     17  C   UNL A   1      32.816  22.498  25.439  1.00  0.00    -0.030 A 
ATOM     18  C   UNL A   1      32.601  21.327  24.601  1.00  0.00     0.022 A 
ATOM     19  C   UNL A   1      31.307  23.621  23.878  1.00  0.00     0.339 A 
ATOM     20  C   UNL A   1      32.214  21.496  23.277  1.00  0.00     0.142 A 
ATOM     21  C   UNL A   1      32.598  20.049  25.156  1.00  0.00     0.024 A 
ATOM     22  O   UNL A   1      30.485  24.499  23.639  1.00  0.00    -0.246 OA
ATOM     23  O   UNL A   1      31.778  22.769  22.873  1.00  0.00    -0.422 OA
ATOM     24  C   UNL A   1      32.156  20.435  22.365  1.00  0.00     0.095 A 
ATOM     25  C   UNL A   1      32.467  18.960  24.300  1.00  0.00     0.025 A 
ATOM     26  C   UNL A   1      32.397  19.182  22.928  1.00  0.00     0.138 A 
ATOM     27  C   UNL A   1      32.577  17.572  24.489  1.00  0.00     0.001 A 
ATOM     28  O   UNL A   1      32.725  18.023  22.272  1.00  0.00    -0.461 OA
ATOM     29  C   UNL A   1      33.012  17.131  23.259  1.00  0.00     0.108 A 
ATOM     30  C   UNL A   1      32.898  16.807  25.717  1.00  0.00     0.040 C 
ATOM     31  C   UNL A   1      34.176  16.207  23.152  1.00  0.00     0.076 C 
ATOM     32  C   UNL A   1      34.416  16.558  25.752  1.00  0.00     0.005 C 
ATOM     33  C   UNL A   1      35.109  16.571  24.353  1.00  0.00     0.008 C 
ENDBRANCH  14  15
ENDBRANCH  13  14
ENDBRANCH  11  13
ENDBRANCH   7  11
ENDBRANCH   3   6
ENDBRANCH   1   2
BRANCH   1  34
ATOM     34  C   UNL A   1      34.079  29.232  27.129  1.00  0.00     0.042 C 
BRANCH  34  35
ATOM     35  C   UNL A   1      34.445  30.140  28.310  1.00  0.00     0.118 C 
BRANCH  35  36
ATOM     36  N   UNL A   1      34.714  31.529  27.946  1.00  0.00    -0.352 N 
ATOM     37  C   UNL A   1      35.884  32.258  28.001  1.00  0.00     0.251 C 
ATOM     38  H   UNL A   1      33.933  32.024  27.606  1.00  0.00     0.163 HD
ATOM     39  O   UNL A   1      35.900  33.435  27.688  1.00  0.00    -0.269 OA
BRANCH  37  40
ATOM     40  C   UNL A   1      37.105  31.613  28.527  1.00  0.00     0.039 A 
ATOM     41  C   UNL A   1      37.721  30.579  27.824  1.00  0.00     0.014 A 
ATOM     42  C   UNL A   1      37.568  31.997  29.790  1.00  0.00     0.014 A 
ATOM     43  C   UNL A   1      38.654  29.787  28.468  1.00  0.00     0.010 A 
ATOM     44  C   UNL A   1      38.558  31.242  30.412  1.00  0.00     0.010 A 
ATOM     45  C   UNL A   1      39.040  30.094  29.778  1.00  0.00    -0.014 A 
BRANCH  45  46
ATOM     46  C   UNL A   1      39.943  29.134  30.416  1.00  0.00     0.031 A 
ATOM     47  C   UNL A   1      39.842  27.742  29.889  1.00  0.00     0.074 A 
ATOM     48  C   UNL A   1      41.129  29.548  30.905  1.00  0.00     0.049 A 
ATOM     49  N   UNL A   1      40.464  27.322  28.828  1.00  0.00    -0.248 NA
ATOM     50  C   UNL A   1      38.834  26.811  30.397  1.00  0.00     0.031 C 
ATOM     51  C   UNL A   1      42.017  30.519  30.258  1.00  0.00     0.029 A 
ATOM     52  N   UNL A   1      41.872  29.040  31.944  1.00  0.00    -0.354 N 
ATOM     53  C   UNL A   1      39.909  26.100  28.494  1.00  0.00     0.074 A 
ATOM     54  C   UNL A   1      38.906  25.820  29.498  1.00  0.00     0.031 C 
ATOM     55  C   UNL A   1      43.246  30.405  30.799  1.00  0.00     0.029 A 
ATOM     56  C   UNL A   1      43.197  29.456  31.906  1.00  0.00     0.049 A 
ATOM     57  H   UNL A   1      41.504  28.448  32.639  1.00  0.00     0.167 HD
ATOM     58  C   UNL A   1      40.298  25.376  27.413  1.00  0.00     0.037 A 
ATOM     59  C   UNL A   1      44.239  28.702  32.346  1.00  0.00     0.037 A 
ATOM     60  C   UNL A   1      41.372  25.928  26.647  1.00  0.00     0.049 A 
ATOM     61  C   UNL A   1      44.378  27.738  31.189  1.00  0.00     0.074 A 
ATOM     62  C   UNL A   1      41.508  26.729  25.534  1.00  0.00     0.029 A 
ATOM     63  N   UNL A   1      42.654  25.722  27.099  1.00  0.00    -0.354 N 
ATOM     64  N   UNL A   1      44.965  27.986  30.045  1.00  0.00    -0.248 NA
ATOM     65  C   UNL A   1      43.500  26.565  31.175  1.00  0.00     0.031 C 
ATOM     66  C   UNL A   1      42.808  27.315  25.644  1.00  0.00     0.029 A 
ATOM     67  C   UNL A   1      43.354  26.875  26.849  1.00  0.00     0.049 A 
ATOM     68  H   UNL A   1      43.003  24.904  27.522  1.00  0.00     0.167 HD
ATOM     69  C   UNL A   1      44.309  27.176  29.112  1.00  0.00     0.074 A 
ATOM     70  C   UNL A   1      43.459  26.293  29.878  1.00  0.00     0.031 C 
ATOM     71  C   UNL A   1      44.335  27.404  27.767  1.00  0.00     0.037 A 
BRANCH  58  72
ATOM     72  C   UNL A   1      39.807  24.026  27.091  1.00  0.00     0.064 A 
ATOM     73  C   UNL A   1      40.623  22.931  27.405  1.00  0.00     0.173 A 
ATOM     74  C   UNL A   1      38.670  23.805  26.308  1.00  0.00     0.173 A 
ATOM     75  F   UNL A   1      41.727  23.111  28.151  1.00  0.00    -0.203 F 
ATOM     76  C   UNL A   1      40.342  21.662  26.913  1.00  0.00     0.198 A 
ATOM     77  C   UNL A   1      38.385  22.530  25.821  1.00  0.00     0.198 A 
ATOM     78  F   UNL A   1      37.866  24.827  25.979  1.00  0.00    -0.203 F 
ATOM     79  F   UNL A   1      41.167  20.644  27.188  1.00  0.00    -0.200 F 
ATOM     80  C   UNL A   1      39.228  21.465  26.111  1.00  0.00     0.200 A 
ATOM     81  F   UNL A   1      37.310  22.335  25.045  1.00  0.00    -0.200 F 
ATOM     82  F   UNL A   1      38.978  20.249  25.606  1.00  0.00    -0.200 F 
ENDBRANCH  58  72
BRANCH  59  83
ATOM     83  C   UNL A   1      44.132  28.309  33.789  1.00  0.00     0.064 A 
ATOM     84  C   UNL A   1      43.554  29.239  34.685  1.00  0.00     0.173 A 
ATOM     85  C   UNL A   1      44.510  27.080  34.342  1.00  0.00     0.173 A 
ATOM     86  F   UNL A   1      43.272  30.486  34.273  1.00  0.00    -0.203 F 
ATOM     87  C   UNL A   1      43.234  28.903  35.999  1.00  0.00     0.198 A 
ATOM     88  C   UNL A   1      44.168  26.734  35.653  1.00  0.00     0.198 A 
ATOM     89  F   UNL A   1      45.192  26.178  33.625  1.00  0.00    -0.203 F 
ATOM     90  F   UNL A   1      42.630  29.799  36.792  1.00  0.00    -0.200 F 
ATOM     91  C   UNL A   1      43.509  27.634  36.472  1.00  0.00     0.200 A 
ATOM     92  F   UNL A   1      44.452  25.506  36.108  1.00  0.00    -0.200 F 
ATOM     93  F   UNL A   1      43.142  27.280  37.710  1.00  0.00    -0.200 F 
ENDBRANCH  59  83
BRANCH  71  94
ATOM     94  C   UNL A   1      45.272  28.466  27.313  1.00  0.00     0.064 A 
ATOM     95  C   UNL A   1      44.823  29.783  27.169  1.00  0.00     0.173 A 
ATOM     96  C   UNL A   1      46.625  28.195  27.063  1.00  0.00     0.173 A 
ATOM     97  F   UNL A   1      43.537  30.091  27.406  1.00  0.00    -0.203 F 
ATOM     98  C   UNL A   1      45.703  30.800  26.812  1.00  0.00     0.198 A 
ATOM     99  C   UNL A   1      47.507  29.218  26.733  1.00  0.00     0.198 A 
ATOM    100  F   UNL A   1      47.106  26.945  27.164  1.00  0.00    -0.203 F 
ATOM    101  F   UNL A   1      45.256  32.057  26.687  1.00  0.00    -0.200 F 
ATOM    102  C   UNL A   1      47.045  30.519  26.609  1.00  0.00     0.200 A 
ATOM    103  F   UNL A   1      48.808  28.946  26.554  1.00  0.00    -0.200 F 
ATOM    104  F   UNL A   1      47.900  31.506  26.306  1.00  0.00    -0.200 F 
ENDBRANCH  71  94
ENDBRANCH  45  46
ENDBRANCH  37  40
ENDBRANCH  35  36
ENDBRANCH  34  35
ENDBRANCH   1  34
TORSDOF 14
ENDMDL
MODEL 3
REMARK VINA RESULT:     -13.3      5.707     10.176
REMARK SMILES Cc1c(CCC(=O)N2CCC[C@H]2C(=O)NCCCNC(=O)c2ccc(-c3c4nc(c(-c5c(F)c(F)c(F)c(F)c5F)c5ccc([nH]5)c(-c5c(F)c(F)c(F)c(F)c5F)c5nc(c(-c6c(F)c(F)c(F)c(F)c6F)c6ccc3[nH]6)C=C5)C=C4)cc2)c(=O)oc2cc3oc4c(c3cc12)CCCC4
REMARK SMILES IDX 16 1 15 2 13 3 14 4 12 6 8 7 9 8 10 9 11 10 6 11 7 12 5 13
REMARK SMILES IDX 4 14 3 15 1 16 2 17 96 18 85 19 88 20 95 21 86 22 87 23
REMARK SMILES IDX 89 24 94 25 90 26 93 27 91 28 92 29 97 30 100 31 98 32 99 33
REMARK SMILES IDX 17 34 18 35 19 36 20 37 21 39 22 40 23 41 84 42 24 43 83 44
REMARK SMILES IDX 25 45 26 46 27 47 77 48 28 49 82 50 76 51 78 52 29 53 81 54
REMARK SMILES IDX 75 55 74 56 30 58 62 59 42 60 61 61 43 62 46 63 60 64 79 65
REMARK SMILES IDX 44 66 45 67 59 69 80 70 47 71 31 72 32 73 40 74 33 75 34 76
REMARK SMILES IDX 38 77 41 78 35 79 36 80 39 81 37 82 63 83 64 84 72 85 65 86
REMARK SMILES IDX 66 87 70 88 73 89 67 90 68 91 71 92 69 93 48 94 49 95 57 96
REMARK SMILES IDX 50 97 51 98 55 99 58 100 52 101 53 102 56 103 54 104
REMARK H PARENT 15 5 19 38 78 57 46 68
REMARK Flexibility Score: inf
ROOT
ATOM      1  C   UNL A   1      41.303  27.348  35.433  1.00  0.00     0.117 C 
ENDROOT
BRANCH   1   2
ATOM      2  N   UNL A   1      41.339  28.574  36.194  1.00  0.00    -0.354 N 
ATOM      3  C   UNL A   1      42.023  29.728  36.081  1.00  0.00     0.242 C 
ATOM      4  O   UNL A   1      41.907  30.461  37.080  1.00  0.00    -0.273 OA
ATOM      5  H   UNL A   1      40.726  28.564  36.965  1.00  0.00     0.163 HD
BRANCH   3   6
ATOM      6  C   UNL A   1      42.946  30.192  34.915  1.00  0.00     0.174 C 
ATOM      7  N   UNL A   1      43.309  31.559  34.471  1.00  0.00    -0.331 N 
ATOM      8  C   UNL A   1      44.758  31.687  34.336  1.00  0.00     0.120 C 
ATOM      9  C   UNL A   1      45.319  30.285  34.411  1.00  0.00     0.024 C 
ATOM     10  C   UNL A   1      44.318  29.573  35.286  1.00  0.00     0.037 C 
BRANCH   7  11
ATOM     11  C   UNL A   1      42.408  32.372  33.801  1.00  0.00     0.223 C 
ATOM     12  O   UNL A   1      42.612  32.714  32.634  1.00  0.00    -0.275 OA
BRANCH  11  13
ATOM     13  C   UNL A   1      41.128  32.841  34.511  1.00  0.00     0.105 C 
BRANCH  13  14
ATOM     14  C   UNL A   1      39.817  32.170  34.057  1.00  0.00     0.053 C 
BRANCH  14  15
ATOM     15  C   UNL A   1      38.715  33.163  33.800  1.00  0.00     0.042 A 
ATOM     16  C   UNL A   1      39.333  33.782  31.397  1.00  0.00     0.046 C 
ATOM     17  C   UNL A   1      38.436  33.681  32.595  1.00  0.00    -0.030 A 
ATOM     18  C   UNL A   1      37.039  34.051  32.421  1.00  0.00     0.022 A 
ATOM     19  C   UNL A   1      37.891  33.601  34.976  1.00  0.00     0.339 A 
ATOM     20  C   UNL A   1      36.351  34.639  33.475  1.00  0.00     0.142 A 
ATOM     21  C   UNL A   1      36.339  33.657  31.283  1.00  0.00     0.024 A 
ATOM     22  O   UNL A   1      38.100  33.159  36.101  1.00  0.00    -0.246 OA
ATOM     23  O   UNL A   1      36.940  34.603  34.751  1.00  0.00    -0.422 OA
ATOM     24  C   UNL A   1      35.066  35.177  33.334  1.00  0.00     0.095 A 
ATOM     25  C   UNL A   1      35.029  34.103  31.129  1.00  0.00     0.025 A 
ATOM     26  C   UNL A   1      34.490  34.962  32.082  1.00  0.00     0.138 A 
ATOM     27  C   UNL A   1      34.111  34.034  30.067  1.00  0.00     0.001 A 
ATOM     28  O   UNL A   1      33.418  35.619  31.534  1.00  0.00    -0.461 OA
ATOM     29  C   UNL A   1      33.347  35.165  30.253  1.00  0.00     0.108 A 
ATOM     30  C   UNL A   1      34.269  33.450  28.715  1.00  0.00     0.040 C 
ATOM     31  C   UNL A   1      33.074  36.092  29.118  1.00  0.00     0.076 C 
ATOM     32  C   UNL A   1      34.730  34.561  27.755  1.00  0.00     0.005 C 
ATOM     33  C   UNL A   1      34.335  36.005  28.197  1.00  0.00     0.008 C 
ENDBRANCH  14  15
ENDBRANCH  13  14
ENDBRANCH  11  13
ENDBRANCH   7  11
ENDBRANCH   3   6
ENDBRANCH   1   2
BRANCH   1  34
ATOM     34  C   UNL A   1      41.329  26.117  36.331  1.00  0.00     0.042 C 
BRANCH  34  35
ATOM     35  C   UNL A   1      41.746  24.859  35.562  1.00  0.00     0.118 C 
BRANCH  35  36
ATOM     36  N   UNL A   1      42.765  24.051  36.227  1.00  0.00    -0.352 N 
ATOM     37  C   UNL A   1      44.076  23.798  35.877  1.00  0.00     0.251 C 
ATOM     38  H   UNL A   1      42.468  23.617  37.060  1.00  0.00     0.163 HD
ATOM     39  O   UNL A   1      44.767  23.053  36.548  1.00  0.00    -0.269 OA
BRANCH  37  40
ATOM     40  C   UNL A   1      44.607  24.377  34.626  1.00  0.00     0.039 A 
ATOM     41  C   UNL A   1      45.328  25.570  34.646  1.00  0.00     0.014 A 
ATOM     42  C   UNL A   1      44.285  23.754  33.415  1.00  0.00     0.014 A 
ATOM     43  C   UNL A   1      45.537  26.252  33.461  1.00  0.00     0.010 A 
ATOM     44  C   UNL A   1      44.558  24.408  32.217  1.00  0.00     0.010 A 
ATOM     45  C   UNL A   1      45.113  25.690  32.251  1.00  0.00    -0.014 A 
BRANCH  45  46
ATOM     46  C   UNL A   1      45.273  26.535  31.066  1.00  0.00     0.031 A 
ATOM     47  C   UNL A   1      45.166  25.810  29.767  1.00  0.00     0.074 A 
ATOM     48  C   UNL A   1      44.900  27.830  31.109  1.00  0.00     0.049 A 
ATOM     49  N   UNL A   1      44.039  25.540  29.178  1.00  0.00    -0.248 NA
ATOM     50  C   UNL A   1      46.323  25.133  29.180  1.00  0.00     0.031 C 
ATOM     51  C   UNL A   1      43.694  28.341  31.769  1.00  0.00     0.029 A 
ATOM     52  N   UNL A   1      45.389  28.904  30.404  1.00  0.00    -0.354 N 
ATOM     53  C   UNL A   1      44.318  24.627  28.177  1.00  0.00     0.074 A 
ATOM     54  C   UNL A   1      45.747  24.408  28.211  1.00  0.00     0.031 C 
ATOM     55  C   UNL A   1      43.435  29.575  31.295  1.00  0.00     0.029 A 
ATOM     56  C   UNL A   1      44.516  29.985  30.406  1.00  0.00     0.049 A 
ATOM     57  H   UNL A   1      46.262  28.907  29.950  1.00  0.00     0.167 HD
ATOM     58  C   UNL A   1      43.365  24.095  27.368  1.00  0.00     0.037 A 
ATOM     59  C   UNL A   1      44.401  30.866  29.376  1.00  0.00     0.037 A 
ATOM     60  C   UNL A   1      42.034  24.576  27.573  1.00  0.00     0.049 A 
ATOM     61  C   UNL A   1      43.576  30.042  28.413  1.00  0.00     0.074 A 
ATOM     62  C   UNL A   1      40.924  24.194  28.295  1.00  0.00     0.029 A 
ATOM     63  N   UNL A   1      41.689  25.776  26.996  1.00  0.00    -0.354 N 
ATOM     64  N   UNL A   1      42.282  29.851  28.472  1.00  0.00    -0.248 NA
ATOM     65  C   UNL A   1      44.287  29.089  27.555  1.00  0.00     0.031 C 
ATOM     66  C   UNL A   1      40.153  25.386  28.467  1.00  0.00     0.029 A 
ATOM     67  C   UNL A   1      40.876  26.427  27.887  1.00  0.00     0.049 A 
ATOM     68  H   UNL A   1      41.973  26.104  26.111  1.00  0.00     0.167 HD
ATOM     69  C   UNL A   1      42.067  28.597  27.893  1.00  0.00     0.074 A 
ATOM     70  C   UNL A   1      43.329  28.207  27.305  1.00  0.00     0.031 C 
ATOM     71  C   UNL A   1      40.941  27.854  28.101  1.00  0.00     0.037 A 
BRANCH  58  72
ATOM     72  C   UNL A   1      43.639  23.209  26.225  1.00  0.00     0.064 A 
ATOM     73  C   UNL A   1      43.318  21.850  26.348  1.00  0.00     0.173 A 
ATOM     74  C   UNL A   1      44.386  23.618  25.117  1.00  0.00     0.173 A 
ATOM     75  F   UNL A   1      42.607  21.423  27.405  1.00  0.00    -0.203 F 
ATOM     76  C   UNL A   1      43.770  20.920  25.420  1.00  0.00     0.198 A 
ATOM     77  C   UNL A   1      44.832  22.685  24.182  1.00  0.00     0.198 A 
ATOM     78  F   UNL A   1      44.719  24.909  24.965  1.00  0.00    -0.203 F 
ATOM     79  F   UNL A   1      43.491  19.621  25.589  1.00  0.00    -0.200 F 
ATOM     80  C   UNL A   1      44.537  21.337  24.343  1.00  0.00     0.200 A 
ATOM     81  F   UNL A   1      45.574  23.083  23.140  1.00  0.00    -0.200 F 
ATOM     82  F   UNL A   1      45.004  20.436  23.468  1.00  0.00    -0.200 F 
ENDBRANCH  58  72
BRANCH  59  83
ATOM     83  C   UNL A   1      45.681  31.566  29.036  1.00  0.00     0.064 A 
ATOM     84  C   UNL A   1      46.533  31.939  30.102  1.00  0.00     0.173 A 
ATOM     85  C   UNL A   1      46.149  31.855  27.749  1.00  0.00     0.173 A 
ATOM     86  F   UNL A   1      46.117  31.813  31.373  1.00  0.00    -0.203 F 
ATOM     87  C   UNL A   1      47.825  32.418  29.887  1.00  0.00     0.198 A 
ATOM     88  C   UNL A   1      47.452  32.314  27.532  1.00  0.00     0.198 A 
ATOM     89  F   UNL A   1      45.372  31.678  26.673  1.00  0.00    -0.203 F 
ATOM     90  F   UNL A   1      48.617  32.699  30.931  1.00  0.00    -0.200 F 
ATOM     91  C   UNL A   1      48.297  32.570  28.598  1.00  0.00     0.200 A 
ATOM     92  F   UNL A   1      47.898  32.474  26.278  1.00  0.00    -0.200 F 
ATOM     93  F   UNL A   1      49.559  32.964  28.383  1.00  0.00    -0.200 F 
ENDBRANCH  59  83
BRANCH  71  94
ATOM     94  C   UNL A   1      39.845  28.541  28.834  1.00  0.00     0.064 A 
ATOM     95  C   UNL A   1      39.728  28.392  30.220  1.00  0.00     0.173 A 
ATOM     96  C   UNL A   1      38.935  29.382  28.177  1.00  0.00     0.173 A 
ATOM     97  F   UNL A   1      40.582  27.603  30.892  1.00  0.00    -0.203 F 
ATOM     98  C   UNL A   1      38.750  29.083  30.929  1.00  0.00     0.198 A 
ATOM     99  C   UNL A   1      37.977  30.091  28.892  1.00  0.00     0.198 A 
ATOM    100  F   UNL A   1      38.986  29.544  26.845  1.00  0.00    -0.203 F 
ATOM    101  F   UNL A   1      38.658  28.935  32.258  1.00  0.00    -0.200 F 
ATOM    102  C   UNL A   1      37.886  29.942  30.267  1.00  0.00     0.200 A 
ATOM    103  F   UNL A   1      37.153  30.934  28.252  1.00  0.00    -0.200 F 
ATOM    104  F   UNL A   1      36.971  30.638  30.956  1.00  0.00    -0.200 F 
ENDBRANCH  71  94
ENDBRANCH  45  46
ENDBRANCH  37  40
ENDBRANCH  35  36
ENDBRANCH  34  35
ENDBRANCH   1  34
TORSDOF 14
ENDMDL
