MODEL 1
REMARK VINA RESULT:     -11.8      0.000      0.000
REMARK SMILES CC[C@H](C)CN(CC)c1nc(C(=O)NCCCNC(=O)c2ccc(-c3c4nc(c(-c5c(F)c(F)c(F)c(F)c5F)c5ccc([nH]5)c(-c5c(F)c(F)c(F)c(F)c5F)c5nc(c(-c6c(F)c(F)c(F)c(F)c6F)c6ccc3[nH]6)C=C5)C=C4)cc2)cc2ccccc12
REMARK SMILES IDX 15 1 14 2 12 3 13 4 11 6 9 7 10 8 90 9 85 10 89 11 84 12
REMARK SMILES IDX 86 13 88 14 87 15 6 16 5 17 3 18 4 19 2 20 1 21 7 22 8 23
REMARK SMILES IDX 16 24 17 25 18 26 19 27 20 29 21 30 22 31 83 32 23 33 82 34
REMARK SMILES IDX 24 35 25 36 26 37 76 38 27 39 81 40 75 41 77 42 28 43 80 44
REMARK SMILES IDX 74 45 73 46 29 48 61 49 41 50 60 51 42 52 45 53 59 54 78 55
REMARK SMILES IDX 43 56 44 57 58 59 79 60 46 61 30 62 31 63 39 64 32 65 33 66
REMARK SMILES IDX 37 67 40 68 34 69 35 70 38 71 36 72 62 73 63 74 71 75 64 76
REMARK SMILES IDX 65 77 69 78 72 79 66 80 67 81 70 82 68 83 47 84 48 85 56 86
REMARK SMILES IDX 49 87 50 88 54 89 57 90 51 91 52 92 55 93 53 94
REMARK H PARENT 14 5 18 28 77 47 45 58
REMARK Flexibility Score: inf
ROOT
ATOM      1  C   UNL A   1      31.854  30.480  26.833  1.00  0.00     0.118 C 
ENDROOT
BRANCH   1   2
ATOM      2  N   UNL A   1      33.164  30.156  27.359  1.00  0.00    -0.351 N 
ATOM      3  C   UNL A   1      33.993  29.092  27.102  1.00  0.00     0.269 C 
ATOM      4  O   UNL A   1      35.051  29.051  27.739  1.00  0.00    -0.268 OA
ATOM      5  H   UNL A   1      33.519  30.807  28.008  1.00  0.00     0.163 HD
BRANCH   3   6
ATOM      6  C   UNL A   1      33.689  28.018  26.099  1.00  0.00     0.131 A 
ATOM      7  C   UNL A   1      32.878  25.898  25.588  1.00  0.00     0.137 A 
ATOM      8  N   UNL A   1      33.228  26.815  26.518  1.00  0.00    -0.225 NA
ATOM      9  C   UNL A   1      32.867  26.212  24.204  1.00  0.00     0.024 A 
ATOM     10  C   UNL A   1      33.453  27.426  23.795  1.00  0.00    -0.012 A 
ATOM     11  C   UNL A   1      32.323  25.378  23.202  1.00  0.00     0.012 A 
ATOM     12  C   UNL A   1      33.868  28.337  24.761  1.00  0.00     0.043 A 
ATOM     13  C   UNL A   1      33.615  27.708  22.429  1.00  0.00     0.009 A 
ATOM     14  C   UNL A   1      32.469  25.673  21.846  1.00  0.00     0.001 A 
ATOM     15  C   UNL A   1      33.145  26.824  21.460  1.00  0.00     0.001 A 
BRANCH   7  16
ATOM     16  N   UNL A   1      32.657  24.582  26.014  1.00  0.00    -0.356 N 
BRANCH  16  17
ATOM     17  C   UNL A   1      33.860  23.826  26.434  1.00  0.00     0.121 C 
BRANCH  17  18
ATOM     18  C   UNL A   1      34.860  23.603  25.275  1.00  0.00     0.005 C 
ATOM     19  C   UNL A   1      36.317  23.886  25.679  1.00  0.00     0.009 C 
BRANCH  18  20
ATOM     20  C   UNL A   1      34.760  22.195  24.650  1.00  0.00     0.002 C 
ATOM     21  C   UNL A   1      33.485  21.922  23.861  1.00  0.00     0.004 C 
ENDBRANCH  18  20
ENDBRANCH  17  18
ENDBRANCH  16  17
BRANCH  16  22
ATOM     22  C   UNL A   1      31.396  24.295  26.703  1.00  0.00     0.114 C 
ATOM     23  C   UNL A   1      30.778  22.949  26.353  1.00  0.00     0.027 C 
ENDBRANCH  16  22
ENDBRANCH   7  16
ENDBRANCH   3   6
ENDBRANCH   1   2
BRANCH   1  24
ATOM     24  C   UNL A   1      31.564  31.970  26.866  1.00  0.00     0.042 C 
BRANCH  24  25
ATOM     25  C   UNL A   1      32.782  32.844  27.107  1.00  0.00     0.118 C 
BRANCH  25  26
ATOM     26  N   UNL A   1      32.447  34.184  27.567  1.00  0.00    -0.352 N 
ATOM     27  C   UNL A   1      32.964  34.935  28.599  1.00  0.00     0.251 C 
ATOM     28  H   UNL A   1      31.733  34.628  27.054  1.00  0.00     0.163 HD
ATOM     29  O   UNL A   1      32.429  35.990  28.912  1.00  0.00    -0.269 OA
BRANCH  27  30
ATOM     30  C   UNL A   1      34.142  34.455  29.358  1.00  0.00     0.039 A 
ATOM     31  C   UNL A   1      33.941  33.835  30.595  1.00  0.00     0.014 A 
ATOM     32  C   UNL A   1      35.437  34.615  28.868  1.00  0.00     0.014 A 
ATOM     33  C   UNL A   1      35.028  33.298  31.290  1.00  0.00     0.010 A 
ATOM     34  C   UNL A   1      36.501  33.982  29.499  1.00  0.00     0.010 A 
ATOM     35  C   UNL A   1      36.312  33.323  30.723  1.00  0.00    -0.014 A 
BRANCH  35  36
ATOM     36  C   UNL A   1      37.476  32.684  31.390  1.00  0.00     0.031 A 
ATOM     37  C   UNL A   1      38.188  31.536  30.727  1.00  0.00     0.074 A 
ATOM     38  C   UNL A   1      37.840  33.078  32.627  1.00  0.00     0.049 A 
ATOM     39  N   UNL A   1      39.147  30.775  31.189  1.00  0.00    -0.248 NA
ATOM     40  C   UNL A   1      37.732  31.171  29.376  1.00  0.00     0.031 C 
ATOM     41  C   UNL A   1      37.198  34.140  33.403  1.00  0.00     0.029 A 
ATOM     42  N   UNL A   1      38.834  32.619  33.455  1.00  0.00    -0.354 N 
ATOM     43  C   UNL A   1      39.385  29.826  30.202  1.00  0.00     0.074 A 
ATOM     44  C   UNL A   1      38.433  30.071  29.140  1.00  0.00     0.031 C 
ATOM     45  C   UNL A   1      37.832  34.272  34.579  1.00  0.00     0.029 A 
ATOM     46  C   UNL A   1      38.897  33.278  34.659  1.00  0.00     0.049 A 
ATOM     47  H   UNL A   1      39.445  31.887  33.210  1.00  0.00     0.167 HD
ATOM     48  C   UNL A   1      40.328  28.855  30.170  1.00  0.00     0.037 A 
ATOM     49  C   UNL A   1      39.718  33.096  35.711  1.00  0.00     0.037 A 
ATOM     50  C   UNL A   1      41.304  28.645  31.205  1.00  0.00     0.049 A 
ATOM     51  C   UNL A   1      40.770  32.022  35.643  1.00  0.00     0.074 A 
ATOM     52  C   UNL A   1      42.352  27.741  31.233  1.00  0.00     0.029 A 
ATOM     53  N   UNL A   1      41.355  29.354  32.396  1.00  0.00    -0.354 N 
ATOM     54  N   UNL A   1      41.029  31.177  34.676  1.00  0.00    -0.248 NA
ATOM     55  C   UNL A   1      41.645  31.880  36.816  1.00  0.00     0.031 C 
ATOM     56  C   UNL A   1      43.013  27.877  32.459  1.00  0.00     0.029 A 
ATOM     57  C   UNL A   1      42.405  28.896  33.174  1.00  0.00     0.049 A 
ATOM     58  H   UNL A   1      40.736  30.077  32.650  1.00  0.00     0.167 HD
ATOM     59  C   UNL A   1      42.113  30.424  35.107  1.00  0.00     0.074 A 
ATOM     60  C   UNL A   1      42.470  30.921  36.419  1.00  0.00     0.031 C 
ATOM     61  C   UNL A   1      42.754  29.412  34.473  1.00  0.00     0.037 A 
BRANCH  48  62
ATOM     62  C   UNL A   1      40.353  27.953  28.971  1.00  0.00     0.064 A 
ATOM     63  C   UNL A   1      41.109  28.263  27.830  1.00  0.00     0.173 A 
ATOM     64  C   UNL A   1      39.632  26.749  28.971  1.00  0.00     0.173 A 
ATOM     65  F   UNL A   1      41.806  29.408  27.774  1.00  0.00    -0.203 F 
ATOM     66  C   UNL A   1      41.115  27.422  26.722  1.00  0.00     0.198 A 
ATOM     67  C   UNL A   1      39.665  25.893  27.873  1.00  0.00     0.198 A 
ATOM     68  F   UNL A   1      38.898  26.399  30.038  1.00  0.00    -0.203 F 
ATOM     69  F   UNL A   1      41.800  27.768  25.623  1.00  0.00    -0.200 F 
ATOM     70  C   UNL A   1      40.399  26.235  26.746  1.00  0.00     0.200 A 
ATOM     71  F   UNL A   1      38.983  24.740  27.903  1.00  0.00    -0.200 F 
ATOM     72  F   UNL A   1      40.409  25.422  25.681  1.00  0.00    -0.200 F 
ENDBRANCH  48  62
BRANCH  49  73
ATOM     73  C   UNL A   1      39.605  33.974  36.903  1.00  0.00     0.064 A 
ATOM     74  C   UNL A   1      38.843  33.580  38.013  1.00  0.00     0.173 A 
ATOM     75  C   UNL A   1      40.246  35.220  36.962  1.00  0.00     0.173 A 
ATOM     76  F   UNL A   1      38.194  32.406  37.995  1.00  0.00    -0.203 F 
ATOM     77  C   UNL A   1      38.711  34.406  39.127  1.00  0.00     0.198 A 
ATOM     78  C   UNL A   1      40.135  36.034  38.089  1.00  0.00     0.198 A 
ATOM     79  F   UNL A   1      40.991  35.642  35.930  1.00  0.00    -0.203 F 
ATOM     80  F   UNL A   1      37.941  34.022  40.155  1.00  0.00    -0.200 F 
ATOM     81  C   UNL A   1      39.361  35.629  39.167  1.00  0.00     0.200 A 
ATOM     82  F   UNL A   1      40.776  37.209  38.130  1.00  0.00    -0.200 F 
ATOM     83  F   UNL A   1      39.238  36.422  40.240  1.00  0.00    -0.200 F 
ENDBRANCH  49  73
BRANCH  61  84
ATOM     84  C   UNL A   1      43.933  28.801  35.172  1.00  0.00     0.064 A 
ATOM     85  C   UNL A   1      43.786  27.722  36.055  1.00  0.00     0.173 A 
ATOM     86  C   UNL A   1      45.229  29.277  34.921  1.00  0.00     0.173 A 
ATOM     87  F   UNL A   1      42.565  27.243  36.338  1.00  0.00    -0.203 F 
ATOM     88  C   UNL A   1      44.893  27.155  36.680  1.00  0.00     0.198 A 
ATOM     89  C   UNL A   1      46.336  28.689  35.526  1.00  0.00     0.198 A 
ATOM     90  F   UNL A   1      45.422  30.303  34.080  1.00  0.00    -0.203 F 
ATOM     91  F   UNL A   1      44.727  26.153  37.554  1.00  0.00    -0.200 F 
ATOM     92  C   UNL A   1      46.167  27.633  36.409  1.00  0.00     0.200 A 
ATOM     93  F   UNL A   1      47.567  29.143  35.254  1.00  0.00    -0.200 F 
ATOM     94  F   UNL A   1      47.232  27.080  37.006  1.00  0.00    -0.200 F 
ENDBRANCH  61  84
ENDBRANCH  35  36
ENDBRANCH  27  30
ENDBRANCH  25  26
ENDBRANCH  24  25
ENDBRANCH   1  24
TORSDOF 15
ENDMDL
MODEL 2
REMARK VINA RESULT:     -11.6      5.627     11.000
REMARK SMILES CC[C@H](C)CN(CC)c1nc(C(=O)NCCCNC(=O)c2ccc(-c3c4nc(c(-c5c(F)c(F)c(F)c(F)c5F)c5ccc([nH]5)c(-c5c(F)c(F)c(F)c(F)c5F)c5nc(c(-c6c(F)c(F)c(F)c(F)c6F)c6ccc3[nH]6)C=C5)C=C4)cc2)cc2ccccc12
REMARK SMILES IDX 15 1 14 2 12 3 13 4 11 6 9 7 10 8 90 9 85 10 89 11 84 12
REMARK SMILES IDX 86 13 88 14 87 15 6 16 5 17 3 18 4 19 2 20 1 21 7 22 8 23
REMARK SMILES IDX 16 24 17 25 18 26 19 27 20 29 21 30 22 31 83 32 23 33 82 34
REMARK SMILES IDX 24 35 25 36 26 37 76 38 27 39 81 40 75 41 77 42 28 43 80 44
REMARK SMILES IDX 74 45 73 46 29 48 61 49 41 50 60 51 42 52 45 53 59 54 78 55
REMARK SMILES IDX 43 56 44 57 58 59 79 60 46 61 30 62 31 63 39 64 32 65 33 66
REMARK SMILES IDX 37 67 40 68 34 69 35 70 38 71 36 72 62 73 63 74 71 75 64 76
REMARK SMILES IDX 65 77 69 78 72 79 66 80 67 81 70 82 68 83 47 84 48 85 56 86
REMARK SMILES IDX 49 87 50 88 54 89 57 90 51 91 52 92 55 93 53 94
REMARK H PARENT 14 5 18 28 77 47 45 58
REMARK Flexibility Score: inf
ROOT
ATOM      1  C   UNL A   1      37.273  21.163  24.600  1.00  0.00     0.118 C 
ENDROOT
BRANCH   1   2
ATOM      2  N   UNL A   1      37.774  22.356  25.250  1.00  0.00    -0.351 N 
ATOM      3  C   UNL A   1      37.130  23.509  25.624  1.00  0.00     0.269 C 
ATOM      4  O   UNL A   1      37.829  24.393  26.129  1.00  0.00    -0.268 OA
ATOM      5  H   UNL A   1      38.736  22.336  25.459  1.00  0.00     0.163 HD
BRANCH   3   6
ATOM      6  C   UNL A   1      35.654  23.731  25.467  1.00  0.00     0.131 A 
ATOM      7  C   UNL A   1      33.838  24.432  24.192  1.00  0.00     0.137 A 
ATOM      8  N   UNL A   1      35.177  24.326  24.346  1.00  0.00    -0.225 NA
ATOM      9  C   UNL A   1      32.936  23.831  25.107  1.00  0.00     0.024 A 
ATOM     10  C   UNL A   1      33.457  23.318  26.312  1.00  0.00    -0.012 A 
ATOM     11  C   UNL A   1      31.542  23.726  24.901  1.00  0.00     0.012 A 
ATOM     12  C   UNL A   1      34.836  23.272  26.487  1.00  0.00     0.043 A 
ATOM     13  C   UNL A   1      32.590  22.863  27.319  1.00  0.00     0.009 A 
ATOM     14  C   UNL A   1      30.687  23.255  25.898  1.00  0.00     0.001 A 
ATOM     15  C   UNL A   1      31.212  22.853  27.120  1.00  0.00     0.001 A 
BRANCH   7  16
ATOM     16  N   UNL A   1      33.359  25.270  23.177  1.00  0.00    -0.356 N 
BRANCH  16  17
ATOM     17  C   UNL A   1      33.914  26.643  23.154  1.00  0.00     0.121 C 
BRANCH  17  18
ATOM     18  C   UNL A   1      33.079  27.639  23.993  1.00  0.00     0.005 C 
ATOM     19  C   UNL A   1      31.582  27.290  24.020  1.00  0.00     0.009 C 
BRANCH  18  20
ATOM     20  C   UNL A   1      33.600  27.803  25.437  1.00  0.00     0.002 C 
ATOM     21  C   UNL A   1      32.747  27.147  26.515  1.00  0.00     0.004 C 
ENDBRANCH  18  20
ENDBRANCH  17  18
ENDBRANCH  16  17
BRANCH  16  22
ATOM     22  C   UNL A   1      33.013  24.652  21.894  1.00  0.00     0.114 C 
ATOM     23  C   UNL A   1      32.620  25.640  20.804  1.00  0.00     0.027 C 
ENDBRANCH  16  22
ENDBRANCH   7  16
ENDBRANCH   3   6
ENDBRANCH   1   2
BRANCH   1  24
ATOM     24  C   UNL A   1      38.100  19.931  24.921  1.00  0.00     0.042 C 
BRANCH  24  25
ATOM     25  C   UNL A   1      39.196  20.158  25.947  1.00  0.00     0.118 C 
BRANCH  25  26
ATOM     26  N   UNL A   1      40.234  19.137  25.916  1.00  0.00    -0.352 N 
ATOM     27  C   UNL A   1      41.601  19.244  26.027  1.00  0.00     0.251 C 
ATOM     28  H   UNL A   1      39.902  18.218  25.796  1.00  0.00     0.163 HD
ATOM     29  O   UNL A   1      42.308  18.266  25.820  1.00  0.00    -0.269 OA
BRANCH  27  30
ATOM     30  C   UNL A   1      42.228  20.544  26.359  1.00  0.00     0.039 A 
ATOM     31  C   UNL A   1      42.725  21.339  25.321  1.00  0.00     0.014 A 
ATOM     32  C   UNL A   1      42.335  20.984  27.677  1.00  0.00     0.014 A 
ATOM     33  C   UNL A   1      43.242  22.606  25.600  1.00  0.00     0.010 A 
ATOM     34  C   UNL A   1      42.741  22.287  27.944  1.00  0.00     0.010 A 
ATOM     35  C   UNL A   1      43.208  23.112  26.910  1.00  0.00    -0.014 A 
BRANCH  35  36
ATOM     36  C   UNL A   1      43.667  24.488  27.231  1.00  0.00     0.031 A 
ATOM     37  C   UNL A   1      42.689  25.503  27.758  1.00  0.00     0.074 A 
ATOM     38  C   UNL A   1      44.939  24.850  26.970  1.00  0.00     0.049 A 
ATOM     39  N   UNL A   1      42.863  26.779  27.993  1.00  0.00    -0.248 NA
ATOM     40  C   UNL A   1      41.321  25.027  28.021  1.00  0.00     0.031 C 
ATOM     41  C   UNL A   1      45.971  23.978  26.406  1.00  0.00     0.029 A 
ATOM     42  N   UNL A   1      45.578  26.054  27.132  1.00  0.00    -0.354 N 
ATOM     43  C   UNL A   1      41.623  27.261  28.397  1.00  0.00     0.074 A 
ATOM     44  C   UNL A   1      40.694  26.155  28.323  1.00  0.00     0.031 C 
ATOM     45  C   UNL A   1      47.119  24.665  26.299  1.00  0.00     0.029 A 
ATOM     46  C   UNL A   1      46.895  26.036  26.745  1.00  0.00     0.049 A 
ATOM     47  H   UNL A   1      45.133  26.856  27.493  1.00  0.00     0.167 HD
ATOM     48  C   UNL A   1      41.294  28.505  28.818  1.00  0.00     0.037 A 
ATOM     49  C   UNL A   1      47.817  27.018  26.745  1.00  0.00     0.037 A 
ATOM     50  C   UNL A   1      42.231  29.590  28.937  1.00  0.00     0.049 A 
ATOM     51  C   UNL A   1      47.431  28.388  27.235  1.00  0.00     0.074 A 
ATOM     52  C   UNL A   1      42.016  30.866  29.428  1.00  0.00     0.029 A 
ATOM     53  N   UNL A   1      43.565  29.523  28.564  1.00  0.00    -0.354 N 
ATOM     54  N   UNL A   1      46.274  28.812  27.680  1.00  0.00    -0.248 NA
ATOM     55  C   UNL A   1      48.483  29.414  27.224  1.00  0.00     0.031 C 
ATOM     56  C   UNL A   1      43.212  31.584  29.316  1.00  0.00     0.029 A 
ATOM     57  C   UNL A   1      44.182  30.741  28.798  1.00  0.00     0.049 A 
ATOM     58  H   UNL A   1      44.008  28.728  28.190  1.00  0.00     0.167 HD
ATOM     59  C   UNL A   1      46.464  30.142  28.030  1.00  0.00     0.074 A 
ATOM     60  C   UNL A   1      47.852  30.451  27.757  1.00  0.00     0.031 C 
ATOM     61  C   UNL A   1      45.569  31.027  28.532  1.00  0.00     0.037 A 
BRANCH  48  62
ATOM     62  C   UNL A   1      39.862  28.754  29.190  1.00  0.00     0.064 A 
ATOM     63  C   UNL A   1      39.392  28.548  30.496  1.00  0.00     0.173 A 
ATOM     64  C   UNL A   1      38.951  29.230  28.234  1.00  0.00     0.173 A 
ATOM     65  F   UNL A   1      40.219  28.082  31.444  1.00  0.00    -0.203 F 
ATOM     66  C   UNL A   1      38.058  28.774  30.822  1.00  0.00     0.198 A 
ATOM     67  C   UNL A   1      37.624  29.486  28.571  1.00  0.00     0.198 A 
ATOM     68  F   UNL A   1      39.348  29.450  26.971  1.00  0.00    -0.203 F 
ATOM     69  F   UNL A   1      37.621  28.516  32.063  1.00  0.00    -0.200 F 
ATOM     70  C   UNL A   1      37.177  29.249  29.863  1.00  0.00     0.200 A 
ATOM     71  F   UNL A   1      36.777  29.956  27.646  1.00  0.00    -0.200 F 
ATOM     72  F   UNL A   1      35.894  29.471  30.180  1.00  0.00    -0.200 F 
ENDBRANCH  48  62
BRANCH  49  73
ATOM     73  C   UNL A   1      49.206  26.734  26.301  1.00  0.00     0.064 A 
ATOM     74  C   UNL A   1      49.596  26.969  24.975  1.00  0.00     0.173 A 
ATOM     75  C   UNL A   1      50.169  26.221  27.183  1.00  0.00     0.173 A 
ATOM     76  F   UNL A   1      48.705  27.439  24.090  1.00  0.00    -0.203 F 
ATOM     77  C   UNL A   1      50.889  26.684  24.543  1.00  0.00     0.198 A 
ATOM     78  C   UNL A   1      51.470  25.961  26.755  1.00  0.00     0.198 A 
ATOM     79  F   UNL A   1      49.849  25.982  28.463  1.00  0.00    -0.203 F 
ATOM     80  F   UNL A   1      51.222  26.879  23.259  1.00  0.00    -0.200 F 
ATOM     81  C   UNL A   1      51.827  26.186  25.434  1.00  0.00     0.200 A 
ATOM     82  F   UNL A   1      52.377  25.493  27.623  1.00  0.00    -0.200 F 
ATOM     83  F   UNL A   1      53.071  25.916  25.019  1.00  0.00    -0.200 F 
ENDBRANCH  49  73
BRANCH  61  84
ATOM     84  C   UNL A   1      46.072  32.402  28.856  1.00  0.00     0.064 A 
ATOM     85  C   UNL A   1      46.625  32.706  30.109  1.00  0.00     0.173 A 
ATOM     86  C   UNL A   1      46.037  33.416  27.887  1.00  0.00     0.173 A 
ATOM     87  F   UNL A   1      46.666  31.775  31.073  1.00  0.00    -0.203 F 
ATOM     88  C   UNL A   1      47.105  33.984  30.386  1.00  0.00     0.198 A 
ATOM     89  C   UNL A   1      46.543  34.684  28.159  1.00  0.00     0.198 A 
ATOM     90  F   UNL A   1      45.522  33.173  26.672  1.00  0.00    -0.203 F 
ATOM     91  F   UNL A   1      47.589  34.266  31.603  1.00  0.00    -0.200 F 
ATOM     92  C   UNL A   1      47.071  34.968  29.409  1.00  0.00     0.200 A 
ATOM     93  F   UNL A   1      46.521  35.630  27.210  1.00  0.00    -0.200 F 
ATOM     94  F   UNL A   1      47.541  36.195  29.676  1.00  0.00    -0.200 F 
ENDBRANCH  61  84
ENDBRANCH  35  36
ENDBRANCH  27  30
ENDBRANCH  25  26
ENDBRANCH  24  25
ENDBRANCH   1  24
TORSDOF 15
ENDMDL
MODEL 3
REMARK VINA RESULT:     -11.5      2.066      3.957
REMARK SMILES CC[C@H](C)CN(CC)c1nc(C(=O)NCCCNC(=O)c2ccc(-c3c4nc(c(-c5c(F)c(F)c(F)c(F)c5F)c5ccc([nH]5)c(-c5c(F)c(F)c(F)c(F)c5F)c5nc(c(-c6c(F)c(F)c(F)c(F)c6F)c6ccc3[nH]6)C=C5)C=C4)cc2)cc2ccccc12
REMARK SMILES IDX 15 1 14 2 12 3 13 4 11 6 9 7 10 8 90 9 85 10 89 11 84 12
REMARK SMILES IDX 86 13 88 14 87 15 6 16 5 17 3 18 4 19 2 20 1 21 7 22 8 23
REMARK SMILES IDX 16 24 17 25 18 26 19 27 20 29 21 30 22 31 83 32 23 33 82 34
REMARK SMILES IDX 24 35 25 36 26 37 76 38 27 39 81 40 75 41 77 42 28 43 80 44
REMARK SMILES IDX 74 45 73 46 29 48 61 49 41 50 60 51 42 52 45 53 59 54 78 55
REMARK SMILES IDX 43 56 44 57 58 59 79 60 46 61 30 62 31 63 39 64 32 65 33 66
REMARK SMILES IDX 37 67 40 68 34 69 35 70 38 71 36 72 62 73 63 74 71 75 64 76
REMARK SMILES IDX 65 77 69 78 72 79 66 80 67 81 70 82 68 83 47 84 48 85 56 86
REMARK SMILES IDX 49 87 50 88 54 89 57 90 51 91 52 92 55 93 53 94
REMARK H PARENT 14 5 18 28 77 47 45 58
REMARK Flexibility Score: inf
ROOT
ATOM      1  C   UNL A   1      32.060  26.772  24.696  1.00  0.00     0.118 C 
ENDROOT
BRANCH   1   2
ATOM      2  N   UNL A   1      32.559  26.719  23.338  1.00  0.00    -0.351 N 
ATOM      3  C   UNL A   1      33.389  25.812  22.724  1.00  0.00     0.269 C 
ATOM      4  O   UNL A   1      33.687  26.045  21.549  1.00  0.00    -0.268 OA
ATOM      5  H   UNL A   1      32.253  27.454  22.758  1.00  0.00     0.163 HD
BRANCH   3   6
ATOM      6  C   UNL A   1      33.919  24.578  23.394  1.00  0.00     0.131 A 
ATOM      7  C   UNL A   1      33.735  22.316  23.905  1.00  0.00     0.137 A 
ATOM      8  N   UNL A   1      33.193  23.434  23.371  1.00  0.00    -0.225 NA
ATOM      9  C   UNL A   1      35.076  22.289  24.367  1.00  0.00     0.024 A 
ATOM     10  C   UNL A   1      35.764  23.513  24.478  1.00  0.00    -0.012 A 
ATOM     11  C   UNL A   1      35.766  21.114  24.743  1.00  0.00     0.012 A 
ATOM     12  C   UNL A   1      35.171  24.670  23.983  1.00  0.00     0.043 A 
ATOM     13  C   UNL A   1      37.030  23.560  25.083  1.00  0.00     0.009 A 
ATOM     14  C   UNL A   1      37.033  21.165  25.326  1.00  0.00     0.001 A 
ATOM     15  C   UNL A   1      37.651  22.393  25.525  1.00  0.00     0.001 A 
BRANCH   7  16
ATOM     16  N   UNL A   1      32.893  21.216  24.117  1.00  0.00    -0.356 N 
BRANCH  16  17
ATOM     17  C   UNL A   1      32.171  21.193  25.410  1.00  0.00     0.121 C 
BRANCH  17  18
ATOM     18  C   UNL A   1      32.074  22.591  26.065  1.00  0.00     0.005 C 
ATOM     19  C   UNL A   1      30.646  23.163  26.047  1.00  0.00     0.009 C 
BRANCH  18  20
ATOM     20  C   UNL A   1      32.629  22.626  27.506  1.00  0.00     0.002 C 
ATOM     21  C   UNL A   1      33.956  21.906  27.710  1.00  0.00     0.004 C 
ENDBRANCH  18  20
ENDBRANCH  17  18
ENDBRANCH  16  17
BRANCH  16  22
ATOM     22  C   UNL A   1      32.219  20.643  22.949  1.00  0.00     0.114 C 
ATOM     23  C   UNL A   1      32.275  19.123  22.872  1.00  0.00     0.027 C 
ENDBRANCH  16  22
ENDBRANCH   7  16
ENDBRANCH   3   6
ENDBRANCH   1   2
BRANCH   1  24
ATOM     24  C   UNL A   1      32.939  27.608  25.609  1.00  0.00     0.042 C 
BRANCH  24  25
ATOM     25  C   UNL A   1      33.380  28.935  25.018  1.00  0.00     0.118 C 
BRANCH  25  26
ATOM     26  N   UNL A   1      32.763  30.085  25.662  1.00  0.00    -0.352 N 
ATOM     27  C   UNL A   1      33.152  30.814  26.763  1.00  0.00     0.251 C 
ATOM     28  H   UNL A   1      31.929  30.394  25.240  1.00  0.00     0.163 HD
ATOM     29  O   UNL A   1      32.400  31.657  27.233  1.00  0.00    -0.269 OA
BRANCH  27  30
ATOM     30  C   UNL A   1      34.460  30.557  27.409  1.00  0.00     0.039 A 
ATOM     31  C   UNL A   1      35.338  31.627  27.605  1.00  0.00     0.014 A 
ATOM     32  C   UNL A   1      34.831  29.275  27.815  1.00  0.00     0.014 A 
ATOM     33  C   UNL A   1      36.541  31.425  28.289  1.00  0.00     0.010 A 
ATOM     34  C   UNL A   1      35.969  29.096  28.593  1.00  0.00     0.010 A 
ATOM     35  C   UNL A   1      36.842  30.167  28.833  1.00  0.00    -0.014 A 
BRANCH  35  36
ATOM     36  C   UNL A   1      38.068  29.936  29.641  1.00  0.00     0.031 A 
ATOM     37  C   UNL A   1      39.154  29.034  29.119  1.00  0.00     0.074 A 
ATOM     38  C   UNL A   1      38.169  30.466  30.876  1.00  0.00     0.049 A 
ATOM     39  N   UNL A   1      40.244  28.617  29.713  1.00  0.00    -0.248 NA
ATOM     40  C   UNL A   1      38.971  28.499  27.760  1.00  0.00     0.031 C 
ATOM     41  C   UNL A   1      37.162  31.311  31.521  1.00  0.00     0.029 A 
ATOM     42  N   UNL A   1      39.163  30.361  31.817  1.00  0.00    -0.354 N 
ATOM     43  C   UNL A   1      40.854  27.749  28.815  1.00  0.00     0.074 A 
ATOM     44  C   UNL A   1      39.988  27.655  27.660  1.00  0.00     0.031 C 
ATOM     45  C   UNL A   1      37.603  31.672  32.737  1.00  0.00     0.029 A 
ATOM     46  C   UNL A   1      38.901  31.051  32.975  1.00  0.00     0.049 A 
ATOM     47  H   UNL A   1      39.986  29.839  31.674  1.00  0.00     0.167 HD
ATOM     48  C   UNL A   1      42.042  27.109  28.931  1.00  0.00     0.037 A 
ATOM     49  C   UNL A   1      39.626  31.165  34.104  1.00  0.00     0.037 A 
ATOM     50  C   UNL A   1      42.924  27.242  30.058  1.00  0.00     0.049 A 
ATOM     51  C   UNL A   1      40.951  30.458  34.201  1.00  0.00     0.074 A 
ATOM     52  C   UNL A   1      44.184  26.701  30.238  1.00  0.00     0.029 A 
ATOM     53  N   UNL A   1      42.637  27.977  31.200  1.00  0.00    -0.354 N 
ATOM     54  N   UNL A   1      41.549  29.697  33.318  1.00  0.00    -0.248 NA
ATOM     55  C   UNL A   1      41.703  30.631  35.452  1.00  0.00     0.031 C 
ATOM     56  C   UNL A   1      44.644  27.075  31.505  1.00  0.00     0.029 A 
ATOM     57  C   UNL A   1      43.690  27.887  32.096  1.00  0.00     0.049 A 
ATOM     58  H   UNL A   1      41.809  28.486  31.351  1.00  0.00     0.167 HD
ATOM     59  C   UNL A   1      42.757  29.324  33.891  1.00  0.00     0.074 A 
ATOM     60  C   UNL A   1      42.813  29.954  35.193  1.00  0.00     0.031 C 
ATOM     61  C   UNL A   1      43.733  28.531  33.383  1.00  0.00     0.037 A 
BRANCH  48  62
ATOM     62  C   UNL A   1      42.459  26.214  27.800  1.00  0.00     0.064 A 
ATOM     63  C   UNL A   1      43.334  26.654  26.795  1.00  0.00     0.173 A 
ATOM     64  C   UNL A   1      41.998  24.890  27.733  1.00  0.00     0.173 A 
ATOM     65  F   UNL A   1      43.793  27.914  26.805  1.00  0.00    -0.203 F 
ATOM     66  C   UNL A   1      43.703  25.815  25.748  1.00  0.00     0.198 A 
ATOM     67  C   UNL A   1      42.395  24.043  26.702  1.00  0.00     0.198 A 
ATOM     68  F   UNL A   1      41.165  24.415  28.672  1.00  0.00    -0.203 F 
ATOM     69  F   UNL A   1      44.495  26.276  24.770  1.00  0.00    -0.200 F 
ATOM     70  C   UNL A   1      43.239  24.509  25.705  1.00  0.00     0.200 A 
ATOM     71  F   UNL A   1      41.956  22.778  26.669  1.00  0.00    -0.200 F 
ATOM     72  F   UNL A   1      43.600  23.700  24.699  1.00  0.00    -0.200 F 
ENDBRANCH  48  62
BRANCH  49  73
ATOM     73  C   UNL A   1      39.133  32.010  35.222  1.00  0.00     0.064 A 
ATOM     74  C   UNL A   1      39.388  33.389  35.243  1.00  0.00     0.173 A 
ATOM     75  C   UNL A   1      38.404  31.466  36.289  1.00  0.00     0.173 A 
ATOM     76  F   UNL A   1      40.100  33.952  34.255  1.00  0.00    -0.203 F 
ATOM     77  C   UNL A   1      38.952  34.187  36.297  1.00  0.00     0.198 A 
ATOM     78  C   UNL A   1      37.944  32.270  37.331  1.00  0.00     0.198 A 
ATOM     79  F   UNL A   1      38.129  30.153  36.315  1.00  0.00    -0.203 F 
ATOM     80  F   UNL A   1      39.247  35.494  36.313  1.00  0.00    -0.200 F 
ATOM     81  C   UNL A   1      38.225  33.628  37.338  1.00  0.00     0.200 A 
ATOM     82  F   UNL A   1      37.231  31.729  38.327  1.00  0.00    -0.200 F 
ATOM     83  F   UNL A   1      37.801  34.397  38.350  1.00  0.00    -0.200 F 
ENDBRANCH  49  73
BRANCH  61  84
ATOM     84  C   UNL A   1      44.961  28.332  34.221  1.00  0.00     0.064 A 
ATOM     85  C   UNL A   1      46.051  29.211  34.148  1.00  0.00     0.173 A 
ATOM     86  C   UNL A   1      45.028  27.272  35.139  1.00  0.00     0.173 A 
ATOM     87  F   UNL A   1      46.041  30.230  33.276  1.00  0.00    -0.203 F 
ATOM     88  C   UNL A   1      47.176  29.022  34.948  1.00  0.00     0.198 A 
ATOM     89  C   UNL A   1      46.141  27.104  35.956  1.00  0.00     0.198 A 
ATOM     90  F   UNL A   1      44.008  26.409  35.250  1.00  0.00    -0.203 F 
ATOM     91  F   UNL A   1      48.225  29.847  34.832  1.00  0.00    -0.200 F 
ATOM     92  C   UNL A   1      47.216  27.974  35.856  1.00  0.00     0.200 A 
ATOM     93  F   UNL A   1      46.174  26.099  36.842  1.00  0.00    -0.200 F 
ATOM     94  F   UNL A   1      48.296  27.799  36.631  1.00  0.00    -0.200 F 
ENDBRANCH  61  84
ENDBRANCH  35  36
ENDBRANCH  27  30
ENDBRANCH  25  26
ENDBRANCH  24  25
ENDBRANCH   1  24
TORSDOF 15
ENDMDL
