MODEL 1
REMARK VINA RESULT:     -13.2      0.000      0.000
REMARK SMILES Cc1nnc(C[N@H+]2[C@@H]3CC[C@H]2C[C@H](CC(=O)NCCCNC(=O)c2ccc(-c4c5nc(c(-c6c(F)c(F)c(F)c(F)c6F)c6ccc([nH]6)c(-c6c(F)c(F)c(F)c(F)c6F)c6nc(c(-c7c(F)c(F)c(F)c(F)c7F)c7ccc4[nH]7)C=C6)C=C5)cc2)C3)n1C
REMARK SMILES IDX 18 1 17 2 15 3 16 4 14 6 13 7 7 8 8 9 11 10 9 12 87 13 10 14
REMARK SMILES IDX 12 15 6 16 5 17 1 18 2 19 3 20 88 21 4 22 89 23 19 24 20 25
REMARK SMILES IDX 21 26 22 27 23 29 24 30 25 31 86 32 26 33 85 34 27 35 28 36
REMARK SMILES IDX 29 37 79 38 30 39 84 40 78 41 80 42 31 43 83 44 77 45 76 46
REMARK SMILES IDX 32 48 64 49 44 50 63 51 45 52 48 53 62 54 81 55 46 56 47 57
REMARK SMILES IDX 61 59 82 60 49 61 33 62 34 63 42 64 35 65 36 66 40 67 43 68
REMARK SMILES IDX 37 69 38 70 41 71 39 72 65 73 66 74 74 75 67 76 68 77 72 78
REMARK SMILES IDX 75 79 69 80 70 81 73 82 71 83 50 84 51 85 59 86 52 87 53 88
REMARK SMILES IDX 57 89 60 90 54 91 55 92 58 93 56 94
REMARK H PARENT 17 5 7 11 21 28 80 47 48 58
REMARK Flexibility Score: inf
ROOT
ATOM      1  C   UNL A   1      36.719  23.159  25.428  1.00  0.00     0.117 C 
ENDROOT
BRANCH   1   2
ATOM      2  N   UNL A   1      35.743  22.886  26.493  1.00  0.00    -0.356 N 
ATOM      3  C   UNL A   1      34.403  23.153  26.608  1.00  0.00     0.220 C 
ATOM      4  O   UNL A   1      33.801  22.616  27.544  1.00  0.00    -0.275 OA
ATOM      5  H   UNL A   1      36.124  22.422  27.273  1.00  0.00     0.163 HD
BRANCH   3   6
ATOM      6  C   UNL A   1      33.642  24.086  25.660  1.00  0.00     0.104 C 
BRANCH   6   7
ATOM      7  C   UNL A   1      33.221  25.448  26.277  1.00  0.00     0.010 C 
ATOM      8  N   UNL A   1      31.640  27.693  25.083  1.00  0.00    -0.324 N 
ATOM      9  C   UNL A   1      31.163  27.034  26.290  1.00  0.00     0.185 C 
ATOM     10  C   UNL A   1      33.062  27.886  25.325  1.00  0.00     0.185 C 
ATOM     11  H   UNL A   1      31.120  28.562  24.962  1.00  0.00     0.348 HD
ATOM     12  C   UNL A   1      31.788  27.970  27.353  1.00  0.00     0.071 C 
ATOM     13  C   UNL A   1      31.695  25.589  26.462  1.00  0.00     0.069 C 
ATOM     14  C   UNL A   1      33.045  28.544  26.697  1.00  0.00     0.071 C 
ATOM     15  C   UNL A   1      33.780  26.554  25.401  1.00  0.00     0.069 C 
BRANCH   8  16
ATOM     16  C   UNL A   1      31.172  27.351  23.737  1.00  0.00     0.341 C 
BRANCH  16  17
ATOM     17  C   UNL A   1      31.973  26.430  22.870  1.00  0.00     0.187 A 
ATOM     18  C   UNL A   1      33.380  23.200  22.062  1.00  0.00     0.090 C 
ATOM     19  C   UNL A   1      32.892  24.600  22.077  1.00  0.00     0.129 A 
ATOM     20  N   UNL A   1      33.487  25.630  21.513  1.00  0.00    -0.135 NA
ATOM     21  N   UNL A   1      31.796  25.069  22.756  1.00  0.00    -0.314 N 
ATOM     22  N   UNL A   1      32.894  26.775  21.993  1.00  0.00    -0.129 NA
ATOM     23  C   UNL A   1      30.653  24.321  23.204  1.00  0.00     0.153 C 
ENDBRANCH  16  17
ENDBRANCH   8  16
ENDBRANCH   6   7
ENDBRANCH   3   6
ENDBRANCH   1   2
BRANCH   1  24
ATOM     24  C   UNL A   1      37.893  22.157  25.313  1.00  0.00     0.042 C 
BRANCH  24  25
ATOM     25  C   UNL A   1      38.917  22.258  26.410  1.00  0.00     0.118 C 
BRANCH  25  26
ATOM     26  N   UNL A   1      40.267  21.888  25.997  1.00  0.00    -0.352 N 
ATOM     27  C   UNL A   1      41.388  22.711  26.010  1.00  0.00     0.251 C 
ATOM     28  H   UNL A   1      40.396  20.967  25.677  1.00  0.00     0.163 HD
ATOM     29  O   UNL A   1      42.352  22.497  25.303  1.00  0.00    -0.269 OA
BRANCH  27  30
ATOM     30  C   UNL A   1      41.356  23.874  26.920  1.00  0.00     0.039 A 
ATOM     31  C   UNL A   1      42.220  24.018  28.006  1.00  0.00     0.014 A 
ATOM     32  C   UNL A   1      40.474  24.889  26.580  1.00  0.00     0.014 A 
ATOM     33  C   UNL A   1      42.208  25.230  28.694  1.00  0.00     0.010 A 
ATOM     34  C   UNL A   1      40.723  26.150  27.016  1.00  0.00     0.010 A 
ATOM     35  C   UNL A   1      41.458  26.297  28.173  1.00  0.00    -0.014 A 
BRANCH  35  36
ATOM     36  C   UNL A   1      41.422  27.613  28.786  1.00  0.00     0.031 A 
ATOM     37  C   UNL A   1      42.508  28.518  28.351  1.00  0.00     0.074 A 
ATOM     38  C   UNL A   1      40.370  28.040  29.520  1.00  0.00     0.049 A 
ATOM     39  N   UNL A   1      43.509  28.924  29.056  1.00  0.00    -0.248 NA
ATOM     40  C   UNL A   1      42.583  28.892  26.931  1.00  0.00     0.031 C 
ATOM     41  C   UNL A   1      39.074  27.387  29.767  1.00  0.00     0.029 A 
ATOM     42  N   UNL A   1      40.206  29.240  30.133  1.00  0.00    -0.354 N 
ATOM     43  C   UNL A   1      44.234  29.775  28.233  1.00  0.00     0.074 A 
ATOM     44  C   UNL A   1      43.738  29.564  26.898  1.00  0.00     0.031 C 
ATOM     45  C   UNL A   1      38.192  28.288  30.251  1.00  0.00     0.029 A 
ATOM     46  C   UNL A   1      38.901  29.520  30.525  1.00  0.00     0.049 A 
ATOM     47  H   UNL A   1      40.953  29.863  30.289  1.00  0.00     0.167 HD
ATOM     48  C   UNL A   1      45.003  30.763  28.770  1.00  0.00     0.037 A 
ATOM     49  C   UNL A   1      38.453  30.710  30.995  1.00  0.00     0.037 A 
ATOM     50  C   UNL A   1      45.235  30.529  30.177  1.00  0.00     0.049 A 
ATOM     51  C   UNL A   1      39.647  31.456  31.480  1.00  0.00     0.074 A 
ATOM     52  C   UNL A   1      45.788  29.485  30.896  1.00  0.00     0.029 A 
ATOM     53  N   UNL A   1      44.494  31.247  31.087  1.00  0.00    -0.354 N 
ATOM     54  N   UNL A   1      40.360  31.080  32.510  1.00  0.00    -0.248 NA
ATOM     55  C   UNL A   1      40.341  32.300  30.516  1.00  0.00     0.031 C 
ATOM     56  C   UNL A   1      44.934  29.330  32.029  1.00  0.00     0.029 A 
ATOM     57  C   UNL A   1      43.977  30.346  31.986  1.00  0.00     0.049 A 
ATOM     58  H   UNL A   1      44.359  32.222  31.093  1.00  0.00     0.167 HD
ATOM     59  C   UNL A   1      41.678  31.269  32.119  1.00  0.00     0.074 A 
ATOM     60  C   UNL A   1      41.602  32.076  30.901  1.00  0.00     0.031 C 
ATOM     61  C   UNL A   1      42.692  30.507  32.626  1.00  0.00     0.037 A 
BRANCH  48  62
ATOM     62  C   UNL A   1      45.220  32.112  28.133  1.00  0.00     0.064 A 
ATOM     63  C   UNL A   1      44.111  32.958  27.938  1.00  0.00     0.173 A 
ATOM     64  C   UNL A   1      46.395  32.482  27.442  1.00  0.00     0.173 A 
ATOM     65  F   UNL A   1      42.938  32.695  28.534  1.00  0.00    -0.203 F 
ATOM     66  C   UNL A   1      44.152  34.038  27.053  1.00  0.00     0.198 A 
ATOM     67  C   UNL A   1      46.449  33.592  26.604  1.00  0.00     0.198 A 
ATOM     68  F   UNL A   1      47.500  31.729  27.455  1.00  0.00    -0.203 F 
ATOM     69  F   UNL A   1      43.035  34.733  26.800  1.00  0.00    -0.200 F 
ATOM     70  C   UNL A   1      45.320  34.350  26.381  1.00  0.00     0.200 A 
ATOM     71  F   UNL A   1      47.586  33.866  25.949  1.00  0.00    -0.200 F 
ATOM     72  F   UNL A   1      45.345  35.343  25.484  1.00  0.00    -0.200 F 
ENDBRANCH  48  62
BRANCH  49  73
ATOM     73  C   UNL A   1      37.148  31.357  30.708  1.00  0.00     0.064 A 
ATOM     74  C   UNL A   1      36.218  31.601  31.732  1.00  0.00     0.173 A 
ATOM     75  C   UNL A   1      36.896  31.995  29.476  1.00  0.00     0.173 A 
ATOM     76  F   UNL A   1      36.404  31.072  32.950  1.00  0.00    -0.203 F 
ATOM     77  C   UNL A   1      35.118  32.445  31.541  1.00  0.00     0.198 A 
ATOM     78  C   UNL A   1      35.796  32.833  29.285  1.00  0.00     0.198 A 
ATOM     79  F   UNL A   1      37.764  31.896  28.459  1.00  0.00    -0.203 F 
ATOM     80  F   UNL A   1      34.285  32.700  32.559  1.00  0.00    -0.200 F 
ATOM     81  C   UNL A   1      34.913  33.068  30.320  1.00  0.00     0.200 A 
ATOM     82  F   UNL A   1      35.633  33.459  28.110  1.00  0.00    -0.200 F 
ATOM     83  F   UNL A   1      33.894  33.924  30.156  1.00  0.00    -0.200 F 
ENDBRANCH  49  73
BRANCH  61  84
ATOM     84  C   UNL A   1      42.399  29.593  33.787  1.00  0.00     0.064 A 
ATOM     85  C   UNL A   1      41.904  28.283  33.659  1.00  0.00     0.173 A 
ATOM     86  C   UNL A   1      42.803  29.999  35.066  1.00  0.00     0.173 A 
ATOM     87  F   UNL A   1      41.592  27.776  32.461  1.00  0.00    -0.203 F 
ATOM     88  C   UNL A   1      41.785  27.439  34.764  1.00  0.00     0.198 A 
ATOM     89  C   UNL A   1      42.719  29.143  36.161  1.00  0.00     0.198 A 
ATOM     90  F   UNL A   1      43.337  31.218  35.245  1.00  0.00    -0.203 F 
ATOM     91  F   UNL A   1      41.304  26.195  34.612  1.00  0.00    -0.200 F 
ATOM     92  C   UNL A   1      42.202  27.867  36.012  1.00  0.00     0.200 A 
ATOM     93  F   UNL A   1      43.172  29.546  37.356  1.00  0.00    -0.200 F 
ATOM     94  F   UNL A   1      42.131  27.042  37.067  1.00  0.00    -0.200 F 
ENDBRANCH  61  84
ENDBRANCH  35  36
ENDBRANCH  27  30
ENDBRANCH  25  26
ENDBRANCH  24  25
ENDBRANCH   1  24
TORSDOF 13
ENDMDL
MODEL 2
REMARK VINA RESULT:     -13.0      3.315      8.687
REMARK SMILES Cc1nnc(C[N@H+]2[C@@H]3CC[C@H]2C[C@H](CC(=O)NCCCNC(=O)c2ccc(-c4c5nc(c(-c6c(F)c(F)c(F)c(F)c6F)c6ccc([nH]6)c(-c6c(F)c(F)c(F)c(F)c6F)c6nc(c(-c7c(F)c(F)c(F)c(F)c7F)c7ccc4[nH]7)C=C6)C=C5)cc2)C3)n1C
REMARK SMILES IDX 18 1 17 2 15 3 16 4 14 6 13 7 7 8 8 9 11 10 9 12 87 13 10 14
REMARK SMILES IDX 12 15 6 16 5 17 1 18 2 19 3 20 88 21 4 22 89 23 19 24 20 25
REMARK SMILES IDX 21 26 22 27 23 29 24 30 25 31 86 32 26 33 85 34 27 35 28 36
REMARK SMILES IDX 29 37 79 38 30 39 84 40 78 41 80 42 31 43 83 44 77 45 76 46
REMARK SMILES IDX 32 48 64 49 44 50 63 51 45 52 48 53 62 54 81 55 46 56 47 57
REMARK SMILES IDX 61 59 82 60 49 61 33 62 34 63 42 64 35 65 36 66 40 67 43 68
REMARK SMILES IDX 37 69 38 70 41 71 39 72 65 73 66 74 74 75 67 76 68 77 72 78
REMARK SMILES IDX 75 79 69 80 70 81 73 82 71 83 50 84 51 85 59 86 52 87 53 88
REMARK SMILES IDX 57 89 60 90 54 91 55 92 58 93 56 94
REMARK H PARENT 17 5 7 11 21 28 80 47 48 58
REMARK Flexibility Score: inf
ROOT
ATOM      1  C   UNL A   1      34.149  28.730  26.851  1.00  0.00     0.117 C 
ENDROOT
BRANCH   1   2
ATOM      2  N   UNL A   1      33.712  28.377  25.492  1.00  0.00    -0.356 N 
ATOM      3  C   UNL A   1      33.360  27.182  24.916  1.00  0.00     0.220 C 
ATOM      4  O   UNL A   1      32.837  27.230  23.798  1.00  0.00    -0.275 OA
ATOM      5  H   UNL A   1      33.664  29.144  24.876  1.00  0.00     0.163 HD
BRANCH   3   6
ATOM      6  C   UNL A   1      33.603  25.821  25.577  1.00  0.00     0.104 C 
BRANCH   6   7
ATOM      7  C   UNL A   1      34.695  24.949  24.900  1.00  0.00     0.010 C 
ATOM      8  N   UNL A   1      34.980  21.970  24.789  1.00  0.00    -0.324 N 
ATOM      9  C   UNL A   1      34.869  22.732  23.554  1.00  0.00     0.185 C 
ATOM     10  C   UNL A   1      35.920  22.736  25.593  1.00  0.00     0.185 C 
ATOM     11  H   UNL A   1      35.303  21.030  24.561  1.00  0.00     0.348 HD
ATOM     12  C   UNL A   1      36.372  22.940  23.249  1.00  0.00     0.071 C 
ATOM     13  C   UNL A   1      34.158  24.098  23.728  1.00  0.00     0.069 C 
ATOM     14  C   UNL A   1      37.067  22.928  24.612  1.00  0.00     0.071 C 
ATOM     15  C   UNL A   1      35.333  24.082  25.970  1.00  0.00     0.069 C 
BRANCH   8  16
ATOM     16  C   UNL A   1      33.844  21.307  25.435  1.00  0.00     0.341 C 
BRANCH  16  17
ATOM     17  C   UNL A   1      33.429  19.933  25.007  1.00  0.00     0.187 A 
ATOM     18  C   UNL A   1      33.908  16.870  23.150  1.00  0.00     0.090 C 
ATOM     19  C   UNL A   1      33.473  17.948  24.070  1.00  0.00     0.129 A 
ATOM     20  N   UNL A   1      32.233  18.197  24.434  1.00  0.00    -0.135 NA
ATOM     21  N   UNL A   1      34.274  18.918  24.618  1.00  0.00    -0.314 N 
ATOM     22  N   UNL A   1      32.211  19.431  25.043  1.00  0.00    -0.129 NA
ATOM     23  C   UNL A   1      35.696  18.873  24.818  1.00  0.00     0.153 C 
ENDBRANCH  16  17
ENDBRANCH   8  16
ENDBRANCH   6   7
ENDBRANCH   3   6
ENDBRANCH   1   2
BRANCH   1  24
ATOM     24  C   UNL A   1      33.840  30.177  27.305  1.00  0.00     0.042 C 
BRANCH  24  25
ATOM     25  C   UNL A   1      35.052  31.031  27.554  1.00  0.00     0.118 C 
BRANCH  25  26
ATOM     26  N   UNL A   1      34.860  32.046  28.585  1.00  0.00    -0.352 N 
ATOM     27  C   UNL A   1      35.356  32.007  29.884  1.00  0.00     0.251 C 
ATOM     28  H   UNL A   1      34.327  32.836  28.337  1.00  0.00     0.163 HD
ATOM     29  O   UNL A   1      34.849  32.642  30.787  1.00  0.00    -0.269 OA
BRANCH  27  30
ATOM     30  C   UNL A   1      36.529  31.143  30.128  1.00  0.00     0.039 A 
ATOM     31  C   UNL A   1      36.438  29.763  30.307  1.00  0.00     0.014 A 
ATOM     32  C   UNL A   1      37.766  31.767  30.072  1.00  0.00     0.014 A 
ATOM     33  C   UNL A   1      37.622  29.031  30.365  1.00  0.00     0.010 A 
ATOM     34  C   UNL A   1      38.864  31.026  29.775  1.00  0.00     0.010 A 
ATOM     35  C   UNL A   1      38.835  29.682  30.082  1.00  0.00    -0.014 A 
BRANCH  35  36
ATOM     36  C   UNL A   1      40.115  28.998  30.066  1.00  0.00     0.031 A 
ATOM     37  C   UNL A   1      40.723  28.808  31.401  1.00  0.00     0.074 A 
ATOM     38  C   UNL A   1      40.602  28.401  28.955  1.00  0.00     0.049 A 
ATOM     39  N   UNL A   1      41.769  29.399  31.869  1.00  0.00    -0.248 NA
ATOM     40  C   UNL A   1      40.002  27.992  32.390  1.00  0.00     0.031 C 
ATOM     41  C   UNL A   1      39.970  28.214  27.639  1.00  0.00     0.029 A 
ATOM     42  N   UNL A   1      41.770  27.725  28.808  1.00  0.00    -0.354 N 
ATOM     43  C   UNL A   1      41.966  28.876  33.139  1.00  0.00     0.074 A 
ATOM     44  C   UNL A   1      40.755  28.175  33.478  1.00  0.00     0.031 C 
ATOM     45  C   UNL A   1      40.644  27.279  26.935  1.00  0.00     0.029 A 
ATOM     46  C   UNL A   1      41.849  26.941  27.662  1.00  0.00     0.049 A 
ATOM     47  H   UNL A   1      42.505  27.786  29.462  1.00  0.00     0.167 HD
ATOM     48  C   UNL A   1      43.212  28.855  33.690  1.00  0.00     0.037 A 
ATOM     49  C   UNL A   1      42.829  26.048  27.379  1.00  0.00     0.037 A 
ATOM     50  C   UNL A   1      44.104  29.745  32.984  1.00  0.00     0.049 A 
ATOM     51  C   UNL A   1      44.003  26.420  28.217  1.00  0.00     0.074 A 
ATOM     52  C   UNL A   1      44.078  31.097  32.695  1.00  0.00     0.029 A 
ATOM     53  N   UNL A   1      44.994  29.198  32.089  1.00  0.00    -0.354 N 
ATOM     54  N   UNL A   1      44.678  27.528  28.056  1.00  0.00    -0.248 NA
ATOM     55  C   UNL A   1      44.087  25.824  29.544  1.00  0.00     0.031 C 
ATOM     56  C   UNL A   1      44.517  31.190  31.340  1.00  0.00     0.029 A 
ATOM     57  C   UNL A   1      44.878  29.909  30.919  1.00  0.00     0.049 A 
ATOM     58  H   UNL A   1      45.601  28.441  32.254  1.00  0.00     0.167 HD
ATOM     59  C   UNL A   1      44.912  27.992  29.344  1.00  0.00     0.074 A 
ATOM     60  C   UNL A   1      44.574  26.870  30.220  1.00  0.00     0.031 C 
ATOM     61  C   UNL A   1      45.057  29.324  29.610  1.00  0.00     0.037 A 
BRANCH  48  62
ATOM     62  C   UNL A   1      43.719  27.768  34.604  1.00  0.00     0.064 A 
ATOM     63  C   UNL A   1      43.685  26.433  34.156  1.00  0.00     0.173 A 
ATOM     64  C   UNL A   1      43.950  27.939  35.987  1.00  0.00     0.173 A 
ATOM     65  F   UNL A   1      43.458  26.151  32.864  1.00  0.00    -0.203 F 
ATOM     66  C   UNL A   1      43.787  25.355  35.039  1.00  0.00     0.198 A 
ATOM     67  C   UNL A   1      44.107  26.863  36.856  1.00  0.00     0.198 A 
ATOM     68  F   UNL A   1      43.919  29.140  36.575  1.00  0.00    -0.203 F 
ATOM     69  F   UNL A   1      43.616  24.106  34.586  1.00  0.00    -0.200 F 
ATOM     70  C   UNL A   1      43.991  25.572  36.390  1.00  0.00     0.200 A 
ATOM     71  F   UNL A   1      44.287  27.095  38.163  1.00  0.00    -0.200 F 
ATOM     72  F   UNL A   1      44.024  24.544  37.247  1.00  0.00    -0.200 F 
ENDBRANCH  48  62
BRANCH  49  73
ATOM     73  C   UNL A   1      42.678  24.721  26.730  1.00  0.00     0.064 A 
ATOM     74  C   UNL A   1      43.283  24.444  25.494  1.00  0.00     0.173 A 
ATOM     75  C   UNL A   1      42.164  23.611  27.433  1.00  0.00     0.173 A 
ATOM     76  F   UNL A   1      43.840  25.434  24.781  1.00  0.00    -0.203 F 
ATOM     77  C   UNL A   1      43.386  23.138  25.002  1.00  0.00     0.198 A 
ATOM     78  C   UNL A   1      42.263  22.310  26.939  1.00  0.00     0.198 A 
ATOM     79  F   UNL A   1      41.640  23.754  28.658  1.00  0.00    -0.203 F 
ATOM     80  F   UNL A   1      44.024  22.907  23.845  1.00  0.00    -0.200 F 
ATOM     81  C   UNL A   1      42.885  22.071  25.729  1.00  0.00     0.200 A 
ATOM     82  F   UNL A   1      41.808  21.283  27.672  1.00  0.00    -0.200 F 
ATOM     83  F   UNL A   1      43.038  20.814  25.287  1.00  0.00    -0.200 F 
ENDBRANCH  49  73
BRANCH  61  84
ATOM     84  C   UNL A   1      45.179  30.283  28.455  1.00  0.00     0.064 A 
ATOM     85  C   UNL A   1      44.104  31.006  27.908  1.00  0.00     0.173 A 
ATOM     86  C   UNL A   1      46.464  30.613  28.003  1.00  0.00     0.173 A 
ATOM     87  F   UNL A   1      42.855  30.831  28.354  1.00  0.00    -0.203 F 
ATOM     88  C   UNL A   1      44.305  31.983  26.932  1.00  0.00     0.198 A 
ATOM     89  C   UNL A   1      46.666  31.613  27.055  1.00  0.00     0.198 A 
ATOM     90  F   UNL A   1      47.537  29.999  28.526  1.00  0.00    -0.203 F 
ATOM     91  F   UNL A   1      43.259  32.653  26.424  1.00  0.00    -0.200 F 
ATOM     92  C   UNL A   1      45.588  32.291  26.513  1.00  0.00     0.200 A 
ATOM     93  F   UNL A   1      47.913  31.943  26.692  1.00  0.00    -0.200 F 
ATOM     94  F   UNL A   1      45.787  33.260  25.608  1.00  0.00    -0.200 F 
ENDBRANCH  61  84
ENDBRANCH  35  36
ENDBRANCH  27  30
ENDBRANCH  25  26
ENDBRANCH  24  25
ENDBRANCH   1  24
TORSDOF 13
ENDMDL
MODEL 3
REMARK VINA RESULT:     -13.0      2.720      4.121
REMARK SMILES Cc1nnc(C[N@H+]2[C@@H]3CC[C@H]2C[C@H](CC(=O)NCCCNC(=O)c2ccc(-c4c5nc(c(-c6c(F)c(F)c(F)c(F)c6F)c6ccc([nH]6)c(-c6c(F)c(F)c(F)c(F)c6F)c6nc(c(-c7c(F)c(F)c(F)c(F)c7F)c7ccc4[nH]7)C=C6)C=C5)cc2)C3)n1C
REMARK SMILES IDX 18 1 17 2 15 3 16 4 14 6 13 7 7 8 8 9 11 10 9 12 87 13 10 14
REMARK SMILES IDX 12 15 6 16 5 17 1 18 2 19 3 20 88 21 4 22 89 23 19 24 20 25
REMARK SMILES IDX 21 26 22 27 23 29 24 30 25 31 86 32 26 33 85 34 27 35 28 36
REMARK SMILES IDX 29 37 79 38 30 39 84 40 78 41 80 42 31 43 83 44 77 45 76 46
REMARK SMILES IDX 32 48 64 49 44 50 63 51 45 52 48 53 62 54 81 55 46 56 47 57
REMARK SMILES IDX 61 59 82 60 49 61 33 62 34 63 42 64 35 65 36 66 40 67 43 68
REMARK SMILES IDX 37 69 38 70 41 71 39 72 65 73 66 74 74 75 67 76 68 77 72 78
REMARK SMILES IDX 75 79 69 80 70 81 73 82 71 83 50 84 51 85 59 86 52 87 53 88
REMARK SMILES IDX 57 89 60 90 54 91 55 92 58 93 56 94
REMARK H PARENT 17 5 7 11 21 28 80 47 48 58
REMARK Flexibility Score: inf
ROOT
ATOM      1  C   UNL A   1      40.303  21.019  26.956  1.00  0.00     0.117 C 
ENDROOT
BRANCH   1   2
ATOM      2  N   UNL A   1      39.945  22.383  26.540  1.00  0.00    -0.356 N 
ATOM      3  C   UNL A   1      38.762  22.942  26.128  1.00  0.00     0.220 C 
ATOM      4  O   UNL A   1      38.724  24.174  26.038  1.00  0.00    -0.275 OA
ATOM      5  H   UNL A   1      40.698  23.017  26.560  1.00  0.00     0.163 HD
BRANCH   3   6
ATOM      6  C   UNL A   1      37.520  22.121  25.762  1.00  0.00     0.104 C 
BRANCH   6   7
ATOM      7  C   UNL A   1      36.167  22.856  25.958  1.00  0.00     0.010 C 
ATOM      8  N   UNL A   1      33.488  22.309  24.737  1.00  0.00    -0.324 N 
ATOM      9  C   UNL A   1      33.643  22.277  26.184  1.00  0.00     0.185 C 
ATOM     10  C   UNL A   1      34.214  23.503  24.331  1.00  0.00     0.185 C 
ATOM     11  H   UNL A   1      32.491  22.339  24.520  1.00  0.00     0.348 HD
ATOM     12  C   UNL A   1      33.253  23.737  26.514  1.00  0.00     0.071 C 
ATOM     13  C   UNL A   1      35.093  21.986  26.647  1.00  0.00     0.069 C 
ATOM     14  C   UNL A   1      33.624  24.546  25.270  1.00  0.00     0.071 C 
ATOM     15  C   UNL A   1      35.697  23.348  24.601  1.00  0.00     0.069 C 
BRANCH   8  16
ATOM     16  C   UNL A   1      33.527  21.113  23.893  1.00  0.00     0.341 C 
BRANCH  16  17
ATOM     17  C   UNL A   1      33.202  19.770  24.470  1.00  0.00     0.187 A 
ATOM     18  C   UNL A   1      33.786  16.227  24.876  1.00  0.00     0.090 C 
ATOM     19  C   UNL A   1      33.341  17.637  24.974  1.00  0.00     0.129 A 
ATOM     20  N   UNL A   1      32.122  18.043  25.261  1.00  0.00    -0.135 NA
ATOM     21  N   UNL A   1      34.097  18.747  24.691  1.00  0.00    -0.314 N 
ATOM     22  N   UNL A   1      32.044  19.385  24.968  1.00  0.00    -0.129 NA
ATOM     23  C   UNL A   1      35.530  18.857  24.689  1.00  0.00     0.153 C 
ENDBRANCH  16  17
ENDBRANCH   8  16
ENDBRANCH   6   7
ENDBRANCH   3   6
ENDBRANCH   1   2
BRANCH   1  24
ATOM     24  C   UNL A   1      41.302  20.273  26.039  1.00  0.00     0.042 C 
BRANCH  24  25
ATOM     25  C   UNL A   1      42.596  19.888  26.698  1.00  0.00     0.118 C 
BRANCH  25  26
ATOM     26  N   UNL A   1      43.701  19.689  25.765  1.00  0.00    -0.352 N 
ATOM     27  C   UNL A   1      44.277  20.657  24.951  1.00  0.00     0.251 C 
ATOM     28  H   UNL A   1      44.074  18.780  25.707  1.00  0.00     0.163 HD
ATOM     29  O   UNL A   1      44.886  20.370  23.939  1.00  0.00    -0.269 OA
BRANCH  27  30
ATOM     30  C   UNL A   1      44.108  22.066  25.361  1.00  0.00     0.039 A 
ATOM     31  C   UNL A   1      43.229  22.946  24.730  1.00  0.00     0.014 A 
ATOM     32  C   UNL A   1      44.807  22.459  26.492  1.00  0.00     0.014 A 
ATOM     33  C   UNL A   1      43.032  24.200  25.305  1.00  0.00     0.010 A 
ATOM     34  C   UNL A   1      44.347  23.509  27.219  1.00  0.00     0.010 A 
ATOM     35  C   UNL A   1      43.593  24.461  26.566  1.00  0.00    -0.014 A 
BRANCH  35  36
ATOM     36  C   UNL A   1      43.404  25.716  27.272  1.00  0.00     0.031 A 
ATOM     37  C   UNL A   1      44.348  26.785  26.880  1.00  0.00     0.074 A 
ATOM     38  C   UNL A   1      42.328  25.948  28.057  1.00  0.00     0.049 A 
ATOM     39  N   UNL A   1      45.309  27.270  27.590  1.00  0.00    -0.248 NA
ATOM     40  C   UNL A   1      44.330  27.262  25.489  1.00  0.00     0.031 C 
ATOM     41  C   UNL A   1      41.138  25.114  28.285  1.00  0.00     0.029 A 
ATOM     42  N   UNL A   1      42.028  27.071  28.758  1.00  0.00    -0.354 N 
ATOM     43  C   UNL A   1      45.890  28.264  26.816  1.00  0.00     0.074 A 
ATOM     44  C   UNL A   1      45.385  28.081  25.480  1.00  0.00     0.031 C 
ATOM     45  C   UNL A   1      40.161  25.855  28.851  1.00  0.00     0.029 A 
ATOM     46  C   UNL A   1      40.710  27.148  29.197  1.00  0.00     0.049 A 
ATOM     47  H   UNL A   1      42.691  27.775  28.943  1.00  0.00     0.167 HD
ATOM     48  C   UNL A   1      46.540  29.306  27.405  1.00  0.00     0.037 A 
ATOM     49  C   UNL A   1      40.125  28.233  29.761  1.00  0.00     0.037 A 
ATOM     50  C   UNL A   1      46.845  29.010  28.786  1.00  0.00     0.049 A 
ATOM     51  C   UNL A   1      41.226  29.096  30.273  1.00  0.00     0.074 A 
ATOM     52  C   UNL A   1      47.551  28.001  29.416  1.00  0.00     0.029 A 
ATOM     53  N   UNL A   1      46.044  29.559  29.761  1.00  0.00    -0.354 N 
ATOM     54  N   UNL A   1      42.013  28.748  31.258  1.00  0.00    -0.248 NA
ATOM     55  C   UNL A   1      41.774  30.088  29.357  1.00  0.00     0.031 C 
ATOM     56  C   UNL A   1      46.760  27.658  30.554  1.00  0.00     0.029 A 
ATOM     57  C   UNL A   1      45.678  28.538  30.604  1.00  0.00     0.049 A 
ATOM     58  H   UNL A   1      45.783  30.505  29.841  1.00  0.00     0.167 HD
ATOM     59  C   UNL A   1      43.283  29.137  30.853  1.00  0.00     0.074 A 
ATOM     60  C   UNL A   1      43.064  30.008  29.698  1.00  0.00     0.031 C 
ATOM     61  C   UNL A   1      44.403  28.483  31.282  1.00  0.00     0.037 A 
BRANCH  48  62
ATOM     62  C   UNL A   1      46.559  30.713  26.862  1.00  0.00     0.064 A 
ATOM     63  C   UNL A   1      47.776  31.423  26.856  1.00  0.00     0.173 A 
ATOM     64  C   UNL A   1      45.402  31.488  26.632  1.00  0.00     0.173 A 
ATOM     65  F   UNL A   1      48.938  30.789  27.078  1.00  0.00    -0.203 F 
ATOM     66  C   UNL A   1      47.820  32.812  26.718  1.00  0.00     0.198 A 
ATOM     67  C   UNL A   1      45.454  32.866  26.438  1.00  0.00     0.198 A 
ATOM     68  F   UNL A   1      44.170  30.974  26.697  1.00  0.00    -0.203 F 
ATOM     69  F   UNL A   1      48.986  33.456  26.851  1.00  0.00    -0.200 F 
ATOM     70  C   UNL A   1      46.658  33.533  26.515  1.00  0.00     0.200 A 
ATOM     71  F   UNL A   1      44.315  33.549  26.261  1.00  0.00    -0.200 F 
ATOM     72  F   UNL A   1      46.689  34.870  26.447  1.00  0.00    -0.200 F 
ENDBRANCH  48  62
BRANCH  49  73
ATOM     73  C   UNL A   1      38.739  28.720  29.550  1.00  0.00     0.064 A 
ATOM     74  C   UNL A   1      37.902  29.021  30.637  1.00  0.00     0.173 A 
ATOM     75  C   UNL A   1      38.295  29.158  28.285  1.00  0.00     0.173 A 
ATOM     76  F   UNL A   1      38.268  28.683  31.882  1.00  0.00    -0.203 F 
ATOM     77  C   UNL A   1      36.707  29.732  30.471  1.00  0.00     0.198 A 
ATOM     78  C   UNL A   1      37.102  29.863  28.119  1.00  0.00     0.198 A 
ATOM     79  F   UNL A   1      39.057  28.995  27.194  1.00  0.00    -0.203 F 
ATOM     80  F   UNL A   1      35.964  30.052  31.540  1.00  0.00    -0.200 F 
ATOM     81  C   UNL A   1      36.314  30.161  29.213  1.00  0.00     0.200 A 
ATOM     82  F   UNL A   1      36.754  30.305  26.902  1.00  0.00    -0.200 F 
ATOM     83  F   UNL A   1      35.202  30.895  29.062  1.00  0.00    -0.200 F 
ENDBRANCH  49  73
BRANCH  61  84
ATOM     84  C   UNL A   1      44.267  27.461  32.380  1.00  0.00     0.064 A 
ATOM     85  C   UNL A   1      44.137  26.078  32.164  1.00  0.00     0.173 A 
ATOM     86  C   UNL A   1      44.457  27.884  33.703  1.00  0.00     0.173 A 
ATOM     87  F   UNL A   1      44.057  25.576  30.927  1.00  0.00    -0.203 F 
ATOM     88  C   UNL A   1      44.156  25.170  33.224  1.00  0.00     0.198 A 
ATOM     89  C   UNL A   1      44.513  26.974  34.756  1.00  0.00     0.198 A 
ATOM     90  F   UNL A   1      44.645  29.186  33.971  1.00  0.00    -0.203 F 
ATOM     91  F   UNL A   1      44.023  23.856  32.988  1.00  0.00    -0.200 F 
ATOM     92  C   UNL A   1      44.353  25.620  34.518  1.00  0.00     0.200 A 
ATOM     93  F   UNL A   1      44.756  27.411  35.999  1.00  0.00    -0.200 F 
ATOM     94  F   UNL A   1      44.417  24.746  35.533  1.00  0.00    -0.200 F 
ENDBRANCH  61  84
ENDBRANCH  35  36
ENDBRANCH  27  30
ENDBRANCH  25  26
ENDBRANCH  24  25
ENDBRANCH   1  24
TORSDOF 13
ENDMDL
