MODEL 1
REMARK VINA RESULT:     -13.4      0.000      0.000
REMARK SMILES CO[C@@H]1C[NH2+][C@@H](O[C@@H]2C[C@@H](C(=O)NCCCNC(=O)c3ccc(-c4c5nc(c(-c6c(F)c(F)c(F)c(F)c6F)c6ccc([nH]6)c(-c6c(F)c(F)c(F)c(F)c6F)c6nc(c(-c7c(F)c(F)c(F)c(F)c7F)c7ccc4[nH]7)C=C6)C=C5)cc3)N(C(=O)OC(C)(C)C)C2)c2cc(Cl)ccc21
REMARK SMILES IDX 14 1 13 2 11 3 12 4 10 6 8 7 9 8 91 9 83 10 7 11 6 12 3 13
REMARK SMILES IDX 4 14 98 15 5 16 92 17 97 18 93 21 96 22 94 23 95 24 2 25
REMARK SMILES IDX 1 26 84 27 85 28 86 29 87 30 88 31 89 32 90 33 15 34 16 35
REMARK SMILES IDX 17 36 18 37 19 39 20 40 21 41 82 42 22 43 81 44 23 45 24 46
REMARK SMILES IDX 25 47 75 48 26 49 80 50 74 51 76 52 27 53 79 54 73 55 72 56
REMARK SMILES IDX 28 58 60 59 40 60 59 61 41 62 44 63 58 64 77 65 42 66 43 67
REMARK SMILES IDX 57 69 78 70 45 71 29 72 30 73 38 74 31 75 32 76 36 77 39 78
REMARK SMILES IDX 33 79 34 80 37 81 35 82 61 83 62 84 70 85 63 86 64 87 68 88
REMARK SMILES IDX 71 89 65 90 66 91 69 92 67 93 46 94 47 95 55 96 48 97 49 98
REMARK SMILES IDX 53 99 56 100 50 101 51 102 54 103 52 104
REMARK H PARENT 13 5 5 19 5 20 17 38 76 57 44 68
REMARK Flexibility Score: inf
ROOT
ATOM      1  C   UNL A   1      31.943  30.738  26.149  1.00  0.00     0.117 C 
ENDROOT
BRANCH   1   2
ATOM      2  N   UNL A   1      31.694  29.742  27.165  1.00  0.00    -0.354 N 
ATOM      3  C   UNL A   1      31.534  28.404  27.039  1.00  0.00     0.243 C 
ATOM      4  O   UNL A   1      31.063  27.803  28.010  1.00  0.00    -0.273 OA
ATOM      5  H   UNL A   1      31.631  30.087  28.086  1.00  0.00     0.163 HD
BRANCH   3   6
ATOM      6  C   UNL A   1      32.036  27.634  25.818  1.00  0.00     0.180 C 
ATOM      7  C   UNL A   1      33.917  27.036  24.437  1.00  0.00     0.147 C 
ATOM      8  C   UNL A   1      33.561  27.481  25.848  1.00  0.00     0.069 C 
ATOM      9  C   UNL A   1      32.845  27.700  23.559  1.00  0.00     0.156 C 
ATOM     10  N   UNL A   1      31.725  28.003  24.443  1.00  0.00    -0.293 N 
BRANCH   7  11
ATOM     11  O   UNL A   1      34.217  25.669  24.204  1.00  0.00    -0.320 OA
BRANCH  11  12
ATOM     12  C   UNL A   1      34.613  24.658  25.123  1.00  0.00     0.354 C 
ATOM     13  C   UNL A   1      35.353  21.901  24.324  1.00  0.00     0.203 C 
ATOM     14  C   UNL A   1      36.290  23.135  24.185  1.00  0.00     0.300 C 
ATOM     15  C   UNL A   1      34.042  22.179  25.045  1.00  0.00    -0.002 A 
ATOM     16  N   UNL A   1      36.011  24.302  25.006  1.00  0.00    -0.315 N 
ATOM     17  C   UNL A   1      33.687  23.496  25.401  1.00  0.00     0.046 A 
ATOM     18  C   UNL A   1      33.096  21.151  25.203  1.00  0.00     0.009 A 
ATOM     19  H   UNL A   1      36.505  25.097  24.602  1.00  0.00     0.349 HD
ATOM     20  H   UNL A   1      36.319  24.062  25.948  1.00  0.00     0.349 HD
ATOM     21  C   UNL A   1      32.435  23.737  26.004  1.00  0.00     0.033 A 
ATOM     22  C   UNL A   1      31.834  21.414  25.742  1.00  0.00     0.021 A 
ATOM     23  C   UNL A   1      31.516  22.701  26.159  1.00  0.00     0.041 A 
ATOM     24  Cl  UNL A   1      29.961  23.034  26.817  1.00  0.00    -0.084 Cl
BRANCH  13  25
ATOM     25  O   UNL A   1      36.041  20.789  24.909  1.00  0.00    -0.371 OA
ATOM     26  C   UNL A   1      37.453  20.972  24.819  1.00  0.00     0.196 C 
ENDBRANCH  13  25
ENDBRANCH  11  12
ENDBRANCH   7  11
BRANCH  10  27
ATOM     27  C   UNL A   1      30.461  28.167  23.899  1.00  0.00     0.411 C 
ATOM     28  O   UNL A   1      29.828  27.244  23.420  1.00  0.00    -0.224 OA
BRANCH  27  29
ATOM     29  O   UNL A   1      30.026  29.456  23.942  1.00  0.00    -0.444 OA
BRANCH  29  30
ATOM     30  C   UNL A   1      28.999  29.943  23.024  1.00  0.00     0.106 C 
ATOM     31  C   UNL A   1      29.563  30.174  21.619  1.00  0.00     0.056 C 
ATOM     32  C   UNL A   1      27.755  29.047  22.945  1.00  0.00     0.056 C 
ATOM     33  C   UNL A   1      28.576  31.304  23.604  1.00  0.00     0.056 C 
ENDBRANCH  29  30
ENDBRANCH  27  29
ENDBRANCH  10  27
ENDBRANCH   3   6
ENDBRANCH   1   2
BRANCH   1  34
ATOM     34  C   UNL A   1      31.585  32.128  26.642  1.00  0.00     0.042 C 
BRANCH  34  35
ATOM     35  C   UNL A   1      32.720  32.815  27.384  1.00  0.00     0.118 C 
BRANCH  35  36
ATOM     36  N   UNL A   1      32.456  34.218  27.646  1.00  0.00    -0.352 N 
ATOM     37  C   UNL A   1      32.994  35.003  28.637  1.00  0.00     0.251 C 
ATOM     38  H   UNL A   1      31.815  34.659  27.043  1.00  0.00     0.163 HD
ATOM     39  O   UNL A   1      32.511  36.096  28.903  1.00  0.00    -0.269 OA
BRANCH  37  40
ATOM     40  C   UNL A   1      34.151  34.488  29.398  1.00  0.00     0.039 A 
ATOM     41  C   UNL A   1      35.442  34.599  28.871  1.00  0.00     0.014 A 
ATOM     42  C   UNL A   1      33.936  33.835  30.611  1.00  0.00     0.014 A 
ATOM     43  C   UNL A   1      36.490  33.914  29.474  1.00  0.00     0.010 A 
ATOM     44  C   UNL A   1      35.014  33.240  31.272  1.00  0.00     0.010 A 
ATOM     45  C   UNL A   1      36.292  33.241  30.691  1.00  0.00    -0.014 A 
BRANCH  45  46
ATOM     46  C   UNL A   1      37.441  32.569  31.353  1.00  0.00     0.031 A 
ATOM     47  C   UNL A   1      38.198  31.465  30.669  1.00  0.00     0.074 A 
ATOM     48  C   UNL A   1      37.813  32.977  32.583  1.00  0.00     0.049 A 
ATOM     49  N   UNL A   1      39.197  30.747  31.119  1.00  0.00    -0.248 NA
ATOM     50  C   UNL A   1      37.776  31.112  29.305  1.00  0.00     0.031 C 
ATOM     51  C   UNL A   1      37.162  34.041  33.347  1.00  0.00     0.029 A 
ATOM     52  N   UNL A   1      38.833  32.558  33.400  1.00  0.00    -0.354 N 
ATOM     53  C   UNL A   1      39.504  29.845  30.109  1.00  0.00     0.074 A 
ATOM     54  C   UNL A   1      38.567  30.083  29.032  1.00  0.00     0.031 C 
ATOM     55  C   UNL A   1      37.825  34.228  34.496  1.00  0.00     0.029 A 
ATOM     56  C   UNL A   1      38.898  33.245  34.588  1.00  0.00     0.049 A 
ATOM     57  H   UNL A   1      39.457  31.836  33.158  1.00  0.00     0.167 HD
ATOM     58  C   UNL A   1      40.489  28.913  30.081  1.00  0.00     0.037 A 
ATOM     59  C   UNL A   1      39.713  33.087  35.647  1.00  0.00     0.037 A 
ATOM     60  C   UNL A   1      41.433  28.699  31.147  1.00  0.00     0.049 A 
ATOM     61  C   UNL A   1      40.763  32.016  35.610  1.00  0.00     0.074 A 
ATOM     62  C   UNL A   1      42.490  27.806  31.194  1.00  0.00     0.029 A 
ATOM     63  N   UNL A   1      41.436  29.383  32.355  1.00  0.00    -0.354 N 
ATOM     64  N   UNL A   1      41.055  31.182  34.642  1.00  0.00    -0.248 NA
ATOM     65  C   UNL A   1      41.589  31.856  36.813  1.00  0.00     0.031 C 
ATOM     66  C   UNL A   1      43.093  27.906  32.451  1.00  0.00     0.029 A 
ATOM     67  C   UNL A   1      42.454  28.906  33.167  1.00  0.00     0.049 A 
ATOM     68  H   UNL A   1      40.807  30.099  32.600  1.00  0.00     0.167 HD
ATOM     69  C   UNL A   1      42.105  30.406  35.112  1.00  0.00     0.074 A 
ATOM     70  C   UNL A   1      42.413  30.884  36.445  1.00  0.00     0.031 C 
ATOM     71  C   UNL A   1      42.749  29.386  34.494  1.00  0.00     0.037 A 
BRANCH  58  72
ATOM     72  C   UNL A   1      40.592  28.038  28.863  1.00  0.00     0.064 A 
ATOM     73  C   UNL A   1      39.878  26.835  28.753  1.00  0.00     0.173 A 
ATOM     74  C   UNL A   1      41.370  28.438  27.765  1.00  0.00     0.173 A 
ATOM     75  F   UNL A   1      39.126  26.400  29.775  1.00  0.00    -0.203 F 
ATOM     76  C   UNL A   1      39.958  26.056  27.600  1.00  0.00     0.198 A 
ATOM     77  C   UNL A   1      41.422  27.673  26.602  1.00  0.00     0.198 A 
ATOM     78  F   UNL A   1      42.067  29.584  27.811  1.00  0.00    -0.203 F 
ATOM     79  F   UNL A   1      39.302  24.889  27.536  1.00  0.00    -0.200 F 
ATOM     80  C   UNL A   1      40.721  26.480  26.523  1.00  0.00     0.200 A 
ATOM     81  F   UNL A   1      42.146  28.095  25.556  1.00  0.00    -0.200 F 
ATOM     82  F   UNL A   1      40.786  25.736  25.411  1.00  0.00    -0.200 F 
ENDBRANCH  58  72
BRANCH  59  83
ATOM     83  C   UNL A   1      39.552  33.981  36.823  1.00  0.00     0.064 A 
ATOM     84  C   UNL A   1      38.790  33.583  37.928  1.00  0.00     0.173 A 
ATOM     85  C   UNL A   1      40.211  35.218  36.893  1.00  0.00     0.173 A 
ATOM     86  F   UNL A   1      38.129  32.417  37.901  1.00  0.00    -0.203 F 
ATOM     87  C   UNL A   1      38.696  34.388  39.062  1.00  0.00     0.198 A 
ATOM     88  C   UNL A   1      40.141  36.007  38.038  1.00  0.00     0.198 A 
ATOM     89  F   UNL A   1      40.959  35.640  35.862  1.00  0.00    -0.203 F 
ATOM     90  F   UNL A   1      37.944  33.993  40.099  1.00  0.00    -0.200 F 
ATOM     91  C   UNL A   1      39.382  35.592  39.121  1.00  0.00     0.200 A 
ATOM     92  F   UNL A   1      40.824  37.158  38.099  1.00  0.00    -0.200 F 
ATOM     93  F   UNL A   1      39.312  36.351  40.223  1.00  0.00    -0.200 F 
ENDBRANCH  59  83
BRANCH  71  94
ATOM     94  C   UNL A   1      43.863  28.713  35.244  1.00  0.00     0.064 A 
ATOM     95  C   UNL A   1      45.190  29.151  35.132  1.00  0.00     0.173 A 
ATOM     96  C   UNL A   1      43.590  27.668  36.140  1.00  0.00     0.173 A 
ATOM     97  F   UNL A   1      45.506  30.136  34.278  1.00  0.00    -0.203 F 
ATOM     98  C   UNL A   1      46.204  28.561  35.881  1.00  0.00     0.198 A 
ATOM     99  C   UNL A   1      44.600  27.102  36.911  1.00  0.00     0.198 A 
ATOM    100  F   UNL A   1      42.336  27.216  36.289  1.00  0.00    -0.203 F 
ATOM    101  F   UNL A   1      47.471  28.972  35.732  1.00  0.00    -0.200 F 
ATOM    102  C   UNL A   1      45.908  27.546  36.778  1.00  0.00     0.200 A 
ATOM    103  F   UNL A   1      44.308  26.133  37.789  1.00  0.00    -0.200 F 
ATOM    104  F   UNL A   1      46.882  26.992  37.513  1.00  0.00    -0.200 F 
ENDBRANCH  71  94
ENDBRANCH  45  46
ENDBRANCH  37  40
ENDBRANCH  35  36
ENDBRANCH  34  35
ENDBRANCH   1  34
TORSDOF 16
ENDMDL
MODEL 2
REMARK VINA RESULT:     -13.4      0.581      7.151
REMARK SMILES CO[C@@H]1C[NH2+][C@@H](O[C@@H]2C[C@@H](C(=O)NCCCNC(=O)c3ccc(-c4c5nc(c(-c6c(F)c(F)c(F)c(F)c6F)c6ccc([nH]6)c(-c6c(F)c(F)c(F)c(F)c6F)c6nc(c(-c7c(F)c(F)c(F)c(F)c7F)c7ccc4[nH]7)C=C6)C=C5)cc3)N(C(=O)OC(C)(C)C)C2)c2cc(Cl)ccc21
REMARK SMILES IDX 14 1 13 2 11 3 12 4 10 6 8 7 9 8 91 9 83 10 7 11 6 12 3 13
REMARK SMILES IDX 4 14 98 15 5 16 92 17 97 18 93 21 96 22 94 23 95 24 2 25
REMARK SMILES IDX 1 26 84 27 85 28 86 29 87 30 88 31 89 32 90 33 15 34 16 35
REMARK SMILES IDX 17 36 18 37 19 39 20 40 21 41 82 42 22 43 81 44 23 45 24 46
REMARK SMILES IDX 25 47 75 48 26 49 80 50 74 51 76 52 27 53 79 54 73 55 72 56
REMARK SMILES IDX 28 58 60 59 40 60 59 61 41 62 44 63 58 64 77 65 42 66 43 67
REMARK SMILES IDX 57 69 78 70 45 71 29 72 30 73 38 74 31 75 32 76 36 77 39 78
REMARK SMILES IDX 33 79 34 80 37 81 35 82 61 83 62 84 70 85 63 86 64 87 68 88
REMARK SMILES IDX 71 89 65 90 66 91 69 92 67 93 46 94 47 95 55 96 48 97 49 98
REMARK SMILES IDX 53 99 56 100 50 101 51 102 54 103 52 104
REMARK H PARENT 13 5 5 19 5 20 17 38 76 57 44 68
REMARK Flexibility Score: inf
ROOT
ATOM      1  C   UNL A   1      31.854  30.705  26.075  1.00  0.00     0.117 C 
ENDROOT
BRANCH   1   2
ATOM      2  N   UNL A   1      31.670  29.720  27.115  1.00  0.00    -0.354 N 
ATOM      3  C   UNL A   1      31.554  28.375  27.016  1.00  0.00     0.243 C 
ATOM      4  O   UNL A   1      31.132  27.776  28.011  1.00  0.00    -0.273 OA
ATOM      5  H   UNL A   1      31.623  30.079  28.031  1.00  0.00     0.163 HD
BRANCH   3   6
ATOM      6  C   UNL A   1      32.046  27.601  25.794  1.00  0.00     0.180 C 
ATOM      7  C   UNL A   1      33.887  27.100  24.324  1.00  0.00     0.147 C 
ATOM      8  C   UNL A   1      33.577  27.569  25.738  1.00  0.00     0.069 C 
ATOM      9  C   UNL A   1      32.718  27.644  23.489  1.00  0.00     0.156 C 
ATOM     10  N   UNL A   1      31.628  27.893  24.428  1.00  0.00    -0.293 N 
BRANCH   7  11
ATOM     11  O   UNL A   1      34.282  25.753  24.119  1.00  0.00    -0.320 OA
BRANCH  11  12
ATOM     12  C   UNL A   1      34.580  24.741  25.072  1.00  0.00     0.354 C 
ATOM     13  C   UNL A   1      35.091  21.907  24.364  1.00  0.00     0.203 C 
ATOM     14  C   UNL A   1      36.131  23.052  24.202  1.00  0.00     0.300 C 
ATOM     15  C   UNL A   1      33.801  22.318  25.059  1.00  0.00    -0.002 A 
ATOM     16  N   UNL A   1      35.944  24.263  24.984  1.00  0.00    -0.315 N 
ATOM     17  C   UNL A   1      33.555  23.671  25.371  1.00  0.00     0.046 A 
ATOM     18  C   UNL A   1      32.770  21.378  25.234  1.00  0.00     0.009 A 
ATOM     19  H   UNL A   1      36.508  25.001  24.564  1.00  0.00     0.349 HD
ATOM     20  H   UNL A   1      36.220  24.027  25.937  1.00  0.00     0.349 HD
ATOM     21  C   UNL A   1      32.322  24.034  25.950  1.00  0.00     0.033 A 
ATOM     22  C   UNL A   1      31.528  21.764  25.747  1.00  0.00     0.021 A 
ATOM     23  C   UNL A   1      31.317  23.086  26.122  1.00  0.00     0.041 A 
ATOM     24  Cl  UNL A   1      29.788  23.569  26.749  1.00  0.00    -0.084 Cl
BRANCH  13  25
ATOM     25  O   UNL A   1      35.675  20.760  24.991  1.00  0.00    -0.371 OA
ATOM     26  C   UNL A   1      37.099  20.852  24.973  1.00  0.00     0.196 C 
ENDBRANCH  13  25
ENDBRANCH  11  12
ENDBRANCH   7  11
BRANCH  10  27
ATOM     27  C   UNL A   1      30.326  27.936  23.955  1.00  0.00     0.411 C 
ATOM     28  O   UNL A   1      29.800  26.993  23.394  1.00  0.00    -0.224 OA
BRANCH  27  29
ATOM     29  O   UNL A   1      29.723  29.138  24.168  1.00  0.00    -0.444 OA
BRANCH  29  30
ATOM     30  C   UNL A   1      29.048  29.851  23.086  1.00  0.00     0.106 C 
ATOM     31  C   UNL A   1      29.855  29.798  21.785  1.00  0.00     0.056 C 
ATOM     32  C   UNL A   1      27.611  29.378  22.826  1.00  0.00     0.056 C 
ATOM     33  C   UNL A   1      28.995  31.314  23.561  1.00  0.00     0.056 C 
ENDBRANCH  29  30
ENDBRANCH  27  29
ENDBRANCH  10  27
ENDBRANCH   3   6
ENDBRANCH   1   2
BRANCH   1  34
ATOM     34  C   UNL A   1      31.531  32.101  26.576  1.00  0.00     0.042 C 
BRANCH  34  35
ATOM     35  C   UNL A   1      32.697  32.771  27.285  1.00  0.00     0.118 C 
BRANCH  35  36
ATOM     36  N   UNL A   1      32.441  34.165  27.600  1.00  0.00    -0.352 N 
ATOM     37  C   UNL A   1      33.005  34.917  28.602  1.00  0.00     0.251 C 
ATOM     38  H   UNL A   1      31.785  34.626  27.028  1.00  0.00     0.163 HD
ATOM     39  O   UNL A   1      32.529  36.001  28.917  1.00  0.00    -0.269 OA
BRANCH  37  40
ATOM     40  C   UNL A   1      34.181  34.377  29.316  1.00  0.00     0.039 A 
ATOM     41  C   UNL A   1      35.459  34.516  28.765  1.00  0.00     0.014 A 
ATOM     42  C   UNL A   1      33.996  33.675  30.507  1.00  0.00     0.014 A 
ATOM     43  C   UNL A   1      36.523  33.813  29.317  1.00  0.00     0.010 A 
ATOM     44  C   UNL A   1      35.090  33.060  31.118  1.00  0.00     0.010 A 
ATOM     45  C   UNL A   1      36.355  33.090  30.510  1.00  0.00    -0.014 A 
BRANCH  45  46
ATOM     46  C   UNL A   1      37.521  32.398  31.119  1.00  0.00     0.031 A 
ATOM     47  C   UNL A   1      38.003  32.752  32.498  1.00  0.00     0.074 A 
ATOM     48  C   UNL A   1      38.141  31.426  30.420  1.00  0.00     0.049 A 
ATOM     49  N   UNL A   1      39.028  32.276  33.162  1.00  0.00    -0.248 NA
ATOM     50  C   UNL A   1      37.244  33.780  33.227  1.00  0.00     0.031 C 
ATOM     51  C   UNL A   1      37.763  30.989  29.075  1.00  0.00     0.029 A 
ATOM     52  N   UNL A   1      39.204  30.623  30.744  1.00  0.00    -0.354 N 
ATOM     53  C   UNL A   1      39.051  32.961  34.369  1.00  0.00     0.074 A 
ATOM     54  C   UNL A   1      37.958  33.909  34.338  1.00  0.00     0.031 C 
ATOM     55  C   UNL A   1      38.545  29.965  28.709  1.00  0.00     0.029 A 
ATOM     56  C   UNL A   1      39.532  29.726  29.756  1.00  0.00     0.049 A 
ATOM     57  H   UNL A   1      39.685  30.683  31.601  1.00  0.00     0.167 HD
ATOM     58  C   UNL A   1      39.902  32.802  35.413  1.00  0.00     0.037 A 
ATOM     59  C   UNL A   1      40.531  28.827  29.685  1.00  0.00     0.037 A 
ATOM     60  C   UNL A   1      40.973  31.840  35.447  1.00  0.00     0.049 A 
ATOM     61  C   UNL A   1      41.488  28.705  30.835  1.00  0.00     0.074 A 
ATOM     62  C   UNL A   1      41.862  31.577  36.474  1.00  0.00     0.029 A 
ATOM     63  N   UNL A   1      41.303  30.982  34.406  1.00  0.00    -0.354 N 
ATOM     64  N   UNL A   1      41.489  29.345  31.978  1.00  0.00    -0.248 NA
ATOM     65  C   UNL A   1      42.588  27.744  30.681  1.00  0.00     0.031 C 
ATOM     66  C   UNL A   1      42.767  30.606  36.035  1.00  0.00     0.029 A 
ATOM     67  C   UNL A   1      42.405  30.215  34.756  1.00  0.00     0.049 A 
ATOM     68  H   UNL A   1      40.827  30.928  33.547  1.00  0.00     0.167 HD
ATOM     69  C   UNL A   1      42.579  28.859  32.686  1.00  0.00     0.074 A 
ATOM     70  C   UNL A   1      43.204  27.853  31.851  1.00  0.00     0.031 C 
ATOM     71  C   UNL A   1      43.022  29.220  33.915  1.00  0.00     0.037 A 
BRANCH  58  72
ATOM     72  C   UNL A   1      39.723  33.697  36.608  1.00  0.00     0.064 A 
ATOM     73  C   UNL A   1      40.321  34.964  36.679  1.00  0.00     0.173 A 
ATOM     74  C   UNL A   1      38.892  33.307  37.670  1.00  0.00     0.173 A 
ATOM     75  F   UNL A   1      41.133  35.385  35.696  1.00  0.00    -0.203 F 
ATOM     76  C   UNL A   1      40.114  35.796  37.778  1.00  0.00     0.198 A 
ATOM     77  C   UNL A   1      38.660  34.153  38.751  1.00  0.00     0.198 A 
ATOM     78  F   UNL A   1      38.286  32.110  37.650  1.00  0.00    -0.203 F 
ATOM     79  F   UNL A   1      40.731  36.983  37.844  1.00  0.00    -0.200 F 
ATOM     80  C   UNL A   1      39.277  35.394  38.807  1.00  0.00     0.200 A 
ATOM     81  F   UNL A   1      37.836  33.770  39.736  1.00  0.00    -0.200 F 
ATOM     82  F   UNL A   1      39.068  36.200  39.857  1.00  0.00    -0.200 F 
ENDBRANCH  58  72
BRANCH  59  83
ATOM     83  C   UNL A   1      40.656  27.978  28.473  1.00  0.00     0.064 A 
ATOM     84  C   UNL A   1      41.418  28.400  27.376  1.00  0.00     0.173 A 
ATOM     85  C   UNL A   1      40.074  26.703  28.413  1.00  0.00     0.173 A 
ATOM     86  F   UNL A   1      41.979  29.618  27.380  1.00  0.00    -0.203 F 
ATOM     87  C   UNL A   1      41.596  27.577  26.266  1.00  0.00     0.198 A 
ATOM     88  C   UNL A   1      40.279  25.868  27.318  1.00  0.00     0.198 A 
ATOM     89  F   UNL A   1      39.342  26.249  29.442  1.00  0.00    -0.203 F 
ATOM     90  F   UNL A   1      42.313  28.012  25.221  1.00  0.00    -0.200 F 
ATOM     91  C   UNL A   1      41.038  26.307  26.244  1.00  0.00     0.200 A 
ATOM     92  F   UNL A   1      39.757  24.634  27.311  1.00  0.00    -0.200 F 
ATOM     93  F   UNL A   1      41.234  25.506  25.188  1.00  0.00    -0.200 F 
ENDBRANCH  59  83
BRANCH  71  94
ATOM     94  C   UNL A   1      44.240  28.521  34.446  1.00  0.00     0.064 A 
ATOM     95  C   UNL A   1      44.142  27.315  35.155  1.00  0.00     0.173 A 
ATOM     96  C   UNL A   1      45.523  29.024  34.179  1.00  0.00     0.173 A 
ATOM     97  F   UNL A   1      42.939  26.801  35.449  1.00  0.00    -0.203 F 
ATOM     98  C   UNL A   1      45.283  26.645  35.587  1.00  0.00     0.198 A 
ATOM     99  C   UNL A   1      46.662  28.334  34.584  1.00  0.00     0.198 A 
ATOM    100  F   UNL A   1      45.672  30.170  33.499  1.00  0.00    -0.203 F 
ATOM    101  F   UNL A   1      45.165  25.512  36.293  1.00  0.00    -0.200 F 
ATOM    102  C   UNL A   1      46.541  27.147  35.291  1.00  0.00     0.200 A 
ATOM    103  F   UNL A   1      47.877  28.813  34.282  1.00  0.00    -0.200 F 
ATOM    104  F   UNL A   1      47.639  26.490  35.690  1.00  0.00    -0.200 F 
ENDBRANCH  71  94
ENDBRANCH  45  46
ENDBRANCH  37  40
ENDBRANCH  35  36
ENDBRANCH  34  35
ENDBRANCH   1  34
TORSDOF 16
ENDMDL
MODEL 3
REMARK VINA RESULT:     -13.4      1.454      2.211
REMARK SMILES CO[C@@H]1C[NH2+][C@@H](O[C@@H]2C[C@@H](C(=O)NCCCNC(=O)c3ccc(-c4c5nc(c(-c6c(F)c(F)c(F)c(F)c6F)c6ccc([nH]6)c(-c6c(F)c(F)c(F)c(F)c6F)c6nc(c(-c7c(F)c(F)c(F)c(F)c7F)c7ccc4[nH]7)C=C6)C=C5)cc3)N(C(=O)OC(C)(C)C)C2)c2cc(Cl)ccc21
REMARK SMILES IDX 14 1 13 2 11 3 12 4 10 6 8 7 9 8 91 9 83 10 7 11 6 12 3 13
REMARK SMILES IDX 4 14 98 15 5 16 92 17 97 18 93 21 96 22 94 23 95 24 2 25
REMARK SMILES IDX 1 26 84 27 85 28 86 29 87 30 88 31 89 32 90 33 15 34 16 35
REMARK SMILES IDX 17 36 18 37 19 39 20 40 21 41 82 42 22 43 81 44 23 45 24 46
REMARK SMILES IDX 25 47 75 48 26 49 80 50 74 51 76 52 27 53 79 54 73 55 72 56
REMARK SMILES IDX 28 58 60 59 40 60 59 61 41 62 44 63 58 64 77 65 42 66 43 67
REMARK SMILES IDX 57 69 78 70 45 71 29 72 30 73 38 74 31 75 32 76 36 77 39 78
REMARK SMILES IDX 33 79 34 80 37 81 35 82 61 83 62 84 70 85 63 86 64 87 68 88
REMARK SMILES IDX 71 89 65 90 66 91 69 92 67 93 46 94 47 95 55 96 48 97 49 98
REMARK SMILES IDX 53 99 56 100 50 101 51 102 54 103 52 104
REMARK H PARENT 13 5 5 19 5 20 17 38 76 57 44 68
REMARK Flexibility Score: inf
ROOT
ATOM      1  C   UNL A   1      32.094  30.028  25.744  1.00  0.00     0.117 C 
ENDROOT
BRANCH   1   2
ATOM      2  N   UNL A   1      31.821  28.828  26.500  1.00  0.00    -0.354 N 
ATOM      3  C   UNL A   1      31.471  27.596  26.062  1.00  0.00     0.243 C 
ATOM      4  O   UNL A   1      31.027  26.809  26.905  1.00  0.00    -0.273 OA
ATOM      5  H   UNL A   1      31.902  28.920  27.477  1.00  0.00     0.163 HD
BRANCH   3   6
ATOM      6  C   UNL A   1      31.736  27.133  24.630  1.00  0.00     0.180 C 
ATOM      7  C   UNL A   1      33.275  27.061  22.779  1.00  0.00     0.147 C 
ATOM      8  C   UNL A   1      33.230  27.196  24.294  1.00  0.00     0.069 C 
ATOM      9  C   UNL A   1      31.963  27.710  22.311  1.00  0.00     0.156 C 
ATOM     10  N   UNL A   1      31.066  27.690  23.462  1.00  0.00    -0.293 N 
BRANCH   7  11
ATOM     11  O   UNL A   1      33.641  25.814  22.212  1.00  0.00    -0.320 OA
BRANCH  11  12
ATOM     12  C   UNL A   1      33.352  24.495  22.658  1.00  0.00     0.354 C 
ATOM     13  C   UNL A   1      31.518  23.880  24.906  1.00  0.00     0.203 C 
ATOM     14  C   UNL A   1      31.050  24.257  23.471  1.00  0.00     0.300 C 
ATOM     15  C   UNL A   1      33.023  23.705  25.055  1.00  0.00    -0.002 A 
ATOM     16  N   UNL A   1      31.992  24.087  22.377  1.00  0.00    -0.315 N 
ATOM     17  C   UNL A   1      33.890  24.022  23.989  1.00  0.00     0.046 A 
ATOM     18  C   UNL A   1      33.571  23.396  26.313  1.00  0.00     0.009 A 
ATOM     19  H   UNL A   1      31.657  24.634  21.585  1.00  0.00     0.349 HD
ATOM     20  H   UNL A   1      32.032  23.084  22.195  1.00  0.00     0.349 HD
ATOM     21  C   UNL A   1      35.283  23.920  24.177  1.00  0.00     0.033 A 
ATOM     22  C   UNL A   1      34.955  23.363  26.502  1.00  0.00     0.021 A 
ATOM     23  C   UNL A   1      35.806  23.605  25.429  1.00  0.00     0.041 A 
ATOM     24  Cl  UNL A   1      37.511  23.572  25.657  1.00  0.00    -0.084 Cl
BRANCH  13  25
ATOM     25  O   UNL A   1      30.812  22.735  25.398  1.00  0.00    -0.371 OA
ATOM     26  C   UNL A   1      30.194  23.031  26.650  1.00  0.00     0.196 C 
ENDBRANCH  13  25
ENDBRANCH  11  12
ENDBRANCH   7  11
BRANCH  10  27
ATOM     27  C   UNL A   1      29.698  27.765  23.253  1.00  0.00     0.411 C 
ATOM     28  O   UNL A   1      28.902  27.073  23.861  1.00  0.00    -0.224 OA
BRANCH  27  29
ATOM     29  O   UNL A   1      29.355  28.668  22.294  1.00  0.00    -0.444 OA
BRANCH  29  30
ATOM     30  C   UNL A   1      28.514  29.823  22.603  1.00  0.00     0.106 C 
ATOM     31  C   UNL A   1      27.139  29.394  23.126  1.00  0.00     0.056 C 
ATOM     32  C   UNL A   1      29.154  30.820  23.578  1.00  0.00     0.056 C 
ATOM     33  C   UNL A   1      28.316  30.530  21.250  1.00  0.00     0.056 C 
ENDBRANCH  29  30
ENDBRANCH  27  29
ENDBRANCH  10  27
ENDBRANCH   3   6
ENDBRANCH   1   2
BRANCH   1  34
ATOM     34  C   UNL A   1      31.659  31.268  26.503  1.00  0.00     0.042 C 
BRANCH  34  35
ATOM     35  C   UNL A   1      32.815  32.014  27.150  1.00  0.00     0.118 C 
BRANCH  35  36
ATOM     36  N   UNL A   1      32.528  33.421  27.366  1.00  0.00    -0.352 N 
ATOM     37  C   UNL A   1      33.055  34.246  28.330  1.00  0.00     0.251 C 
ATOM     38  H   UNL A   1      31.880  33.832  26.751  1.00  0.00     0.163 HD
ATOM     39  O   UNL A   1      32.554  35.340  28.562  1.00  0.00    -0.269 OA
BRANCH  37  40
ATOM     40  C   UNL A   1      34.221  33.776  29.106  1.00  0.00     0.039 A 
ATOM     41  C   UNL A   1      35.511  34.182  28.747  1.00  0.00     0.014 A 
ATOM     42  C   UNL A   1      34.029  32.875  30.153  1.00  0.00     0.014 A 
ATOM     43  C   UNL A   1      36.611  33.561  29.326  1.00  0.00     0.010 A 
ATOM     44  C   UNL A   1      35.138  32.334  30.807  1.00  0.00     0.010 A 
ATOM     45  C   UNL A   1      36.438  32.642  30.374  1.00  0.00    -0.014 A 
BRANCH  45  46
ATOM     46  C   UNL A   1      37.631  32.038  31.025  1.00  0.00     0.031 A 
ATOM     47  C   UNL A   1      38.452  30.990  30.325  1.00  0.00     0.074 A 
ATOM     48  C   UNL A   1      37.983  32.455  32.257  1.00  0.00     0.049 A 
ATOM     49  N   UNL A   1      39.497  30.332  30.763  1.00  0.00    -0.248 NA
ATOM     50  C   UNL A   1      38.046  30.626  28.959  1.00  0.00     0.031 C 
ATOM     51  C   UNL A   1      37.269  33.469  33.035  1.00  0.00     0.029 A 
ATOM     52  N   UNL A   1      39.031  32.093  33.064  1.00  0.00    -0.354 N 
ATOM     53  C   UNL A   1      39.855  29.462  29.742  1.00  0.00     0.074 A 
ATOM     54  C   UNL A   1      38.899  29.651  28.672  1.00  0.00     0.031 C 
ATOM     55  C   UNL A   1      37.926  33.685  34.183  1.00  0.00     0.029 A 
ATOM     56  C   UNL A   1      39.060  32.770  34.259  1.00  0.00     0.049 A 
ATOM     57  H   UNL A   1      39.698  31.414  32.812  1.00  0.00     0.167 HD
ATOM     58  C   UNL A   1      40.896  28.594  29.699  1.00  0.00     0.037 A 
ATOM     59  C   UNL A   1      39.888  32.653  35.313  1.00  0.00     0.037 A 
ATOM     60  C   UNL A   1      41.858  28.429  30.759  1.00  0.00     0.049 A 
ATOM     61  C   UNL A   1      41.003  31.651  35.260  1.00  0.00     0.074 A 
ATOM     62  C   UNL A   1      42.969  27.604  30.792  1.00  0.00     0.029 A 
ATOM     63  N   UNL A   1      41.824  29.099  31.974  1.00  0.00    -0.354 N 
ATOM     64  N   UNL A   1      41.342  30.847  34.282  1.00  0.00    -0.248 NA
ATOM     65  C   UNL A   1      41.844  31.531  36.457  1.00  0.00     0.031 C 
ATOM     66  C   UNL A   1      43.571  27.729  32.047  1.00  0.00     0.029 A 
ATOM     67  C   UNL A   1      42.874  28.679  32.776  1.00  0.00     0.049 A 
ATOM     68  H   UNL A   1      41.152  29.772  32.229  1.00  0.00     0.167 HD
ATOM     69  C   UNL A   1      42.441  30.134  34.739  1.00  0.00     0.074 A 
ATOM     70  C   UNL A   1      42.726  30.617  36.075  1.00  0.00     0.031 C 
ATOM     71  C   UNL A   1      43.145  29.163  34.107  1.00  0.00     0.037 A 
BRANCH  58  72
ATOM     72  C   UNL A   1      41.048  27.740  28.472  1.00  0.00     0.064 A 
ATOM     73  C   UNL A   1      40.462  26.469  28.377  1.00  0.00     0.173 A 
ATOM     74  C   UNL A   1      41.740  28.225  27.351  1.00  0.00     0.173 A 
ATOM     75  F   UNL A   1      39.796  25.953  29.422  1.00  0.00    -0.203 F 
ATOM     76  C   UNL A   1      40.582  25.707  27.217  1.00  0.00     0.198 A 
ATOM     77  C   UNL A   1      41.831  27.474  26.181  1.00  0.00     0.198 A 
ATOM     78  F   UNL A   1      42.313  29.437  27.382  1.00  0.00    -0.203 F 
ATOM     79  F   UNL A   1      40.050  24.478  27.166  1.00  0.00    -0.200 F 
ATOM     80  C   UNL A   1      41.257  26.214  26.117  1.00  0.00     0.200 A 
ATOM     81  F   UNL A   1      42.469  27.974  25.113  1.00  0.00    -0.200 F 
ATOM     82  F   UNL A   1      41.361  25.485  24.997  1.00  0.00    -0.200 F 
ENDBRANCH  58  72
BRANCH  59  83
ATOM     83  C   UNL A   1      39.677  33.523  36.499  1.00  0.00     0.064 A 
ATOM     84  C   UNL A   1      40.280  34.785  36.579  1.00  0.00     0.173 A 
ATOM     85  C   UNL A   1      38.818  33.141  37.540  1.00  0.00     0.173 A 
ATOM     86  F   UNL A   1      41.123  35.187  35.616  1.00  0.00    -0.203 F 
ATOM     87  C   UNL A   1      40.029  35.633  37.655  1.00  0.00     0.198 A 
ATOM     88  C   UNL A   1      38.543  34.002  38.599  1.00  0.00     0.198 A 
ATOM     89  F   UNL A   1      38.210  31.945  37.505  1.00  0.00    -0.203 F 
ATOM     90  F   UNL A   1      40.634  36.827  37.718  1.00  0.00    -0.200 F 
ATOM     91  C   UNL A   1      39.150  35.248  38.657  1.00  0.00     0.200 A 
ATOM     92  F   UNL A   1      37.676  33.634  39.552  1.00  0.00    -0.200 F 
ATOM     93  F   UNL A   1      38.888  36.076  39.677  1.00  0.00    -0.200 F 
ENDBRANCH  59  83
BRANCH  71  94
ATOM     94  C   UNL A   1      44.303  28.554  34.844  1.00  0.00     0.064 A 
ATOM     95  C   UNL A   1      45.573  29.148  34.832  1.00  0.00     0.173 A 
ATOM     96  C   UNL A   1      44.123  27.406  35.632  1.00  0.00     0.173 A 
ATOM     97  F   UNL A   1      45.802  30.237  34.083  1.00  0.00    -0.203 F 
ATOM     98  C   UNL A   1      46.623  28.609  35.571  1.00  0.00     0.198 A 
ATOM     99  C   UNL A   1      45.165  26.890  36.395  1.00  0.00     0.198 A 
ATOM    100  F   UNL A   1      42.926  26.804  35.684  1.00  0.00    -0.203 F 
ATOM    101  F   UNL A   1      47.837  29.174  35.517  1.00  0.00    -0.200 F 
ATOM    102  C   UNL A   1      46.416  27.488  36.361  1.00  0.00     0.200 A 
ATOM    103  F   UNL A   1      44.958  25.816  37.171  1.00  0.00    -0.200 F 
ATOM    104  F   UNL A   1      47.422  26.983  37.088  1.00  0.00    -0.200 F 
ENDBRANCH  71  94
ENDBRANCH  45  46
ENDBRANCH  37  40
ENDBRANCH  35  36
ENDBRANCH  34  35
ENDBRANCH   1  34
TORSDOF 16
ENDMDL
