MODEL 1
REMARK VINA RESULT:     -12.0      0.000      0.000
REMARK SMILES CCCc1cc(OC(F)(F)F)cc2c1O[C@@H](C(F)(F)F)C(C(=O)NCCCNC(=O)c1ccc(-c3c4nc(c(-c5c(F)c(F)c(F)c(F)c5F)c5ccc([nH]5)c(-c5c(F)c(F)c(F)c(F)c5F)c5nc(c(-c6c(F)c(F)c(F)c(F)c6F)c6ccc3[nH]6)C=C5)C=C4)cc1)=C2
REMARK SMILES IDX 26 1 25 2 24 3 22 4 23 5 21 7 4 8 5 9 14 10 6 11 13 12 15 13
REMARK SMILES IDX 12 14 94 15 16 16 3 17 2 18 1 19 7 20 8 21 9 22 10 23 11 24
REMARK SMILES IDX 17 25 18 26 19 27 20 28 27 29 28 30 29 31 30 33 31 34 32 35
REMARK SMILES IDX 93 36 33 37 92 38 34 39 35 40 36 41 86 42 37 43 91 44 85 45
REMARK SMILES IDX 87 46 38 47 90 48 84 49 83 50 39 52 71 53 51 54 70 55 52 56
REMARK SMILES IDX 55 57 69 58 88 59 53 60 54 61 68 63 89 64 56 65 40 66 41 67
REMARK SMILES IDX 49 68 42 69 43 70 47 71 50 72 44 73 45 74 48 75 46 76 72 77
REMARK SMILES IDX 73 78 81 79 74 80 75 81 79 82 82 83 76 84 77 85 80 86 78 87
REMARK SMILES IDX 57 88 58 89 66 90 59 91 60 92 64 93 67 94 61 95 62 96 65 97
REMARK SMILES IDX 63 98
REMARK H PARENT 24 6 28 32 87 51 55 62
REMARK Flexibility Score: inf
ROOT
ATOM      1  C   UNL A   1      35.214  23.268  26.570  1.00  0.00     0.042 C 
ENDROOT
BRANCH   1   2
ATOM      2  C   UNL A   1      34.034  23.226  25.594  1.00  0.00     0.118 C 
BRANCH   2   3
ATOM      3  N   UNL A   1      32.794  22.950  26.305  1.00  0.00    -0.352 N 
ATOM      4  C   UNL A   1      31.765  23.739  26.708  1.00  0.00     0.251 C 
ATOM      5  O   UNL A   1      30.906  23.241  27.431  1.00  0.00    -0.270 OA
ATOM      6  H   UNL A   1      32.679  22.000  26.541  1.00  0.00     0.163 HD
BRANCH   4   7
ATOM      7  C   UNL A   1      31.605  25.145  26.258  1.00  0.00     0.067 C 
ATOM      8  C   UNL A   1      31.289  29.016  24.624  1.00  0.00    -0.002 A 
ATOM      9  C   UNL A   1      31.746  30.104  25.393  1.00  0.00     0.054 A 
ATOM     10  C   UNL A   1      31.369  27.725  25.177  1.00  0.00     0.131 A 
ATOM     11  C   UNL A   1      32.339  29.910  26.641  1.00  0.00     0.130 A 
ATOM     12  C   UNL A   1      31.928  27.527  26.438  1.00  0.00     0.021 A 
ATOM     13  O   UNL A   1      30.949  26.678  24.405  1.00  0.00    -0.475 OA
ATOM     14  C   UNL A   1      32.417  28.618  27.162  1.00  0.00     0.058 A 
ATOM     15  C   UNL A   1      32.086  26.181  26.960  1.00  0.00     0.025 C 
ATOM     16  C   UNL A   1      30.720  25.386  25.041  1.00  0.00     0.314 C 
BRANCH   8  17
ATOM     17  C   UNL A   1      30.672  29.210  23.250  1.00  0.00     0.039 C 
BRANCH  17  18
ATOM     18  C   UNL A   1      29.205  29.657  23.177  1.00  0.00     0.001 C 
ATOM     19  C   UNL A   1      28.221  28.496  23.113  1.00  0.00     0.004 C 
ENDBRANCH  17  18
ENDBRANCH   8  17
BRANCH  11  20
ATOM     20  O   UNL A   1      32.886  30.871  27.441  1.00  0.00    -0.406 OA
BRANCH  20  21
ATOM     21  C   UNL A   1      34.299  30.906  27.563  1.00  0.00     0.573 C 
ATOM     22  F   UNL A   1      34.689  30.680  28.836  1.00  0.00    -0.132 F 
ATOM     23  F   UNL A   1      34.873  30.000  26.745  1.00  0.00    -0.132 F 
ATOM     24  F   UNL A   1      34.732  32.134  27.203  1.00  0.00    -0.132 F 
ENDBRANCH  20  21
ENDBRANCH  11  20
BRANCH  16  25
ATOM     25  C   UNL A   1      30.777  24.320  23.922  1.00  0.00     0.429 C 
ATOM     26  F   UNL A   1      29.949  24.596  22.890  1.00  0.00    -0.167 F 
ATOM     27  F   UNL A   1      32.023  24.256  23.379  1.00  0.00    -0.167 F 
ATOM     28  F   UNL A   1      30.486  23.080  24.379  1.00  0.00    -0.167 F 
ENDBRANCH  16  25
ENDBRANCH   4   7
ENDBRANCH   2   3
ENDBRANCH   1   2
BRANCH   1  29
ATOM     29  C   UNL A   1      36.497  23.799  25.939  1.00  0.00     0.118 C 
BRANCH  29  30
ATOM     30  N   UNL A   1      37.570  22.816  25.988  1.00  0.00    -0.352 N 
ATOM     31  C   UNL A   1      38.897  22.985  26.295  1.00  0.00     0.251 C 
ATOM     32  H   UNL A   1      37.305  21.894  25.767  1.00  0.00     0.163 HD
ATOM     33  O   UNL A   1      39.695  22.085  26.061  1.00  0.00    -0.269 OA
BRANCH  31  34
ATOM     34  C   UNL A   1      39.371  24.248  26.903  1.00  0.00     0.039 A 
ATOM     35  C   UNL A   1      40.040  25.176  26.098  1.00  0.00     0.014 A 
ATOM     36  C   UNL A   1      39.204  24.498  28.267  1.00  0.00     0.014 A 
ATOM     37  C   UNL A   1      40.500  26.374  26.651  1.00  0.00     0.010 A 
ATOM     38  C   UNL A   1      39.603  25.721  28.802  1.00  0.00     0.010 A 
ATOM     39  C   UNL A   1      40.264  26.665  28.003  1.00  0.00    -0.014 A 
BRANCH  39  40
ATOM     40  C   UNL A   1      40.724  27.935  28.617  1.00  0.00     0.031 A 
ATOM     41  C   UNL A   1      42.168  28.095  29.006  1.00  0.00     0.074 A 
ATOM     42  C   UNL A   1      39.836  28.909  28.895  1.00  0.00     0.049 A 
ATOM     43  N   UNL A   1      42.747  29.061  29.674  1.00  0.00    -0.248 NA
ATOM     44  C   UNL A   1      43.079  27.007  28.614  1.00  0.00     0.031 C 
ATOM     45  C   UNL A   1      38.406  28.861  28.587  1.00  0.00     0.029 A 
ATOM     46  N   UNL A   1      40.002  30.121  29.517  1.00  0.00    -0.354 N 
ATOM     47  C   UNL A   1      44.079  28.687  29.799  1.00  0.00     0.074 A 
ATOM     48  C   UNL A   1      44.214  27.385  29.182  1.00  0.00     0.031 C 
ATOM     49  C   UNL A   1      37.828  29.998  29.010  1.00  0.00     0.029 A 
ATOM     50  C   UNL A   1      38.835  30.832  29.657  1.00  0.00     0.049 A 
ATOM     51  H   UNL A   1      40.875  30.450  29.832  1.00  0.00     0.167 HD
ATOM     52  C   UNL A   1      45.100  29.376  30.361  1.00  0.00     0.037 A 
ATOM     53  C   UNL A   1      38.605  32.017  30.256  1.00  0.00     0.037 A 
ATOM     54  C   UNL A   1      44.965  30.682  30.950  1.00  0.00     0.049 A 
ATOM     55  C   UNL A   1      39.754  32.753  30.891  1.00  0.00     0.074 A 
ATOM     56  C   UNL A   1      45.944  31.483  31.511  1.00  0.00     0.029 A 
ATOM     57  N   UNL A   1      43.770  31.381  31.050  1.00  0.00    -0.354 N 
ATOM     58  N   UNL A   1      41.017  32.410  30.966  1.00  0.00    -0.248 NA
ATOM     59  C   UNL A   1      39.446  34.045  31.523  1.00  0.00     0.031 C 
ATOM     60  C   UNL A   1      45.335  32.649  31.985  1.00  0.00     0.029 A 
ATOM     61  C   UNL A   1      43.986  32.598  31.675  1.00  0.00     0.049 A 
ATOM     62  H   UNL A   1      42.899  31.059  30.726  1.00  0.00     0.167 HD
ATOM     63  C   UNL A   1      41.659  33.457  31.614  1.00  0.00     0.074 A 
ATOM     64  C   UNL A   1      40.647  34.450  31.909  1.00  0.00     0.031 C 
ATOM     65  C   UNL A   1      42.970  33.586  31.934  1.00  0.00     0.037 A 
BRANCH  52  66
ATOM     66  C   UNL A   1      46.457  28.733  30.361  1.00  0.00     0.064 A 
ATOM     67  C   UNL A   1      46.885  27.917  31.419  1.00  0.00     0.173 A 
ATOM     68  C   UNL A   1      47.327  28.905  29.273  1.00  0.00     0.173 A 
ATOM     69  F   UNL A   1      46.096  27.729  32.487  1.00  0.00    -0.203 F 
ATOM     70  C   UNL A   1      48.143  27.321  31.402  1.00  0.00     0.198 A 
ATOM     71  C   UNL A   1      48.572  28.281  29.245  1.00  0.00     0.198 A 
ATOM     72  F   UNL A   1      46.967  29.669  28.231  1.00  0.00    -0.203 F 
ATOM     73  F   UNL A   1      48.548  26.587  32.448  1.00  0.00    -0.200 F 
ATOM     74  C   UNL A   1      48.983  27.497  30.313  1.00  0.00     0.200 A 
ATOM     75  F   UNL A   1      49.377  28.441  28.185  1.00  0.00    -0.200 F 
ATOM     76  F   UNL A   1      50.190  26.917  30.295  1.00  0.00    -0.200 F 
ENDBRANCH  52  66
BRANCH  53  77
ATOM     77  C   UNL A   1      37.234  32.592  30.267  1.00  0.00     0.064 A 
ATOM     78  C   UNL A   1      36.829  33.499  29.278  1.00  0.00     0.173 A 
ATOM     79  C   UNL A   1      36.307  32.261  31.266  1.00  0.00     0.173 A 
ATOM     80  F   UNL A   1      37.687  33.862  28.312  1.00  0.00    -0.203 F 
ATOM     81  C   UNL A   1      35.560  34.071  29.300  1.00  0.00     0.198 A 
ATOM     82  C   UNL A   1      35.028  32.811  31.271  1.00  0.00     0.198 A 
ATOM     83  F   UNL A   1      36.642  31.394  32.233  1.00  0.00    -0.203 F 
ATOM     84  F   UNL A   1      35.217  34.971  28.369  1.00  0.00    -0.200 F 
ATOM     85  C   UNL A   1      34.657  33.723  30.294  1.00  0.00     0.200 A 
ATOM     86  F   UNL A   1      34.153  32.462  32.224  1.00  0.00    -0.200 F 
ATOM     87  F   UNL A   1      33.435  34.271  30.314  1.00  0.00    -0.200 F 
ENDBRANCH  53  77
BRANCH  65  88
ATOM     88  C   UNL A   1      43.403  34.868  32.581  1.00  0.00     0.064 A 
ATOM     89  C   UNL A   1      43.685  36.017  31.830  1.00  0.00     0.173 A 
ATOM     90  C   UNL A   1      43.475  34.960  33.980  1.00  0.00     0.173 A 
ATOM     91  F   UNL A   1      43.644  35.974  30.490  1.00  0.00    -0.203 F 
ATOM     92  C   UNL A   1      44.042  37.209  32.456  1.00  0.00     0.198 A 
ATOM     93  C   UNL A   1      43.803  36.161  34.603  1.00  0.00     0.198 A 
ATOM     94  F   UNL A   1      43.208  33.890  34.743  1.00  0.00    -0.203 F 
ATOM     95  F   UNL A   1      44.345  38.286  31.717  1.00  0.00    -0.200 F 
ATOM     96  C   UNL A   1      44.091  37.282  33.840  1.00  0.00     0.200 A 
ATOM     97  F   UNL A   1      43.837  36.233  35.940  1.00  0.00    -0.200 F 
ATOM     98  F   UNL A   1      44.420  38.434  34.439  1.00  0.00    -0.200 F 
ENDBRANCH  65  88
ENDBRANCH  39  40
ENDBRANCH  31  34
ENDBRANCH  29  30
ENDBRANCH   1  29
TORSDOF 15
ENDMDL
MODEL 2
REMARK VINA RESULT:     -11.9      0.506      1.419
REMARK SMILES CCCc1cc(OC(F)(F)F)cc2c1O[C@@H](C(F)(F)F)C(C(=O)NCCCNC(=O)c1ccc(-c3c4nc(c(-c5c(F)c(F)c(F)c(F)c5F)c5ccc([nH]5)c(-c5c(F)c(F)c(F)c(F)c5F)c5nc(c(-c6c(F)c(F)c(F)c(F)c6F)c6ccc3[nH]6)C=C5)C=C4)cc1)=C2
REMARK SMILES IDX 26 1 25 2 24 3 22 4 23 5 21 7 4 8 5 9 14 10 6 11 13 12 15 13
REMARK SMILES IDX 12 14 94 15 16 16 3 17 2 18 1 19 7 20 8 21 9 22 10 23 11 24
REMARK SMILES IDX 17 25 18 26 19 27 20 28 27 29 28 30 29 31 30 33 31 34 32 35
REMARK SMILES IDX 93 36 33 37 92 38 34 39 35 40 36 41 86 42 37 43 91 44 85 45
REMARK SMILES IDX 87 46 38 47 90 48 84 49 83 50 39 52 71 53 51 54 70 55 52 56
REMARK SMILES IDX 55 57 69 58 88 59 53 60 54 61 68 63 89 64 56 65 40 66 41 67
REMARK SMILES IDX 49 68 42 69 43 70 47 71 50 72 44 73 45 74 48 75 46 76 72 77
REMARK SMILES IDX 73 78 81 79 74 80 75 81 79 82 82 83 76 84 77 85 80 86 78 87
REMARK SMILES IDX 57 88 58 89 66 90 59 91 60 92 64 93 67 94 61 95 62 96 65 97
REMARK SMILES IDX 63 98
REMARK H PARENT 24 6 28 32 87 51 55 62
REMARK Flexibility Score: inf
ROOT
ATOM      1  C   UNL A   1      35.252  23.283  26.433  1.00  0.00     0.042 C 
ENDROOT
BRANCH   1   2
ATOM      2  C   UNL A   1      34.090  23.214  25.436  1.00  0.00     0.118 C 
BRANCH   2   3
ATOM      3  N   UNL A   1      32.848  22.895  26.124  1.00  0.00    -0.352 N 
ATOM      4  C   UNL A   1      31.811  23.656  26.559  1.00  0.00     0.251 C 
ATOM      5  O   UNL A   1      30.951  23.116  27.250  1.00  0.00    -0.270 OA
ATOM      6  H   UNL A   1      32.738  21.933  26.310  1.00  0.00     0.163 HD
BRANCH   4   7
ATOM      7  C   UNL A   1      31.645  25.082  26.181  1.00  0.00     0.067 C 
ATOM      8  C   UNL A   1      31.305  29.027  24.741  1.00  0.00    -0.002 A 
ATOM      9  C   UNL A   1      31.777  30.077  25.553  1.00  0.00     0.054 A 
ATOM     10  C   UNL A   1      31.393  27.711  25.230  1.00  0.00     0.131 A 
ATOM     11  C   UNL A   1      32.392  29.822  26.780  1.00  0.00     0.130 A 
ATOM     12  C   UNL A   1      31.974  27.452  26.470  1.00  0.00     0.021 A 
ATOM     13  O   UNL A   1      30.958  26.703  24.416  1.00  0.00    -0.475 OA
ATOM     14  C   UNL A   1      32.478  28.507  27.236  1.00  0.00     0.058 A 
ATOM     15  C   UNL A   1      32.140  26.082  26.923  1.00  0.00     0.025 C 
ATOM     16  C   UNL A   1      30.738  25.382  24.993  1.00  0.00     0.314 C 
BRANCH   8  17
ATOM     17  C   UNL A   1      30.663  29.288  23.389  1.00  0.00     0.039 C 
BRANCH  17  18
ATOM     18  C   UNL A   1      29.355  30.090  23.357  1.00  0.00     0.001 C 
ATOM     19  C   UNL A   1      28.189  29.322  22.747  1.00  0.00     0.004 C 
ENDBRANCH  17  18
ENDBRANCH   8  17
BRANCH  11  20
ATOM     20  O   UNL A   1      32.955  30.744  27.615  1.00  0.00    -0.406 OA
BRANCH  20  21
ATOM     21  C   UNL A   1      34.369  30.853  27.623  1.00  0.00     0.573 C 
ATOM     22  F   UNL A   1      34.939  29.936  26.812  1.00  0.00    -0.132 F 
ATOM     23  F   UNL A   1      34.756  32.090  27.251  1.00  0.00    -0.132 F 
ATOM     24  F   UNL A   1      34.810  30.633  28.881  1.00  0.00    -0.132 F 
ENDBRANCH  20  21
ENDBRANCH  11  20
BRANCH  16  25
ATOM     25  C   UNL A   1      30.773  24.371  23.823  1.00  0.00     0.429 C 
ATOM     26  F   UNL A   1      30.401  23.126  24.193  1.00  0.00    -0.167 F 
ATOM     27  F   UNL A   1      29.899  24.734  22.845  1.00  0.00    -0.167 F 
ATOM     28  F   UNL A   1      31.995  24.296  23.246  1.00  0.00    -0.167 F 
ENDBRANCH  16  25
ENDBRANCH   4   7
ENDBRANCH   2   3
ENDBRANCH   1   2
BRANCH   1  29
ATOM     29  C   UNL A   1      36.572  23.697  25.790  1.00  0.00     0.118 C 
BRANCH  29  30
ATOM     30  N   UNL A   1      37.611  22.700  26.000  1.00  0.00    -0.352 N 
ATOM     31  C   UNL A   1      38.920  22.868  26.378  1.00  0.00     0.251 C 
ATOM     32  H   UNL A   1      37.335  21.767  25.849  1.00  0.00     0.163 HD
ATOM     33  O   UNL A   1      39.707  21.932  26.282  1.00  0.00    -0.269 OA
BRANCH  31  34
ATOM     34  C   UNL A   1      39.389  24.172  26.897  1.00  0.00     0.039 A 
ATOM     35  C   UNL A   1      39.168  24.483  28.243  1.00  0.00     0.014 A 
ATOM     36  C   UNL A   1      39.998  25.106  26.055  1.00  0.00     0.014 A 
ATOM     37  C   UNL A   1      39.598  25.710  28.753  1.00  0.00     0.010 A 
ATOM     38  C   UNL A   1      40.486  26.299  26.580  1.00  0.00     0.010 A 
ATOM     39  C   UNL A   1      40.281  26.618  27.930  1.00  0.00    -0.014 A 
BRANCH  39  40
ATOM     40  C   UNL A   1      40.767  27.923  28.446  1.00  0.00     0.031 A 
ATOM     41  C   UNL A   1      42.235  28.124  28.699  1.00  0.00     0.074 A 
ATOM     42  C   UNL A   1      39.886  28.892  28.758  1.00  0.00     0.049 A 
ATOM     43  N   UNL A   1      42.851  29.128  29.271  1.00  0.00    -0.248 NA
ATOM     44  C   UNL A   1      43.131  27.035  28.276  1.00  0.00     0.031 C 
ATOM     45  C   UNL A   1      38.436  28.807  28.580  1.00  0.00     0.029 A 
ATOM     46  N   UNL A   1      40.081  30.134  29.310  1.00  0.00    -0.354 N 
ATOM     47  C   UNL A   1      44.196  28.783  29.294  1.00  0.00     0.074 A 
ATOM     48  C   UNL A   1      44.303  27.458  28.725  1.00  0.00     0.031 C 
ATOM     49  C   UNL A   1      37.874  29.952  29.003  1.00  0.00     0.029 A 
ATOM     50  C   UNL A   1      38.916  30.831  29.522  1.00  0.00     0.049 A 
ATOM     51  H   UNL A   1      40.971  30.491  29.533  1.00  0.00     0.167 HD
ATOM     52  C   UNL A   1      45.248  29.514  29.734  1.00  0.00     0.037 A 
ATOM     53  C   UNL A   1      38.714  32.037  30.087  1.00  0.00     0.037 A 
ATOM     54  C   UNL A   1      45.137  30.843  30.275  1.00  0.00     0.049 A 
ATOM     55  C   UNL A   1      39.899  32.820  30.586  1.00  0.00     0.074 A 
ATOM     56  C   UNL A   1      46.144  31.684  30.712  1.00  0.00     0.029 A 
ATOM     57  N   UNL A   1      43.941  31.525  30.450  1.00  0.00    -0.354 N 
ATOM     58  N   UNL A   1      41.170  32.503  30.564  1.00  0.00    -0.248 NA
ATOM     59  C   UNL A   1      39.620  34.134  31.186  1.00  0.00     0.031 C 
ATOM     60  C   UNL A   1      45.555  32.860  31.188  1.00  0.00     0.029 A 
ATOM     61  C   UNL A   1      44.186  32.772  31.000  1.00  0.00     0.049 A 
ATOM     62  H   UNL A   1      43.052  31.174  30.218  1.00  0.00     0.167 HD
ATOM     63  C   UNL A   1      41.844  33.589  31.107  1.00  0.00     0.074 A 
ATOM     64  C   UNL A   1      40.842  34.576  31.447  1.00  0.00     0.031 C 
ATOM     65  C   UNL A   1      43.175  33.753  31.304  1.00  0.00     0.037 A 
BRANCH  52  66
ATOM     66  C   UNL A   1      46.612  28.895  29.641  1.00  0.00     0.064 A 
ATOM     67  C   UNL A   1      47.413  29.046  28.500  1.00  0.00     0.173 A 
ATOM     68  C   UNL A   1      47.141  28.171  30.721  1.00  0.00     0.173 A 
ATOM     69  F   UNL A   1      46.951  29.719  27.435  1.00  0.00    -0.203 F 
ATOM     70  C   UNL A   1      48.680  28.471  28.430  1.00  0.00     0.198 A 
ATOM     71  C   UNL A   1      48.421  27.625  30.661  1.00  0.00     0.198 A 
ATOM     72  F   UNL A   1      46.421  28.001  31.840  1.00  0.00    -0.203 F 
ATOM     73  F   UNL A   1      49.405  28.588  27.309  1.00  0.00    -0.200 F 
ATOM     74  C   UNL A   1      49.186  27.768  29.513  1.00  0.00     0.200 A 
ATOM     75  F   UNL A   1      48.914  26.958  31.713  1.00  0.00    -0.200 F 
ATOM     76  F   UNL A   1      50.408  27.223  29.448  1.00  0.00    -0.200 F 
ENDBRANCH  52  66
BRANCH  53  77
ATOM     77  C   UNL A   1      37.338  32.588  30.194  1.00  0.00     0.064 A 
ATOM     78  C   UNL A   1      36.850  33.488  29.236  1.00  0.00     0.173 A 
ATOM     79  C   UNL A   1      36.489  32.243  31.255  1.00  0.00     0.173 A 
ATOM     80  F   UNL A   1      37.632  33.865  28.213  1.00  0.00    -0.203 F 
ATOM     81  C   UNL A   1      35.575  34.038  29.347  1.00  0.00     0.198 A 
ATOM     82  C   UNL A   1      35.203  32.771  31.350  1.00  0.00     0.198 A 
ATOM     83  F   UNL A   1      36.905  31.381  32.196  1.00  0.00    -0.203 F 
ATOM     84  F   UNL A   1      35.153  34.932  28.443  1.00  0.00    -0.200 F 
ATOM     85  C   UNL A   1      34.750  33.676  30.401  1.00  0.00     0.200 A 
ATOM     86  F   UNL A   1      34.404  32.407  32.361  1.00  0.00    -0.200 F 
ATOM     87  F   UNL A   1      33.523  34.203  30.507  1.00  0.00    -0.200 F 
ENDBRANCH  53  77
BRANCH  65  88
ATOM     88  C   UNL A   1      43.636  35.070  31.855  1.00  0.00     0.064 A 
ATOM     89  C   UNL A   1      43.825  36.190  31.033  1.00  0.00     0.173 A 
ATOM     90  C   UNL A   1      43.832  35.225  33.236  1.00  0.00     0.173 A 
ATOM     91  F   UNL A   1      43.664  36.088  29.705  1.00  0.00    -0.203 F 
ATOM     92  C   UNL A   1      44.210  37.415  31.573  1.00  0.00     0.198 A 
ATOM     93  C   UNL A   1      44.188  36.459  33.775  1.00  0.00     0.198 A 
ATOM     94  F   UNL A   1      43.658  34.185  34.065  1.00  0.00    -0.203 F 
ATOM     95  F   UNL A   1      44.422  38.464  30.766  1.00  0.00    -0.200 F 
ATOM     96  C   UNL A   1      44.381  37.550  32.943  1.00  0.00     0.200 A 
ATOM     97  F   UNL A   1      44.340  36.590  35.099  1.00  0.00    -0.200 F 
ATOM     98  F   UNL A   1      44.738  38.733  33.461  1.00  0.00    -0.200 F 
ENDBRANCH  65  88
ENDBRANCH  39  40
ENDBRANCH  31  34
ENDBRANCH  29  30
ENDBRANCH   1  29
TORSDOF 15
ENDMDL
MODEL 3
REMARK VINA RESULT:     -11.8      0.900      1.637
REMARK SMILES CCCc1cc(OC(F)(F)F)cc2c1O[C@@H](C(F)(F)F)C(C(=O)NCCCNC(=O)c1ccc(-c3c4nc(c(-c5c(F)c(F)c(F)c(F)c5F)c5ccc([nH]5)c(-c5c(F)c(F)c(F)c(F)c5F)c5nc(c(-c6c(F)c(F)c(F)c(F)c6F)c6ccc3[nH]6)C=C5)C=C4)cc1)=C2
REMARK SMILES IDX 26 1 25 2 24 3 22 4 23 5 21 7 4 8 5 9 14 10 6 11 13 12 15 13
REMARK SMILES IDX 12 14 94 15 16 16 3 17 2 18 1 19 7 20 8 21 9 22 10 23 11 24
REMARK SMILES IDX 17 25 18 26 19 27 20 28 27 29 28 30 29 31 30 33 31 34 32 35
REMARK SMILES IDX 93 36 33 37 92 38 34 39 35 40 36 41 86 42 37 43 91 44 85 45
REMARK SMILES IDX 87 46 38 47 90 48 84 49 83 50 39 52 71 53 51 54 70 55 52 56
REMARK SMILES IDX 55 57 69 58 88 59 53 60 54 61 68 63 89 64 56 65 40 66 41 67
REMARK SMILES IDX 49 68 42 69 43 70 47 71 50 72 44 73 45 74 48 75 46 76 72 77
REMARK SMILES IDX 73 78 81 79 74 80 75 81 79 82 82 83 76 84 77 85 80 86 78 87
REMARK SMILES IDX 57 88 58 89 66 90 59 91 60 92 64 93 67 94 61 95 62 96 65 97
REMARK SMILES IDX 63 98
REMARK H PARENT 24 6 28 32 87 51 55 62
REMARK Flexibility Score: inf
ROOT
ATOM      1  C   UNL A   1      35.359  23.521  26.262  1.00  0.00     0.042 C 
ENDROOT
BRANCH   1   2
ATOM      2  C   UNL A   1      34.186  23.294  25.303  1.00  0.00     0.118 C 
BRANCH   2   3
ATOM      3  N   UNL A   1      32.981  22.954  26.044  1.00  0.00    -0.352 N 
ATOM      4  C   UNL A   1      31.950  23.698  26.522  1.00  0.00     0.251 C 
ATOM      5  O   UNL A   1      31.130  23.145  27.251  1.00  0.00    -0.270 OA
ATOM      6  H   UNL A   1      32.896  21.992  26.237  1.00  0.00     0.163 HD
BRANCH   4   7
ATOM      7  C   UNL A   1      31.742  25.119  26.148  1.00  0.00     0.067 C 
ATOM      8  C   UNL A   1      31.276  29.055  24.716  1.00  0.00    -0.002 A 
ATOM      9  C   UNL A   1      31.742  30.115  25.518  1.00  0.00     0.054 A 
ATOM     10  C   UNL A   1      31.406  27.741  25.203  1.00  0.00     0.131 A 
ATOM     11  C   UNL A   1      32.390  29.876  26.731  1.00  0.00     0.130 A 
ATOM     12  C   UNL A   1      32.021  27.497  26.430  1.00  0.00     0.021 A 
ATOM     13  O   UNL A   1      30.977  26.723  24.399  1.00  0.00    -0.475 OA
ATOM     14  C   UNL A   1      32.517  28.563  27.185  1.00  0.00     0.058 A 
ATOM     15  C   UNL A   1      32.230  26.132  26.878  1.00  0.00     0.025 C 
ATOM     16  C   UNL A   1      30.801  25.397  24.980  1.00  0.00     0.314 C 
BRANCH   8  17
ATOM     17  C   UNL A   1      30.598  29.300  23.380  1.00  0.00     0.039 C 
BRANCH  17  18
ATOM     18  C   UNL A   1      29.275  30.079  23.376  1.00  0.00     0.001 C 
ATOM     19  C   UNL A   1      28.120  29.306  22.751  1.00  0.00     0.004 C 
ENDBRANCH  17  18
ENDBRANCH   8  17
BRANCH  11  20
ATOM     20  O   UNL A   1      32.950  30.811  27.553  1.00  0.00    -0.406 OA
BRANCH  20  21
ATOM     21  C   UNL A   1      34.365  30.859  27.634  1.00  0.00     0.573 C 
ATOM     22  F   UNL A   1      34.793  30.649  28.898  1.00  0.00    -0.132 F 
ATOM     23  F   UNL A   1      34.924  29.950  26.810  1.00  0.00    -0.132 F 
ATOM     24  F   UNL A   1      34.777  32.087  27.251  1.00  0.00    -0.132 F 
ENDBRANCH  20  21
ENDBRANCH  11  20
BRANCH  16  25
ATOM     25  C   UNL A   1      30.834  24.387  23.810  1.00  0.00     0.429 C 
ATOM     26  F   UNL A   1      30.501  23.134  24.188  1.00  0.00    -0.167 F 
ATOM     27  F   UNL A   1      29.929  24.729  22.852  1.00  0.00    -0.167 F 
ATOM     28  F   UNL A   1      32.044  24.341  23.205  1.00  0.00    -0.167 F 
ENDBRANCH  16  25
ENDBRANCH   4   7
ENDBRANCH   2   3
ENDBRANCH   1   2
BRANCH   1  29
ATOM     29  C   UNL A   1      36.701  23.653  25.549  1.00  0.00     0.118 C 
BRANCH  29  30
ATOM     30  N   UNL A   1      37.646  22.634  25.982  1.00  0.00    -0.352 N 
ATOM     31  C   UNL A   1      38.908  22.776  26.501  1.00  0.00     0.251 C 
ATOM     32  H   UNL A   1      37.333  21.705  25.888  1.00  0.00     0.163 HD
ATOM     33  O   UNL A   1      39.642  21.798  26.593  1.00  0.00    -0.269 OA
BRANCH  31  34
ATOM     34  C   UNL A   1      39.392  24.102  26.945  1.00  0.00     0.039 A 
ATOM     35  C   UNL A   1      39.217  24.471  28.283  1.00  0.00     0.014 A 
ATOM     36  C   UNL A   1      39.968  24.998  26.042  1.00  0.00     0.014 A 
ATOM     37  C   UNL A   1      39.661  25.720  28.724  1.00  0.00     0.010 A 
ATOM     38  C   UNL A   1      40.471  26.214  26.497  1.00  0.00     0.010 A 
ATOM     39  C   UNL A   1      40.313  26.592  27.838  1.00  0.00    -0.014 A 
BRANCH  39  40
ATOM     40  C   UNL A   1      40.813  27.918  28.279  1.00  0.00     0.031 A 
ATOM     41  C   UNL A   1      42.293  28.165  28.366  1.00  0.00     0.074 A 
ATOM     42  C   UNL A   1      39.943  28.868  28.671  1.00  0.00     0.049 A 
ATOM     43  N   UNL A   1      42.937  29.196  28.853  1.00  0.00    -0.248 NA
ATOM     44  C   UNL A   1      43.169  27.095  27.863  1.00  0.00     0.031 C 
ATOM     45  C   UNL A   1      38.485  28.739  28.654  1.00  0.00     0.029 A 
ATOM     46  N   UNL A   1      40.159  30.124  29.181  1.00  0.00    -0.354 N 
ATOM     47  C   UNL A   1      44.287  28.889  28.734  1.00  0.00     0.074 A 
ATOM     48  C   UNL A   1      44.371  27.558  28.175  1.00  0.00     0.031 C 
ATOM     49  C   UNL A   1      37.939  29.875  29.120  1.00  0.00     0.029 A 
ATOM     50  C   UNL A   1      39.005  30.792  29.509  1.00  0.00     0.049 A 
ATOM     51  H   UNL A   1      41.058  30.510  29.299  1.00  0.00     0.167 HD
ATOM     52  C   UNL A   1      45.358  29.657  29.045  1.00  0.00     0.037 A 
ATOM     53  C   UNL A   1      38.830  32.002  30.075  1.00  0.00     0.037 A 
ATOM     54  C   UNL A   1      45.267  30.992  29.576  1.00  0.00     0.049 A 
ATOM     55  C   UNL A   1      40.038  32.827  30.430  1.00  0.00     0.074 A 
ATOM     56  C   UNL A   1      46.291  31.869  29.887  1.00  0.00     0.029 A 
ATOM     57  N   UNL A   1      44.078  31.643  29.870  1.00  0.00    -0.354 N 
ATOM     58  N   UNL A   1      41.308  32.545  30.274  1.00  0.00    -0.248 NA
ATOM     59  C   UNL A   1      39.787  34.142  31.038  1.00  0.00     0.031 C 
ATOM     60  C   UNL A   1      45.722  33.036  30.408  1.00  0.00     0.029 A 
ATOM     61  C   UNL A   1      44.343  32.906  30.372  1.00  0.00     0.049 A 
ATOM     62  H   UNL A   1      43.179  31.263  29.742  1.00  0.00     0.167 HD
ATOM     63  C   UNL A   1      42.005  33.658  30.724  1.00  0.00     0.074 A 
ATOM     64  C   UNL A   1      41.016  34.623  31.156  1.00  0.00     0.031 C 
ATOM     65  C   UNL A   1      43.344  33.864  30.771  1.00  0.00     0.037 A 
BRANCH  52  66
ATOM     66  C   UNL A   1      46.722  29.075  28.812  1.00  0.00     0.064 A 
ATOM     67  C   UNL A   1      47.390  28.347  29.808  1.00  0.00     0.173 A 
ATOM     68  C   UNL A   1      47.355  29.215  27.567  1.00  0.00     0.173 A 
ATOM     69  F   UNL A   1      46.834  28.193  31.019  1.00  0.00    -0.203 F 
ATOM     70  C   UNL A   1      48.653  27.806  29.577  1.00  0.00     0.198 A 
ATOM     71  C   UNL A   1      48.603  28.645  27.330  1.00  0.00     0.198 A 
ATOM     72  F   UNL A   1      46.759  29.896  26.577  1.00  0.00    -0.203 F 
ATOM     73  F   UNL A   1      49.292  27.158  30.561  1.00  0.00    -0.200 F 
ATOM     74  C   UNL A   1      49.255  27.949  28.336  1.00  0.00     0.200 A 
ATOM     75  F   UNL A   1      49.178  28.773  26.125  1.00  0.00    -0.200 F 
ATOM     76  F   UNL A   1      50.466  27.422  28.113  1.00  0.00    -0.200 F 
ENDBRANCH  52  66
BRANCH  53  77
ATOM     77  C   UNL A   1      37.458  32.516  30.324  1.00  0.00     0.064 A 
ATOM     78  C   UNL A   1      36.832  33.366  29.401  1.00  0.00     0.173 A 
ATOM     79  C   UNL A   1      36.749  32.185  31.488  1.00  0.00     0.173 A 
ATOM     80  F   UNL A   1      37.477  33.728  28.281  1.00  0.00    -0.203 F 
ATOM     81  C   UNL A   1      35.561  33.882  29.642  1.00  0.00     0.198 A 
ATOM     82  C   UNL A   1      35.466  32.678  31.714  1.00  0.00     0.198 A 
ATOM     83  F   UNL A   1      37.299  31.371  32.401  1.00  0.00    -0.203 F 
ATOM     84  F   UNL A   1      35.007  34.730  28.764  1.00  0.00    -0.200 F 
ATOM     85  C   UNL A   1      34.876  33.534  30.797  1.00  0.00     0.200 A 
ATOM     86  F   UNL A   1      34.801  32.328  32.824  1.00  0.00    -0.200 F 
ATOM     87  F   UNL A   1      33.653  34.029  31.028  1.00  0.00    -0.200 F 
ENDBRANCH  53  77
BRANCH  65  88
ATOM     88  C   UNL A   1      43.822  35.203  31.249  1.00  0.00     0.064 A 
ATOM     89  C   UNL A   1      44.191  35.422  32.584  1.00  0.00     0.173 A 
ATOM     90  C   UNL A   1      43.971  36.262  30.342  1.00  0.00     0.173 A 
ATOM     91  F   UNL A   1      44.053  34.444  33.492  1.00  0.00    -0.203 F 
ATOM     92  C   UNL A   1      44.676  36.661  32.996  1.00  0.00     0.198 A 
ATOM     93  C   UNL A   1      44.484  37.490  30.751  1.00  0.00     0.198 A 
ATOM     94  F   UNL A   1      43.638  36.100  29.052  1.00  0.00    -0.203 F 
ATOM     95  F   UNL A   1      44.987  36.862  34.284  1.00  0.00    -0.200 F 
ATOM     96  C   UNL A   1      44.831  37.690  32.078  1.00  0.00     0.200 A 
ATOM     97  F   UNL A   1      44.645  38.477  29.860  1.00  0.00    -0.200 F 
ATOM     98  F   UNL A   1      45.310  38.876  32.474  1.00  0.00    -0.200 F 
ENDBRANCH  65  88
ENDBRANCH  39  40
ENDBRANCH  31  34
ENDBRANCH  29  30
ENDBRANCH   1  29
TORSDOF 15
ENDMDL
