MODEL 1
REMARK VINA RESULT:     -11.6      0.000      0.000
REMARK SMILES COc1cccc([C@@H]2CN(C(=O)CCSC)C[C@H]2C(=O)NCCCNC(=O)c2ccc(-c3c4nc(c(-c5c(F)c(F)c(F)c(F)c5F)c5ccc([nH]5)c(-c5c(F)c(F)c(F)c(F)c5F)c5nc(c(-c6c(F)c(F)c(F)c(F)c6F)c6ccc3[nH]6)C=C5)C=C4)cc2)c1OC
REMARK SMILES IDX 22 1 21 2 19 3 20 4 18 6 8 7 9 8 10 9 17 10 7 11 3 12 4 13
REMARK SMILES IDX 91 14 5 15 6 16 2 17 1 18 92 19 93 20 11 21 12 22 13 23
REMARK SMILES IDX 14 24 15 25 16 26 23 27 24 28 25 29 26 30 27 32 28 33 29 34
REMARK SMILES IDX 90 35 30 36 89 37 31 38 32 39 33 40 83 41 34 42 88 43 82 44
REMARK SMILES IDX 84 45 35 46 87 47 81 48 80 49 36 51 68 52 48 53 67 54 49 55
REMARK SMILES IDX 52 56 66 57 85 58 50 59 51 60 65 62 86 63 53 64 37 65 38 66
REMARK SMILES IDX 46 67 39 68 40 69 44 70 47 71 41 72 42 73 45 74 43 75 69 76
REMARK SMILES IDX 70 77 78 78 71 79 72 80 76 81 79 82 73 83 74 84 77 85 75 86
REMARK SMILES IDX 54 87 55 88 63 89 56 90 57 91 61 92 64 93 58 94 59 95 62 96
REMARK SMILES IDX 60 97
REMARK H PARENT 21 5 25 31 84 50 52 61
REMARK Flexibility Score: inf
ROOT
ATOM      1  C   UNL A   1      36.871  20.487  25.273  1.00  0.00     0.117 C 
ENDROOT
BRANCH   1   2
ATOM      2  N   UNL A   1      36.849  21.845  25.785  1.00  0.00    -0.356 N 
ATOM      3  C   UNL A   1      36.167  22.949  25.385  1.00  0.00     0.225 C 
ATOM      4  O   UNL A   1      36.361  23.987  26.024  1.00  0.00    -0.275 OA
ATOM      5  H   UNL A   1      37.436  21.993  26.563  1.00  0.00     0.163 HD
BRANCH   3   6
ATOM      6  C   UNL A   1      35.223  22.945  24.200  1.00  0.00     0.107 C 
ATOM      7  C   UNL A   1      33.752  22.729  24.605  1.00  0.00     0.057 C 
ATOM      8  C   UNL A   1      32.949  23.786  23.847  1.00  0.00     0.128 C 
ATOM      9  N   UNL A   1      33.913  24.744  23.334  1.00  0.00    -0.341 N 
ATOM     10  C   UNL A   1      35.273  24.237  23.396  1.00  0.00     0.133 C 
BRANCH   7  11
ATOM     11  C   UNL A   1      33.195  21.329  24.404  1.00  0.00     0.004 A 
ATOM     12  C   UNL A   1      32.606  19.100  25.170  1.00  0.00     0.161 A 
ATOM     13  C   UNL A   1      32.150  18.776  23.886  1.00  0.00     0.050 A 
ATOM     14  C   UNL A   1      33.168  20.359  25.433  1.00  0.00     0.164 A 
ATOM     15  C   UNL A   1      32.213  19.716  22.862  1.00  0.00     0.004 A 
ATOM     16  C   UNL A   1      32.722  20.985  23.121  1.00  0.00     0.008 A 
BRANCH  12  17
ATOM     17  O   UNL A   1      32.578  18.111  26.117  1.00  0.00    -0.493 OA
ATOM     18  C   UNL A   1      32.678  16.816  25.518  1.00  0.00     0.278 C 
ENDBRANCH  12  17
BRANCH  14  19
ATOM     19  O   UNL A   1      33.783  20.742  26.596  1.00  0.00    -0.493 OA
ATOM     20  C   UNL A   1      33.116  21.667  27.442  1.00  0.00     0.278 C 
ENDBRANCH  14  19
ENDBRANCH   7  11
BRANCH   9  21
ATOM     21  C   UNL A   1      33.641  25.940  22.709  1.00  0.00     0.223 C 
ATOM     22  O   UNL A   1      33.625  26.036  21.480  1.00  0.00    -0.275 OA
BRANCH  21  23
ATOM     23  C   UNL A   1      33.325  27.146  23.568  1.00  0.00     0.111 C 
BRANCH  23  24
ATOM     24  C   UNL A   1      31.822  27.393  23.648  1.00  0.00     0.079 C 
BRANCH  24  25
ATOM     25  S   UNL A   1      31.079  26.939  25.255  1.00  0.00    -0.165 SA
ATOM     26  C   UNL A   1      32.581  26.705  26.241  1.00  0.00     0.085 C 
ENDBRANCH  24  25
ENDBRANCH  23  24
ENDBRANCH  21  23
ENDBRANCH   9  21
ENDBRANCH   3   6
ENDBRANCH   1   2
BRANCH   1  27
ATOM     27  C   UNL A   1      38.268  20.043  24.869  1.00  0.00     0.042 C 
BRANCH  27  28
ATOM     28  C   UNL A   1      39.305  20.295  25.950  1.00  0.00     0.118 C 
BRANCH  28  29
ATOM     29  N   UNL A   1      40.294  19.226  26.017  1.00  0.00    -0.352 N 
ATOM     30  C   UNL A   1      41.662  19.302  26.080  1.00  0.00     0.251 C 
ATOM     31  H   UNL A   1      39.925  18.314  26.017  1.00  0.00     0.163 HD
ATOM     32  O   UNL A   1      42.347  18.305  25.862  1.00  0.00    -0.269 OA
BRANCH  30  33
ATOM     33  C   UNL A   1      42.309  20.591  26.389  1.00  0.00     0.039 A 
ATOM     34  C   UNL A   1      42.888  21.331  25.356  1.00  0.00     0.014 A 
ATOM     35  C   UNL A   1      42.329  21.072  27.699  1.00  0.00     0.014 A 
ATOM     36  C   UNL A   1      43.415  22.594  25.629  1.00  0.00     0.010 A 
ATOM     37  C   UNL A   1      42.755  22.369  27.949  1.00  0.00     0.010 A 
ATOM     38  C   UNL A   1      43.305  23.141  26.918  1.00  0.00    -0.014 A 
BRANCH  38  39
ATOM     39  C   UNL A   1      43.752  24.523  27.215  1.00  0.00     0.031 A 
ATOM     40  C   UNL A   1      42.767  25.539  27.719  1.00  0.00     0.074 A 
ATOM     41  C   UNL A   1      45.021  24.881  26.946  1.00  0.00     0.049 A 
ATOM     42  N   UNL A   1      42.940  26.815  27.958  1.00  0.00    -0.248 NA
ATOM     43  C   UNL A   1      41.394  25.066  27.955  1.00  0.00     0.031 C 
ATOM     44  C   UNL A   1      46.055  23.993  26.415  1.00  0.00     0.029 A 
ATOM     45  N   UNL A   1      45.657  26.090  27.077  1.00  0.00    -0.354 N 
ATOM     46  C   UNL A   1      41.699  27.295  28.353  1.00  0.00     0.074 A 
ATOM     47  C   UNL A   1      40.768  26.191  28.259  1.00  0.00     0.031 C 
ATOM     48  C   UNL A   1      47.206  24.675  26.302  1.00  0.00     0.029 A 
ATOM     49  C   UNL A   1      46.978  26.059  26.704  1.00  0.00     0.049 A 
ATOM     50  H   UNL A   1      45.208  26.902  27.406  1.00  0.00     0.167 HD
ATOM     51  C   UNL A   1      41.371  28.539  28.777  1.00  0.00     0.037 A 
ATOM     52  C   UNL A   1      47.898  27.042  26.683  1.00  0.00     0.037 A 
ATOM     53  C   UNL A   1      42.310  29.626  28.879  1.00  0.00     0.049 A 
ATOM     54  C   UNL A   1      47.499  28.426  27.116  1.00  0.00     0.074 A 
ATOM     55  C   UNL A   1      42.101  30.904  29.364  1.00  0.00     0.029 A 
ATOM     56  N   UNL A   1      43.636  29.563  28.474  1.00  0.00    -0.354 N 
ATOM     57  N   UNL A   1      46.344  28.852  27.566  1.00  0.00    -0.248 NA
ATOM     58  C   UNL A   1      48.534  29.465  27.034  1.00  0.00     0.031 C 
ATOM     59  C   UNL A   1      43.281  31.635  29.188  1.00  0.00     0.029 A 
ATOM     60  C   UNL A   1      44.246  30.794  28.656  1.00  0.00     0.049 A 
ATOM     61  H   UNL A   1      44.079  28.762  28.111  1.00  0.00     0.167 HD
ATOM     62  C   UNL A   1      46.518  30.199  27.851  1.00  0.00     0.074 A 
ATOM     63  C   UNL A   1      47.897  30.516  27.533  1.00  0.00     0.031 C 
ATOM     64  C   UNL A   1      45.620  31.093  28.334  1.00  0.00     0.037 A 
BRANCH  51  65
ATOM     65  C   UNL A   1      39.935  28.788  29.141  1.00  0.00     0.064 A 
ATOM     66  C   UNL A   1      39.450  28.576  30.442  1.00  0.00     0.173 A 
ATOM     67  C   UNL A   1      39.025  29.244  28.174  1.00  0.00     0.173 A 
ATOM     68  F   UNL A   1      40.273  28.131  31.405  1.00  0.00    -0.203 F 
ATOM     69  C   UNL A   1      38.104  28.762  30.748  1.00  0.00     0.198 A 
ATOM     70  C   UNL A   1      37.688  29.467  28.493  1.00  0.00     0.198 A 
ATOM     71  F   UNL A   1      39.432  29.472  26.916  1.00  0.00    -0.203 F 
ATOM     72  F   UNL A   1      37.653  28.480  31.978  1.00  0.00    -0.200 F 
ATOM     73  C   UNL A   1      37.225  29.211  29.774  1.00  0.00     0.200 A 
ATOM     74  F   UNL A   1      36.844  29.916  27.554  1.00  0.00    -0.200 F 
ATOM     75  F   UNL A   1      35.930  29.387  30.068  1.00  0.00    -0.200 F 
ENDBRANCH  51  65
BRANCH  52  76
ATOM     76  C   UNL A   1      49.294  26.738  26.274  1.00  0.00     0.064 A 
ATOM     77  C   UNL A   1      50.222  26.258  27.210  1.00  0.00     0.173 A 
ATOM     78  C   UNL A   1      49.729  26.904  24.952  1.00  0.00     0.173 A 
ATOM     79  F   UNL A   1      49.858  26.100  28.491  1.00  0.00    -0.203 F 
ATOM     80  C   UNL A   1      51.533  25.966  26.841  1.00  0.00     0.198 A 
ATOM     81  C   UNL A   1      51.033  26.585  24.577  1.00  0.00     0.198 A 
ATOM     82  F   UNL A   1      48.880  27.355  24.016  1.00  0.00    -0.203 F 
ATOM     83  F   UNL A   1      52.408  25.544  27.764  1.00  0.00    -0.200 F 
ATOM     84  C   UNL A   1      51.935  26.123  25.523  1.00  0.00     0.200 A 
ATOM     85  F   UNL A   1      51.413  26.721  23.300  1.00  0.00    -0.200 F 
ATOM     86  F   UNL A   1      53.194  25.834  25.167  1.00  0.00    -0.200 F 
ENDBRANCH  52  76
BRANCH  64  87
ATOM     87  C   UNL A   1      46.104  32.494  28.577  1.00  0.00     0.064 A 
ATOM     88  C   UNL A   1      46.691  32.872  29.793  1.00  0.00     0.173 A 
ATOM     89  C   UNL A   1      46.022  33.457  27.559  1.00  0.00     0.173 A 
ATOM     90  F   UNL A   1      46.778  31.994  30.803  1.00  0.00    -0.203 F 
ATOM     91  C   UNL A   1      47.157  34.170  29.989  1.00  0.00     0.198 A 
ATOM     92  C   UNL A   1      46.521  34.743  27.748  1.00  0.00     0.198 A 
ATOM     93  F   UNL A   1      45.475  33.147  26.374  1.00  0.00    -0.203 F 
ATOM     94  F   UNL A   1      47.669  34.522  31.177  1.00  0.00    -0.200 F 
ATOM     95  C   UNL A   1      47.080  35.101  28.964  1.00  0.00     0.200 A 
ATOM     96  F   UNL A   1      46.461  35.636  26.749  1.00  0.00    -0.200 F 
ATOM     97  F   UNL A   1      47.541  36.345  29.152  1.00  0.00    -0.200 F 
ENDBRANCH  64  87
ENDBRANCH  38  39
ENDBRANCH  30  33
ENDBRANCH  28  29
ENDBRANCH  27  28
ENDBRANCH   1  27
TORSDOF 17
ENDMDL
MODEL 2
REMARK VINA RESULT:     -11.6      1.432      3.901
REMARK SMILES COc1cccc([C@@H]2CN(C(=O)CCSC)C[C@H]2C(=O)NCCCNC(=O)c2ccc(-c3c4nc(c(-c5c(F)c(F)c(F)c(F)c5F)c5ccc([nH]5)c(-c5c(F)c(F)c(F)c(F)c5F)c5nc(c(-c6c(F)c(F)c(F)c(F)c6F)c6ccc3[nH]6)C=C5)C=C4)cc2)c1OC
REMARK SMILES IDX 22 1 21 2 19 3 20 4 18 6 8 7 9 8 10 9 17 10 7 11 3 12 4 13
REMARK SMILES IDX 91 14 5 15 6 16 2 17 1 18 92 19 93 20 11 21 12 22 13 23
REMARK SMILES IDX 14 24 15 25 16 26 23 27 24 28 25 29 26 30 27 32 28 33 29 34
REMARK SMILES IDX 90 35 30 36 89 37 31 38 32 39 33 40 83 41 34 42 88 43 82 44
REMARK SMILES IDX 84 45 35 46 87 47 81 48 80 49 36 51 68 52 48 53 67 54 49 55
REMARK SMILES IDX 52 56 66 57 85 58 50 59 51 60 65 62 86 63 53 64 37 65 38 66
REMARK SMILES IDX 46 67 39 68 40 69 44 70 47 71 41 72 42 73 45 74 43 75 69 76
REMARK SMILES IDX 70 77 78 78 71 79 72 80 76 81 79 82 73 83 74 84 77 85 75 86
REMARK SMILES IDX 54 87 55 88 63 89 56 90 57 91 61 92 64 93 58 94 59 95 62 96
REMARK SMILES IDX 60 97
REMARK H PARENT 21 5 25 31 84 50 52 61
REMARK Flexibility Score: inf
ROOT
ATOM      1  C   UNL A   1      37.973  21.595  25.423  1.00  0.00     0.117 C 
ENDROOT
BRANCH   1   2
ATOM      2  N   UNL A   1      37.685  22.116  24.099  1.00  0.00    -0.356 N 
ATOM      3  C   UNL A   1      36.555  22.643  23.564  1.00  0.00     0.225 C 
ATOM      4  O   UNL A   1      36.611  23.003  22.385  1.00  0.00    -0.275 OA
ATOM      5  H   UNL A   1      38.448  22.081  23.477  1.00  0.00     0.163 HD
BRANCH   3   6
ATOM      6  C   UNL A   1      35.262  22.774  24.343  1.00  0.00     0.107 C 
ATOM      7  C   UNL A   1      34.160  23.511  23.558  1.00  0.00     0.057 C 
ATOM      8  C   UNL A   1      32.894  22.669  23.723  1.00  0.00     0.128 C 
ATOM      9  N   UNL A   1      33.321  21.386  24.253  1.00  0.00    -0.341 N 
ATOM     10  C   UNL A   1      34.681  21.431  24.762  1.00  0.00     0.133 C 
BRANCH   7  11
ATOM     11  C   UNL A   1      33.932  24.970  23.922  1.00  0.00     0.004 A 
ATOM     12  C   UNL A   1      33.424  27.284  23.384  1.00  0.00     0.161 A 
ATOM     13  C   UNL A   1      33.547  27.627  24.736  1.00  0.00     0.050 A 
ATOM     14  C   UNL A   1      33.653  25.965  22.958  1.00  0.00     0.164 A 
ATOM     15  C   UNL A   1      33.862  26.656  25.681  1.00  0.00     0.004 A 
ATOM     16  C   UNL A   1      34.042  25.336  25.279  1.00  0.00     0.008 A 
BRANCH  12  17
ATOM     17  O   UNL A   1      33.178  28.296  22.496  1.00  0.00    -0.493 OA
ATOM     18  C   UNL A   1      31.941  28.952  22.786  1.00  0.00     0.278 C 
ENDBRANCH  12  17
BRANCH  14  19
ATOM     19  O   UNL A   1      33.712  25.536  21.658  1.00  0.00    -0.493 OA
ATOM     20  C   UNL A   1      32.527  25.574  20.878  1.00  0.00     0.278 C 
ENDBRANCH  14  19
ENDBRANCH   7  11
BRANCH   9  21
ATOM     21  C   UNL A   1      32.545  20.263  24.430  1.00  0.00     0.223 C 
ATOM     22  O   UNL A   1      31.759  20.164  25.375  1.00  0.00    -0.275 OA
BRANCH  21  23
ATOM     23  C   UNL A   1      32.650  19.148  23.412  1.00  0.00     0.111 C 
BRANCH  23  24
ATOM     24  C   UNL A   1      32.155  17.823  23.984  1.00  0.00     0.079 C 
BRANCH  24  25
ATOM     25  S   UNL A   1      33.160  17.195  25.375  1.00  0.00    -0.165 SA
ATOM     26  C   UNL A   1      34.376  16.208  24.465  1.00  0.00     0.085 C 
ENDBRANCH  24  25
ENDBRANCH  23  24
ENDBRANCH  21  23
ENDBRANCH   9  21
ENDBRANCH   3   6
ENDBRANCH   1   2
BRANCH   1  27
ATOM     27  C   UNL A   1      38.756  20.292  25.374  1.00  0.00     0.042 C 
BRANCH  27  28
ATOM     28  C   UNL A   1      39.774  20.168  26.494  1.00  0.00     0.118 C 
BRANCH  28  29
ATOM     29  N   UNL A   1      40.818  19.201  26.179  1.00  0.00    -0.352 N 
ATOM     30  C   UNL A   1      42.144  19.405  25.898  1.00  0.00     0.251 C 
ATOM     31  H   UNL A   1      40.527  18.261  26.168  1.00  0.00     0.163 HD
ATOM     32  O   UNL A   1      42.815  18.505  25.397  1.00  0.00    -0.269 OA
BRANCH  30  33
ATOM     33  C   UNL A   1      42.758  20.716  26.179  1.00  0.00     0.039 A 
ATOM     34  C   UNL A   1      43.135  21.538  25.115  1.00  0.00     0.014 A 
ATOM     35  C   UNL A   1      42.947  21.137  27.497  1.00  0.00     0.014 A 
ATOM     36  C   UNL A   1      43.625  22.818  25.377  1.00  0.00     0.010 A 
ATOM     37  C   UNL A   1      43.332  22.445  27.753  1.00  0.00     0.010 A 
ATOM     38  C   UNL A   1      43.679  23.297  26.697  1.00  0.00    -0.014 A 
BRANCH  38  39
ATOM     39  C   UNL A   1      44.088  24.689  27.001  1.00  0.00     0.031 A 
ATOM     40  C   UNL A   1      43.073  25.680  27.495  1.00  0.00     0.074 A 
ATOM     41  C   UNL A   1      45.351  25.079  26.747  1.00  0.00     0.049 A 
ATOM     42  N   UNL A   1      43.211  26.959  27.737  1.00  0.00    -0.248 NA
ATOM     43  C   UNL A   1      41.709  25.172  27.714  1.00  0.00     0.031 C 
ATOM     44  C   UNL A   1      46.413  24.218  26.226  1.00  0.00     0.029 A 
ATOM     45  N   UNL A   1      45.955  26.303  26.887  1.00  0.00    -0.354 N 
ATOM     46  C   UNL A   1      41.954  27.407  28.118  1.00  0.00     0.074 A 
ATOM     47  C   UNL A   1      41.052  26.281  28.013  1.00  0.00     0.031 C 
ATOM     48  C   UNL A   1      47.547  24.928  26.128  1.00  0.00     0.029 A 
ATOM     49  C   UNL A   1      47.281  26.306  26.529  1.00  0.00     0.049 A 
ATOM     50  H   UNL A   1      45.482  27.103  27.212  1.00  0.00     0.167 HD
ATOM     51  C   UNL A   1      41.590  28.642  28.541  1.00  0.00     0.037 A 
ATOM     52  C   UNL A   1      48.176  27.310  26.520  1.00  0.00     0.037 A 
ATOM     53  C   UNL A   1      42.501  29.752  28.655  1.00  0.00     0.049 A 
ATOM     54  C   UNL A   1      47.738  28.684  26.951  1.00  0.00     0.074 A 
ATOM     55  C   UNL A   1      42.255  31.024  29.139  1.00  0.00     0.029 A 
ATOM     56  N   UNL A   1      43.833  29.723  28.265  1.00  0.00    -0.354 N 
ATOM     57  N   UNL A   1      46.567  29.080  27.388  1.00  0.00    -0.248 NA
ATOM     58  C   UNL A   1      48.747  29.749  26.882  1.00  0.00     0.031 C 
ATOM     59  C   UNL A   1      43.418  31.784  28.978  1.00  0.00     0.029 A 
ATOM     60  C   UNL A   1      44.410  30.968  28.456  1.00  0.00     0.049 A 
ATOM     61  H   UNL A   1      44.299  28.933  27.906  1.00  0.00     0.167 HD
ATOM     62  C   UNL A   1      46.705  30.431  27.677  1.00  0.00     0.074 A 
ATOM     63  C   UNL A   1      48.079  30.782  27.375  1.00  0.00     0.031 C 
ATOM     64  C   UNL A   1      45.780  31.301  28.150  1.00  0.00     0.037 A 
BRANCH  51  65
ATOM     65  C   UNL A   1      40.144  28.855  28.888  1.00  0.00     0.064 A 
ATOM     66  C   UNL A   1      39.661  28.681  30.195  1.00  0.00     0.173 A 
ATOM     67  C   UNL A   1      39.224  29.237  27.899  1.00  0.00     0.173 A 
ATOM     68  F   UNL A   1      40.494  28.307  31.179  1.00  0.00    -0.203 F 
ATOM     69  C   UNL A   1      38.308  28.832  30.488  1.00  0.00     0.198 A 
ATOM     70  C   UNL A   1      37.878  29.425  28.203  1.00  0.00     0.198 A 
ATOM     71  F   UNL A   1      39.629  29.425  26.634  1.00  0.00    -0.203 F 
ATOM     72  F   UNL A   1      37.860  28.587  31.727  1.00  0.00    -0.200 F 
ATOM     73  C   UNL A   1      37.418  29.208  29.492  1.00  0.00     0.200 A 
ATOM     74  F   UNL A   1      37.024  29.803  27.243  1.00  0.00    -0.200 F 
ATOM     75  F   UNL A   1      36.116  29.350  29.774  1.00  0.00    -0.200 F 
ENDBRANCH  51  65
BRANCH  52  76
ATOM     76  C   UNL A   1      49.584  27.043  26.127  1.00  0.00     0.064 A 
ATOM     77  C   UNL A   1      49.981  27.142  24.786  1.00  0.00     0.173 A 
ATOM     78  C   UNL A   1      50.562  26.699  27.072  1.00  0.00     0.173 A 
ATOM     79  F   UNL A   1      49.077  27.449  23.843  1.00  0.00    -0.203 F 
ATOM     80  C   UNL A   1      51.297  26.898  24.403  1.00  0.00     0.198 A 
ATOM     81  C   UNL A   1      51.885  26.483  26.692  1.00  0.00     0.198 A 
ATOM     82  F   UNL A   1      50.237  26.597  28.369  1.00  0.00    -0.203 F 
ATOM     83  F   UNL A   1      51.639  26.964  23.109  1.00  0.00    -0.200 F 
ATOM     84  C   UNL A   1      52.250  26.575  25.357  1.00  0.00     0.200 A 
ATOM     85  F   UNL A   1      52.806  26.189  27.619  1.00  0.00    -0.200 F 
ATOM     86  F   UNL A   1      53.518  26.349  24.990  1.00  0.00    -0.200 F 
ENDBRANCH  52  76
BRANCH  64  87
ATOM     87  C   UNL A   1      46.226  32.714  28.401  1.00  0.00     0.064 A 
ATOM     88  C   UNL A   1      46.107  33.710  27.421  1.00  0.00     0.173 A 
ATOM     89  C   UNL A   1      46.735  33.083  29.656  1.00  0.00     0.173 A 
ATOM     90  F   UNL A   1      45.643  33.406  26.201  1.00  0.00    -0.203 F 
ATOM     91  C   UNL A   1      46.503  35.020  27.682  1.00  0.00     0.198 A 
ATOM     92  C   UNL A   1      47.097  34.400  29.923  1.00  0.00     0.198 A 
ATOM     93  F   UNL A   1      46.865  32.170  30.630  1.00  0.00    -0.203 F 
ATOM     94  F   UNL A   1      46.426  35.945  26.715  1.00  0.00    -0.200 F 
ATOM     95  C   UNL A   1      46.988  35.365  28.934  1.00  0.00     0.200 A 
ATOM     96  F   UNL A   1      47.549  34.735  31.140  1.00  0.00    -0.200 F 
ATOM     97  F   UNL A   1      47.356  36.629  29.186  1.00  0.00    -0.200 F 
ENDBRANCH  64  87
ENDBRANCH  38  39
ENDBRANCH  30  33
ENDBRANCH  28  29
ENDBRANCH  27  28
ENDBRANCH   1  27
TORSDOF 17
ENDMDL
MODEL 3
REMARK VINA RESULT:     -11.5      1.592      3.852
REMARK SMILES COc1cccc([C@@H]2CN(C(=O)CCSC)C[C@H]2C(=O)NCCCNC(=O)c2ccc(-c3c4nc(c(-c5c(F)c(F)c(F)c(F)c5F)c5ccc([nH]5)c(-c5c(F)c(F)c(F)c(F)c5F)c5nc(c(-c6c(F)c(F)c(F)c(F)c6F)c6ccc3[nH]6)C=C5)C=C4)cc2)c1OC
REMARK SMILES IDX 22 1 21 2 19 3 20 4 18 6 8 7 9 8 10 9 17 10 7 11 3 12 4 13
REMARK SMILES IDX 91 14 5 15 6 16 2 17 1 18 92 19 93 20 11 21 12 22 13 23
REMARK SMILES IDX 14 24 15 25 16 26 23 27 24 28 25 29 26 30 27 32 28 33 29 34
REMARK SMILES IDX 90 35 30 36 89 37 31 38 32 39 33 40 83 41 34 42 88 43 82 44
REMARK SMILES IDX 84 45 35 46 87 47 81 48 80 49 36 51 68 52 48 53 67 54 49 55
REMARK SMILES IDX 52 56 66 57 85 58 50 59 51 60 65 62 86 63 53 64 37 65 38 66
REMARK SMILES IDX 46 67 39 68 40 69 44 70 47 71 41 72 42 73 45 74 43 75 69 76
REMARK SMILES IDX 70 77 78 78 71 79 72 80 76 81 79 82 73 83 74 84 77 85 75 86
REMARK SMILES IDX 54 87 55 88 63 89 56 90 57 91 61 92 64 93 58 94 59 95 62 96
REMARK SMILES IDX 60 97
REMARK H PARENT 21 5 25 31 84 50 52 61
REMARK Flexibility Score: inf
ROOT
ATOM      1  C   UNL A   1      38.137  21.429  25.456  1.00  0.00     0.117 C 
ENDROOT
BRANCH   1   2
ATOM      2  N   UNL A   1      37.821  22.143  24.232  1.00  0.00    -0.356 N 
ATOM      3  C   UNL A   1      36.667  22.701  23.786  1.00  0.00     0.225 C 
ATOM      4  O   UNL A   1      36.703  23.248  22.680  1.00  0.00    -0.275 OA
ATOM      5  H   UNL A   1      38.582  22.241  23.614  1.00  0.00     0.163 HD
BRANCH   3   6
ATOM      6  C   UNL A   1      35.374  22.652  24.573  1.00  0.00     0.107 C 
ATOM      7  C   UNL A   1      34.188  23.283  23.819  1.00  0.00     0.057 C 
ATOM      8  C   UNL A   1      33.030  22.294  23.955  1.00  0.00     0.128 C 
ATOM      9  N   UNL A   1      33.607  21.050  24.436  1.00  0.00    -0.341 N 
ATOM     10  C   UNL A   1      34.957  21.235  24.943  1.00  0.00     0.133 C 
BRANCH   7  11
ATOM     11  C   UNL A   1      33.794  24.691  24.238  1.00  0.00     0.004 A 
ATOM     12  C   UNL A   1      33.132  26.983  23.780  1.00  0.00     0.161 A 
ATOM     13  C   UNL A   1      33.091  27.248  25.155  1.00  0.00     0.050 A 
ATOM     14  C   UNL A   1      33.521  25.719  23.308  1.00  0.00     0.164 A 
ATOM     15  C   UNL A   1      33.399  26.248  26.071  1.00  0.00     0.004 A 
ATOM     16  C   UNL A   1      33.737  24.977  25.617  1.00  0.00     0.008 A 
BRANCH  12  17
ATOM     17  O   UNL A   1      32.884  28.026  22.929  1.00  0.00    -0.493 OA
ATOM     18  C   UNL A   1      33.922  29.008  22.994  1.00  0.00     0.278 C 
ENDBRANCH  12  17
BRANCH  14  19
ATOM     19  O   UNL A   1      33.746  25.382  21.998  1.00  0.00    -0.493 OA
ATOM     20  C   UNL A   1      32.636  25.315  21.116  1.00  0.00     0.278 C 
ENDBRANCH  14  19
ENDBRANCH   7  11
BRANCH   9  21
ATOM     21  C   UNL A   1      32.969  19.838  24.573  1.00  0.00     0.223 C 
ATOM     22  O   UNL A   1      31.809  19.763  24.984  1.00  0.00    -0.275 OA
BRANCH  21  23
ATOM     23  C   UNL A   1      33.716  18.584  24.173  1.00  0.00     0.111 C 
BRANCH  23  24
ATOM     24  C   UNL A   1      32.896  17.331  24.470  1.00  0.00     0.079 C 
BRANCH  24  25
ATOM     25  S   UNL A   1      33.861  15.977  25.230  1.00  0.00    -0.165 SA
ATOM     26  C   UNL A   1      32.529  14.801  25.583  1.00  0.00     0.085 C 
ENDBRANCH  24  25
ENDBRANCH  23  24
ENDBRANCH  21  23
ENDBRANCH   9  21
ENDBRANCH   3   6
ENDBRANCH   1   2
BRANCH   1  27
ATOM     27  C   UNL A   1      38.883  20.131  25.191  1.00  0.00     0.042 C 
BRANCH  27  28
ATOM     28  C   UNL A   1      39.601  19.598  26.419  1.00  0.00     0.118 C 
BRANCH  28  29
ATOM     29  N   UNL A   1      40.874  18.975  26.080  1.00  0.00    -0.352 N 
ATOM     30  C   UNL A   1      42.104  19.547  25.882  1.00  0.00     0.251 C 
ATOM     31  H   UNL A   1      40.846  17.996  25.979  1.00  0.00     0.163 HD
ATOM     32  O   UNL A   1      43.004  18.907  25.345  1.00  0.00    -0.269 OA
BRANCH  30  33
ATOM     33  C   UNL A   1      42.335  20.943  26.299  1.00  0.00     0.039 A 
ATOM     34  C   UNL A   1      42.641  21.217  27.633  1.00  0.00     0.014 A 
ATOM     35  C   UNL A   1      42.263  21.978  25.364  1.00  0.00     0.014 A 
ATOM     36  C   UNL A   1      42.957  22.524  28.010  1.00  0.00     0.010 A 
ATOM     37  C   UNL A   1      42.680  23.254  25.716  1.00  0.00     0.010 A 
ATOM     38  C   UNL A   1      43.027  23.540  27.043  1.00  0.00    -0.014 A 
BRANCH  38  39
ATOM     39  C   UNL A   1      43.468  24.912  27.390  1.00  0.00     0.031 A 
ATOM     40  C   UNL A   1      42.489  25.893  27.969  1.00  0.00     0.074 A 
ATOM     41  C   UNL A   1      44.725  25.298  27.099  1.00  0.00     0.049 A 
ATOM     42  N   UNL A   1      42.655  27.158  28.261  1.00  0.00    -0.248 NA
ATOM     43  C   UNL A   1      41.128  25.392  28.224  1.00  0.00     0.031 C 
ATOM     44  C   UNL A   1      45.751  24.447  26.497  1.00  0.00     0.029 A 
ATOM     45  N   UNL A   1      45.351  26.507  27.266  1.00  0.00    -0.354 N 
ATOM     46  C   UNL A   1      41.422  27.604  28.714  1.00  0.00     0.074 A 
ATOM     47  C   UNL A   1      40.500  26.496  28.599  1.00  0.00     0.031 C 
ATOM     48  C   UNL A   1      46.890  25.147  26.381  1.00  0.00     0.029 A 
ATOM     49  C   UNL A   1      46.660  26.509  26.852  1.00  0.00     0.049 A 
ATOM     50  H   UNL A   1      44.904  27.298  27.645  1.00  0.00     0.167 HD
ATOM     51  C   UNL A   1      41.093  28.824  29.205  1.00  0.00     0.037 A 
ATOM     52  C   UNL A   1      47.569  27.502  26.849  1.00  0.00     0.037 A 
ATOM     53  C   UNL A   1      42.023  29.916  29.329  1.00  0.00     0.049 A 
ATOM     54  C   UNL A   1      47.168  28.860  27.357  1.00  0.00     0.074 A 
ATOM     55  C   UNL A   1      41.816  31.169  29.877  1.00  0.00     0.029 A 
ATOM     56  N   UNL A   1      43.337  29.888  28.881  1.00  0.00    -0.354 N 
ATOM     57  N   UNL A   1      46.023  29.252  27.860  1.00  0.00    -0.248 NA
ATOM     58  C   UNL A   1      48.189  29.915  27.291  1.00  0.00     0.031 C 
ATOM     59  C   UNL A   1      42.982  31.921  29.699  1.00  0.00     0.029 A 
ATOM     60  C   UNL A   1      43.940  31.117  29.101  1.00  0.00     0.049 A 
ATOM     61  H   UNL A   1      43.777  29.109  28.468  1.00  0.00     0.167 HD
ATOM     62  C   UNL A   1      46.192  30.586  28.201  1.00  0.00     0.074 A 
ATOM     63  C   UNL A   1      47.556  30.934  27.857  1.00  0.00     0.031 C 
ATOM     64  C   UNL A   1      45.300  31.446  28.751  1.00  0.00     0.037 A 
BRANCH  51  65
ATOM     65  C   UNL A   1      39.666  29.039  29.623  1.00  0.00     0.064 A 
ATOM     66  C   UNL A   1      38.688  29.489  28.723  1.00  0.00     0.173 A 
ATOM     67  C   UNL A   1      39.270  28.792  30.947  1.00  0.00     0.173 A 
ATOM     68  F   UNL A   1      39.013  29.751  27.447  1.00  0.00    -0.203 F 
ATOM     69  C   UNL A   1      37.382  29.733  29.142  1.00  0.00     0.198 A 
ATOM     70  C   UNL A   1      37.953  28.999  31.354  1.00  0.00     0.198 A 
ATOM     71  F   UNL A   1      40.159  28.353  31.850  1.00  0.00    -0.203 F 
ATOM     72  F   UNL A   1      36.486  30.234  28.281  1.00  0.00    -0.200 F 
ATOM     73  C   UNL A   1      37.015  29.483  30.456  1.00  0.00     0.200 A 
ATOM     74  F   UNL A   1      37.598  28.741  32.619  1.00  0.00    -0.200 F 
ATOM     75  F   UNL A   1      35.759  29.719  30.859  1.00  0.00    -0.200 F 
ENDBRANCH  51  65
BRANCH  52  76
ATOM     76  C   UNL A   1      48.955  27.235  26.385  1.00  0.00     0.064 A 
ATOM     77  C   UNL A   1      49.953  26.867  27.298  1.00  0.00     0.173 A 
ATOM     78  C   UNL A   1      49.310  27.323  25.031  1.00  0.00     0.173 A 
ATOM     79  F   UNL A   1      49.666  26.788  28.606  1.00  0.00    -0.203 F 
ATOM     80  C   UNL A   1      51.256  26.610  26.878  1.00  0.00     0.198 A 
ATOM     81  C   UNL A   1      50.608  27.038  24.608  1.00  0.00     0.198 A 
ATOM     82  F   UNL A   1      48.392  27.664  24.115  1.00  0.00    -0.203 F 
ATOM     83  F   UNL A   1      52.199  26.298  27.778  1.00  0.00    -0.200 F 
ATOM     84  C   UNL A   1      51.580  26.689  25.532  1.00  0.00     0.200 A 
ATOM     85  F   UNL A   1      50.912  27.098  23.305  1.00  0.00    -0.200 F 
ATOM     86  F   UNL A   1      52.832  26.433  25.127  1.00  0.00    -0.200 F 
ENDBRANCH  52  76
BRANCH  64  87
ATOM     87  C   UNL A   1      45.776  32.841  29.043  1.00  0.00     0.064 A 
ATOM     88  C   UNL A   1      46.406  33.168  30.252  1.00  0.00     0.173 A 
ATOM     89  C   UNL A   1      45.642  33.851  28.078  1.00  0.00     0.173 A 
ATOM     90  F   UNL A   1      46.545  32.243  31.214  1.00  0.00    -0.203 F 
ATOM     91  C   UNL A   1      46.864  34.461  30.494  1.00  0.00     0.198 A 
ATOM     92  C   UNL A   1      46.132  35.133  28.310  1.00  0.00     0.198 A 
ATOM     93  F   UNL A   1      45.051  33.591  26.902  1.00  0.00    -0.203 F 
ATOM     94  F   UNL A   1      47.419  34.763  31.676  1.00  0.00    -0.200 F 
ATOM     95  C   UNL A   1      46.735  35.439  29.520  1.00  0.00     0.200 A 
ATOM     96  F   UNL A   1      46.021  36.073  27.359  1.00  0.00    -0.200 F 
ATOM     97  F   UNL A   1      47.188  36.679  29.749  1.00  0.00    -0.200 F 
ENDBRANCH  64  87
ENDBRANCH  38  39
ENDBRANCH  30  33
ENDBRANCH  28  29
ENDBRANCH  27  28
ENDBRANCH   1  27
TORSDOF 17
ENDMDL
