MODEL 1
REMARK VINA RESULT:     -13.8      0.000      0.000
REMARK SMILES COc1c(C)cccc1C(=O)NC(=S)Nc1ccc(C(=O)NCCCNC(=O)c2ccc(-c3c4nc(c(-c5c(F)c(F)c(F)c(F)c5F)c5ccc([nH]5)c(-c5c(F)c(F)c(F)c(F)c5F)c5nc(c(-c6c(F)c(F)c(F)c(F)c6F)c6ccc3[nH]6)C=C5)C=C4)cc2)cc1C
REMARK SMILES IDX 20 1 21 2 22 3 19 5 16 6 17 7 93 8 18 9 92 10 94 11 15 12
REMARK SMILES IDX 13 14 14 15 12 16 10 17 11 18 9 20 3 21 4 22 5 23 6 24 8 25
REMARK SMILES IDX 7 26 2 27 1 28 23 29 24 30 25 31 26 32 27 33 28 35 29 36
REMARK SMILES IDX 30 37 91 38 31 39 90 40 32 41 33 42 34 43 84 44 35 45 89 46
REMARK SMILES IDX 83 47 85 48 36 49 88 50 82 51 81 52 37 54 69 55 49 56 68 57
REMARK SMILES IDX 50 58 53 59 67 60 86 61 51 62 52 63 66 65 87 66 54 67 38 68
REMARK SMILES IDX 39 69 47 70 40 71 41 72 45 73 48 74 42 75 43 76 46 77 44 78
REMARK SMILES IDX 70 79 71 80 79 81 72 82 73 83 77 84 80 85 74 86 75 87 78 88
REMARK SMILES IDX 76 89 55 90 56 91 64 92 57 93 58 94 62 95 65 96 59 97 60 98
REMARK SMILES IDX 63 99 61 100
REMARK H PARENT 22 4 15 13 12 19 26 34 85 53 53 64
REMARK Flexibility Score: inf
ROOT
ATOM      1  C   UNL A   1      33.952  34.579  28.191  1.00  0.00     0.251 C 
ATOM      2  O   UNL A   1      34.882  35.060  27.516  1.00  0.00    -0.269 OA
ATOM      3  N   UNL A   1      33.682  35.400  29.324  1.00  0.00    -0.352 N 
ATOM      4  H   UNL A   1      34.496  35.926  29.500  1.00  0.00     0.163 HD
ENDROOT
BRANCH   1   5
ATOM      5  C   UNL A   1      33.361  33.062  27.617  1.00  0.00     0.040 A 
ATOM      6  C   UNL A   1      33.174  29.598  26.671  1.00  0.00     0.043 A 
ATOM      7  C   UNL A   1      31.562  30.430  26.754  1.00  0.00     0.027 A 
ATOM      8  C   UNL A   1      34.618  30.333  27.352  1.00  0.00    -0.027 A 
ATOM      9  C   UNL A   1      31.584  32.256  27.041  1.00  0.00     0.016 A 
ATOM     10  C   UNL A   1      34.757  31.986  27.770  1.00  0.00     0.019 A 
ATOM     11  C   UNL A   1      35.583  29.359  27.984  1.00  0.00     0.046 C 
BRANCH   6  12
ATOM     12  N   UNL A   1      33.681  29.344  25.253  1.00  0.00    -0.332 N 
ATOM     13  H   UNL A   1      34.482  29.879  25.045  1.00  0.00     0.169 HD
BRANCH  12  14
ATOM     14  C   UNL A   1      33.287  28.535  24.168  1.00  0.00     0.177 C 
ATOM     15  S   UNL A   1      34.353  28.533  22.856  1.00  0.00    -0.040 S 
BRANCH  14  16
ATOM     16  N   UNL A   1      32.201  27.588  24.045  1.00  0.00    -0.299 N 
ATOM     17  C   UNL A   1      31.641  26.194  24.183  1.00  0.00     0.261 C 
ATOM     18  O   UNL A   1      30.530  25.904  23.748  1.00  0.00    -0.269 OA
ATOM     19  H   UNL A   1      31.451  28.121  23.695  1.00  0.00     0.172 HD
BRANCH  17  20
ATOM     20  C   UNL A   1      32.478  25.181  24.863  1.00  0.00     0.082 A 
ATOM     21  C   UNL A   1      33.588  24.797  23.669  1.00  0.00     0.134 A 
ATOM     22  C   UNL A   1      35.347  23.844  24.044  1.00  0.00    -0.008 A 
ATOM     23  C   UNL A   1      36.466  23.119  23.223  1.00  0.00     0.048 C 
ATOM     24  C   UNL A   1      35.585  23.188  25.699  1.00  0.00     0.007 A 
ATOM     25  C   UNL A   1      32.733  24.399  26.384  1.00  0.00     0.018 A 
ATOM     26  C   UNL A   1      34.245  23.436  26.810  1.00  0.00     0.001 A 
BRANCH  21  27
ATOM     27  O   UNL A   1      32.055  23.885  23.387  1.00  0.00    -0.496 OA
ATOM     28  C   UNL A   1      31.788  22.490  23.091  1.00  0.00     0.278 C 
ENDBRANCH  21  27
ENDBRANCH  17  20
ENDBRANCH  14  16
ENDBRANCH  12  14
ENDBRANCH   6  12
ENDBRANCH   1   5
BRANCH   3  29
ATOM     29  C   UNL A   1      32.654  35.798  30.376  1.00  0.00     0.118 C 
BRANCH  29  30
ATOM     30  C   UNL A   1      32.975  36.705  31.596  1.00  0.00     0.042 C 
BRANCH  30  31
ATOM     31  C   UNL A   1      33.113  36.031  32.926  1.00  0.00     0.118 C 
BRANCH  31  32
ATOM     32  N   UNL A   1      33.078  34.591  32.848  1.00  0.00    -0.352 N 
ATOM     33  C   UNL A   1      34.147  33.723  32.714  1.00  0.00     0.251 C 
ATOM     34  H   UNL A   1      32.187  34.176  32.897  1.00  0.00     0.163 HD
ATOM     35  O   UNL A   1      33.965  32.546  32.433  1.00  0.00    -0.269 OA
BRANCH  33  36
ATOM     36  C   UNL A   1      35.496  34.189  33.139  1.00  0.00     0.039 A 
ATOM     37  C   UNL A   1      36.239  34.707  32.072  1.00  0.00     0.014 A 
ATOM     38  C   UNL A   1      36.131  33.535  34.184  1.00  0.00     0.014 A 
ATOM     39  C   UNL A   1      37.506  34.209  31.842  1.00  0.00     0.010 A 
ATOM     40  C   UNL A   1      37.292  32.881  33.867  1.00  0.00     0.010 A 
ATOM     41  C   UNL A   1      37.925  33.166  32.653  1.00  0.00    -0.014 A 
BRANCH  41  42
ATOM     42  C   UNL A   1      39.172  32.460  32.500  1.00  0.00     0.031 A 
ATOM     43  C   UNL A   1      38.983  31.165  31.825  1.00  0.00     0.074 A 
ATOM     44  C   UNL A   1      40.312  33.147  32.754  1.00  0.00     0.049 A 
ATOM     45  N   UNL A   1      39.785  30.174  31.893  1.00  0.00    -0.248 NA
ATOM     46  C   UNL A   1      37.769  30.836  31.056  1.00  0.00     0.031 C 
ATOM     47  C   UNL A   1      41.698  32.884  32.381  1.00  0.00     0.029 A 
ATOM     48  N   UNL A   1      40.432  34.239  33.639  1.00  0.00    -0.354 N 
ATOM     49  C   UNL A   1      39.447  29.335  30.848  1.00  0.00     0.074 A 
ATOM     50  C   UNL A   1      38.091  29.660  30.517  1.00  0.00     0.031 C 
ATOM     51  C   UNL A   1      42.514  33.474  33.281  1.00  0.00     0.029 A 
ATOM     52  C   UNL A   1      41.664  34.036  34.318  1.00  0.00     0.049 A 
ATOM     53  H   UNL A   1      39.798  34.983  33.760  1.00  0.00     0.167 HD
ATOM     54  C   UNL A   1      40.462  28.645  30.260  1.00  0.00     0.037 A 
ATOM     55  C   UNL A   1      41.634  33.643  35.629  1.00  0.00     0.037 A 
ATOM     56  C   UNL A   1      41.699  28.932  30.995  1.00  0.00     0.049 A 
ATOM     57  C   UNL A   1      42.062  32.196  35.796  1.00  0.00     0.074 A 
ATOM     58  C   UNL A   1      42.738  29.825  30.800  1.00  0.00     0.029 A 
ATOM     59  N   UNL A   1      41.744  28.588  32.331  1.00  0.00    -0.354 N 
ATOM     60  N   UNL A   1      42.148  31.343  34.810  1.00  0.00    -0.248 NA
ATOM     61  C   UNL A   1      42.358  31.585  37.087  1.00  0.00     0.031 C 
ATOM     62  C   UNL A   1      43.375  30.033  32.066  1.00  0.00     0.029 A 
ATOM     63  C   UNL A   1      42.728  29.265  33.019  1.00  0.00     0.049 A 
ATOM     64  H   UNL A   1      41.140  27.932  32.747  1.00  0.00     0.167 HD
ATOM     65  C   UNL A   1      42.538  30.122  35.281  1.00  0.00     0.074 A 
ATOM     66  C   UNL A   1      42.562  30.306  36.727  1.00  0.00     0.031 C 
ATOM     67  C   UNL A   1      42.824  29.060  34.459  1.00  0.00     0.037 A 
BRANCH  54  68
ATOM     68  C   UNL A   1      40.448  27.936  28.924  1.00  0.00     0.064 A 
ATOM     69  C   UNL A   1      39.756  26.708  28.819  1.00  0.00     0.173 A 
ATOM     70  C   UNL A   1      41.092  28.344  27.737  1.00  0.00     0.173 A 
ATOM     71  F   UNL A   1      39.052  26.214  29.845  1.00  0.00    -0.203 F 
ATOM     72  C   UNL A   1      39.752  25.935  27.656  1.00  0.00     0.198 A 
ATOM     73  C   UNL A   1      41.085  27.569  26.569  1.00  0.00     0.198 A 
ATOM     74  F   UNL A   1      41.739  29.506  27.634  1.00  0.00    -0.203 F 
ATOM     75  F   UNL A   1      39.094  24.769  27.641  1.00  0.00    -0.200 F 
ATOM     76  C   UNL A   1      40.422  26.362  26.531  1.00  0.00     0.200 A 
ATOM     77  F   UNL A   1      41.730  28.008  25.477  1.00  0.00    -0.200 F 
ATOM     78  F   UNL A   1      40.419  25.621  25.415  1.00  0.00    -0.200 F 
ENDBRANCH  54  68
BRANCH  55  79
ATOM     79  C   UNL A   1      40.491  34.301  36.345  1.00  0.00     0.064 A 
ATOM     80  C   UNL A   1      39.466  33.454  36.829  1.00  0.00     0.173 A 
ATOM     81  C   UNL A   1      40.661  35.533  36.985  1.00  0.00     0.173 A 
ATOM     82  F   UNL A   1      39.236  32.271  36.232  1.00  0.00    -0.203 F 
ATOM     83  C   UNL A   1      38.838  33.710  38.045  1.00  0.00     0.198 A 
ATOM     84  C   UNL A   1      39.959  35.825  38.157  1.00  0.00     0.198 A 
ATOM     85  F   UNL A   1      41.608  36.390  36.576  1.00  0.00    -0.203 F 
ATOM     86  F   UNL A   1      38.074  32.766  38.615  1.00  0.00    -0.200 F 
ATOM     87  C   UNL A   1      39.109  34.884  38.722  1.00  0.00     0.200 A 
ATOM     88  F   UNL A   1      40.207  36.969  38.809  1.00  0.00    -0.200 F 
ATOM     89  F   UNL A   1      38.592  35.085  39.941  1.00  0.00    -0.200 F 
ENDBRANCH  55  79
BRANCH  67  90
ATOM     90  C   UNL A   1      43.204  27.695  34.978  1.00  0.00     0.064 A 
ATOM     91  C   UNL A   1      44.514  27.383  35.360  1.00  0.00     0.173 A 
ATOM     92  C   UNL A   1      42.280  26.625  35.066  1.00  0.00     0.173 A 
ATOM     93  F   UNL A   1      45.523  28.233  35.127  1.00  0.00    -0.203 F 
ATOM     94  C   UNL A   1      44.831  26.168  35.968  1.00  0.00     0.198 A 
ATOM     95  C   UNL A   1      42.619  25.382  35.585  1.00  0.00     0.198 A 
ATOM     96  F   UNL A   1      41.002  26.733  34.682  1.00  0.00    -0.203 F 
ATOM     97  F   UNL A   1      46.067  25.973  36.443  1.00  0.00    -0.200 F 
ATOM     98  C   UNL A   1      43.882  25.170  36.085  1.00  0.00     0.200 A 
ATOM     99  F   UNL A   1      41.700  24.407  35.617  1.00  0.00    -0.200 F 
ATOM    100  F   UNL A   1      44.186  24.005  36.668  1.00  0.00    -0.200 F 
ENDBRANCH  67  90
ENDBRANCH  41  42
ENDBRANCH  33  36
ENDBRANCH  31  32
ENDBRANCH  30  31
ENDBRANCH  29  30
ENDBRANCH   3  29
TORSDOF 15
ENDMDL
MODEL 2
REMARK VINA RESULT:     -13.6      4.689     10.673
REMARK SMILES COc1c(C)cccc1C(=O)NC(=S)Nc1ccc(C(=O)NCCCNC(=O)c2ccc(-c3c4nc(c(-c5c(F)c(F)c(F)c(F)c5F)c5ccc([nH]5)c(-c5c(F)c(F)c(F)c(F)c5F)c5nc(c(-c6c(F)c(F)c(F)c(F)c6F)c6ccc3[nH]6)C=C5)C=C4)cc2)cc1C
REMARK SMILES IDX 20 1 21 2 22 3 19 5 16 6 17 7 93 8 18 9 92 10 94 11 15 12
REMARK SMILES IDX 13 14 14 15 12 16 10 17 11 18 9 20 3 21 4 22 5 23 6 24 8 25
REMARK SMILES IDX 7 26 2 27 1 28 23 29 24 30 25 31 26 32 27 33 28 35 29 36
REMARK SMILES IDX 30 37 91 38 31 39 90 40 32 41 33 42 34 43 84 44 35 45 89 46
REMARK SMILES IDX 83 47 85 48 36 49 88 50 82 51 81 52 37 54 69 55 49 56 68 57
REMARK SMILES IDX 50 58 53 59 67 60 86 61 51 62 52 63 66 65 87 66 54 67 38 68
REMARK SMILES IDX 39 69 47 70 40 71 41 72 45 73 48 74 42 75 43 76 46 77 44 78
REMARK SMILES IDX 70 79 71 80 79 81 72 82 73 83 77 84 80 85 74 86 75 87 78 88
REMARK SMILES IDX 76 89 55 90 56 91 64 92 57 93 58 94 62 95 65 96 59 97 60 98
REMARK SMILES IDX 63 99 61 100
REMARK H PARENT 22 4 15 13 12 19 26 34 85 53 53 64
REMARK Flexibility Score: inf
ROOT
ATOM      1  C   UNL A   1      36.619  20.789  24.991  1.00  0.00     0.251 C 
ATOM      2  O   UNL A   1      35.994  19.744  24.728  1.00  0.00    -0.269 OA
ATOM      3  N   UNL A   1      37.905  20.482  25.520  1.00  0.00    -0.352 N 
ATOM      4  H   UNL A   1      37.858  19.567  25.882  1.00  0.00     0.163 HD
ENDROOT
BRANCH   1   5
ATOM      5  C   UNL A   1      35.723  22.242  24.732  1.00  0.00     0.040 A 
ATOM      6  C   UNL A   1      33.142  24.541  23.739  1.00  0.00     0.043 A 
ATOM      7  C   UNL A   1      34.386  25.260  24.849  1.00  0.00     0.027 A 
ATOM      8  C   UNL A   1      33.029  22.803  23.497  1.00  0.00    -0.027 A 
ATOM      9  C   UNL A   1      35.851  24.205  25.248  1.00  0.00     0.016 A 
ATOM     10  C   UNL A   1      34.255  21.686  23.914  1.00  0.00     0.019 A 
ATOM     11  C   UNL A   1      31.622  22.280  23.329  1.00  0.00     0.046 C 
BRANCH   6  12
ATOM     12  N   UNL A   1      33.268  24.977  22.281  1.00  0.00    -0.332 N 
ATOM     13  H   UNL A   1      34.096  24.643  21.865  1.00  0.00     0.169 HD
BRANCH  12  14
ATOM     14  C   UNL A   1      32.493  25.739  21.384  1.00  0.00     0.177 C 
ATOM     15  S   UNL A   1      32.529  25.207  19.780  1.00  0.00    -0.040 S 
BRANCH  14  16
ATOM     16  N   UNL A   1      31.552  26.811  21.627  1.00  0.00    -0.299 N 
ATOM     17  C   UNL A   1      30.776  27.702  22.565  1.00  0.00     0.261 C 
ATOM     18  O   UNL A   1      29.906  28.463  22.152  1.00  0.00    -0.269 OA
ATOM     19  H   UNL A   1      31.282  27.107  20.727  1.00  0.00     0.172 HD
BRANCH  17  20
ATOM     20  C   UNL A   1      31.100  27.629  24.007  1.00  0.00     0.082 A 
ATOM     21  C   UNL A   1      31.635  29.185  24.317  1.00  0.00     0.134 A 
ATOM     22  C   UNL A   1      31.779  29.965  26.191  1.00  0.00    -0.008 A 
ATOM     23  C   UNL A   1      32.438  31.207  26.878  1.00  0.00     0.048 C 
ATOM     24  C   UNL A   1      31.541  28.835  27.567  1.00  0.00     0.007 A 
ATOM     25  C   UNL A   1      31.023  26.589  25.386  1.00  0.00     0.018 A 
ATOM     26  C   UNL A   1      31.223  27.163  27.126  1.00  0.00     0.001 A 
BRANCH  21  27
ATOM     27  O   UNL A   1      32.973  28.218  23.585  1.00  0.00    -0.496 OA
ATOM     28  C   UNL A   1      34.297  28.580  23.115  1.00  0.00     0.278 C 
ENDBRANCH  21  27
ENDBRANCH  17  20
ENDBRANCH  14  16
ENDBRANCH  12  14
ENDBRANCH   6  12
ENDBRANCH   1   5
BRANCH   3  29
ATOM     29  C   UNL A   1      39.324  20.986  25.759  1.00  0.00     0.118 C 
BRANCH  29  30
ATOM     30  C   UNL A   1      40.517  20.062  26.126  1.00  0.00     0.042 C 
BRANCH  30  31
ATOM     31  C   UNL A   1      41.234  20.355  27.407  1.00  0.00     0.118 C 
BRANCH  31  32
ATOM     32  N   UNL A   1      42.568  20.871  27.216  1.00  0.00    -0.352 N 
ATOM     33  C   UNL A   1      42.934  22.114  26.733  1.00  0.00     0.251 C 
ATOM     34  H   UNL A   1      43.305  20.266  27.459  1.00  0.00     0.163 HD
ATOM     35  O   UNL A   1      44.092  22.342  26.408  1.00  0.00    -0.269 OA
BRANCH  33  36
ATOM     36  C   UNL A   1      41.954  23.231  26.832  1.00  0.00     0.039 A 
ATOM     37  C   UNL A   1      42.277  24.297  25.985  1.00  0.00     0.014 A 
ATOM     38  C   UNL A   1      41.326  23.464  28.046  1.00  0.00     0.014 A 
ATOM     39  C   UNL A   1      42.369  25.566  26.522  1.00  0.00     0.010 A 
ATOM     40  C   UNL A   1      41.603  24.663  28.645  1.00  0.00     0.010 A 
ATOM     41  C   UNL A   1      42.202  25.679  27.894  1.00  0.00    -0.014 A 
BRANCH  41  42
ATOM     42  C   UNL A   1      42.356  26.902  28.639  1.00  0.00     0.031 A 
ATOM     43  C   UNL A   1      41.195  27.791  28.470  1.00  0.00     0.074 A 
ATOM     44  C   UNL A   1      43.368  26.960  29.538  1.00  0.00     0.049 A 
ATOM     45  N   UNL A   1      41.197  29.052  28.665  1.00  0.00    -0.248 NA
ATOM     46  C   UNL A   1      39.898  27.319  27.953  1.00  0.00     0.031 C 
ATOM     47  C   UNL A   1      43.602  27.852  30.669  1.00  0.00     0.029 A 
ATOM     48  N   UNL A   1      44.577  26.236  29.462  1.00  0.00    -0.354 N 
ATOM     49  C   UNL A   1      39.870  29.426  28.769  1.00  0.00     0.074 A 
ATOM     50  C   UNL A   1      39.127  28.395  28.108  1.00  0.00     0.031 C 
ATOM     51  C   UNL A   1      44.929  27.916  30.910  1.00  0.00     0.029 A 
ATOM     52  C   UNL A   1      45.587  27.151  29.864  1.00  0.00     0.049 A 
ATOM     53  H   UNL A   1      44.695  25.298  29.187  1.00  0.00     0.167 HD
ATOM     54  C   UNL A   1      39.584  30.451  29.619  1.00  0.00     0.037 A 
ATOM     55  C   UNL A   1      46.431  27.657  28.913  1.00  0.00     0.037 A 
ATOM     56  C   UNL A   1      40.847  30.966  30.159  1.00  0.00     0.049 A 
ATOM     57  C   UNL A   1      46.146  29.121  28.624  1.00  0.00     0.074 A 
ATOM     58  C   UNL A   1      41.550  30.733  31.328  1.00  0.00     0.029 A 
ATOM     59  N   UNL A   1      41.768  31.473  29.263  1.00  0.00    -0.354 N 
ATOM     60  N   UNL A   1      45.055  29.737  28.992  1.00  0.00    -0.248 NA
ATOM     61  C   UNL A   1      47.032  29.977  27.844  1.00  0.00     0.031 C 
ATOM     62  C   UNL A   1      42.920  31.077  31.088  1.00  0.00     0.029 A 
ATOM     63  C   UNL A   1      43.042  31.522  29.783  1.00  0.00     0.049 A 
ATOM     64  H   UNL A   1      41.538  31.769  28.352  1.00  0.00     0.167 HD
ATOM     65  C   UNL A   1      45.085  31.035  28.568  1.00  0.00     0.074 A 
ATOM     66  C   UNL A   1      46.304  31.104  27.771  1.00  0.00     0.031 C 
ATOM     67  C   UNL A   1      44.125  31.955  28.908  1.00  0.00     0.037 A 
BRANCH  54  68
ATOM     68  C   UNL A   1      38.234  30.843  30.177  1.00  0.00     0.064 A 
ATOM     69  C   UNL A   1      37.245  31.311  29.282  1.00  0.00     0.173 A 
ATOM     70  C   UNL A   1      37.837  30.832  31.530  1.00  0.00     0.173 A 
ATOM     71  F   UNL A   1      37.453  31.331  27.959  1.00  0.00    -0.203 F 
ATOM     72  C   UNL A   1      35.998  31.775  29.705  1.00  0.00     0.198 A 
ATOM     73  C   UNL A   1      36.584  31.295  31.953  1.00  0.00     0.198 A 
ATOM     74  F   UNL A   1      38.619  30.365  32.504  1.00  0.00    -0.203 F 
ATOM     75  F   UNL A   1      35.121  32.228  28.799  1.00  0.00    -0.200 F 
ATOM     76  C   UNL A   1      35.667  31.774  31.042  1.00  0.00     0.200 A 
ATOM     77  F   UNL A   1      36.273  31.273  33.258  1.00  0.00    -0.200 F 
ATOM     78  F   UNL A   1      34.471  32.219  31.448  1.00  0.00    -0.200 F 
ENDBRANCH  54  68
BRANCH  55  79
ATOM     79  C   UNL A   1      46.745  26.611  27.883  1.00  0.00     0.064 A 
ATOM     80  C   UNL A   1      46.156  26.773  26.607  1.00  0.00     0.173 A 
ATOM     81  C   UNL A   1      47.926  25.867  27.956  1.00  0.00     0.173 A 
ATOM     82  F   UNL A   1      45.003  27.453  26.481  1.00  0.00    -0.203 F 
ATOM     83  C   UNL A   1      46.854  26.443  25.448  1.00  0.00     0.198 A 
ATOM     84  C   UNL A   1      48.577  25.456  26.790  1.00  0.00     0.198 A 
ATOM     85  F   UNL A   1      48.536  25.666  29.133  1.00  0.00    -0.203 F 
ATOM     86  F   UNL A   1      46.399  26.850  24.254  1.00  0.00    -0.200 F 
ATOM     87  C   UNL A   1      48.079  25.811  25.543  1.00  0.00     0.200 A 
ATOM     88  F   UNL A   1      49.758  24.829  26.877  1.00  0.00    -0.200 F 
ATOM     89  F   UNL A   1      48.803  25.588  24.438  1.00  0.00    -0.200 F 
ENDBRANCH  55  79
BRANCH  67  90
ATOM     90  C   UNL A   1      44.128  33.375  28.399  1.00  0.00     0.064 A 
ATOM     91  C   UNL A   1      43.855  33.687  27.062  1.00  0.00     0.173 A 
ATOM     92  C   UNL A   1      44.456  34.482  29.220  1.00  0.00     0.173 A 
ATOM     93  F   UNL A   1      43.740  32.724  26.137  1.00  0.00    -0.203 F 
ATOM     94  C   UNL A   1      43.722  35.006  26.629  1.00  0.00     0.198 A 
ATOM     95  C   UNL A   1      44.415  35.793  28.763  1.00  0.00     0.198 A 
ATOM     96  F   UNL A   1      44.804  34.357  30.507  1.00  0.00    -0.203 F 
ATOM     97  F   UNL A   1      43.321  35.250  25.375  1.00  0.00    -0.200 F 
ATOM     98  C   UNL A   1      43.996  36.059  27.482  1.00  0.00     0.200 A 
ATOM     99  F   UNL A   1      44.760  36.791  29.589  1.00  0.00    -0.200 F 
ATOM    100  F   UNL A   1      43.869  37.324  27.066  1.00  0.00    -0.200 F 
ENDBRANCH  67  90
ENDBRANCH  41  42
ENDBRANCH  33  36
ENDBRANCH  31  32
ENDBRANCH  30  31
ENDBRANCH  29  30
ENDBRANCH   3  29
TORSDOF 15
ENDMDL
MODEL 3
REMARK VINA RESULT:     -13.1      3.446      9.015
REMARK SMILES COc1c(C)cccc1C(=O)NC(=S)Nc1ccc(C(=O)NCCCNC(=O)c2ccc(-c3c4nc(c(-c5c(F)c(F)c(F)c(F)c5F)c5ccc([nH]5)c(-c5c(F)c(F)c(F)c(F)c5F)c5nc(c(-c6c(F)c(F)c(F)c(F)c6F)c6ccc3[nH]6)C=C5)C=C4)cc2)cc1C
REMARK SMILES IDX 20 1 21 2 22 3 19 5 16 6 17 7 93 8 18 9 92 10 94 11 15 12
REMARK SMILES IDX 13 14 14 15 12 16 10 17 11 18 9 20 3 21 4 22 5 23 6 24 8 25
REMARK SMILES IDX 7 26 2 27 1 28 23 29 24 30 25 31 26 32 27 33 28 35 29 36
REMARK SMILES IDX 30 37 91 38 31 39 90 40 32 41 33 42 34 43 84 44 35 45 89 46
REMARK SMILES IDX 83 47 85 48 36 49 88 50 82 51 81 52 37 54 69 55 49 56 68 57
REMARK SMILES IDX 50 58 53 59 67 60 86 61 51 62 52 63 66 65 87 66 54 67 38 68
REMARK SMILES IDX 39 69 47 70 40 71 41 72 45 73 48 74 42 75 43 76 46 77 44 78
REMARK SMILES IDX 70 79 71 80 79 81 72 82 73 83 77 84 80 85 74 86 75 87 78 88
REMARK SMILES IDX 76 89 55 90 56 91 64 92 57 93 58 94 62 95 65 96 59 97 60 98
REMARK SMILES IDX 63 99 61 100
REMARK H PARENT 22 4 15 13 12 19 26 34 85 53 53 64
REMARK Flexibility Score: inf
ROOT
ATOM      1  C   UNL A   1      37.291  21.439  25.286  1.00  0.00     0.251 C 
ATOM      2  O   UNL A   1      37.978  20.450  24.969  1.00  0.00    -0.269 OA
ATOM      3  N   UNL A   1      38.112  22.458  25.851  1.00  0.00    -0.352 N 
ATOM      4  H   UNL A   1      38.930  22.019  26.181  1.00  0.00     0.163 HD
ENDROOT
BRANCH   1   5
ATOM      5  C   UNL A   1      35.593  21.238  25.043  1.00  0.00     0.040 A 
ATOM      6  C   UNL A   1      32.192  21.801  24.023  1.00  0.00     0.043 A 
ATOM      7  C   UNL A   1      32.516  20.117  24.617  1.00  0.00     0.027 A 
ATOM      8  C   UNL A   1      33.506  22.905  23.643  1.00  0.00    -0.027 A 
ATOM      9  C   UNL A   1      34.187  19.800  25.344  1.00  0.00     0.016 A 
ATOM     10  C   UNL A   1      35.126  22.693  24.151  1.00  0.00     0.019 A 
ATOM     11  C   UNL A   1      33.247  23.812  22.463  1.00  0.00     0.046 C 
BRANCH   6  12
ATOM     12  N   UNL A   1      31.418  22.680  25.003  1.00  0.00    -0.332 N 
ATOM     13  H   UNL A   1      30.479  22.799  24.731  1.00  0.00     0.169 HD
BRANCH  12  14
ATOM     14  C   UNL A   1      31.715  23.363  26.200  1.00  0.00     0.177 C 
ATOM     15  S   UNL A   1      32.778  22.555  27.237  1.00  0.00    -0.040 S 
BRANCH  14  16
ATOM     16  N   UNL A   1      31.385  24.705  26.626  1.00  0.00    -0.299 N 
ATOM     17  C   UNL A   1      31.476  26.203  26.468  1.00  0.00     0.261 C 
ATOM     18  O   UNL A   1      31.027  26.965  27.319  1.00  0.00    -0.269 OA
ATOM     19  H   UNL A   1      30.811  24.576  27.416  1.00  0.00     0.172 HD
BRANCH  17  20
ATOM     20  C   UNL A   1      32.130  26.727  25.248  1.00  0.00     0.082 A 
ATOM     21  C   UNL A   1      30.873  27.557  24.516  1.00  0.00     0.134 A 
ATOM     22  C   UNL A   1      31.152  28.946  23.055  1.00  0.00    -0.008 A 
ATOM     23  C   UNL A   1      30.278  29.706  22.002  1.00  0.00     0.048 C 
ATOM     24  C   UNL A   1      32.808  29.096  22.376  1.00  0.00     0.007 A 
ATOM     25  C   UNL A   1      33.655  26.842  24.442  1.00  0.00     0.018 A 
ATOM     26  C   UNL A   1      34.004  27.999  23.051  1.00  0.00     0.001 A 
BRANCH  21  27
ATOM     27  O   UNL A   1      30.737  25.796  24.140  1.00  0.00    -0.496 OA
ATOM     28  C   UNL A   1      29.906  25.057  23.208  1.00  0.00     0.278 C 
ENDBRANCH  21  27
ENDBRANCH  17  20
ENDBRANCH  14  16
ENDBRANCH  12  14
ENDBRANCH   6  12
ENDBRANCH   1   5
BRANCH   3  29
ATOM     29  C   UNL A   1      38.246  23.945  26.154  1.00  0.00     0.118 C 
BRANCH  29  30
ATOM     30  C   UNL A   1      39.571  24.617  26.609  1.00  0.00     0.042 C 
BRANCH  30  31
ATOM     31  C   UNL A   1      39.610  25.170  28.000  1.00  0.00     0.118 C 
BRANCH  31  32
ATOM     32  N   UNL A   1      40.903  25.683  28.380  1.00  0.00    -0.352 N 
ATOM     33  C   UNL A   1      41.233  26.984  28.714  1.00  0.00     0.251 C 
ATOM     34  H   UNL A   1      41.638  25.030  28.404  1.00  0.00     0.163 HD
ATOM     35  O   UNL A   1      42.404  27.331  28.796  1.00  0.00    -0.269 OA
BRANCH  33  36
ATOM     36  C   UNL A   1      40.153  27.889  29.195  1.00  0.00     0.039 A 
ATOM     37  C   UNL A   1      40.082  29.072  28.451  1.00  0.00     0.014 A 
ATOM     38  C   UNL A   1      39.828  27.886  30.543  1.00  0.00     0.014 A 
ATOM     39  C   UNL A   1      40.114  30.279  29.122  1.00  0.00     0.010 A 
ATOM     40  C   UNL A   1      40.063  29.053  31.220  1.00  0.00     0.010 A 
ATOM     41  C   UNL A   1      40.289  30.228  30.496  1.00  0.00    -0.014 A 
BRANCH  41  42
ATOM     42  C   UNL A   1      40.441  31.381  31.346  1.00  0.00     0.031 A 
ATOM     43  C   UNL A   1      41.503  31.182  32.346  1.00  0.00     0.074 A 
ATOM     44  C   UNL A   1      39.802  32.516  30.975  1.00  0.00     0.049 A 
ATOM     45  N   UNL A   1      41.609  31.822  33.446  1.00  0.00    -0.248 NA
ATOM     46  C   UNL A   1      42.527  30.129  32.224  1.00  0.00     0.031 C 
ATOM     47  C   UNL A   1      40.001  33.907  31.372  1.00  0.00     0.029 A 
ATOM     48  N   UNL A   1      38.617  32.579  30.211  1.00  0.00    -0.354 N 
ATOM     49  C   UNL A   1      42.903  31.613  33.887  1.00  0.00     0.074 A 
ATOM     50  C   UNL A   1      43.340  30.411  33.243  1.00  0.00     0.031 C 
ATOM     51  C   UNL A   1      38.839  34.579  31.212  1.00  0.00     0.029 A 
ATOM     52  C   UNL A   1      37.838  33.604  30.815  1.00  0.00     0.049 A 
ATOM     53  H   UNL A   1      38.380  32.031  29.429  1.00  0.00     0.167 HD
ATOM     54  C   UNL A   1      43.497  32.637  34.559  1.00  0.00     0.037 A 
ATOM     55  C   UNL A   1      36.735  33.246  31.544  1.00  0.00     0.037 A 
ATOM     56  C   UNL A   1      42.513  33.715  34.716  1.00  0.00     0.049 A 
ATOM     57  C   UNL A   1      36.952  33.447  33.033  1.00  0.00     0.074 A 
ATOM     58  C   UNL A   1      42.248  34.874  34.009  1.00  0.00     0.029 A 
ATOM     59  N   UNL A   1      41.359  33.431  35.419  1.00  0.00    -0.354 N 
ATOM     60  N   UNL A   1      38.123  33.635  33.580  1.00  0.00    -0.248 NA
ATOM     61  C   UNL A   1      35.881  33.382  34.021  1.00  0.00     0.031 C 
ATOM     62  C   UNL A   1      40.891  35.247  34.278  1.00  0.00     0.029 A 
ATOM     63  C   UNL A   1      40.343  34.321  35.150  1.00  0.00     0.049 A 
ATOM     64  H   UNL A   1      41.272  32.676  36.044  1.00  0.00     0.167 HD
ATOM     65  C   UNL A   1      37.992  33.761  34.934  1.00  0.00     0.074 A 
ATOM     66  C   UNL A   1      36.577  33.498  35.165  1.00  0.00     0.031 C 
ATOM     67  C   UNL A   1      39.040  34.082  35.759  1.00  0.00     0.037 A 
BRANCH  54  68
ATOM     68  C   UNL A   1      44.968  32.822  34.855  1.00  0.00     0.064 A 
ATOM     69  C   UNL A   1      45.810  33.296  33.824  1.00  0.00     0.173 A 
ATOM     70  C   UNL A   1      45.635  32.537  36.065  1.00  0.00     0.173 A 
ATOM     71  F   UNL A   1      45.317  33.661  32.633  1.00  0.00    -0.203 F 
ATOM     72  C   UNL A   1      47.193  33.423  33.970  1.00  0.00     0.198 A 
ATOM     73  C   UNL A   1      47.023  32.666  36.211  1.00  0.00     0.198 A 
ATOM     74  F   UNL A   1      44.991  32.139  37.163  1.00  0.00    -0.203 F 
ATOM     75  F   UNL A   1      47.929  33.855  32.937  1.00  0.00    -0.200 F 
ATOM     76  C   UNL A   1      47.803  33.101  35.162  1.00  0.00     0.200 A 
ATOM     77  F   UNL A   1      47.598  32.363  37.385  1.00  0.00    -0.200 F 
ATOM     78  F   UNL A   1      49.129  33.222  35.303  1.00  0.00    -0.200 F 
ENDBRANCH  54  68
BRANCH  55  79
ATOM     79  C   UNL A   1      36.053  32.067  30.914  1.00  0.00     0.064 A 
ATOM     80  C   UNL A   1      35.333  32.307  29.719  1.00  0.00     0.173 A 
ATOM     81  C   UNL A   1      36.524  30.768  31.129  1.00  0.00     0.173 A 
ATOM     82  F   UNL A   1      34.830  33.529  29.474  1.00  0.00    -0.203 F 
ATOM     83  C   UNL A   1      35.326  31.373  28.687  1.00  0.00     0.198 A 
ATOM     84  C   UNL A   1      36.430  29.805  30.122  1.00  0.00     0.198 A 
ATOM     85  F   UNL A   1      37.207  30.465  32.243  1.00  0.00    -0.203 F 
ATOM     86  F   UNL A   1      34.875  31.722  27.472  1.00  0.00    -0.200 F 
ATOM     87  C   UNL A   1      35.902  30.132  28.881  1.00  0.00     0.200 A 
ATOM     88  F   UNL A   1      36.974  28.595  30.311  1.00  0.00    -0.200 F 
ATOM     89  F   UNL A   1      35.992  29.272  27.859  1.00  0.00    -0.200 F 
ENDBRANCH  55  79
BRANCH  67  90
ATOM     90  C   UNL A   1      38.910  34.171  37.260  1.00  0.00     0.064 A 
ATOM     91  C   UNL A   1      39.187  35.349  37.962  1.00  0.00     0.173 A 
ATOM     92  C   UNL A   1      38.553  33.061  38.064  1.00  0.00     0.173 A 
ATOM     93  F   UNL A   1      39.738  36.406  37.349  1.00  0.00    -0.203 F 
ATOM     94  C   UNL A   1      38.931  35.467  39.328  1.00  0.00     0.198 A 
ATOM     95  C   UNL A   1      38.389  33.154  39.441  1.00  0.00     0.198 A 
ATOM     96  F   UNL A   1      38.317  31.843  37.562  1.00  0.00    -0.203 F 
ATOM     97  F   UNL A   1      39.078  36.656  39.926  1.00  0.00    -0.200 F 
ATOM     98  C   UNL A   1      38.527  34.370  40.066  1.00  0.00     0.200 A 
ATOM     99  F   UNL A   1      38.072  32.057  40.143  1.00  0.00    -0.200 F 
ATOM    100  F   UNL A   1      38.283  34.482  41.377  1.00  0.00    -0.200 F 
ENDBRANCH  67  90
ENDBRANCH  41  42
ENDBRANCH  33  36
ENDBRANCH  31  32
ENDBRANCH  30  31
ENDBRANCH  29  30
ENDBRANCH   3  29
TORSDOF 15
ENDMDL
