MODEL 1
REMARK VINA RESULT:     -13.5      0.000      0.000
REMARK SMILES O=C(C[C@@H](C(=O)NCCCNC(=O)c1ccc(-c2c3nc(c(-c4c(F)c(F)c(F)c(F)c4F)c4ccc([nH]4)c(-c4c(F)c(F)c(F)c(F)c4F)c4nc(c(-c5c(F)c(F)c(F)c(F)c5F)c5ccc2[nH]5)C=C4)C=C3)cc1)c1ccccc1)Nc1cc(C(F)(F)F)ccc1-n1cncn1
REMARK SMILES IDX 8 1 7 2 5 3 6 4 4 6 3 7 2 8 1 9 83 10 84 12 85 13 93 14
REMARK SMILES IDX 86 15 92 16 91 17 94 18 95 19 98 20 96 21 97 22 87 23 88 24
REMARK SMILES IDX 89 25 90 26 77 27 78 28 82 29 79 30 81 31 80 32 9 33 10 34
REMARK SMILES IDX 11 35 12 36 13 38 14 39 15 40 76 41 16 42 75 43 17 44 18 45
REMARK SMILES IDX 19 46 69 47 20 48 74 49 68 50 70 51 21 52 73 53 67 54 66 55
REMARK SMILES IDX 22 57 54 58 34 59 53 60 35 61 38 62 52 63 71 64 36 65 37 66
REMARK SMILES IDX 51 68 72 69 39 70 23 71 24 72 32 73 25 74 26 75 30 76 33 77
REMARK SMILES IDX 27 78 28 79 31 80 29 81 55 82 56 83 64 84 57 85 58 86 62 87
REMARK SMILES IDX 65 88 59 89 60 90 63 91 61 92 40 93 41 94 49 95 42 96 43 97
REMARK SMILES IDX 47 98 50 99 44 100 45 101 48 102 46 103
REMARK H PARENT 7 5 83 11 11 37 70 56 38 67
REMARK Flexibility Score: inf
ROOT
ATOM      1  C   UNL A   1      33.655  29.043  25.092  1.00  0.00     0.117 C 
ENDROOT
BRANCH   1   2
ATOM      2  N   UNL A   1      33.908  29.062  23.673  1.00  0.00    -0.355 N 
ATOM      3  C   UNL A   1      33.592  28.180  22.688  1.00  0.00     0.228 C 
ATOM      4  O   UNL A   1      34.291  28.310  21.677  1.00  0.00    -0.274 OA
ATOM      5  H   UNL A   1      34.396  29.858  23.361  1.00  0.00     0.163 HD
BRANCH   3   6
ATOM      6  C   UNL A   1      32.411  27.163  22.786  1.00  0.00     0.118 C 
BRANCH   6   7
ATOM      7  C   UNL A   1      32.435  25.999  21.776  1.00  0.00     0.118 C 
BRANCH   7   8
ATOM      8  C   UNL A   1      33.231  24.812  22.301  1.00  0.00     0.225 C 
ATOM      9  O   UNL A   1      33.143  23.685  21.820  1.00  0.00    -0.275 OA
ATOM     10  N   UNL A   1      34.013  25.141  23.391  1.00  0.00    -0.324 N 
ATOM     11  H   UNL A   1      34.375  26.056  23.417  1.00  0.00     0.170 HD
BRANCH  10  12
ATOM     12  C   UNL A   1      34.349  24.287  24.482  1.00  0.00     0.067 A 
ATOM     13  C   UNL A   1      35.501  23.486  24.442  1.00  0.00     0.041 A 
ATOM     14  C   UNL A   1      33.475  24.106  25.570  1.00  0.00     0.090 A 
ATOM     15  C   UNL A   1      35.731  22.468  25.385  1.00  0.00     0.058 A 
ATOM     16  C   UNL A   1      33.748  23.178  26.586  1.00  0.00     0.031 A 
ATOM     17  C   UNL A   1      34.858  22.339  26.472  1.00  0.00     0.015 A 
BRANCH  14  18
ATOM     18  N   UNL A   1      32.326  24.900  25.705  1.00  0.00    -0.219 N 
ATOM     19  C   UNL A   1      32.162  26.001  26.508  1.00  0.00     0.226 A 
ATOM     20  N   UNL A   1      31.120  24.418  25.342  1.00  0.00    -0.155 NA
ATOM     21  N   UNL A   1      30.893  26.159  26.800  1.00  0.00    -0.223 NA
ATOM     22  C   UNL A   1      30.294  25.168  26.075  1.00  0.00     0.246 A 
ENDBRANCH  14  18
BRANCH  15  23
ATOM     23  C   UNL A   1      36.874  21.500  25.156  1.00  0.00     0.416 C 
ATOM     24  F   UNL A   1      36.493  20.208  25.375  1.00  0.00    -0.166 F 
ATOM     25  F   UNL A   1      37.332  21.532  23.876  1.00  0.00    -0.166 F 
ATOM     26  F   UNL A   1      37.956  21.729  25.947  1.00  0.00    -0.166 F 
ENDBRANCH  15  23
ENDBRANCH  10  12
ENDBRANCH   7   8
ENDBRANCH   6   7
BRANCH   6  27
ATOM     27  C   UNL A   1      31.067  27.895  22.647  1.00  0.00    -0.035 A 
ATOM     28  C   UNL A   1      29.895  27.334  23.175  1.00  0.00     0.004 A 
ATOM     29  C   UNL A   1      30.983  29.148  22.013  1.00  0.00     0.004 A 
ATOM     30  C   UNL A   1      28.692  28.044  23.136  1.00  0.00     0.000 A 
ATOM     31  C   UNL A   1      29.788  29.864  21.997  1.00  0.00     0.000 A 
ATOM     32  C   UNL A   1      28.643  29.316  22.568  1.00  0.00     0.000 A 
ENDBRANCH   6  27
ENDBRANCH   3   6
ENDBRANCH   1   2
BRANCH   1  33
ATOM     33  C   UNL A   1      32.387  29.841  25.395  1.00  0.00     0.042 C 
BRANCH  33  34
ATOM     34  C   UNL A   1      32.195  30.256  26.848  1.00  0.00     0.118 C 
BRANCH  34  35
ATOM     35  N   UNL A   1      32.424  31.669  27.098  1.00  0.00    -0.352 N 
ATOM     36  C   UNL A   1      33.478  32.403  27.571  1.00  0.00     0.251 C 
ATOM     37  H   UNL A   1      31.642  32.225  26.877  1.00  0.00     0.163 HD
ATOM     38  O   UNL A   1      33.334  33.625  27.622  1.00  0.00    -0.269 OA
BRANCH  36  39
ATOM     39  C   UNL A   1      34.758  31.837  28.059  1.00  0.00     0.039 A 
ATOM     40  C   UNL A   1      34.758  30.465  28.374  1.00  0.00     0.014 A 
ATOM     41  C   UNL A   1      35.903  32.587  28.324  1.00  0.00     0.014 A 
ATOM     42  C   UNL A   1      35.875  29.861  28.946  1.00  0.00     0.010 A 
ATOM     43  C   UNL A   1      37.052  31.971  28.811  1.00  0.00     0.010 A 
ATOM     44  C   UNL A   1      37.027  30.618  29.172  1.00  0.00    -0.014 A 
BRANCH  44  45
ATOM     45  C   UNL A   1      38.159  30.058  29.935  1.00  0.00     0.031 A 
ATOM     46  C   UNL A   1      38.354  30.505  31.357  1.00  0.00     0.074 A 
ATOM     47  C   UNL A   1      38.993  29.188  29.341  1.00  0.00     0.049 A 
ATOM     48  N   UNL A   1      39.332  30.251  32.185  1.00  0.00    -0.248 NA
ATOM     49  C   UNL A   1      37.314  31.388  31.915  1.00  0.00     0.031 C 
ATOM     50  C   UNL A   1      38.860  28.702  27.967  1.00  0.00     0.029 A 
ATOM     51  N   UNL A   1      40.120  28.568  29.808  1.00  0.00    -0.354 N 
ATOM     52  C   UNL A   1      39.040  30.963  33.343  1.00  0.00     0.074 A 
ATOM     53  C   UNL A   1      37.817  31.694  33.099  1.00  0.00     0.031 C 
ATOM     54  C   UNL A   1      39.863  27.849  27.704  1.00  0.00     0.029 A 
ATOM     55  C   UNL A   1      40.731  27.768  28.874  1.00  0.00     0.049 A 
ATOM     56  H   UNL A   1      40.458  28.683  30.725  1.00  0.00     0.167 HD
ATOM     57  C   UNL A   1      39.732  30.988  34.507  1.00  0.00     0.037 A 
ATOM     58  C   UNL A   1      41.876  27.066  28.962  1.00  0.00     0.037 A 
ATOM     59  C   UNL A   1      40.937  30.228  34.714  1.00  0.00     0.049 A 
ATOM     60  C   UNL A   1      42.624  27.109  30.268  1.00  0.00     0.074 A 
ATOM     61  C   UNL A   1      41.733  30.149  35.840  1.00  0.00     0.029 A 
ATOM     62  N   UNL A   1      41.515  29.404  33.754  1.00  0.00    -0.354 N 
ATOM     63  N   UNL A   1      42.343  27.780  31.362  1.00  0.00    -0.248 NA
ATOM     64  C   UNL A   1      43.839  26.293  30.358  1.00  0.00     0.031 C 
ATOM     65  C   UNL A   1      42.819  29.317  35.545  1.00  0.00     0.029 A 
ATOM     66  C   UNL A   1      42.665  28.822  34.257  1.00  0.00     0.049 A 
ATOM     67  H   UNL A   1      41.158  29.256  32.849  1.00  0.00     0.167 HD
ATOM     68  C   UNL A   1      43.326  27.445  32.281  1.00  0.00     0.074 A 
ATOM     69  C   UNL A   1      44.199  26.495  31.618  1.00  0.00     0.031 C 
ATOM     70  C   UNL A   1      43.501  27.879  33.556  1.00  0.00     0.037 A 
BRANCH  57  71
ATOM     71  C   UNL A   1      39.220  31.876  35.608  1.00  0.00     0.064 A 
ATOM     72  C   UNL A   1      39.580  33.230  35.704  1.00  0.00     0.173 A 
ATOM     73  C   UNL A   1      38.357  31.365  36.590  1.00  0.00     0.173 A 
ATOM     74  F   UNL A   1      40.418  33.771  34.806  1.00  0.00    -0.203 F 
ATOM     75  C   UNL A   1      39.128  34.025  36.757  1.00  0.00     0.198 A 
ATOM     76  C   UNL A   1      37.878  32.171  37.622  1.00  0.00     0.198 A 
ATOM     77  F   UNL A   1      37.978  30.078  36.556  1.00  0.00    -0.203 F 
ATOM     78  F   UNL A   1      39.541  35.296  36.860  1.00  0.00    -0.200 F 
ATOM     79  C   UNL A   1      38.272  33.497  37.710  1.00  0.00     0.200 A 
ATOM     80  F   UNL A   1      37.043  31.660  38.537  1.00  0.00    -0.200 F 
ATOM     81  F   UNL A   1      37.838  34.262  38.723  1.00  0.00    -0.200 F 
ENDBRANCH  57  71
BRANCH  58  82
ATOM     82  C   UNL A   1      42.355  26.267  27.802  1.00  0.00     0.064 A 
ATOM     83  C   UNL A   1      43.324  26.772  26.923  1.00  0.00     0.173 A 
ATOM     84  C   UNL A   1      41.875  24.971  27.561  1.00  0.00     0.173 A 
ATOM     85  F   UNL A   1      43.809  28.010  27.101  1.00  0.00    -0.203 F 
ATOM     86  C   UNL A   1      43.777  26.022  25.839  1.00  0.00     0.198 A 
ATOM     87  C   UNL A   1      42.353  24.209  26.496  1.00  0.00     0.198 A 
ATOM     88  F   UNL A   1      40.955  24.432  28.375  1.00  0.00    -0.203 F 
ATOM     89  F   UNL A   1      44.673  26.548  24.991  1.00  0.00    -0.200 F 
ATOM     90  C   UNL A   1      43.298  24.738  25.631  1.00  0.00     0.200 A 
ATOM     91  F   UNL A   1      41.903  22.960  26.312  1.00  0.00    -0.200 F 
ATOM     92  F   UNL A   1      43.744  24.012  24.596  1.00  0.00    -0.200 F 
ENDBRANCH  58  82
BRANCH  70  93
ATOM     93  C   UNL A   1      44.651  27.284  34.314  1.00  0.00     0.064 A 
ATOM     94  C   UNL A   1      45.918  27.884  34.324  1.00  0.00     0.173 A 
ATOM     95  C   UNL A   1      44.473  26.102  35.049  1.00  0.00     0.173 A 
ATOM     96  F   UNL A   1      46.139  29.008  33.627  1.00  0.00    -0.203 F 
ATOM     97  C   UNL A   1      46.979  27.296  35.007  1.00  0.00     0.198 A 
ATOM     98  C   UNL A   1      45.525  25.539  35.762  1.00  0.00     0.198 A 
ATOM     99  F   UNL A   1      43.275  25.497  35.079  1.00  0.00    -0.203 F 
ATOM    100  F   UNL A   1      48.198  27.847  34.945  1.00  0.00    -0.200 F 
ATOM    101  C   UNL A   1      46.780  26.128  35.728  1.00  0.00     0.200 A 
ATOM    102  F   UNL A   1      45.326  24.422  36.474  1.00  0.00    -0.200 F 
ATOM    103  F   UNL A   1      47.803  25.563  36.385  1.00  0.00    -0.200 F 
ENDBRANCH  70  93
ENDBRANCH  44  45
ENDBRANCH  36  39
ENDBRANCH  34  35
ENDBRANCH  33  34
ENDBRANCH   1  33
TORSDOF 16
ENDMDL
MODEL 2
REMARK VINA RESULT:     -13.3      1.665      7.312
REMARK SMILES O=C(C[C@@H](C(=O)NCCCNC(=O)c1ccc(-c2c3nc(c(-c4c(F)c(F)c(F)c(F)c4F)c4ccc([nH]4)c(-c4c(F)c(F)c(F)c(F)c4F)c4nc(c(-c5c(F)c(F)c(F)c(F)c5F)c5ccc2[nH]5)C=C4)C=C3)cc1)c1ccccc1)Nc1cc(C(F)(F)F)ccc1-n1cncn1
REMARK SMILES IDX 8 1 7 2 5 3 6 4 4 6 3 7 2 8 1 9 83 10 84 12 85 13 93 14
REMARK SMILES IDX 86 15 92 16 91 17 94 18 95 19 98 20 96 21 97 22 87 23 88 24
REMARK SMILES IDX 89 25 90 26 77 27 78 28 82 29 79 30 81 31 80 32 9 33 10 34
REMARK SMILES IDX 11 35 12 36 13 38 14 39 15 40 76 41 16 42 75 43 17 44 18 45
REMARK SMILES IDX 19 46 69 47 20 48 74 49 68 50 70 51 21 52 73 53 67 54 66 55
REMARK SMILES IDX 22 57 54 58 34 59 53 60 35 61 38 62 52 63 71 64 36 65 37 66
REMARK SMILES IDX 51 68 72 69 39 70 23 71 24 72 32 73 25 74 26 75 30 76 33 77
REMARK SMILES IDX 27 78 28 79 31 80 29 81 55 82 56 83 64 84 57 85 58 86 62 87
REMARK SMILES IDX 65 88 59 89 60 90 63 91 61 92 40 93 41 94 49 95 42 96 43 97
REMARK SMILES IDX 47 98 50 99 44 100 45 101 48 102 46 103
REMARK H PARENT 7 5 83 11 11 37 70 56 38 67
REMARK Flexibility Score: inf
ROOT
ATOM      1  C   UNL A   1      31.887  29.820  26.014  1.00  0.00     0.117 C 
ENDROOT
BRANCH   1   2
ATOM      2  N   UNL A   1      32.606  29.861  24.766  1.00  0.00    -0.355 N 
ATOM      3  C   UNL A   1      32.722  28.952  23.761  1.00  0.00     0.228 C 
ATOM      4  O   UNL A   1      33.710  29.144  23.044  1.00  0.00    -0.274 OA
ATOM      5  H   UNL A   1      33.101  30.697  24.613  1.00  0.00     0.163 HD
BRANCH   3   6
ATOM      6  C   UNL A   1      31.670  27.832  23.485  1.00  0.00     0.118 C 
BRANCH   6   7
ATOM      7  C   UNL A   1      32.077  26.761  22.454  1.00  0.00     0.118 C 
BRANCH   7   8
ATOM      8  C   UNL A   1      33.277  25.950  22.926  1.00  0.00     0.225 C 
ATOM      9  O   UNL A   1      33.973  25.284  22.163  1.00  0.00    -0.275 OA
ATOM     10  N   UNL A   1      33.457  26.019  24.294  1.00  0.00    -0.324 N 
ATOM     11  H   UNL A   1      33.199  26.862  24.732  1.00  0.00     0.170 HD
BRANCH  10  12
ATOM     12  C   UNL A   1      33.978  24.992  25.132  1.00  0.00     0.067 A 
ATOM     13  C   UNL A   1      35.255  24.456  24.906  1.00  0.00     0.041 A 
ATOM     14  C   UNL A   1      33.188  24.381  26.124  1.00  0.00     0.090 A 
ATOM     15  C   UNL A   1      35.698  23.291  25.560  1.00  0.00     0.058 A 
ATOM     16  C   UNL A   1      33.659  23.290  26.870  1.00  0.00     0.031 A 
ATOM     17  C   UNL A   1      34.899  22.728  26.562  1.00  0.00     0.015 A 
BRANCH  14  18
ATOM     18  N   UNL A   1      31.918  24.886  26.439  1.00  0.00    -0.219 N 
ATOM     19  C   UNL A   1      30.700  24.362  26.084  1.00  0.00     0.226 A 
ATOM     20  N   UNL A   1      31.770  26.177  26.801  1.00  0.00    -0.155 NA
ATOM     21  N   UNL A   1      29.794  25.311  26.059  1.00  0.00    -0.223 NA
ATOM     22  C   UNL A   1      30.490  26.402  26.495  1.00  0.00     0.246 A 
ENDBRANCH  14  18
BRANCH  15  23
ATOM     23  C   UNL A   1      36.991  22.643  25.108  1.00  0.00     0.416 C 
ATOM     24  F   UNL A   1      38.072  23.434  25.372  1.00  0.00    -0.166 F 
ATOM     25  F   UNL A   1      37.236  21.469  25.750  1.00  0.00    -0.166 F 
ATOM     26  F   UNL A   1      37.029  22.358  23.780  1.00  0.00    -0.166 F 
ENDBRANCH  15  23
ENDBRANCH  10  12
ENDBRANCH   7   8
ENDBRANCH   6   7
BRANCH   6  27
ATOM     27  C   UNL A   1      30.338  28.452  23.035  1.00  0.00    -0.035 A 
ATOM     28  C   UNL A   1      29.119  27.899  23.453  1.00  0.00     0.004 A 
ATOM     29  C   UNL A   1      30.309  29.598  22.219  1.00  0.00     0.004 A 
ATOM     30  C   UNL A   1      27.912  28.521  23.126  1.00  0.00     0.000 A 
ATOM     31  C   UNL A   1      29.104  30.230  21.914  1.00  0.00     0.000 A 
ATOM     32  C   UNL A   1      27.906  29.697  22.376  1.00  0.00     0.000 A 
ENDBRANCH   6  27
ENDBRANCH   3   6
ENDBRANCH   1   2
BRANCH   1  33
ATOM     33  C   UNL A   1      31.621  31.246  26.497  1.00  0.00     0.042 C 
BRANCH  33  34
ATOM     34  C   UNL A   1      32.850  32.048  26.905  1.00  0.00     0.118 C 
BRANCH  34  35
ATOM     35  N   UNL A   1      32.552  33.384  27.393  1.00  0.00    -0.352 N 
ATOM     36  C   UNL A   1      33.088  34.197  28.355  1.00  0.00     0.251 C 
ATOM     37  H   UNL A   1      31.791  33.798  26.926  1.00  0.00     0.163 HD
ATOM     38  O   UNL A   1      32.593  35.318  28.483  1.00  0.00    -0.269 OA
BRANCH  36  39
ATOM     39  C   UNL A   1      34.187  33.818  29.275  1.00  0.00     0.039 A 
ATOM     40  C   UNL A   1      35.486  34.206  28.895  1.00  0.00     0.014 A 
ATOM     41  C   UNL A   1      34.028  33.025  30.410  1.00  0.00     0.014 A 
ATOM     42  C   UNL A   1      36.597  33.803  29.630  1.00  0.00     0.010 A 
ATOM     43  C   UNL A   1      35.126  32.694  31.199  1.00  0.00     0.010 A 
ATOM     44  C   UNL A   1      36.419  33.038  30.785  1.00  0.00    -0.014 A 
BRANCH  44  45
ATOM     45  C   UNL A   1      37.578  32.448  31.483  1.00  0.00     0.031 A 
ATOM     46  C   UNL A   1      38.313  31.316  30.818  1.00  0.00     0.074 A 
ATOM     47  C   UNL A   1      37.930  32.913  32.693  1.00  0.00     0.049 A 
ATOM     48  N   UNL A   1      39.275  30.562  31.278  1.00  0.00    -0.248 NA
ATOM     49  C   UNL A   1      37.881  30.967  29.453  1.00  0.00     0.031 C 
ATOM     50  C   UNL A   1      37.269  34.014  33.394  1.00  0.00     0.029 A 
ATOM     51  N   UNL A   1      38.920  32.517  33.550  1.00  0.00    -0.354 N 
ATOM     52  C   UNL A   1      39.541  29.637  30.275  1.00  0.00     0.074 A 
ATOM     53  C   UNL A   1      38.611  29.893  29.199  1.00  0.00     0.031 C 
ATOM     54  C   UNL A   1      37.879  34.213  34.574  1.00  0.00     0.029 A 
ATOM     55  C   UNL A   1      38.940  33.223  34.727  1.00  0.00     0.049 A 
ATOM     56  H   UNL A   1      39.558  31.796  33.342  1.00  0.00     0.167 HD
ATOM     57  C   UNL A   1      40.488  28.669  30.259  1.00  0.00     0.037 A 
ATOM     58  C   UNL A   1      39.723  33.065  35.810  1.00  0.00     0.037 A 
ATOM     59  C   UNL A   1      41.407  28.460  31.348  1.00  0.00     0.049 A 
ATOM     60  C   UNL A   1      40.770  31.984  35.765  1.00  0.00     0.074 A 
ATOM     61  C   UNL A   1      42.420  27.528  31.463  1.00  0.00     0.029 A 
ATOM     62  N   UNL A   1      41.418  29.213  32.517  1.00  0.00    -0.354 N 
ATOM     63  N   UNL A   1      41.021  31.114  34.814  1.00  0.00    -0.248 NA
ATOM     64  C   UNL A   1      41.648  31.868  36.934  1.00  0.00     0.031 C 
ATOM     65  C   UNL A   1      43.011  27.685  32.722  1.00  0.00     0.029 A 
ATOM     66  C   UNL A   1      42.411  28.759  33.365  1.00  0.00     0.049 A 
ATOM     67  H   UNL A   1      40.807  29.960  32.712  1.00  0.00     0.167 HD
ATOM     68  C   UNL A   1      42.103  30.366  35.253  1.00  0.00     0.074 A 
ATOM     69  C   UNL A   1      42.471  30.902  36.550  1.00  0.00     0.031 C 
ATOM     70  C   UNL A   1      42.740  29.329  34.649  1.00  0.00     0.037 A 
BRANCH  57  71
ATOM     71  C   UNL A   1      40.546  27.765  29.058  1.00  0.00     0.064 A 
ATOM     72  C   UNL A   1      41.394  28.023  27.969  1.00  0.00     0.173 A 
ATOM     73  C   UNL A   1      39.738  26.619  28.992  1.00  0.00     0.173 A 
ATOM     74  F   UNL A   1      42.175  29.114  27.966  1.00  0.00    -0.203 F 
ATOM     75  C   UNL A   1      41.401  27.195  26.848  1.00  0.00     0.198 A 
ATOM     76  C   UNL A   1      39.774  25.772  27.885  1.00  0.00     0.198 A 
ATOM     77  F   UNL A   1      38.905  26.318  30.000  1.00  0.00    -0.203 F 
ATOM     78  F   UNL A   1      42.171  27.502  25.794  1.00  0.00    -0.200 F 
ATOM     79  C   UNL A   1      40.597  26.066  26.810  1.00  0.00     0.200 A 
ATOM     80  F   UNL A   1      39.001  24.677  27.854  1.00  0.00    -0.200 F 
ATOM     81  F   UNL A   1      40.605  25.270  25.730  1.00  0.00    -0.200 F 
ENDBRANCH  57  71
BRANCH  58  82
ATOM     82  C   UNL A   1      39.556  33.955  36.991  1.00  0.00     0.064 A 
ATOM     83  C   UNL A   1      38.787  33.559  38.095  1.00  0.00     0.173 A 
ATOM     84  C   UNL A   1      40.181  35.210  37.054  1.00  0.00     0.173 A 
ATOM     85  F   UNL A   1      38.158  32.374  38.082  1.00  0.00    -0.203 F 
ATOM     86  C   UNL A   1      38.634  34.389  39.204  1.00  0.00     0.198 A 
ATOM     87  C   UNL A   1      40.054  36.025  38.178  1.00  0.00     0.198 A 
ATOM     88  F   UNL A   1      40.937  35.637  36.032  1.00  0.00    -0.203 F 
ATOM     89  F   UNL A   1      37.858  34.001  40.227  1.00  0.00    -0.200 F 
ATOM     90  C   UNL A   1      39.274  35.618  39.249  1.00  0.00     0.200 A 
ATOM     91  F   UNL A   1      40.692  37.203  38.225  1.00  0.00    -0.200 F 
ATOM     92  F   UNL A   1      39.136  36.410  40.321  1.00  0.00    -0.200 F 
ENDBRANCH  58  82
BRANCH  70  93
ATOM     93  C   UNL A   1      43.921  28.755  35.374  1.00  0.00     0.064 A 
ATOM     94  C   UNL A   1      45.228  29.202  35.129  1.00  0.00     0.173 A 
ATOM     95  C   UNL A   1      43.735  27.751  36.337  1.00  0.00     0.173 A 
ATOM     96  F   UNL A   1      45.456  30.151  34.209  1.00  0.00    -0.203 F 
ATOM     97  C   UNL A   1      46.311  28.630  35.790  1.00  0.00     0.198 A 
ATOM     98  C   UNL A   1      44.816  27.210  37.023  1.00  0.00     0.198 A 
ATOM     99  F   UNL A   1      42.502  27.299  36.614  1.00  0.00    -0.203 F 
ATOM    100  F   UNL A   1      47.556  29.021  35.489  1.00  0.00    -0.200 F 
ATOM    101  C   UNL A   1      46.103  27.640  36.739  1.00  0.00     0.200 A 
ATOM    102  F   UNL A   1      44.612  26.268  37.953  1.00  0.00    -0.200 F 
ATOM    103  F   UNL A   1      47.148  27.091  37.374  1.00  0.00    -0.200 F 
ENDBRANCH  70  93
ENDBRANCH  44  45
ENDBRANCH  36  39
ENDBRANCH  34  35
ENDBRANCH  33  34
ENDBRANCH   1  33
TORSDOF 16
ENDMDL
MODEL 3
REMARK VINA RESULT:     -13.0      2.705      3.660
REMARK SMILES O=C(C[C@@H](C(=O)NCCCNC(=O)c1ccc(-c2c3nc(c(-c4c(F)c(F)c(F)c(F)c4F)c4ccc([nH]4)c(-c4c(F)c(F)c(F)c(F)c4F)c4nc(c(-c5c(F)c(F)c(F)c(F)c5F)c5ccc2[nH]5)C=C4)C=C3)cc1)c1ccccc1)Nc1cc(C(F)(F)F)ccc1-n1cncn1
REMARK SMILES IDX 8 1 7 2 5 3 6 4 4 6 3 7 2 8 1 9 83 10 84 12 85 13 93 14
REMARK SMILES IDX 86 15 92 16 91 17 94 18 95 19 98 20 96 21 97 22 87 23 88 24
REMARK SMILES IDX 89 25 90 26 77 27 78 28 82 29 79 30 81 31 80 32 9 33 10 34
REMARK SMILES IDX 11 35 12 36 13 38 14 39 15 40 76 41 16 42 75 43 17 44 18 45
REMARK SMILES IDX 19 46 69 47 20 48 74 49 68 50 70 51 21 52 73 53 67 54 66 55
REMARK SMILES IDX 22 57 54 58 34 59 53 60 35 61 38 62 52 63 71 64 36 65 37 66
REMARK SMILES IDX 51 68 72 69 39 70 23 71 24 72 32 73 25 74 26 75 30 76 33 77
REMARK SMILES IDX 27 78 28 79 31 80 29 81 55 82 56 83 64 84 57 85 58 86 62 87
REMARK SMILES IDX 65 88 59 89 60 90 63 91 61 92 40 93 41 94 49 95 42 96 43 97
REMARK SMILES IDX 47 98 50 99 44 100 45 101 48 102 46 103
REMARK H PARENT 7 5 83 11 11 37 70 56 38 67
REMARK Flexibility Score: inf
ROOT
ATOM      1  C   UNL A   1      34.326  28.393  25.026  1.00  0.00     0.117 C 
ENDROOT
BRANCH   1   2
ATOM      2  N   UNL A   1      34.225  28.650  23.612  1.00  0.00    -0.355 N 
ATOM      3  C   UNL A   1      33.689  27.920  22.598  1.00  0.00     0.228 C 
ATOM      4  O   UNL A   1      34.118  28.245  21.486  1.00  0.00    -0.274 OA
ATOM      5  H   UNL A   1      34.612  29.509  23.330  1.00  0.00     0.163 HD
BRANCH   3   6
ATOM      6  C   UNL A   1      32.580  26.840  22.805  1.00  0.00     0.118 C 
BRANCH   6   7
ATOM      7  C   UNL A   1      32.566  25.681  21.789  1.00  0.00     0.118 C 
BRANCH   7   8
ATOM      8  C   UNL A   1      33.395  24.498  22.272  1.00  0.00     0.225 C 
ATOM      9  O   UNL A   1      33.395  23.409  21.705  1.00  0.00    -0.275 OA
ATOM     10  N   UNL A   1      34.096  24.781  23.428  1.00  0.00    -0.324 N 
ATOM     11  H   UNL A   1      34.406  25.708  23.543  1.00  0.00     0.170 HD
BRANCH  10  12
ATOM     12  C   UNL A   1      34.416  23.863  24.471  1.00  0.00     0.067 A 
ATOM     13  C   UNL A   1      35.594  23.102  24.424  1.00  0.00     0.041 A 
ATOM     14  C   UNL A   1      33.506  23.582  25.507  1.00  0.00     0.090 A 
ATOM     15  C   UNL A   1      35.820  22.028  25.305  1.00  0.00     0.058 A 
ATOM     16  C   UNL A   1      33.769  22.594  26.467  1.00  0.00     0.031 A 
ATOM     17  C   UNL A   1      34.909  21.797  26.343  1.00  0.00     0.015 A 
BRANCH  14  18
ATOM     18  N   UNL A   1      32.328  24.330  25.647  1.00  0.00    -0.219 N 
ATOM     19  C   UNL A   1      32.174  25.532  26.293  1.00  0.00     0.226 A 
ATOM     20  N   UNL A   1      31.125  23.740  25.492  1.00  0.00    -0.155 NA
ATOM     21  N   UNL A   1      30.933  25.670  26.695  1.00  0.00    -0.223 NA
ATOM     22  C   UNL A   1      30.330  24.552  26.193  1.00  0.00     0.246 A 
ENDBRANCH  14  18
BRANCH  15  23
ATOM     23  C   UNL A   1      37.002  21.113  25.058  1.00  0.00     0.416 C 
ATOM     24  F   UNL A   1      37.548  21.316  23.823  1.00  0.00    -0.166 F 
ATOM     25  F   UNL A   1      38.015  21.323  25.942  1.00  0.00    -0.166 F 
ATOM     26  F   UNL A   1      36.701  19.790  25.141  1.00  0.00    -0.166 F 
ENDBRANCH  15  23
ENDBRANCH  10  12
ENDBRANCH   7   8
ENDBRANCH   6   7
BRANCH   6  27
ATOM     27  C   UNL A   1      31.190  27.498  22.803  1.00  0.00    -0.035 A 
ATOM     28  C   UNL A   1      30.085  26.824  23.342  1.00  0.00     0.004 A 
ATOM     29  C   UNL A   1      31.000  28.794  22.289  1.00  0.00     0.004 A 
ATOM     30  C   UNL A   1      28.844  27.460  23.430  1.00  0.00     0.000 A 
ATOM     31  C   UNL A   1      29.767  29.434  22.401  1.00  0.00     0.000 A 
ATOM     32  C   UNL A   1      28.691  28.771  22.981  1.00  0.00     0.000 A 
ENDBRANCH   6  27
ENDBRANCH   3   6
ENDBRANCH   1   2
BRANCH   1  33
ATOM     33  C   UNL A   1      33.170  29.079  25.754  1.00  0.00     0.042 C 
BRANCH  33  34
ATOM     34  C   UNL A   1      33.222  29.032  27.275  1.00  0.00     0.118 C 
BRANCH  34  35
ATOM     35  N   UNL A   1      33.465  30.321  27.902  1.00  0.00    -0.352 N 
ATOM     36  C   UNL A   1      34.566  30.940  28.430  1.00  0.00     0.251 C 
ATOM     37  H   UNL A   1      32.654  30.874  27.960  1.00  0.00     0.163 HD
ATOM     38  O   UNL A   1      34.415  32.084  28.860  1.00  0.00    -0.269 OA
BRANCH  36  39
ATOM     39  C   UNL A   1      35.909  30.325  28.557  1.00  0.00     0.039 A 
ATOM     40  C   UNL A   1      36.203  29.708  29.788  1.00  0.00     0.014 A 
ATOM     41  C   UNL A   1      36.913  30.417  27.595  1.00  0.00     0.014 A 
ATOM     42  C   UNL A   1      37.472  29.200  30.049  1.00  0.00     0.010 A 
ATOM     43  C   UNL A   1      38.157  29.831  27.816  1.00  0.00     0.010 A 
ATOM     44  C   UNL A   1      38.458  29.267  29.062  1.00  0.00    -0.014 A 
BRANCH  44  45
ATOM     45  C   UNL A   1      39.856  28.903  29.367  1.00  0.00     0.031 A 
ATOM     46  C   UNL A   1      40.687  29.868  30.167  1.00  0.00     0.074 A 
ATOM     47  C   UNL A   1      40.354  27.743  28.908  1.00  0.00     0.049 A 
ATOM     48  N   UNL A   1      41.960  29.830  30.457  1.00  0.00    -0.248 NA
ATOM     49  C   UNL A   1      39.991  31.058  30.687  1.00  0.00     0.031 C 
ATOM     50  C   UNL A   1      39.602  26.755  28.133  1.00  0.00     0.029 A 
ATOM     51  N   UNL A   1      41.606  27.203  29.015  1.00  0.00    -0.354 N 
ATOM     52  C   UNL A   1      42.220  30.998  31.165  1.00  0.00     0.074 A 
ATOM     53  C   UNL A   1      40.985  31.747  31.224  1.00  0.00     0.031 C 
ATOM     54  C   UNL A   1      40.408  25.721  27.841  1.00  0.00     0.029 A 
ATOM     55  C   UNL A   1      41.740  25.999  28.368  1.00  0.00     0.049 A 
ATOM     56  H   UNL A   1      42.340  27.636  29.508  1.00  0.00     0.167 HD
ATOM     57  C   UNL A   1      43.388  31.396  31.722  1.00  0.00     0.037 A 
ATOM     58  C   UNL A   1      42.829  25.224  28.213  1.00  0.00     0.037 A 
ATOM     59  C   UNL A   1      44.592  30.610  31.655  1.00  0.00     0.049 A 
ATOM     60  C   UNL A   1      44.114  25.689  28.845  1.00  0.00     0.074 A 
ATOM     61  C   UNL A   1      45.840  30.884  32.181  1.00  0.00     0.029 A 
ATOM     62  N   UNL A   1      44.686  29.378  31.015  1.00  0.00    -0.354 N 
ATOM     63  N   UNL A   1      44.355  26.792  29.516  1.00  0.00    -0.248 NA
ATOM     64  C   UNL A   1      45.274  24.802  28.709  1.00  0.00     0.031 C 
ATOM     65  C   UNL A   1      46.701  29.841  31.816  1.00  0.00     0.029 A 
ATOM     66  C   UNL A   1      45.974  28.884  31.122  1.00  0.00     0.049 A 
ATOM     67  H   UNL A   1      43.944  28.924  30.554  1.00  0.00     0.167 HD
ATOM     68  C   UNL A   1      45.683  26.720  29.910  1.00  0.00     0.074 A 
ATOM     69  C   UNL A   1      46.188  25.452  29.416  1.00  0.00     0.031 C 
ATOM     70  C   UNL A   1      46.426  27.613  30.613  1.00  0.00     0.037 A 
BRANCH  57  71
ATOM     71  C   UNL A   1      43.417  32.734  32.410  1.00  0.00     0.064 A 
ATOM     72  C   UNL A   1      43.154  32.875  33.783  1.00  0.00     0.173 A 
ATOM     73  C   UNL A   1      43.710  33.900  31.685  1.00  0.00     0.173 A 
ATOM     74  F   UNL A   1      42.848  31.799  34.525  1.00  0.00    -0.203 F 
ATOM     75  C   UNL A   1      43.145  34.129  34.391  1.00  0.00     0.198 A 
ATOM     76  C   UNL A   1      43.735  35.149  32.303  1.00  0.00     0.198 A 
ATOM     77  F   UNL A   1      43.967  33.832  30.370  1.00  0.00    -0.203 F 
ATOM     78  F   UNL A   1      42.825  34.241  35.688  1.00  0.00    -0.200 F 
ATOM     79  C   UNL A   1      43.442  35.264  33.652  1.00  0.00     0.200 A 
ATOM     80  F   UNL A   1      44.031  36.243  31.589  1.00  0.00    -0.200 F 
ATOM     81  F   UNL A   1      43.433  36.470  34.239  1.00  0.00    -0.200 F 
ENDBRANCH  57  71
BRANCH  58  82
ATOM     82  C   UNL A   1      42.737  23.947  27.455  1.00  0.00     0.064 A 
ATOM     83  C   UNL A   1      43.053  23.888  26.090  1.00  0.00     0.173 A 
ATOM     84  C   UNL A   1      42.356  22.752  28.083  1.00  0.00     0.173 A 
ATOM     85  F   UNL A   1      43.412  25.004  25.437  1.00  0.00    -0.203 F 
ATOM     86  C   UNL A   1      42.973  22.691  25.381  1.00  0.00     0.198 A 
ATOM     87  C   UNL A   1      42.308  21.548  27.381  1.00  0.00     0.198 A 
ATOM     88  F   UNL A   1      42.053  22.746  29.390  1.00  0.00    -0.203 F 
ATOM     89  F   UNL A   1      43.240  22.674  24.067  1.00  0.00    -0.200 F 
ATOM     90  C   UNL A   1      42.609  21.520  26.028  1.00  0.00     0.200 A 
ATOM     91  F   UNL A   1      41.976  20.416  28.016  1.00  0.00    -0.200 F 
ATOM     92  F   UNL A   1      42.544  20.367  25.348  1.00  0.00    -0.200 F 
ENDBRANCH  58  82
BRANCH  70  93
ATOM     93  C   UNL A   1      47.840  27.214  30.920  1.00  0.00     0.064 A 
ATOM     94  C   UNL A   1      48.909  27.584  30.091  1.00  0.00     0.173 A 
ATOM     95  C   UNL A   1      48.124  26.460  32.069  1.00  0.00     0.173 A 
ATOM     96  F   UNL A   1      48.685  28.294  28.976  1.00  0.00    -0.203 F 
ATOM     97  C   UNL A   1      50.207  27.173  30.379  1.00  0.00     0.198 A 
ATOM     98  C   UNL A   1      49.427  26.085  32.374  1.00  0.00     0.198 A 
ATOM     99  F   UNL A   1      47.135  26.092  32.899  1.00  0.00    -0.203 F 
ATOM    100  F   UNL A   1      51.204  27.477  29.536  1.00  0.00    -0.200 F 
ATOM    101  C   UNL A   1      50.465  26.430  31.521  1.00  0.00     0.200 A 
ATOM    102  F   UNL A   1      49.677  25.384  33.487  1.00  0.00    -0.200 F 
ATOM    103  F   UNL A   1      51.716  26.035  31.795  1.00  0.00    -0.200 F 
ENDBRANCH  70  93
ENDBRANCH  44  45
ENDBRANCH  36  39
ENDBRANCH  34  35
ENDBRANCH  33  34
ENDBRANCH   1  33
TORSDOF 16
ENDMDL
