MODEL 1
REMARK VINA RESULT:     -12.8      0.000      0.000
REMARK SMILES Cc1cc(N2N=C(C(=O)NCCCNC(=O)c3ccc(-c4c5nc(c(-c6c(F)c(F)c(F)c(F)c6F)c6ccc([nH]6)c(-c6c(F)c(F)c(F)c(F)c6F)c6nc(c(-c7c(F)c(F)c(F)c(F)c7F)c7ccc4[nH]7)C=C6)C=C5)cc3)C[C@H]2c2ccccc2)c([N+](=O)[O-])cc1C
REMARK SMILES IDX 12 1 11 2 10 3 8 4 9 5 7 7 5 8 6 9 81 10 80 11 4 12 1 13
REMARK SMILES IDX 2 14 3 15 93 16 92 17 94 18 88 19 89 20 90 21 91 22 82 23
REMARK SMILES IDX 83 24 87 25 84 26 86 27 85 28 13 29 14 30 15 31 16 33 17 34
REMARK SMILES IDX 18 35 79 36 19 37 78 38 20 39 21 40 22 41 72 42 23 43 77 44
REMARK SMILES IDX 71 45 73 46 24 47 76 48 70 49 69 50 25 52 57 53 37 54 56 55
REMARK SMILES IDX 38 56 41 57 55 58 74 59 39 60 40 61 54 63 75 64 42 65 26 66
REMARK SMILES IDX 27 67 35 68 28 69 29 70 33 71 36 72 30 73 31 74 34 75 32 76
REMARK SMILES IDX 58 77 59 78 67 79 60 80 61 81 65 82 68 83 62 84 63 85 66 86
REMARK SMILES IDX 64 87 43 88 44 89 52 90 45 91 46 92 50 93 53 94 47 95 48 96
REMARK SMILES IDX 51 97 49 98
REMARK H PARENT 10 6 14 32 73 51 41 62
REMARK Flexibility Score: inf
ROOT
ATOM      1  C   UNL A   1      35.191  23.239  26.044  1.00  0.00     0.042 C 
ENDROOT
BRANCH   1   2
ATOM      2  C   UNL A   1      34.347  23.520  24.808  1.00  0.00     0.118 C 
BRANCH   2   3
ATOM      3  N   UNL A   1      33.003  23.011  24.974  1.00  0.00    -0.351 N 
ATOM      4  C   UNL A   1      31.794  23.584  25.264  1.00  0.00     0.267 C 
ATOM      5  O   UNL A   1      30.835  22.830  25.407  1.00  0.00    -0.268 OA
ATOM      6  H   UNL A   1      32.945  22.036  24.851  1.00  0.00     0.163 HD
BRANCH   4   7
ATOM      7  C   UNL A   1      31.562  25.083  25.360  1.00  0.00     0.128 C 
ATOM      8  N   UNL A   1      31.293  27.081  24.664  1.00  0.00    -0.250 N 
ATOM      9  N   UNL A   1      31.473  25.796  24.274  1.00  0.00    -0.171 NA
ATOM     10  C   UNL A   1      31.249  27.263  26.119  1.00  0.00     0.144 C 
ATOM     11  C   UNL A   1      31.299  25.821  26.635  1.00  0.00     0.096 C 
BRANCH   8  12
ATOM     12  C   UNL A   1      30.637  27.978  23.824  1.00  0.00     0.138 A 
ATOM     13  C   UNL A   1      26.948  28.645  23.135  1.00  0.00     0.045 C 
ATOM     14  C   UNL A   1      28.442  28.780  23.029  1.00  0.00    -0.046 A 
ATOM     15  C   UNL A   1      29.236  28.024  23.908  1.00  0.00     0.039 A 
ATOM     16  C   UNL A   1      29.066  29.607  22.083  1.00  0.00    -0.041 A 
ATOM     17  C   UNL A   1      30.470  29.622  22.018  1.00  0.00     0.091 A 
ATOM     18  C   UNL A   1      28.301  30.492  21.139  1.00  0.00     0.045 C 
ATOM     19  C   UNL A   1      31.240  28.802  22.868  1.00  0.00     0.294 A 
BRANCH  19  20
ATOM     20  N   UNL A   1      32.682  28.784  22.648  1.00  0.00     0.065 N 
ATOM     21  O   UNL A   1      33.116  27.974  21.815  1.00  0.00    -0.258 OA
ATOM     22  O   UNL A   1      33.394  29.487  23.384  1.00  0.00    -0.258 OA
ENDBRANCH  19  20
ENDBRANCH   8  12
BRANCH  10  23
ATOM     23  C   UNL A   1      32.372  28.192  26.583  1.00  0.00    -0.023 A 
ATOM     24  C   UNL A   1      33.732  27.837  26.598  1.00  0.00     0.006 A 
ATOM     25  C   UNL A   1      32.037  29.502  26.978  1.00  0.00     0.006 A 
ATOM     26  C   UNL A   1      34.709  28.748  27.019  1.00  0.00     0.000 A 
ATOM     27  C   UNL A   1      33.017  30.425  27.350  1.00  0.00     0.000 A 
ATOM     28  C   UNL A   1      34.353  30.043  27.383  1.00  0.00     0.000 A 
ENDBRANCH  10  23
ENDBRANCH   4   7
ENDBRANCH   2   3
ENDBRANCH   1   2
BRANCH   1  29
ATOM     29  C   UNL A   1      36.596  23.818  25.916  1.00  0.00     0.118 C 
BRANCH  29  30
ATOM     30  N   UNL A   1      37.620  22.781  26.031  1.00  0.00    -0.352 N 
ATOM     31  C   UNL A   1      38.955  22.889  26.320  1.00  0.00     0.251 C 
ATOM     32  H   UNL A   1      37.301  21.862  25.876  1.00  0.00     0.163 HD
ATOM     33  O   UNL A   1      39.710  21.943  26.105  1.00  0.00    -0.269 OA
BRANCH  31  34
ATOM     34  C   UNL A   1      39.483  24.143  26.884  1.00  0.00     0.039 A 
ATOM     35  C   UNL A   1      40.138  25.053  26.050  1.00  0.00     0.014 A 
ATOM     36  C   UNL A   1      39.333  24.415  28.245  1.00  0.00     0.014 A 
ATOM     37  C   UNL A   1      40.581  26.269  26.573  1.00  0.00     0.010 A 
ATOM     38  C   UNL A   1      39.678  25.664  28.739  1.00  0.00     0.010 A 
ATOM     39  C   UNL A   1      40.317  26.599  27.912  1.00  0.00    -0.014 A 
BRANCH  39  40
ATOM     40  C   UNL A   1      40.722  27.899  28.498  1.00  0.00     0.031 A 
ATOM     41  C   UNL A   1      42.142  28.093  28.951  1.00  0.00     0.074 A 
ATOM     42  C   UNL A   1      39.800  28.856  28.712  1.00  0.00     0.049 A 
ATOM     43  N   UNL A   1      42.669  29.081  29.627  1.00  0.00    -0.248 NA
ATOM     44  C   UNL A   1      43.089  27.010  28.635  1.00  0.00     0.031 C 
ATOM     45  C   UNL A   1      38.384  28.766  28.349  1.00  0.00     0.029 A 
ATOM     46  N   UNL A   1      39.911  30.086  29.308  1.00  0.00    -0.354 N 
ATOM     47  C   UNL A   1      43.995  28.727  29.837  1.00  0.00     0.074 A 
ATOM     48  C   UNL A   1      44.179  27.408  29.273  1.00  0.00     0.031 C 
ATOM     49  C   UNL A   1      37.763  29.898  28.715  1.00  0.00     0.029 A 
ATOM     50  C   UNL A   1      38.724  30.771  29.384  1.00  0.00     0.049 A 
ATOM     51  H   UNL A   1      40.762  30.444  29.650  1.00  0.00     0.167 HD
ATOM     52  C   UNL A   1      44.978  29.447  30.426  1.00  0.00     0.037 A 
ATOM     53  C   UNL A   1      38.439  31.960  29.949  1.00  0.00     0.037 A 
ATOM     54  C   UNL A   1      44.791  30.770  30.960  1.00  0.00     0.049 A 
ATOM     55  C   UNL A   1      39.545  32.734  30.616  1.00  0.00     0.074 A 
ATOM     56  C   UNL A   1      45.732  31.611  31.527  1.00  0.00     0.029 A 
ATOM     57  N   UNL A   1      43.578  31.442  30.992  1.00  0.00    -0.354 N 
ATOM     58  N   UNL A   1      40.810  32.417  30.757  1.00  0.00    -0.248 NA
ATOM     59  C   UNL A   1      39.186  34.034  31.200  1.00  0.00     0.031 C 
ATOM     60  C   UNL A   1      45.077  32.769  31.954  1.00  0.00     0.029 A 
ATOM     61  C   UNL A   1      43.742  32.680  31.592  1.00  0.00     0.049 A 
ATOM     62  H   UNL A   1      42.728  31.092  30.642  1.00  0.00     0.167 HD
ATOM     63  C   UNL A   1      41.403  33.491  31.406  1.00  0.00     0.074 A 
ATOM     64  C   UNL A   1      40.361  34.472  31.628  1.00  0.00     0.031 C 
ATOM     65  C   UNL A   1      42.696  33.654  31.781  1.00  0.00     0.037 A 
BRANCH  52  66
ATOM     66  C   UNL A   1      46.339  28.819  30.527  1.00  0.00     0.064 A 
ATOM     67  C   UNL A   1      46.716  28.049  31.637  1.00  0.00     0.173 A 
ATOM     68  C   UNL A   1      47.267  28.963  29.484  1.00  0.00     0.173 A 
ATOM     69  F   UNL A   1      45.872  27.889  32.668  1.00  0.00    -0.203 F 
ATOM     70  C   UNL A   1      47.984  27.476  31.717  1.00  0.00     0.198 A 
ATOM     71  C   UNL A   1      48.519  28.359  29.550  1.00  0.00     0.198 A 
ATOM     72  F   UNL A   1      46.957  29.685  28.397  1.00  0.00    -0.203 F 
ATOM     73  F   UNL A   1      48.341  26.795  32.814  1.00  0.00    -0.200 F 
ATOM     74  C   UNL A   1      48.881  27.625  30.670  1.00  0.00     0.200 A 
ATOM     75  F   UNL A   1      49.379  28.490  28.530  1.00  0.00    -0.200 F 
ATOM     76  F   UNL A   1      50.096  27.066  30.743  1.00  0.00    -0.200 F 
ENDBRANCH  52  66
BRANCH  53  77
ATOM     77  C   UNL A   1      37.055  32.500  29.893  1.00  0.00     0.064 A 
ATOM     78  C   UNL A   1      36.612  33.230  28.781  1.00  0.00     0.173 A 
ATOM     79  C   UNL A   1      36.149  32.307  30.947  1.00  0.00     0.173 A 
ATOM     80  F   UNL A   1      37.446  33.456  27.755  1.00  0.00    -0.203 F 
ATOM     81  C   UNL A   1      35.328  33.768  28.735  1.00  0.00     0.198 A 
ATOM     82  C   UNL A   1      34.854  32.818  30.886  1.00  0.00     0.198 A 
ATOM     83  F   UNL A   1      36.517  31.609  32.031  1.00  0.00    -0.203 F 
ATOM     84  F   UNL A   1      34.950  34.504  27.682  1.00  0.00    -0.200 F 
ATOM     85  C   UNL A   1      34.448  33.557  29.786  1.00  0.00     0.200 A 
ATOM     86  F   UNL A   1      34.001  32.596  31.895  1.00  0.00    -0.200 F 
ATOM     87  F   UNL A   1      33.211  34.072  29.740  1.00  0.00    -0.200 F 
ENDBRANCH  53  77
BRANCH  65  88
ATOM     88  C   UNL A   1      43.079  34.961  32.410  1.00  0.00     0.064 A 
ATOM     89  C   UNL A   1      43.525  36.051  31.648  1.00  0.00     0.173 A 
ATOM     90  C   UNL A   1      42.928  35.145  33.794  1.00  0.00     0.173 A 
ATOM     91  F   UNL A   1      43.699  35.923  30.325  1.00  0.00    -0.203 F 
ATOM     92  C   UNL A   1      43.822  37.270  32.252  1.00  0.00     0.198 A 
ATOM     93  C   UNL A   1      43.194  36.374  34.388  1.00  0.00     0.198 A 
ATOM     94  F   UNL A   1      42.498  34.135  34.567  1.00  0.00    -0.203 F 
ATOM     95  F   UNL A   1      44.286  38.286  31.510  1.00  0.00    -0.200 F 
ATOM     96  C   UNL A   1      43.647  37.433  33.618  1.00  0.00     0.200 A 
ATOM     97  F   UNL A   1      43.006  36.535  35.706  1.00  0.00    -0.200 F 
ATOM     98  F   UNL A   1      43.917  38.614  34.193  1.00  0.00    -0.200 F 
ENDBRANCH  65  88
ENDBRANCH  39  40
ENDBRANCH  31  34
ENDBRANCH  29  30
ENDBRANCH   1  29
TORSDOF 13
ENDMDL
MODEL 2
REMARK VINA RESULT:     -12.6      3.566      5.825
REMARK SMILES Cc1cc(N2N=C(C(=O)NCCCNC(=O)c3ccc(-c4c5nc(c(-c6c(F)c(F)c(F)c(F)c6F)c6ccc([nH]6)c(-c6c(F)c(F)c(F)c(F)c6F)c6nc(c(-c7c(F)c(F)c(F)c(F)c7F)c7ccc4[nH]7)C=C6)C=C5)cc3)C[C@H]2c2ccccc2)c([N+](=O)[O-])cc1C
REMARK SMILES IDX 12 1 11 2 10 3 8 4 9 5 7 7 5 8 6 9 81 10 80 11 4 12 1 13
REMARK SMILES IDX 2 14 3 15 93 16 92 17 94 18 88 19 89 20 90 21 91 22 82 23
REMARK SMILES IDX 83 24 87 25 84 26 86 27 85 28 13 29 14 30 15 31 16 33 17 34
REMARK SMILES IDX 18 35 79 36 19 37 78 38 20 39 21 40 22 41 72 42 23 43 77 44
REMARK SMILES IDX 71 45 73 46 24 47 76 48 70 49 69 50 25 52 57 53 37 54 56 55
REMARK SMILES IDX 38 56 41 57 55 58 74 59 39 60 40 61 54 63 75 64 42 65 26 66
REMARK SMILES IDX 27 67 35 68 28 69 29 70 33 71 36 72 30 73 31 74 34 75 32 76
REMARK SMILES IDX 58 77 59 78 67 79 60 80 61 81 65 82 68 83 62 84 63 85 66 86
REMARK SMILES IDX 64 87 43 88 44 89 52 90 45 91 46 92 50 93 53 94 47 95 48 96
REMARK SMILES IDX 51 97 49 98
REMARK H PARENT 10 6 14 32 73 51 41 62
REMARK Flexibility Score: inf
ROOT
ATOM      1  C   UNL A   1      39.024  19.184  25.417  1.00  0.00     0.042 C 
ENDROOT
BRANCH   1   2
ATOM      2  C   UNL A   1      38.158  20.365  25.001  1.00  0.00     0.118 C 
BRANCH   2   3
ATOM      3  N   UNL A   1      38.535  21.561  25.723  1.00  0.00    -0.351 N 
ATOM      4  C   UNL A   1      37.990  22.810  25.851  1.00  0.00     0.267 C 
ATOM      5  O   UNL A   1      38.624  23.636  26.503  1.00  0.00    -0.268 OA
ATOM      6  H   UNL A   1      39.367  21.452  26.238  1.00  0.00     0.163 HD
BRANCH   4   7
ATOM      7  C   UNL A   1      36.636  23.212  25.288  1.00  0.00     0.128 C 
ATOM      8  N   UNL A   1      34.639  23.961  25.312  1.00  0.00    -0.250 N 
ATOM      9  N   UNL A   1      35.736  23.729  26.074  1.00  0.00    -0.171 NA
ATOM     10  C   UNL A   1      34.801  23.584  23.903  1.00  0.00     0.144 C 
ATOM     11  C   UNL A   1      36.276  23.175  23.836  1.00  0.00     0.096 C 
BRANCH   8  12
ATOM     12  C   UNL A   1      33.741  24.963  25.673  1.00  0.00     0.138 A 
ATOM     13  C   UNL A   1      34.026  28.761  25.806  1.00  0.00     0.045 C 
ATOM     14  C   UNL A   1      33.412  27.395  25.938  1.00  0.00    -0.046 A 
ATOM     15  C   UNL A   1      34.159  26.291  25.493  1.00  0.00     0.039 A 
ATOM     16  C   UNL A   1      32.145  27.181  26.501  1.00  0.00    -0.041 A 
ATOM     17  C   UNL A   1      31.680  25.862  26.639  1.00  0.00     0.091 A 
ATOM     18  C   UNL A   1      31.252  28.302  26.955  1.00  0.00     0.045 C 
ATOM     19  C   UNL A   1      32.479  24.770  26.245  1.00  0.00     0.294 A 
BRANCH  19  20
ATOM     20  N   UNL A   1      31.974  23.434  26.540  1.00  0.00     0.065 N 
ATOM     21  O   UNL A   1      31.167  22.944  25.735  1.00  0.00    -0.258 OA
ATOM     22  O   UNL A   1      32.284  22.920  27.628  1.00  0.00    -0.258 OA
ENDBRANCH  19  20
ENDBRANCH   8  12
BRANCH  10  23
ATOM     23  C   UNL A   1      33.779  22.517  23.508  1.00  0.00    -0.023 A 
ATOM     24  C   UNL A   1      32.901  22.632  22.418  1.00  0.00     0.006 A 
ATOM     25  C   UNL A   1      33.742  21.320  24.250  1.00  0.00     0.006 A 
ATOM     26  C   UNL A   1      32.005  21.604  22.104  1.00  0.00     0.000 A 
ATOM     27  C   UNL A   1      32.882  20.275  23.905  1.00  0.00     0.000 A 
ATOM     28  C   UNL A   1      32.003  20.423  22.839  1.00  0.00     0.000 A 
ENDBRANCH  10  23
ENDBRANCH   4   7
ENDBRANCH   2   3
ENDBRANCH   1   2
BRANCH   1  29
ATOM     29  C   UNL A   1      40.157  19.609  26.345  1.00  0.00     0.118 C 
BRANCH  29  30
ATOM     30  N   UNL A   1      41.363  18.812  26.126  1.00  0.00    -0.352 N 
ATOM     31  C   UNL A   1      42.648  19.210  25.865  1.00  0.00     0.251 C 
ATOM     32  H   UNL A   1      41.231  17.837  26.175  1.00  0.00     0.163 HD
ATOM     33  O   UNL A   1      43.469  18.399  25.442  1.00  0.00    -0.269 OA
BRANCH  31  34
ATOM     34  C   UNL A   1      43.039  20.613  26.086  1.00  0.00     0.039 A 
ATOM     35  C   UNL A   1      43.430  21.400  25.000  1.00  0.00     0.014 A 
ATOM     36  C   UNL A   1      43.024  21.147  27.376  1.00  0.00     0.014 A 
ATOM     37  C   UNL A   1      43.739  22.746  25.203  1.00  0.00     0.010 A 
ATOM     38  C   UNL A   1      43.228  22.506  27.559  1.00  0.00     0.010 A 
ATOM     39  C   UNL A   1      43.601  23.317  26.478  1.00  0.00    -0.014 A 
BRANCH  39  40
ATOM     40  C   UNL A   1      43.867  24.753  26.731  1.00  0.00     0.031 A 
ATOM     41  C   UNL A   1      45.269  25.278  26.592  1.00  0.00     0.074 A 
ATOM     42  C   UNL A   1      42.879  25.551  27.178  1.00  0.00     0.049 A 
ATOM     43  N   UNL A   1      45.751  26.451  26.914  1.00  0.00    -0.248 NA
ATOM     44  C   UNL A   1      46.273  24.344  26.055  1.00  0.00     0.031 C 
ATOM     45  C   UNL A   1      41.489  25.144  27.387  1.00  0.00     0.029 A 
ATOM     46  N   UNL A   1      42.900  26.869  27.559  1.00  0.00    -0.354 N 
ATOM     47  C   UNL A   1      47.111  26.385  26.643  1.00  0.00     0.074 A 
ATOM     48  C   UNL A   1      47.391  25.040  26.191  1.00  0.00     0.031 C 
ATOM     49  C   UNL A   1      40.787  26.194  27.842  1.00  0.00     0.029 A 
ATOM     50  C   UNL A   1      41.687  27.332  28.007  1.00  0.00     0.049 A 
ATOM     51  H   UNL A   1      43.708  27.430  27.516  1.00  0.00     0.167 HD
ATOM     52  C   UNL A   1      48.040  27.365  26.742  1.00  0.00     0.037 A 
ATOM     53  C   UNL A   1      41.347  28.533  28.512  1.00  0.00     0.037 A 
ATOM     54  C   UNL A   1      47.745  28.707  27.167  1.00  0.00     0.049 A 
ATOM     55  C   UNL A   1      42.401  29.601  28.630  1.00  0.00     0.074 A 
ATOM     56  C   UNL A   1      48.599  29.792  27.249  1.00  0.00     0.029 A 
ATOM     57  N   UNL A   1      46.498  29.145  27.586  1.00  0.00    -0.354 N 
ATOM     58  N   UNL A   1      43.673  29.547  28.315  1.00  0.00    -0.248 NA
ATOM     59  C   UNL A   1      41.973  30.899  29.170  1.00  0.00     0.031 C 
ATOM     60  C   UNL A   1      47.881  30.872  27.771  1.00  0.00     0.029 A 
ATOM     61  C   UNL A   1      46.564  30.480  27.950  1.00  0.00     0.049 A 
ATOM     62  H   UNL A   1      45.685  28.590  27.621  1.00  0.00     0.167 HD
ATOM     63  C   UNL A   1      44.186  30.810  28.578  1.00  0.00     0.074 A 
ATOM     64  C   UNL A   1      43.086  31.611  29.075  1.00  0.00     0.031 C 
ATOM     65  C   UNL A   1      45.452  31.268  28.418  1.00  0.00     0.037 A 
BRANCH  52  66
ATOM     66  C   UNL A   1      49.457  27.021  26.384  1.00  0.00     0.064 A 
ATOM     67  C   UNL A   1      50.383  26.605  27.355  1.00  0.00     0.173 A 
ATOM     68  C   UNL A   1      49.888  27.076  25.051  1.00  0.00     0.173 A 
ATOM     69  F   UNL A   1      50.027  26.546  28.647  1.00  0.00    -0.203 F 
ATOM     70  C   UNL A   1      51.695  26.293  27.008  1.00  0.00     0.198 A 
ATOM     71  C   UNL A   1      51.191  26.728  24.702  1.00  0.00     0.198 A 
ATOM     72  F   UNL A   1      49.045  27.462  24.082  1.00  0.00    -0.203 F 
ATOM     73  F   UNL A   1      52.575  25.956  27.960  1.00  0.00    -0.200 F 
ATOM     74  C   UNL A   1      52.096  26.347  25.681  1.00  0.00     0.200 A 
ATOM     75  F   UNL A   1      51.572  26.765  23.418  1.00  0.00    -0.200 F 
ATOM     76  F   UNL A   1      53.356  26.038  25.347  1.00  0.00    -0.200 F 
ENDBRANCH  52  66
BRANCH  53  77
ATOM     77  C   UNL A   1      39.943  28.796  28.928  1.00  0.00     0.064 A 
ATOM     78  C   UNL A   1      38.988  29.234  27.999  1.00  0.00     0.173 A 
ATOM     79  C   UNL A   1      39.526  28.623  30.256  1.00  0.00     0.173 A 
ATOM     80  F   UNL A   1      39.341  29.431  26.721  1.00  0.00    -0.203 F 
ATOM     81  C   UNL A   1      37.680  29.516  28.387  1.00  0.00     0.198 A 
ATOM     82  C   UNL A   1      38.210  28.873  30.637  1.00  0.00     0.198 A 
ATOM     83  F   UNL A   1      40.397  28.197  31.184  1.00  0.00    -0.203 F 
ATOM     84  F   UNL A   1      36.803  29.982  27.489  1.00  0.00    -0.200 F 
ATOM     85  C   UNL A   1      37.290  29.329  29.705  1.00  0.00     0.200 A 
ATOM     86  F   UNL A   1      37.833  28.674  31.907  1.00  0.00    -0.200 F 
ATOM     87  F   UNL A   1      36.031  29.596  30.077  1.00  0.00    -0.200 F 
ENDBRANCH  53  77
BRANCH  65  88
ATOM     88  C   UNL A   1      45.712  32.715  28.719  1.00  0.00     0.064 A 
ATOM     89  C   UNL A   1      46.164  33.143  29.975  1.00  0.00     0.173 A 
ATOM     90  C   UNL A   1      45.574  33.678  27.707  1.00  0.00     0.173 A 
ATOM     91  F   UNL A   1      46.299  32.264  30.980  1.00  0.00    -0.203 F 
ATOM     92  C   UNL A   1      46.450  34.484  30.212  1.00  0.00     0.198 A 
ATOM     93  C   UNL A   1      45.892  35.012  27.938  1.00  0.00     0.198 A 
ATOM     94  F   UNL A   1      45.151  33.319  26.485  1.00  0.00    -0.203 F 
ATOM     95  F   UNL A   1      46.841  34.878  31.432  1.00  0.00    -0.200 F 
ATOM     96  C   UNL A   1      46.324  35.415  29.191  1.00  0.00     0.200 A 
ATOM     97  F   UNL A   1      45.788  35.906  26.944  1.00  0.00    -0.200 F 
ATOM     98  F   UNL A   1      46.617  36.704  29.418  1.00  0.00    -0.200 F 
ENDBRANCH  65  88
ENDBRANCH  39  40
ENDBRANCH  31  34
ENDBRANCH  29  30
ENDBRANCH   1  29
TORSDOF 13
ENDMDL
MODEL 3
REMARK VINA RESULT:     -12.5      3.804      8.848
REMARK SMILES Cc1cc(N2N=C(C(=O)NCCCNC(=O)c3ccc(-c4c5nc(c(-c6c(F)c(F)c(F)c(F)c6F)c6ccc([nH]6)c(-c6c(F)c(F)c(F)c(F)c6F)c6nc(c(-c7c(F)c(F)c(F)c(F)c7F)c7ccc4[nH]7)C=C6)C=C5)cc3)C[C@H]2c2ccccc2)c([N+](=O)[O-])cc1C
REMARK SMILES IDX 12 1 11 2 10 3 8 4 9 5 7 7 5 8 6 9 81 10 80 11 4 12 1 13
REMARK SMILES IDX 2 14 3 15 93 16 92 17 94 18 88 19 89 20 90 21 91 22 82 23
REMARK SMILES IDX 83 24 87 25 84 26 86 27 85 28 13 29 14 30 15 31 16 33 17 34
REMARK SMILES IDX 18 35 79 36 19 37 78 38 20 39 21 40 22 41 72 42 23 43 77 44
REMARK SMILES IDX 71 45 73 46 24 47 76 48 70 49 69 50 25 52 57 53 37 54 56 55
REMARK SMILES IDX 38 56 41 57 55 58 74 59 39 60 40 61 54 63 75 64 42 65 26 66
REMARK SMILES IDX 27 67 35 68 28 69 29 70 33 71 36 72 30 73 31 74 34 75 32 76
REMARK SMILES IDX 58 77 59 78 67 79 60 80 61 81 65 82 68 83 62 84 63 85 66 86
REMARK SMILES IDX 64 87 43 88 44 89 52 90 45 91 46 92 50 93 53 94 47 95 48 96
REMARK SMILES IDX 51 97 49 98
REMARK H PARENT 10 6 14 32 73 51 41 62
REMARK Flexibility Score: inf
ROOT
ATOM      1  C   UNL A   1      31.778  33.203  26.966  1.00  0.00     0.042 C 
ENDROOT
BRANCH   1   2
ATOM      2  C   UNL A   1      31.854  31.686  26.864  1.00  0.00     0.118 C 
BRANCH   2   3
ATOM      3  N   UNL A   1      33.153  31.205  27.280  1.00  0.00    -0.351 N 
ATOM      4  C   UNL A   1      33.771  29.983  27.257  1.00  0.00     0.267 C 
ATOM      5  O   UNL A   1      34.883  29.906  27.772  1.00  0.00    -0.268 OA
ATOM      6  H   UNL A   1      33.719  31.912  27.665  1.00  0.00     0.163 HD
BRANCH   4   7
ATOM      7  C   UNL A   1      33.192  28.747  26.589  1.00  0.00     0.128 C 
ATOM      8  N   UNL A   1      33.105  27.099  25.237  1.00  0.00    -0.250 N 
ATOM      9  N   UNL A   1      33.869  28.136  25.660  1.00  0.00    -0.171 NA
ATOM     10  C   UNL A   1      31.816  26.987  25.928  1.00  0.00     0.144 C 
ATOM     11  C   UNL A   1      31.919  28.077  27.000  1.00  0.00     0.096 C 
BRANCH   8  12
ATOM     12  C   UNL A   1      33.707  25.970  24.685  1.00  0.00     0.138 A 
ATOM     13  C   UNL A   1      36.043  23.326  26.126  1.00  0.00     0.045 C 
ATOM     14  C   UNL A   1      35.202  24.054  25.114  1.00  0.00    -0.046 A 
ATOM     15  C   UNL A   1      34.435  25.145  25.557  1.00  0.00     0.039 A 
ATOM     16  C   UNL A   1      35.170  23.702  23.756  1.00  0.00    -0.041 A 
ATOM     17  C   UNL A   1      34.401  24.479  22.873  1.00  0.00     0.091 A 
ATOM     18  C   UNL A   1      35.913  22.518  23.201  1.00  0.00     0.045 C 
ATOM     19  C   UNL A   1      33.695  25.608  23.334  1.00  0.00     0.294 A 
BRANCH  19  20
ATOM     20  N   UNL A   1      33.028  26.431  22.332  1.00  0.00     0.065 N 
ATOM     21  O   UNL A   1      31.946  26.017  21.889  1.00  0.00    -0.258 OA
ATOM     22  O   UNL A   1      33.632  27.426  21.897  1.00  0.00    -0.258 OA
ENDBRANCH  19  20
ENDBRANCH   8  12
BRANCH  10  23
ATOM     23  C   UNL A   1      30.657  27.114  24.937  1.00  0.00    -0.023 A 
ATOM     24  C   UNL A   1      29.637  26.160  24.792  1.00  0.00     0.006 A 
ATOM     25  C   UNL A   1      30.575  28.280  24.150  1.00  0.00     0.006 A 
ATOM     26  C   UNL A   1      28.596  26.353  23.876  1.00  0.00     0.000 A 
ATOM     27  C   UNL A   1      29.510  28.494  23.274  1.00  0.00     0.000 A 
ATOM     28  C   UNL A   1      28.526  27.524  23.127  1.00  0.00     0.000 A 
ENDBRANCH  10  23
ENDBRANCH   4   7
ENDBRANCH   2   3
ENDBRANCH   1   2
BRANCH   1  29
ATOM     29  C   UNL A   1      33.059  33.798  27.542  1.00  0.00     0.118 C 
BRANCH  29  30
ATOM     30  N   UNL A   1      32.790  34.998  28.332  1.00  0.00    -0.352 N 
ATOM     31  C   UNL A   1      33.202  35.332  29.596  1.00  0.00     0.251 C 
ATOM     32  H   UNL A   1      32.226  35.671  27.887  1.00  0.00     0.163 HD
ATOM     33  O   UNL A   1      32.655  36.256  30.197  1.00  0.00    -0.269 OA
BRANCH  31  34
ATOM     34  C   UNL A   1      34.295  34.579  30.233  1.00  0.00     0.039 A 
ATOM     35  C   UNL A   1      34.027  33.786  31.351  1.00  0.00     0.014 A 
ATOM     36  C   UNL A   1      35.592  34.665  29.723  1.00  0.00     0.014 A 
ATOM     37  C   UNL A   1      35.051  33.023  31.915  1.00  0.00     0.010 A 
ATOM     38  C   UNL A   1      36.581  33.829  30.217  1.00  0.00     0.010 A 
ATOM     39  C   UNL A   1      36.325  33.009  31.326  1.00  0.00    -0.014 A 
BRANCH  39  40
ATOM     40  C   UNL A   1      37.429  32.175  31.858  1.00  0.00     0.031 A 
ATOM     41  C   UNL A   1      37.999  32.485  33.214  1.00  0.00     0.074 A 
ATOM     42  C   UNL A   1      37.979  31.217  31.088  1.00  0.00     0.049 A 
ATOM     43  N   UNL A   1      39.059  31.991  33.801  1.00  0.00    -0.248 NA
ATOM     44  C   UNL A   1      37.305  33.518  34.001  1.00  0.00     0.031 C 
ATOM     45  C   UNL A   1      37.535  30.853  29.741  1.00  0.00     0.029 A 
ATOM     46  N   UNL A   1      39.048  30.389  31.320  1.00  0.00    -0.354 N 
ATOM     47  C   UNL A   1      39.171  32.670  35.007  1.00  0.00     0.074 A 
ATOM     48  C   UNL A   1      38.111  33.652  35.043  1.00  0.00     0.031 C 
ATOM     49  C   UNL A   1      38.314  29.864  29.274  1.00  0.00     0.029 A 
ATOM     50  C   UNL A   1      39.343  29.561  30.265  1.00  0.00     0.049 A 
ATOM     51  H   UNL A   1      39.556  30.388  32.164  1.00  0.00     0.167 HD
ATOM     52  C   UNL A   1      40.064  32.474  36.005  1.00  0.00     0.037 A 
ATOM     53  C   UNL A   1      40.343  28.673  30.108  1.00  0.00     0.037 A 
ATOM     54  C   UNL A   1      41.098  31.475  35.970  1.00  0.00     0.049 A 
ATOM     55  C   UNL A   1      41.335  28.488  31.225  1.00  0.00     0.074 A 
ATOM     56  C   UNL A   1      42.020  31.155  36.951  1.00  0.00     0.029 A 
ATOM     57  N   UNL A   1      41.347  30.636  34.894  1.00  0.00    -0.354 N 
ATOM     58  N   UNL A   1      41.398  29.092  32.387  1.00  0.00    -0.248 NA
ATOM     59  C   UNL A   1      42.396  27.493  31.011  1.00  0.00     0.031 C 
ATOM     60  C   UNL A   1      42.863  30.161  36.446  1.00  0.00     0.029 A 
ATOM     61  C   UNL A   1      42.424  29.813  35.178  1.00  0.00     0.049 A 
ATOM     62  H   UNL A   1      40.835  30.627  34.054  1.00  0.00     0.167 HD
ATOM     63  C   UNL A   1      42.473  28.525  33.057  1.00  0.00     0.074 A 
ATOM     64  C   UNL A   1      43.034  27.524  32.172  1.00  0.00     0.031 C 
ATOM     65  C   UNL A   1      42.951  28.804  34.294  1.00  0.00     0.037 A 
BRANCH  52  66
ATOM     66  C   UNL A   1      39.962  33.359  37.215  1.00  0.00     0.064 A 
ATOM     67  C   UNL A   1      39.068  33.079  38.260  1.00  0.00     0.173 A 
ATOM     68  C   UNL A   1      40.791  34.483  37.346  1.00  0.00     0.173 A 
ATOM     69  F   UNL A   1      38.244  32.023  38.181  1.00  0.00    -0.203 F 
ATOM     70  C   UNL A   1      38.983  33.912  39.374  1.00  0.00     0.198 A 
ATOM     71  C   UNL A   1      40.729  35.292  38.477  1.00  0.00     0.198 A 
ATOM     72  F   UNL A   1      41.667  34.794  36.379  1.00  0.00    -0.203 F 
ATOM     73  F   UNL A   1      38.080  33.656  40.331  1.00  0.00    -0.200 F 
ATOM     74  C   UNL A   1      39.819  35.012  39.485  1.00  0.00     0.200 A 
ATOM     75  F   UNL A   1      41.549  36.347  38.590  1.00  0.00    -0.200 F 
ATOM     76  F   UNL A   1      39.743  35.807  40.561  1.00  0.00    -0.200 F 
ENDBRANCH  52  66
BRANCH  53  77
ATOM     77  C   UNL A   1      40.446  27.880  28.855  1.00  0.00     0.064 A 
ATOM     78  C   UNL A   1      39.762  26.664  28.715  1.00  0.00     0.173 A 
ATOM     79  C   UNL A   1      41.231  28.312  27.775  1.00  0.00     0.173 A 
ATOM     80  F   UNL A   1      39.012  26.199  29.725  1.00  0.00    -0.203 F 
ATOM     81  C   UNL A   1      39.881  25.898  27.558  1.00  0.00     0.198 A 
ATOM     82  C   UNL A   1      41.323  27.562  26.605  1.00  0.00     0.198 A 
ATOM     83  F   UNL A   1      41.900  29.472  27.852  1.00  0.00    -0.203 F 
ATOM     84  F   UNL A   1      39.257  24.716  27.473  1.00  0.00    -0.200 F 
ATOM     85  C   UNL A   1      40.657  26.349  26.501  1.00  0.00     0.200 A 
ATOM     86  F   UNL A   1      42.059  28.010  25.580  1.00  0.00    -0.200 F 
ATOM     87  F   UNL A   1      40.767  25.615  25.386  1.00  0.00    -0.200 F 
ENDBRANCH  53  77
BRANCH  65  88
ATOM     88  C   UNL A   1      44.097  27.977  34.800  1.00  0.00     0.064 A 
ATOM     89  C   UNL A   1      45.429  28.395  34.671  1.00  0.00     0.173 A 
ATOM     90  C   UNL A   1      43.848  26.779  35.490  1.00  0.00     0.173 A 
ATOM     91  F   UNL A   1      45.721  29.524  34.008  1.00  0.00    -0.203 F 
ATOM     92  C   UNL A   1      46.470  27.635  35.196  1.00  0.00     0.198 A 
ATOM     93  C   UNL A   1      44.888  26.040  36.043  1.00  0.00     0.198 A 
ATOM     94  F   UNL A   1      42.590  26.339  35.647  1.00  0.00    -0.203 F 
ATOM     95  F   UNL A   1      47.739  28.032  35.025  1.00  0.00    -0.200 F 
ATOM     96  C   UNL A   1      46.199  26.465  35.891  1.00  0.00     0.200 A 
ATOM     97  F   UNL A   1      44.621  24.920  36.729  1.00  0.00    -0.200 F 
ATOM     98  F   UNL A   1      47.202  25.745  36.411  1.00  0.00    -0.200 F 
ENDBRANCH  65  88
ENDBRANCH  39  40
ENDBRANCH  31  34
ENDBRANCH  29  30
ENDBRANCH   1  29
TORSDOF 13
ENDMDL
