MODEL 1
REMARK VINA RESULT:     -12.6      0.000      0.000
REMARK SMILES C[C@]1(C(=O)NCCCNC(=O)c2ccc(-c3c4nc(c(-c5c(F)c(F)c(F)c(F)c5F)c5ccc([nH]5)c(-c5c(F)c(F)c(F)c(F)c5F)c5nc(c(-c6c(F)c(F)c(F)c(F)c6F)c6ccc3[nH]6)C=C5)C=C4)cc2)COC[C@@H]1NC(=O)[C@H]1C=C[C@@H]([NH3+])C1
REMARK SMILES IDX 6 1 5 2 3 3 4 4 2 6 1 7 75 8 78 9 76 10 77 11 79 12 80 13
REMARK SMILES IDX 81 15 82 16 83 17 87 18 84 19 85 20 86 21 7 25 8 26 9 27
REMARK SMILES IDX 10 28 11 30 12 31 13 32 74 33 14 34 73 35 15 36 16 37 17 38
REMARK SMILES IDX 67 39 18 40 72 41 66 42 68 43 19 44 71 45 65 46 64 47 20 49
REMARK SMILES IDX 52 50 32 51 51 52 33 53 36 54 50 55 69 56 34 57 35 58 49 60
REMARK SMILES IDX 70 61 37 62 21 63 22 64 30 65 23 66 24 67 28 68 31 69 25 70
REMARK SMILES IDX 26 71 29 72 27 73 53 74 54 75 62 76 55 77 56 78 60 79 63 80
REMARK SMILES IDX 57 81 58 82 61 83 59 84 38 85 39 86 47 87 40 88 41 89 45 90
REMARK SMILES IDX 48 91 42 92 43 93 46 94 44 95
REMARK H PARENT 5 5 79 14 86 22 86 23 86 24 9 29 68 48 36 59
REMARK Flexibility Score: inf
ROOT
ATOM      1  C   UNL A   1      31.707  30.691  26.001  1.00  0.00     0.117 C 
ENDROOT
BRANCH   1   2
ATOM      2  N   UNL A   1      31.565  29.712  27.069  1.00  0.00    -0.355 N 
ATOM      3  C   UNL A   1      31.596  28.349  27.073  1.00  0.00     0.230 C 
ATOM      4  O   UNL A   1      31.405  27.815  28.168  1.00  0.00    -0.274 OA
ATOM      5  H   UNL A   1      31.419  30.111  27.957  1.00  0.00     0.163 HD
BRANCH   3   6
ATOM      6  C   UNL A   1      31.879  27.535  25.792  1.00  0.00     0.092 C 
ATOM      7  C   UNL A   1      33.282  27.926  25.290  1.00  0.00     0.026 C 
ATOM      8  C   UNL A   1      31.854  26.023  26.130  1.00  0.00     0.179 C 
ATOM      9  C   UNL A   1      30.690  27.676  24.824  1.00  0.00     0.125 C 
ATOM     10  O   UNL A   1      30.924  25.363  25.259  1.00  0.00    -0.378 OA
ATOM     11  C   UNL A   1      29.997  26.328  24.787  1.00  0.00     0.186 C 
BRANCH   9  12
ATOM     12  N   UNL A   1      30.907  28.383  23.554  1.00  0.00    -0.349 N 
ATOM     13  C   UNL A   1      30.249  29.199  22.704  1.00  0.00     0.227 C 
ATOM     14  H   UNL A   1      31.815  28.206  23.217  1.00  0.00     0.163 HD
ATOM     15  O   UNL A   1      30.834  29.385  21.626  1.00  0.00    -0.274 OA
BRANCH  13  16
ATOM     16  C   UNL A   1      28.969  29.978  22.983  1.00  0.00     0.107 C 
ATOM     17  C   UNL A   1      29.052  31.262  23.726  1.00  0.00    -0.012 C 
ATOM     18  C   UNL A   1      28.265  30.357  21.672  1.00  0.00     0.087 C 
ATOM     19  C   UNL A   1      28.346  32.229  23.129  1.00  0.00     0.033 C 
ATOM     20  C   UNL A   1      27.653  31.747  21.901  1.00  0.00     0.205 C 
BRANCH  20  21
ATOM     21  N   UNL A   1      27.840  32.627  20.763  1.00  0.00    -0.352 N 
ATOM     22  H   UNL A   1      27.049  33.267  20.695  1.00  0.00     0.345 HD
ATOM     23  H   UNL A   1      27.903  32.071  19.911  1.00  0.00     0.345 HD
ATOM     24  H   UNL A   1      28.702  33.160  20.883  1.00  0.00     0.345 HD
ENDBRANCH  20  21
ENDBRANCH  13  16
ENDBRANCH   9  12
ENDBRANCH   3   6
ENDBRANCH   1   2
BRANCH   1  25
ATOM     25  C   UNL A   1      31.492  32.115  26.502  1.00  0.00     0.042 C 
BRANCH  25  26
ATOM     26  C   UNL A   1      32.695  32.660  27.254  1.00  0.00     0.118 C 
BRANCH  26  27
ATOM     27  N   UNL A   1      32.504  34.056  27.607  1.00  0.00    -0.352 N 
ATOM     28  C   UNL A   1      33.034  34.775  28.652  1.00  0.00     0.251 C 
ATOM     29  H   UNL A   1      31.908  34.563  27.010  1.00  0.00     0.163 HD
ATOM     30  O   UNL A   1      32.529  35.849  28.963  1.00  0.00    -0.269 OA
BRANCH  28  31
ATOM     31  C   UNL A   1      34.207  34.269  29.405  1.00  0.00     0.039 A 
ATOM     32  C   UNL A   1      35.493  34.574  28.950  1.00  0.00     0.014 A 
ATOM     33  C   UNL A   1      34.048  33.431  30.511  1.00  0.00     0.014 A 
ATOM     34  C   UNL A   1      36.612  34.061  29.617  1.00  0.00     0.010 A 
ATOM     35  C   UNL A   1      35.157  33.006  31.233  1.00  0.00     0.010 A 
ATOM     36  C   UNL A   1      36.453  33.283  30.774  1.00  0.00    -0.014 A 
BRANCH  36  37
ATOM     37  C   UNL A   1      37.608  32.665  31.476  1.00  0.00     0.031 A 
ATOM     38  C   UNL A   1      38.339  31.518  30.824  1.00  0.00     0.074 A 
ATOM     39  C   UNL A   1      37.951  33.066  32.715  1.00  0.00     0.049 A 
ATOM     40  N   UNL A   1      39.253  30.723  31.320  1.00  0.00    -0.248 NA
ATOM     41  C   UNL A   1      37.957  31.195  29.438  1.00  0.00     0.031 C 
ATOM     42  C   UNL A   1      37.301  34.137  33.472  1.00  0.00     0.029 A 
ATOM     43  N   UNL A   1      38.925  32.603  33.566  1.00  0.00    -0.354 N 
ATOM     44  C   UNL A   1      39.512  29.782  30.330  1.00  0.00     0.074 A 
ATOM     45  C   UNL A   1      38.634  30.077  29.220  1.00  0.00     0.031 C 
ATOM     46  C   UNL A   1      37.903  34.258  34.667  1.00  0.00     0.029 A 
ATOM     47  C   UNL A   1      38.952  33.250  34.777  1.00  0.00     0.049 A 
ATOM     48  H   UNL A   1      39.545  31.876  33.329  1.00  0.00     0.167 HD
ATOM     49  C   UNL A   1      40.420  28.778  30.335  1.00  0.00     0.037 A 
ATOM     50  C   UNL A   1      39.730  33.041  35.857  1.00  0.00     0.037 A 
ATOM     51  C   UNL A   1      41.349  28.539  31.406  1.00  0.00     0.049 A 
ATOM     52  C   UNL A   1      40.769  31.952  35.815  1.00  0.00     0.074 A 
ATOM     53  C   UNL A   1      42.363  27.600  31.475  1.00  0.00     0.029 A 
ATOM     54  N   UNL A   1      41.388  29.262  32.588  1.00  0.00    -0.354 N 
ATOM     55  N   UNL A   1      41.037  31.100  34.855  1.00  0.00    -0.248 NA
ATOM     56  C   UNL A   1      41.618  31.797  37.004  1.00  0.00     0.031 C 
ATOM     57  C   UNL A   1      42.999  27.737  32.713  1.00  0.00     0.029 A 
ATOM     58  C   UNL A   1      42.407  28.787  33.396  1.00  0.00     0.049 A 
ATOM     59  H   UNL A   1      40.782  30.002  32.819  1.00  0.00     0.167 HD
ATOM     60  C   UNL A   1      42.103  30.336  35.309  1.00  0.00     0.074 A 
ATOM     61  C   UNL A   1      42.440  30.829  36.626  1.00  0.00     0.031 C 
ATOM     62  C   UNL A   1      42.744  29.315  34.691  1.00  0.00     0.037 A 
BRANCH  49  63
ATOM     63  C   UNL A   1      40.469  27.869  29.142  1.00  0.00     0.064 A 
ATOM     64  C   UNL A   1      39.681  26.711  29.064  1.00  0.00     0.173 A 
ATOM     65  C   UNL A   1      41.273  28.190  28.038  1.00  0.00     0.173 A 
ATOM     66  F   UNL A   1      38.904  26.353  30.097  1.00  0.00    -0.203 F 
ATOM     67  C   UNL A   1      39.716  25.894  27.937  1.00  0.00     0.198 A 
ATOM     68  C   UNL A   1      41.284  27.387  26.900  1.00  0.00     0.198 A 
ATOM     69  F   UNL A   1      42.042  29.290  28.057  1.00  0.00    -0.203 F 
ATOM     70  F   UNL A   1      38.990  24.769  27.904  1.00  0.00    -0.200 F 
ATOM     71  C   UNL A   1      40.511  26.238  26.853  1.00  0.00     0.200 A 
ATOM     72  F   UNL A   1      42.043  27.726  25.848  1.00  0.00    -0.200 F 
ATOM     73  F   UNL A   1      40.534  25.456  25.764  1.00  0.00    -0.200 F 
ENDBRANCH  49  63
BRANCH  50  74
ATOM     74  C   UNL A   1      39.578  33.895  37.064  1.00  0.00     0.064 A 
ATOM     75  C   UNL A   1      38.786  33.477  38.144  1.00  0.00     0.173 A 
ATOM     76  C   UNL A   1      40.199  35.149  37.158  1.00  0.00     0.173 A 
ATOM     77  F   UNL A   1      38.154  32.295  38.090  1.00  0.00    -0.203 F 
ATOM     78  C   UNL A   1      38.598  34.292  39.258  1.00  0.00     0.198 A 
ATOM     79  C   UNL A   1      40.033  35.951  38.286  1.00  0.00     0.198 A 
ATOM     80  F   UNL A   1      40.971  35.592  36.156  1.00  0.00    -0.203 F 
ATOM     81  F   UNL A   1      37.794  33.889  40.251  1.00  0.00    -0.200 F 
ATOM     82  C   UNL A   1      39.225  35.526  39.331  1.00  0.00     0.200 A 
ATOM     83  F   UNL A   1      40.650  37.138  38.358  1.00  0.00    -0.200 F 
ATOM     84  F   UNL A   1      39.042  36.311  40.401  1.00  0.00    -0.200 F 
ENDBRANCH  50  74
BRANCH  62  85
ATOM     85  C   UNL A   1      43.910  28.700  35.404  1.00  0.00     0.064 A 
ATOM     86  C   UNL A   1      43.747  27.624  36.288  1.00  0.00     0.173 A 
ATOM     87  C   UNL A   1      45.213  29.156  35.151  1.00  0.00     0.173 A 
ATOM     88  F   UNL A   1      42.519  27.163  36.569  1.00  0.00    -0.203 F 
ATOM     89  C   UNL A   1      44.846  27.038  36.908  1.00  0.00     0.198 A 
ATOM     90  C   UNL A   1      46.311  28.550  35.753  1.00  0.00     0.198 A 
ATOM     91  F   UNL A   1      45.420  30.177  34.307  1.00  0.00    -0.203 F 
ATOM     92  F   UNL A   1      44.665  26.035  37.777  1.00  0.00    -0.200 F 
ATOM     93  C   UNL A   1      46.126  27.496  36.634  1.00  0.00     0.200 A 
ATOM     94  F   UNL A   1      47.549  28.986  35.478  1.00  0.00    -0.200 F 
ATOM     95  F   UNL A   1      47.184  26.922  37.224  1.00  0.00    -0.200 F 
ENDBRANCH  62  85
ENDBRANCH  36  37
ENDBRANCH  28  31
ENDBRANCH  26  27
ENDBRANCH  25  26
ENDBRANCH   1  25
TORSDOF 13
ENDMDL
MODEL 2
REMARK VINA RESULT:     -12.5      6.720     12.120
REMARK SMILES C[C@]1(C(=O)NCCCNC(=O)c2ccc(-c3c4nc(c(-c5c(F)c(F)c(F)c(F)c5F)c5ccc([nH]5)c(-c5c(F)c(F)c(F)c(F)c5F)c5nc(c(-c6c(F)c(F)c(F)c(F)c6F)c6ccc3[nH]6)C=C5)C=C4)cc2)COC[C@@H]1NC(=O)[C@H]1C=C[C@@H]([NH3+])C1
REMARK SMILES IDX 6 1 5 2 3 3 4 4 2 6 1 7 75 8 78 9 76 10 77 11 79 12 80 13
REMARK SMILES IDX 81 15 82 16 83 17 87 18 84 19 85 20 86 21 7 25 8 26 9 27
REMARK SMILES IDX 10 28 11 30 12 31 13 32 74 33 14 34 73 35 15 36 16 37 17 38
REMARK SMILES IDX 67 39 18 40 72 41 66 42 68 43 19 44 71 45 65 46 64 47 20 49
REMARK SMILES IDX 52 50 32 51 51 52 33 53 36 54 50 55 69 56 34 57 35 58 49 60
REMARK SMILES IDX 70 61 37 62 21 63 22 64 30 65 23 66 24 67 28 68 31 69 25 70
REMARK SMILES IDX 26 71 29 72 27 73 53 74 54 75 62 76 55 77 56 78 60 79 63 80
REMARK SMILES IDX 57 81 58 82 61 83 59 84 38 85 39 86 47 87 40 88 41 89 45 90
REMARK SMILES IDX 48 91 42 92 43 93 46 94 44 95
REMARK H PARENT 5 5 79 14 86 22 86 23 86 24 9 29 68 48 36 59
REMARK Flexibility Score: inf
ROOT
ATOM      1  C   UNL A   1      36.952  20.687  25.001  1.00  0.00     0.117 C 
ENDROOT
BRANCH   1   2
ATOM      2  N   UNL A   1      37.140  21.735  24.009  1.00  0.00    -0.355 N 
ATOM      3  C   UNL A   1      36.357  22.782  23.621  1.00  0.00     0.230 C 
ATOM      4  O   UNL A   1      36.811  23.477  22.709  1.00  0.00    -0.274 OA
ATOM      5  H   UNL A   1      37.996  21.676  23.525  1.00  0.00     0.163 HD
BRANCH   3   6
ATOM      6  C   UNL A   1      35.006  23.087  24.302  1.00  0.00     0.092 C 
ATOM      7  C   UNL A   1      35.278  23.318  25.800  1.00  0.00     0.026 C 
ATOM      8  C   UNL A   1      34.398  24.370  23.683  1.00  0.00     0.179 C 
ATOM      9  C   UNL A   1      33.979  22.009  23.904  1.00  0.00     0.125 C 
ATOM     10  O   UNL A   1      33.071  24.083  23.218  1.00  0.00    -0.378 OA
ATOM     11  C   UNL A   1      32.971  22.686  22.994  1.00  0.00     0.186 C 
BRANCH   9  12
ATOM     12  N   UNL A   1      33.478  21.105  24.948  1.00  0.00    -0.349 N 
ATOM     13  C   UNL A   1      33.197  19.798  25.130  1.00  0.00     0.227 C 
ATOM     14  H   UNL A   1      33.288  21.610  25.772  1.00  0.00     0.163 HD
ATOM     15  O   UNL A   1      32.597  19.551  26.187  1.00  0.00    -0.274 OA
BRANCH  13  16
ATOM     16  C   UNL A   1      33.641  18.631  24.254  1.00  0.00     0.107 C 
ATOM     17  C   UNL A   1      34.863  17.872  24.626  1.00  0.00    -0.012 C 
ATOM     18  C   UNL A   1      32.547  17.556  24.184  1.00  0.00     0.087 C 
ATOM     19  C   UNL A   1      34.659  16.550  24.581  1.00  0.00     0.033 C 
ATOM     20  C   UNL A   1      33.277  16.205  24.148  1.00  0.00     0.205 C 
BRANCH  20  21
ATOM     21  N   UNL A   1      32.646  15.215  25.001  1.00  0.00    -0.352 N 
ATOM     22  H   UNL A   1      31.776  14.901  24.571  1.00  0.00     0.345 HD
ATOM     23  H   UNL A   1      32.446  15.628  25.911  1.00  0.00     0.345 HD
ATOM     24  H   UNL A   1      33.274  14.420  25.121  1.00  0.00     0.345 HD
ENDBRANCH  20  21
ENDBRANCH  13  16
ENDBRANCH   9  12
ENDBRANCH   3   6
ENDBRANCH   1   2
BRANCH   1  25
ATOM     25  C   UNL A   1      38.131  19.720  25.037  1.00  0.00     0.042 C 
BRANCH  25  26
ATOM     26  C   UNL A   1      39.238  20.180  25.970  1.00  0.00     0.118 C 
BRANCH  26  27
ATOM     27  N   UNL A   1      40.290  19.183  26.068  1.00  0.00    -0.352 N 
ATOM     28  C   UNL A   1      41.654  19.349  26.103  1.00  0.00     0.251 C 
ATOM     29  H   UNL A   1      39.980  18.250  26.118  1.00  0.00     0.163 HD
ATOM     30  O   UNL A   1      42.385  18.389  25.885  1.00  0.00    -0.269 OA
BRANCH  28  31
ATOM     31  C   UNL A   1      42.251  20.673  26.401  1.00  0.00     0.039 A 
ATOM     32  C   UNL A   1      42.383  21.078  27.733  1.00  0.00     0.014 A 
ATOM     33  C   UNL A   1      42.607  21.552  25.376  1.00  0.00     0.014 A 
ATOM     34  C   UNL A   1      42.895  22.346  28.033  1.00  0.00     0.010 A 
ATOM     35  C   UNL A   1      43.209  22.769  25.673  1.00  0.00     0.010 A 
ATOM     36  C   UNL A   1      43.326  23.197  27.004  1.00  0.00    -0.014 A 
BRANCH  36  37
ATOM     37  C   UNL A   1      43.814  24.575  27.271  1.00  0.00     0.031 A 
ATOM     38  C   UNL A   1      42.851  25.610  27.796  1.00  0.00     0.074 A 
ATOM     39  C   UNL A   1      45.081  24.923  26.973  1.00  0.00     0.049 A 
ATOM     40  N   UNL A   1      43.011  26.902  27.937  1.00  0.00    -0.248 NA
ATOM     41  C   UNL A   1      41.510  25.131  28.174  1.00  0.00     0.031 C 
ATOM     42  C   UNL A   1      46.102  24.028  26.425  1.00  0.00     0.029 A 
ATOM     43  N   UNL A   1      45.722  26.134  27.073  1.00  0.00    -0.354 N 
ATOM     44  C   UNL A   1      41.782  27.389  28.366  1.00  0.00     0.074 A 
ATOM     45  C   UNL A   1      40.874  26.266  28.425  1.00  0.00     0.031 C 
ATOM     46  C   UNL A   1      47.242  24.716  26.251  1.00  0.00     0.029 A 
ATOM     47  C   UNL A   1      47.024  26.107  26.636  1.00  0.00     0.049 A 
ATOM     48  H   UNL A   1      45.288  26.944  27.425  1.00  0.00     0.167 HD
ATOM     49  C   UNL A   1      41.447  28.657  28.705  1.00  0.00     0.037 A 
ATOM     50  C   UNL A   1      47.932  27.098  26.548  1.00  0.00     0.037 A 
ATOM     51  C   UNL A   1      42.374  29.756  28.724  1.00  0.00     0.049 A 
ATOM     52  C   UNL A   1      47.548  28.487  26.983  1.00  0.00     0.074 A 
ATOM     53  C   UNL A   1      42.156  31.060  29.130  1.00  0.00     0.029 A 
ATOM     54  N   UNL A   1      43.702  29.670  28.339  1.00  0.00    -0.354 N 
ATOM     55  N   UNL A   1      46.398  28.926  27.432  1.00  0.00    -0.248 NA
ATOM     56  C   UNL A   1      48.592  29.519  26.905  1.00  0.00     0.031 C 
ATOM     57  C   UNL A   1      43.348  31.773  28.964  1.00  0.00     0.029 A 
ATOM     58  C   UNL A   1      44.317  30.901  28.493  1.00  0.00     0.049 A 
ATOM     59  H   UNL A   1      44.142  28.856  28.005  1.00  0.00     0.167 HD
ATOM     60  C   UNL A   1      46.587  30.270  27.721  1.00  0.00     0.074 A 
ATOM     61  C   UNL A   1      47.966  30.575  27.406  1.00  0.00     0.031 C 
ATOM     62  C   UNL A   1      45.699  31.173  28.202  1.00  0.00     0.037 A 
BRANCH  49  63
ATOM     63  C   UNL A   1      40.024  28.925  29.100  1.00  0.00     0.064 A 
ATOM     64  C   UNL A   1      39.044  29.253  28.151  1.00  0.00     0.173 A 
ATOM     65  C   UNL A   1      39.623  28.799  30.439  1.00  0.00     0.173 A 
ATOM     66  F   UNL A   1      39.378  29.397  26.859  1.00  0.00    -0.203 F 
ATOM     67  C   UNL A   1      37.723  29.470  28.530  1.00  0.00     0.198 A 
ATOM     68  C   UNL A   1      38.294  28.988  30.811  1.00  0.00     0.198 A 
ATOM     69  F   UNL A   1      40.518  28.482  31.386  1.00  0.00    -0.203 F 
ATOM     70  F   UNL A   1      36.814  29.827  27.612  1.00  0.00    -0.200 F 
ATOM     71  C   UNL A   1      37.347  29.329  29.858  1.00  0.00     0.200 A 
ATOM     72  F   UNL A   1      37.931  28.840  32.092  1.00  0.00    -0.200 F 
ATOM     73  F   UNL A   1      36.072  29.527  30.219  1.00  0.00    -0.200 F 
ENDBRANCH  49  63
BRANCH  50  74
ATOM     74  C   UNL A   1      49.302  26.813  26.048  1.00  0.00     0.064 A 
ATOM     75  C   UNL A   1      49.631  27.012  24.699  1.00  0.00     0.173 A 
ATOM     76  C   UNL A   1      50.304  26.318  26.896  1.00  0.00     0.173 A 
ATOM     77  F   UNL A   1      48.700  27.463  23.845  1.00  0.00    -0.203 F 
ATOM     78  C   UNL A   1      50.899  26.702  24.212  1.00  0.00     0.198 A 
ATOM     79  C   UNL A   1      51.581  26.035  26.414  1.00  0.00     0.198 A 
ATOM     80  F   UNL A   1      50.043  26.116  28.196  1.00  0.00    -0.203 F 
ATOM     81  F   UNL A   1      51.168  26.852  22.909  1.00  0.00    -0.200 F 
ATOM     82  C   UNL A   1      51.874  26.218  25.070  1.00  0.00     0.200 A 
ATOM     83  F   UNL A   1      52.524  25.578  27.248  1.00  0.00    -0.200 F 
ATOM     84  F   UNL A   1      53.093  25.916  24.602  1.00  0.00    -0.200 F 
ENDBRANCH  50  74
BRANCH  62  85
ATOM     85  C   UNL A   1      46.201  32.559  28.473  1.00  0.00     0.064 A 
ATOM     86  C   UNL A   1      46.132  33.568  27.502  1.00  0.00     0.173 A 
ATOM     87  C   UNL A   1      46.702  32.894  29.740  1.00  0.00     0.173 A 
ATOM     88  F   UNL A   1      45.671  33.291  26.273  1.00  0.00    -0.203 F 
ATOM     89  C   UNL A   1      46.563  34.860  27.786  1.00  0.00     0.198 A 
ATOM     90  C   UNL A   1      47.108  34.192  30.028  1.00  0.00     0.198 A 
ATOM     91  F   UNL A   1      46.781  31.963  30.703  1.00  0.00    -0.203 F 
ATOM     92  F   UNL A   1      46.522  35.801  26.834  1.00  0.00    -0.200 F 
ATOM     93  C   UNL A   1      47.043  35.173  29.049  1.00  0.00     0.200 A 
ATOM     94  F   UNL A   1      47.560  34.496  31.253  1.00  0.00    -0.200 F 
ATOM     95  F   UNL A   1      47.448  36.421  29.323  1.00  0.00    -0.200 F 
ENDBRANCH  62  85
ENDBRANCH  36  37
ENDBRANCH  28  31
ENDBRANCH  26  27
ENDBRANCH  25  26
ENDBRANCH   1  25
TORSDOF 13
ENDMDL
MODEL 3
REMARK VINA RESULT:     -12.4      6.140     11.471
REMARK SMILES C[C@]1(C(=O)NCCCNC(=O)c2ccc(-c3c4nc(c(-c5c(F)c(F)c(F)c(F)c5F)c5ccc([nH]5)c(-c5c(F)c(F)c(F)c(F)c5F)c5nc(c(-c6c(F)c(F)c(F)c(F)c6F)c6ccc3[nH]6)C=C5)C=C4)cc2)COC[C@@H]1NC(=O)[C@H]1C=C[C@@H]([NH3+])C1
REMARK SMILES IDX 6 1 5 2 3 3 4 4 2 6 1 7 75 8 78 9 76 10 77 11 79 12 80 13
REMARK SMILES IDX 81 15 82 16 83 17 87 18 84 19 85 20 86 21 7 25 8 26 9 27
REMARK SMILES IDX 10 28 11 30 12 31 13 32 74 33 14 34 73 35 15 36 16 37 17 38
REMARK SMILES IDX 67 39 18 40 72 41 66 42 68 43 19 44 71 45 65 46 64 47 20 49
REMARK SMILES IDX 52 50 32 51 51 52 33 53 36 54 50 55 69 56 34 57 35 58 49 60
REMARK SMILES IDX 70 61 37 62 21 63 22 64 30 65 23 66 24 67 28 68 31 69 25 70
REMARK SMILES IDX 26 71 29 72 27 73 53 74 54 75 62 76 55 77 56 78 60 79 63 80
REMARK SMILES IDX 57 81 58 82 61 83 59 84 38 85 39 86 47 87 40 88 41 89 45 90
REMARK SMILES IDX 48 91 42 92 43 93 46 94 44 95
REMARK H PARENT 5 5 79 14 86 22 86 23 86 24 9 29 68 48 36 59
REMARK Flexibility Score: inf
ROOT
ATOM      1  C   UNL A   1      36.644  20.539  25.022  1.00  0.00     0.117 C 
ENDROOT
BRANCH   1   2
ATOM      2  N   UNL A   1      35.418  19.754  25.000  1.00  0.00    -0.355 N 
ATOM      3  C   UNL A   1      34.104  20.105  25.096  1.00  0.00     0.230 C 
ATOM      4  O   UNL A   1      33.300  19.170  25.074  1.00  0.00    -0.274 OA
ATOM      5  H   UNL A   1      35.567  18.786  24.897  1.00  0.00     0.163 HD
BRANCH   3   6
ATOM      6  C   UNL A   1      33.657  21.579  25.198  1.00  0.00     0.092 C 
ATOM      7  C   UNL A   1      34.154  22.125  26.550  1.00  0.00     0.026 C 
ATOM      8  C   UNL A   1      34.300  22.390  24.045  1.00  0.00     0.179 C 
ATOM      9  C   UNL A   1      32.154  21.681  24.876  1.00  0.00     0.125 C 
ATOM     10  O   UNL A   1      33.267  23.070  23.318  1.00  0.00    -0.378 OA
ATOM     11  C   UNL A   1      32.045  22.384  23.537  1.00  0.00     0.186 C 
BRANCH   9  12
ATOM     12  N   UNL A   1      31.238  22.084  25.951  1.00  0.00    -0.349 N 
ATOM     13  C   UNL A   1      30.895  23.184  26.654  1.00  0.00     0.227 C 
ATOM     14  H   UNL A   1      30.708  21.311  26.254  1.00  0.00     0.163 HD
ATOM     15  O   UNL A   1      30.159  22.955  27.626  1.00  0.00    -0.274 OA
BRANCH  13  16
ATOM     16  C   UNL A   1      31.214  24.634  26.307  1.00  0.00     0.107 C 
ATOM     17  C   UNL A   1      32.632  25.039  26.127  1.00  0.00    -0.012 C 
ATOM     18  C   UNL A   1      30.546  25.036  24.984  1.00  0.00     0.087 C 
ATOM     19  C   UNL A   1      32.805  25.762  25.015  1.00  0.00     0.033 C 
ATOM     20  C   UNL A   1      31.529  25.982  24.279  1.00  0.00     0.205 C 
BRANCH  20  21
ATOM     21  N   UNL A   1      31.639  25.706  22.859  1.00  0.00    -0.352 N 
ATOM     22  H   UNL A   1      31.300  26.508  22.329  1.00  0.00     0.345 HD
ATOM     23  H   UNL A   1      31.081  24.884  22.628  1.00  0.00     0.345 HD
ATOM     24  H   UNL A   1      32.616  25.529  22.621  1.00  0.00     0.345 HD
ENDBRANCH  20  21
ENDBRANCH  13  16
ENDBRANCH   9  12
ENDBRANCH   3   6
ENDBRANCH   1   2
BRANCH   1  25
ATOM     25  C   UNL A   1      37.885  19.656  24.944  1.00  0.00     0.042 C 
BRANCH  25  26
ATOM     26  C   UNL A   1      39.049  20.207  25.751  1.00  0.00     0.118 C 
BRANCH  26  27
ATOM     27  N   UNL A   1      40.061  19.189  25.974  1.00  0.00    -0.352 N 
ATOM     28  C   UNL A   1      41.422  19.323  26.110  1.00  0.00     0.251 C 
ATOM     29  H   UNL A   1      39.722  18.267  26.038  1.00  0.00     0.163 HD
ATOM     30  O   UNL A   1      42.141  18.337  25.990  1.00  0.00    -0.269 OA
BRANCH  28  31
ATOM     31  C   UNL A   1      42.031  20.644  26.398  1.00  0.00     0.039 A 
ATOM     32  C   UNL A   1      42.278  21.006  27.726  1.00  0.00     0.014 A 
ATOM     33  C   UNL A   1      42.286  21.560  25.376  1.00  0.00     0.014 A 
ATOM     34  C   UNL A   1      42.802  22.270  28.022  1.00  0.00     0.010 A 
ATOM     35  C   UNL A   1      42.901  22.774  25.660  1.00  0.00     0.010 A 
ATOM     36  C   UNL A   1      43.132  23.160  26.989  1.00  0.00    -0.014 A 
BRANCH  36  37
ATOM     37  C   UNL A   1      43.629  24.535  27.257  1.00  0.00     0.031 A 
ATOM     38  C   UNL A   1      42.672  25.575  27.783  1.00  0.00     0.074 A 
ATOM     39  C   UNL A   1      44.899  24.874  26.962  1.00  0.00     0.049 A 
ATOM     40  N   UNL A   1      42.840  26.866  27.925  1.00  0.00    -0.248 NA
ATOM     41  C   UNL A   1      41.327  25.105  28.158  1.00  0.00     0.031 C 
ATOM     42  C   UNL A   1      45.914  23.973  26.414  1.00  0.00     0.029 A 
ATOM     43  N   UNL A   1      45.547  26.081  27.064  1.00  0.00    -0.354 N 
ATOM     44  C   UNL A   1      41.614  27.361  28.353  1.00  0.00     0.074 A 
ATOM     45  C   UNL A   1      40.699  26.244  28.409  1.00  0.00     0.031 C 
ATOM     46  C   UNL A   1      47.059  24.653  26.242  1.00  0.00     0.029 A 
ATOM     47  C   UNL A   1      46.850  26.045  26.629  1.00  0.00     0.049 A 
ATOM     48  H   UNL A   1      45.118  26.893  27.417  1.00  0.00     0.167 HD
ATOM     49  C   UNL A   1      41.287  28.630  28.693  1.00  0.00     0.037 A 
ATOM     50  C   UNL A   1      47.764  27.030  26.543  1.00  0.00     0.037 A 
ATOM     51  C   UNL A   1      42.221  29.724  28.715  1.00  0.00     0.049 A 
ATOM     52  C   UNL A   1      47.390  28.421  26.979  1.00  0.00     0.074 A 
ATOM     53  C   UNL A   1      42.012  31.028  29.121  1.00  0.00     0.029 A 
ATOM     54  N   UNL A   1      43.549  29.629  28.331  1.00  0.00    -0.354 N 
ATOM     55  N   UNL A   1      46.241  28.867  27.426  1.00  0.00    -0.248 NA
ATOM     56  C   UNL A   1      48.440  29.447  26.903  1.00  0.00     0.031 C 
ATOM     57  C   UNL A   1      43.208  31.733  28.958  1.00  0.00     0.029 A 
ATOM     58  C   UNL A   1      44.172  30.855  28.487  1.00  0.00     0.049 A 
ATOM     59  H   UNL A   1      43.985  28.812  27.997  1.00  0.00     0.167 HD
ATOM     60  C   UNL A   1      46.440  30.210  27.718  1.00  0.00     0.074 A 
ATOM     61  C   UNL A   1      47.821  30.506  27.405  1.00  0.00     0.031 C 
ATOM     62  C   UNL A   1      45.556  31.118  28.199  1.00  0.00     0.037 A 
BRANCH  49  63
ATOM     63  C   UNL A   1      39.865  28.908  29.086  1.00  0.00     0.064 A 
ATOM     64  C   UNL A   1      38.902  29.299  28.144  1.00  0.00     0.173 A 
ATOM     65  C   UNL A   1      39.448  28.727  30.413  1.00  0.00     0.173 A 
ATOM     66  F   UNL A   1      39.253  29.498  26.864  1.00  0.00    -0.203 F 
ATOM     67  C   UNL A   1      37.581  29.524  28.520  1.00  0.00     0.198 A 
ATOM     68  C   UNL A   1      38.119  28.924  30.781  1.00  0.00     0.198 A 
ATOM     69  F   UNL A   1      40.326  28.347  31.353  1.00  0.00    -0.203 F 
ATOM     70  F   UNL A   1      36.690  29.942  27.611  1.00  0.00    -0.200 F 
ATOM     71  C   UNL A   1      37.189  29.328  29.836  1.00  0.00     0.200 A 
ATOM     72  F   UNL A   1      37.739  28.723  32.050  1.00  0.00    -0.200 F 
ATOM     73  F   UNL A   1      35.914  29.534  30.194  1.00  0.00    -0.200 F 
ENDBRANCH  49  63
BRANCH  50  74
ATOM     74  C   UNL A   1      49.134  26.736  26.045  1.00  0.00     0.064 A 
ATOM     75  C   UNL A   1      50.121  26.240  26.908  1.00  0.00     0.173 A 
ATOM     76  C   UNL A   1      49.492  26.963  24.707  1.00  0.00     0.173 A 
ATOM     77  F   UNL A   1      49.832  26.028  28.201  1.00  0.00    -0.203 F 
ATOM     78  C   UNL A   1      51.420  26.008  26.461  1.00  0.00     0.198 A 
ATOM     79  C   UNL A   1      50.784  26.703  24.255  1.00  0.00     0.198 A 
ATOM     80  F   UNL A   1      48.583  27.431  23.840  1.00  0.00    -0.203 F 
ATOM     81  F   UNL A   1      52.356  25.584  27.321  1.00  0.00    -0.200 F 
ATOM     82  C   UNL A   1      51.750  26.235  25.134  1.00  0.00     0.200 A 
ATOM     83  F   UNL A   1      51.096  26.913  22.969  1.00  0.00    -0.200 F 
ATOM     84  F   UNL A   1      53.000  26.016  24.704  1.00  0.00    -0.200 F 
ENDBRANCH  50  74
BRANCH  62  85
ATOM     85  C   UNL A   1      46.068  32.501  28.471  1.00  0.00     0.064 A 
ATOM     86  C   UNL A   1      46.051  33.498  27.486  1.00  0.00     0.173 A 
ATOM     87  C   UNL A   1      46.523  32.845  29.753  1.00  0.00     0.173 A 
ATOM     88  F   UNL A   1      45.635  33.211  26.244  1.00  0.00    -0.203 F 
ATOM     89  C   UNL A   1      46.489  34.787  27.770  1.00  0.00     0.198 A 
ATOM     90  C   UNL A   1      46.936  34.142  30.040  1.00  0.00     0.198 A 
ATOM     91  F   UNL A   1      46.550  31.926  30.730  1.00  0.00    -0.203 F 
ATOM     92  F   UNL A   1      46.499  35.717  26.805  1.00  0.00    -0.200 F 
ATOM     93  C   UNL A   1      46.924  35.110  29.048  1.00  0.00     0.200 A 
ATOM     94  F   UNL A   1      47.344  34.455  31.278  1.00  0.00    -0.200 F 
ATOM     95  F   UNL A   1      47.335  36.356  29.322  1.00  0.00    -0.200 F 
ENDBRANCH  62  85
ENDBRANCH  36  37
ENDBRANCH  28  31
ENDBRANCH  26  27
ENDBRANCH  25  26
ENDBRANCH   1  25
TORSDOF 13
ENDMDL
