MODEL 1
REMARK VINA RESULT:     -14.7      0.000      0.000
REMARK SMILES Cc1ccc(C(=O)NCCCNC(=O)c2ccc(-c3c4nc(c(-c5c(F)c(F)c(F)c(F)c5F)c5ccc([nH]5)c(-c5c(F)c(F)c(F)c(F)c5F)c5nc(c(-c6c(F)c(F)c(F)c(F)c6F)c6ccc3[nH]6)C=C5)C=C4)cc2)cc1NC(=O)c1nn(C)c(=O)c2ccccc12
REMARK SMILES IDX 10 1 9 2 8 3 6 4 7 5 5 7 1 8 2 9 3 10 79 11 4 12 78 13 80 14
REMARK SMILES IDX 81 15 82 17 83 18 84 19 94 20 85 21 89 22 93 23 86 24 87 25
REMARK SMILES IDX 90 26 92 27 88 28 91 29 11 30 12 31 13 32 14 34 15 35 16 36
REMARK SMILES IDX 77 37 17 38 76 39 18 40 19 41 20 42 70 43 21 44 75 45 69 46
REMARK SMILES IDX 71 47 22 48 74 49 68 50 67 51 23 53 55 54 35 55 54 56 36 57
REMARK SMILES IDX 39 58 53 59 72 60 37 61 38 62 52 64 73 65 40 66 24 67 25 68
REMARK SMILES IDX 33 69 26 70 27 71 31 72 34 73 28 74 29 75 32 76 30 77 56 78
REMARK SMILES IDX 57 79 65 80 58 81 59 82 63 83 66 84 60 85 61 86 64 87 62 88
REMARK SMILES IDX 41 89 42 90 50 91 43 92 44 93 48 94 51 95 45 96 46 97 49 98
REMARK SMILES IDX 47 99
REMARK H PARENT 8 6 80 16 12 33 71 52 39 63
REMARK Flexibility Score: inf
ROOT
ATOM      1  C   UNL A   1      32.987  31.160  26.985  1.00  0.00     0.042 C 
ENDROOT
BRANCH   1   2
ATOM      2  C   UNL A   1      33.230  29.679  26.744  1.00  0.00     0.118 C 
BRANCH   2   3
ATOM      3  N   UNL A   1      34.063  29.313  25.619  1.00  0.00    -0.352 N 
ATOM      4  C   UNL A   1      33.610  28.604  24.522  1.00  0.00     0.251 C 
ATOM      5  O   UNL A   1      34.361  28.284  23.612  1.00  0.00    -0.269 OA
ATOM      6  H   UNL A   1      35.009  29.586  25.637  1.00  0.00     0.163 HD
BRANCH   4   7
ATOM      7  C   UNL A   1      32.203  28.143  24.546  1.00  0.00     0.041 A 
ATOM      8  C   UNL A   1      28.280  26.641  23.748  1.00  0.00     0.046 C 
ATOM      9  C   UNL A   1      29.626  27.181  24.157  1.00  0.00    -0.027 A 
ATOM     10  C   UNL A   1      30.009  28.424  23.618  1.00  0.00     0.006 A 
ATOM     11  C   UNL A   1      30.507  26.470  25.010  1.00  0.00     0.045 A 
ATOM     12  C   UNL A   1      31.289  28.915  23.827  1.00  0.00     0.014 A 
ATOM     13  C   UNL A   1      31.819  26.938  25.167  1.00  0.00     0.040 A 
BRANCH  11  14
ATOM     14  N   UNL A   1      29.974  25.407  25.777  1.00  0.00    -0.320 N 
ATOM     15  C   UNL A   1      30.498  24.206  26.211  1.00  0.00     0.276 C 
ATOM     16  H   UNL A   1      29.041  25.553  26.056  1.00  0.00     0.170 HD
ATOM     17  O   UNL A   1      30.097  23.657  27.232  1.00  0.00    -0.267 OA
BRANCH  15  18
ATOM     18  C   UNL A   1      31.365  23.396  25.275  1.00  0.00     0.157 A 
ATOM     19  N   UNL A   1      30.921  23.267  24.055  1.00  0.00    -0.164 NA
ATOM     20  C   UNL A   1      32.613  22.710  25.728  1.00  0.00     0.020 A 
ATOM     21  N   UNL A   1      31.743  22.549  23.218  1.00  0.00    -0.232 N 
ATOM     22  C   UNL A   1      33.047  21.629  24.942  1.00  0.00     0.051 A 
ATOM     23  C   UNL A   1      33.428  23.162  26.760  1.00  0.00     0.011 A 
ATOM     24  C   UNL A   1      32.737  23.393  22.610  1.00  0.00     0.178 C 
ATOM     25  C   UNL A   1      32.299  21.362  23.700  1.00  0.00     0.274 A 
ATOM     26  C   UNL A   1      34.289  21.020  25.135  1.00  0.00     0.014 A 
ATOM     27  C   UNL A   1      34.678  22.554  26.961  1.00  0.00     0.001 A 
ATOM     28  O   UNL A   1      32.377  20.300  23.094  1.00  0.00    -0.267 OA
ATOM     29  C   UNL A   1      35.112  21.496  26.148  1.00  0.00     0.001 A 
ENDBRANCH  15  18
ENDBRANCH  11  14
ENDBRANCH   4   7
ENDBRANCH   2   3
ENDBRANCH   1   2
BRANCH   1  30
ATOM     30  C   UNL A   1      33.655  31.827  28.188  1.00  0.00     0.118 C 
BRANCH  30  31
ATOM     31  N   UNL A   1      35.068  32.157  28.006  1.00  0.00    -0.352 N 
ATOM     32  C   UNL A   1      36.207  31.646  28.640  1.00  0.00     0.251 C 
ATOM     33  H   UNL A   1      35.247  32.850  27.330  1.00  0.00     0.163 HD
ATOM     34  O   UNL A   1      37.169  32.323  28.976  1.00  0.00    -0.269 OA
BRANCH  32  35
ATOM     35  C   UNL A   1      36.443  30.203  28.471  1.00  0.00     0.039 A 
ATOM     36  C   UNL A   1      36.685  29.595  29.719  1.00  0.00     0.014 A 
ATOM     37  C   UNL A   1      37.179  29.893  27.349  1.00  0.00     0.014 A 
ATOM     38  C   UNL A   1      37.925  29.030  29.945  1.00  0.00     0.010 A 
ATOM     39  C   UNL A   1      38.456  29.457  27.599  1.00  0.00     0.010 A 
ATOM     40  C   UNL A   1      38.843  29.088  28.907  1.00  0.00    -0.014 A 
BRANCH  40  41
ATOM     41  C   UNL A   1      40.224  28.674  29.028  1.00  0.00     0.031 A 
ATOM     42  C   UNL A   1      40.500  27.261  28.695  1.00  0.00     0.074 A 
ATOM     43  C   UNL A   1      41.224  29.543  29.287  1.00  0.00     0.049 A 
ATOM     44  N   UNL A   1      41.548  26.612  29.061  1.00  0.00    -0.248 NA
ATOM     45  C   UNL A   1      39.545  26.441  27.952  1.00  0.00     0.031 C 
ATOM     46  C   UNL A   1      42.638  29.316  29.005  1.00  0.00     0.029 A 
ATOM     47  N   UNL A   1      41.199  30.763  29.987  1.00  0.00    -0.354 N 
ATOM     48  C   UNL A   1      41.561  25.435  28.348  1.00  0.00     0.074 A 
ATOM     49  C   UNL A   1      40.259  25.340  27.739  1.00  0.00     0.031 C 
ATOM     50  C   UNL A   1      43.376  30.178  29.720  1.00  0.00     0.029 A 
ATOM     51  C   UNL A   1      42.474  30.882  30.610  1.00  0.00     0.049 A 
ATOM     52  H   UNL A   1      40.453  31.404  30.036  1.00  0.00     0.167 HD
ATOM     53  C   UNL A   1      42.736  24.758  28.214  1.00  0.00     0.037 A 
ATOM     54  C   UNL A   1      42.627  30.958  31.967  1.00  0.00     0.037 A 
ATOM     55  C   UNL A   1      43.791  25.380  29.013  1.00  0.00     0.049 A 
ATOM     56  C   UNL A   1      43.430  29.828  32.566  1.00  0.00     0.074 A 
ATOM     57  C   UNL A   1      44.814  26.259  28.695  1.00  0.00     0.029 A 
ATOM     58  N   UNL A   1      43.669  25.414  30.400  1.00  0.00    -0.354 N 
ATOM     59  N   UNL A   1      43.749  28.746  31.913  1.00  0.00    -0.248 NA
ATOM     60  C   UNL A   1      43.860  29.783  33.962  1.00  0.00     0.031 C 
ATOM     61  C   UNL A   1      45.283  26.848  29.895  1.00  0.00     0.029 A 
ATOM     62  C   UNL A   1      44.550  26.329  30.946  1.00  0.00     0.049 A 
ATOM     63  H   UNL A   1      43.040  24.864  30.921  1.00  0.00     0.167 HD
ATOM     64  C   UNL A   1      44.307  27.842  32.774  1.00  0.00     0.074 A 
ATOM     65  C   UNL A   1      44.401  28.554  34.035  1.00  0.00     0.031 C 
ATOM     66  C   UNL A   1      44.589  26.566  32.382  1.00  0.00     0.037 A 
BRANCH  53  67
ATOM     67  C   UNL A   1      42.970  23.804  27.062  1.00  0.00     0.064 A 
ATOM     68  C   UNL A   1      42.632  22.441  27.179  1.00  0.00     0.173 A 
ATOM     69  C   UNL A   1      43.626  24.143  25.865  1.00  0.00     0.173 A 
ATOM     70  F   UNL A   1      41.868  21.992  28.182  1.00  0.00    -0.203 F 
ATOM     71  C   UNL A   1      43.071  21.480  26.265  1.00  0.00     0.198 A 
ATOM     72  C   UNL A   1      44.128  23.179  24.986  1.00  0.00     0.198 A 
ATOM     73  F   UNL A   1      43.751  25.418  25.478  1.00  0.00    -0.203 F 
ATOM     74  F   UNL A   1      42.736  20.195  26.442  1.00  0.00    -0.200 F 
ATOM     75  C   UNL A   1      43.866  21.842  25.198  1.00  0.00     0.200 A 
ATOM     76  F   UNL A   1      44.872  23.557  23.936  1.00  0.00    -0.200 F 
ATOM     77  F   UNL A   1      44.344  20.914  24.360  1.00  0.00    -0.200 F 
ENDBRANCH  53  67
BRANCH  54  78
ATOM     78  C   UNL A   1      41.469  31.609  32.629  1.00  0.00     0.064 A 
ATOM     79  C   UNL A   1      41.381  33.011  32.544  1.00  0.00     0.173 A 
ATOM     80  C   UNL A   1      40.292  30.883  32.842  1.00  0.00     0.173 A 
ATOM     81  F   UNL A   1      42.492  33.743  32.374  1.00  0.00    -0.203 F 
ATOM     82  C   UNL A   1      40.144  33.639  32.461  1.00  0.00     0.198 A 
ATOM     83  C   UNL A   1      39.056  31.518  32.769  1.00  0.00     0.198 A 
ATOM     84  F   UNL A   1      40.328  29.548  32.963  1.00  0.00    -0.203 F 
ATOM     85  F   UNL A   1      40.069  34.955  32.209  1.00  0.00    -0.200 F 
ATOM     86  C   UNL A   1      38.987  32.881  32.517  1.00  0.00     0.200 A 
ATOM     87  F   UNL A   1      37.928  30.797  32.827  1.00  0.00    -0.200 F 
ATOM     88  F   UNL A   1      37.805  33.453  32.257  1.00  0.00    -0.200 F 
ENDBRANCH  54  78
BRANCH  66  89
ATOM     89  C   UNL A   1      44.984  25.439  33.300  1.00  0.00     0.064 A 
ATOM     90  C   UNL A   1      46.281  24.909  33.377  1.00  0.00     0.173 A 
ATOM     91  C   UNL A   1      44.062  24.953  34.256  1.00  0.00     0.173 A 
ATOM     92  F   UNL A   1      47.270  25.373  32.603  1.00  0.00    -0.203 F 
ATOM     93  C   UNL A   1      46.616  23.916  34.302  1.00  0.00     0.198 A 
ATOM     94  C   UNL A   1      44.414  24.006  35.215  1.00  0.00     0.198 A 
ATOM     95  F   UNL A   1      42.799  25.405  34.300  1.00  0.00    -0.203 F 
ATOM     96  F   UNL A   1      47.856  23.409  34.311  1.00  0.00    -0.200 F 
ATOM     97  C   UNL A   1      45.686  23.474  35.227  1.00  0.00     0.200 A 
ATOM     98  F   UNL A   1      43.519  23.627  36.138  1.00  0.00    -0.200 F 
ATOM     99  F   UNL A   1      46.024  22.553  36.140  1.00  0.00    -0.200 F 
ENDBRANCH  66  89
ENDBRANCH  40  41
ENDBRANCH  32  35
ENDBRANCH  30  31
ENDBRANCH   1  30
TORSDOF 12
ENDMDL
MODEL 2
REMARK VINA RESULT:     -14.5      3.089      9.243
REMARK SMILES Cc1ccc(C(=O)NCCCNC(=O)c2ccc(-c3c4nc(c(-c5c(F)c(F)c(F)c(F)c5F)c5ccc([nH]5)c(-c5c(F)c(F)c(F)c(F)c5F)c5nc(c(-c6c(F)c(F)c(F)c(F)c6F)c6ccc3[nH]6)C=C5)C=C4)cc2)cc1NC(=O)c1nn(C)c(=O)c2ccccc12
REMARK SMILES IDX 10 1 9 2 8 3 6 4 7 5 5 7 1 8 2 9 3 10 79 11 4 12 78 13 80 14
REMARK SMILES IDX 81 15 82 17 83 18 84 19 94 20 85 21 89 22 93 23 86 24 87 25
REMARK SMILES IDX 90 26 92 27 88 28 91 29 11 30 12 31 13 32 14 34 15 35 16 36
REMARK SMILES IDX 77 37 17 38 76 39 18 40 19 41 20 42 70 43 21 44 75 45 69 46
REMARK SMILES IDX 71 47 22 48 74 49 68 50 67 51 23 53 55 54 35 55 54 56 36 57
REMARK SMILES IDX 39 58 53 59 72 60 37 61 38 62 52 64 73 65 40 66 24 67 25 68
REMARK SMILES IDX 33 69 26 70 27 71 31 72 34 73 28 74 29 75 32 76 30 77 56 78
REMARK SMILES IDX 57 79 65 80 58 81 59 82 63 83 66 84 60 85 61 86 64 87 62 88
REMARK SMILES IDX 41 89 42 90 50 91 43 92 44 93 48 94 51 95 45 96 46 97 49 98
REMARK SMILES IDX 47 99
REMARK H PARENT 8 6 80 16 12 33 71 52 39 63
REMARK Flexibility Score: inf
ROOT
ATOM      1  C   UNL A   1      37.724  21.511  25.758  1.00  0.00     0.042 C 
ENDROOT
BRANCH   1   2
ATOM      2  C   UNL A   1      36.860  22.760  25.704  1.00  0.00     0.118 C 
BRANCH   2   3
ATOM      3  N   UNL A   1      35.922  22.971  26.785  1.00  0.00    -0.352 N 
ATOM      4  C   UNL A   1      34.563  22.736  26.685  1.00  0.00     0.251 C 
ATOM      5  O   UNL A   1      33.803  22.966  27.615  1.00  0.00    -0.269 OA
ATOM      6  H   UNL A   1      36.273  23.301  27.643  1.00  0.00     0.163 HD
BRANCH   4   7
ATOM      7  C   UNL A   1      34.045  22.306  25.365  1.00  0.00     0.041 A 
ATOM      8  C   UNL A   1      31.787  20.928  22.006  1.00  0.00     0.046 C 
ATOM      9  C   UNL A   1      32.683  21.436  23.106  1.00  0.00    -0.027 A 
ATOM     10  C   UNL A   1      33.037  20.523  24.118  1.00  0.00     0.006 A 
ATOM     11  C   UNL A   1      33.130  22.780  23.168  1.00  0.00     0.045 A 
ATOM     12  C   UNL A   1      33.733  20.951  25.238  1.00  0.00     0.014 A 
ATOM     13  C   UNL A   1      33.778  23.222  24.330  1.00  0.00     0.040 A 
BRANCH  11  14
ATOM     14  N   UNL A   1      33.031  23.567  21.996  1.00  0.00    -0.320 N 
ATOM     15  C   UNL A   1      32.868  24.921  21.784  1.00  0.00     0.276 C 
ATOM     16  H   UNL A   1      33.091  23.043  21.165  1.00  0.00     0.170 HD
ATOM     17  O   UNL A   1      33.284  25.471  20.769  1.00  0.00    -0.267 OA
BRANCH  15  18
ATOM     18  C   UNL A   1      31.908  25.695  22.657  1.00  0.00     0.157 A 
ATOM     19  N   UNL A   1      30.715  25.184  22.786  1.00  0.00    -0.164 NA
ATOM     20  C   UNL A   1      32.264  27.010  23.272  1.00  0.00     0.020 A 
ATOM     21  N   UNL A   1      29.872  25.895  23.608  1.00  0.00    -0.232 N 
ATOM     22  C   UNL A   1      31.188  27.840  23.627  1.00  0.00     0.051 A 
ATOM     23  C   UNL A   1      33.553  27.383  23.641  1.00  0.00     0.011 A 
ATOM     24  C   UNL A   1      30.028  25.503  24.983  1.00  0.00     0.178 C 
ATOM     25  C   UNL A   1      29.832  27.283  23.468  1.00  0.00     0.274 A 
ATOM     26  C   UNL A   1      31.363  29.006  24.378  1.00  0.00     0.014 A 
ATOM     27  C   UNL A   1      33.737  28.553  24.395  1.00  0.00     0.001 A 
ATOM     28  O   UNL A   1      28.826  27.982  23.454  1.00  0.00    -0.267 OA
ATOM     29  C   UNL A   1      32.649  29.356  24.771  1.00  0.00     0.001 A 
ENDBRANCH  15  18
ENDBRANCH  11  14
ENDBRANCH   4   7
ENDBRANCH   2   3
ENDBRANCH   1   2
BRANCH   1  30
ATOM     30  C   UNL A   1      39.244  21.668  25.725  1.00  0.00     0.118 C 
BRANCH  30  31
ATOM     31  N   UNL A   1      39.833  22.229  26.940  1.00  0.00    -0.352 N 
ATOM     32  C   UNL A   1      40.507  23.439  27.146  1.00  0.00     0.251 C 
ATOM     33  H   UNL A   1      39.743  21.665  27.742  1.00  0.00     0.163 HD
ATOM     34  O   UNL A   1      41.491  23.565  27.863  1.00  0.00    -0.269 OA
BRANCH  32  35
ATOM     35  C   UNL A   1      39.735  24.660  26.864  1.00  0.00     0.039 A 
ATOM     36  C   UNL A   1      40.549  25.622  26.233  1.00  0.00     0.014 A 
ATOM     37  C   UNL A   1      38.847  24.992  27.864  1.00  0.00     0.014 A 
ATOM     38  C   UNL A   1      40.798  26.807  26.895  1.00  0.00     0.010 A 
ATOM     39  C   UNL A   1      39.190  26.103  28.593  1.00  0.00     0.010 A 
ATOM     40  C   UNL A   1      40.206  26.972  28.139  1.00  0.00    -0.014 A 
BRANCH  40  41
ATOM     41  C   UNL A   1      40.479  28.087  29.020  1.00  0.00     0.031 A 
ATOM     42  C   UNL A   1      39.501  29.194  28.973  1.00  0.00     0.074 A 
ATOM     43  C   UNL A   1      41.475  28.067  29.932  1.00  0.00     0.049 A 
ATOM     44  N   UNL A   1      39.726  30.390  29.389  1.00  0.00    -0.248 NA
ATOM     45  C   UNL A   1      38.178  29.031  28.374  1.00  0.00     0.031 C 
ATOM     46  C   UNL A   1      41.557  28.917  31.116  1.00  0.00     0.029 A 
ATOM     47  N   UNL A   1      42.699  27.373  29.914  1.00  0.00    -0.354 N 
ATOM     48  C   UNL A   1      38.513  31.040  29.416  1.00  0.00     0.074 A 
ATOM     49  C   UNL A   1      37.602  30.183  28.702  1.00  0.00     0.031 C 
ATOM     50  C   UNL A   1      42.817  28.919  31.573  1.00  0.00     0.029 A 
ATOM     51  C   UNL A   1      43.626  28.202  30.607  1.00  0.00     0.049 A 
ATOM     52  H   UNL A   1      42.877  26.495  29.507  1.00  0.00     0.167 HD
ATOM     53  C   UNL A   1      38.378  32.151  30.193  1.00  0.00     0.037 A 
ATOM     54  C   UNL A   1      44.752  28.703  30.015  1.00  0.00     0.037 A 
ATOM     55  C   UNL A   1      39.662  32.539  30.776  1.00  0.00     0.049 A 
ATOM     56  C   UNL A   1      44.806  30.212  29.962  1.00  0.00     0.074 A 
ATOM     57  C   UNL A   1      40.229  32.322  32.022  1.00  0.00     0.029 A 
ATOM     58  N   UNL A   1      40.704  32.932  29.940  1.00  0.00    -0.354 N 
ATOM     59  N   UNL A   1      43.786  30.979  30.226  1.00  0.00    -0.248 NA
ATOM     60  C   UNL A   1      45.975  30.972  29.526  1.00  0.00     0.031 C 
ATOM     61  C   UNL A   1      41.623  32.553  31.922  1.00  0.00     0.029 A 
ATOM     62  C   UNL A   1      41.909  32.913  30.618  1.00  0.00     0.049 A 
ATOM     63  H   UNL A   1      40.598  33.188  28.995  1.00  0.00     0.167 HD
ATOM     64  C   UNL A   1      44.095  32.273  29.910  1.00  0.00     0.074 A 
ATOM     65  C   UNL A   1      45.492  32.227  29.523  1.00  0.00     0.031 C 
ATOM     66  C   UNL A   1      43.152  33.259  29.944  1.00  0.00     0.037 A 
BRANCH  53  67
ATOM     67  C   UNL A   1      37.025  32.600  30.701  1.00  0.00     0.064 A 
ATOM     68  C   UNL A   1      36.193  33.413  29.907  1.00  0.00     0.173 A 
ATOM     69  C   UNL A   1      36.540  32.361  32.000  1.00  0.00     0.173 A 
ATOM     70  F   UNL A   1      36.436  33.601  28.603  1.00  0.00    -0.203 F 
ATOM     71  C   UNL A   1      35.074  34.070  30.423  1.00  0.00     0.198 A 
ATOM     72  C   UNL A   1      35.464  33.070  32.541  1.00  0.00     0.198 A 
ATOM     73  F   UNL A   1      37.055  31.391  32.766  1.00  0.00    -0.203 F 
ATOM     74  F   UNL A   1      34.333  34.848  29.622  1.00  0.00    -0.200 F 
ATOM     75  C   UNL A   1      34.741  33.942  31.755  1.00  0.00     0.200 A 
ATOM     76  F   UNL A   1      35.138  32.905  33.831  1.00  0.00    -0.200 F 
ATOM     77  F   UNL A   1      33.710  34.624  32.268  1.00  0.00    -0.200 F 
ENDBRANCH  53  67
BRANCH  54  78
ATOM     78  C   UNL A   1      45.280  27.806  28.957  1.00  0.00     0.064 A 
ATOM     79  C   UNL A   1      45.930  26.630  29.374  1.00  0.00     0.173 A 
ATOM     80  C   UNL A   1      44.715  27.834  27.677  1.00  0.00     0.173 A 
ATOM     81  F   UNL A   1      46.512  26.578  30.581  1.00  0.00    -0.203 F 
ATOM     82  C   UNL A   1      45.830  25.463  28.625  1.00  0.00     0.198 A 
ATOM     83  C   UNL A   1      44.628  26.665  26.927  1.00  0.00     0.198 A 
ATOM     84  F   UNL A   1      44.114  28.943  27.222  1.00  0.00    -0.203 F 
ATOM     85  F   UNL A   1      46.306  24.306  29.110  1.00  0.00    -0.200 F 
ATOM     86  C   UNL A   1      45.130  25.474  27.431  1.00  0.00     0.200 A 
ATOM     87  F   UNL A   1      43.957  26.664  25.766  1.00  0.00    -0.200 F 
ATOM     88  F   UNL A   1      44.876  24.322  26.799  1.00  0.00    -0.200 F 
ENDBRANCH  54  78
BRANCH  66  89
ATOM     89  C   UNL A   1      43.329  34.652  29.400  1.00  0.00     0.064 A 
ATOM     90  C   UNL A   1      43.237  34.980  28.039  1.00  0.00     0.173 A 
ATOM     91  C   UNL A   1      43.455  35.745  30.290  1.00  0.00     0.173 A 
ATOM     92  F   UNL A   1      42.999  34.042  27.111  1.00  0.00    -0.203 F 
ATOM     93  C   UNL A   1      43.330  36.301  27.592  1.00  0.00     0.198 A 
ATOM     94  C   UNL A   1      43.488  37.065  29.846  1.00  0.00     0.198 A 
ATOM     95  F   UNL A   1      43.524  35.560  31.617  1.00  0.00    -0.203 F 
ATOM     96  F   UNL A   1      43.280  36.562  26.278  1.00  0.00    -0.200 F 
ATOM     97  C   UNL A   1      43.445  37.343  28.496  1.00  0.00     0.200 A 
ATOM     98  F   UNL A   1      43.545  38.066  30.736  1.00  0.00    -0.200 F 
ATOM     99  F   UNL A   1      43.490  38.610  28.065  1.00  0.00    -0.200 F 
ENDBRANCH  66  89
ENDBRANCH  40  41
ENDBRANCH  32  35
ENDBRANCH  30  31
ENDBRANCH   1  30
TORSDOF 12
ENDMDL
MODEL 3
REMARK VINA RESULT:     -14.2      1.490      2.241
REMARK SMILES Cc1ccc(C(=O)NCCCNC(=O)c2ccc(-c3c4nc(c(-c5c(F)c(F)c(F)c(F)c5F)c5ccc([nH]5)c(-c5c(F)c(F)c(F)c(F)c5F)c5nc(c(-c6c(F)c(F)c(F)c(F)c6F)c6ccc3[nH]6)C=C5)C=C4)cc2)cc1NC(=O)c1nn(C)c(=O)c2ccccc12
REMARK SMILES IDX 10 1 9 2 8 3 6 4 7 5 5 7 1 8 2 9 3 10 79 11 4 12 78 13 80 14
REMARK SMILES IDX 81 15 82 17 83 18 84 19 94 20 85 21 89 22 93 23 86 24 87 25
REMARK SMILES IDX 90 26 92 27 88 28 91 29 11 30 12 31 13 32 14 34 15 35 16 36
REMARK SMILES IDX 77 37 17 38 76 39 18 40 19 41 20 42 70 43 21 44 75 45 69 46
REMARK SMILES IDX 71 47 22 48 74 49 68 50 67 51 23 53 55 54 35 55 54 56 36 57
REMARK SMILES IDX 39 58 53 59 72 60 37 61 38 62 52 64 73 65 40 66 24 67 25 68
REMARK SMILES IDX 33 69 26 70 27 71 31 72 34 73 28 74 29 75 32 76 30 77 56 78
REMARK SMILES IDX 57 79 65 80 58 81 59 82 63 83 66 84 60 85 61 86 64 87 62 88
REMARK SMILES IDX 41 89 42 90 50 91 43 92 44 93 48 94 51 95 45 96 46 97 49 98
REMARK SMILES IDX 47 99
REMARK H PARENT 8 6 80 16 12 33 71 52 39 63
REMARK Flexibility Score: inf
ROOT
ATOM      1  C   UNL A   1      33.064  29.718  27.064  1.00  0.00     0.042 C 
ENDROOT
BRANCH   1   2
ATOM      2  C   UNL A   1      32.790  29.369  25.610  1.00  0.00     0.118 C 
BRANCH   2   3
ATOM      3  N   UNL A   1      31.723  30.081  24.942  1.00  0.00    -0.352 N 
ATOM      4  C   UNL A   1      30.753  29.468  24.170  1.00  0.00     0.251 C 
ATOM      5  O   UNL A   1      29.891  30.115  23.591  1.00  0.00    -0.269 OA
ATOM      6  H   UNL A   1      31.686  31.059  25.043  1.00  0.00     0.163 HD
BRANCH   4   7
ATOM      7  C   UNL A   1      30.866  28.004  23.974  1.00  0.00     0.041 A 
ATOM      8  C   UNL A   1      30.327  23.836  23.188  1.00  0.00     0.046 C 
ATOM      9  C   UNL A   1      30.646  25.279  23.485  1.00  0.00    -0.027 A 
ATOM     10  C   UNL A   1      30.040  25.848  24.622  1.00  0.00     0.006 A 
ATOM     11  C   UNL A   1      31.481  26.064  22.651  1.00  0.00     0.045 A 
ATOM     12  C   UNL A   1      30.164  27.205  24.878  1.00  0.00     0.014 A 
ATOM     13  C   UNL A   1      31.552  27.446  22.877  1.00  0.00     0.040 A 
BRANCH  11  14
ATOM     14  N   UNL A   1      32.314  25.393  21.725  1.00  0.00    -0.320 N 
ATOM     15  C   UNL A   1      33.029  24.213  21.786  1.00  0.00     0.276 C 
ATOM     16  H   UNL A   1      32.400  25.861  20.863  1.00  0.00     0.170 HD
ATOM     17  O   UNL A   1      33.278  23.556  20.781  1.00  0.00    -0.267 OA
BRANCH  15  18
ATOM     18  C   UNL A   1      33.777  23.868  23.052  1.00  0.00     0.157 A 
ATOM     19  N   UNL A   1      34.420  24.850  23.622  1.00  0.00    -0.164 NA
ATOM     20  C   UNL A   1      33.852  22.473  23.585  1.00  0.00     0.020 A 
ATOM     21  N   UNL A   1      35.068  24.512  24.787  1.00  0.00    -0.232 N 
ATOM     22  C   UNL A   1      34.932  22.193  24.439  1.00  0.00     0.051 A 
ATOM     23  C   UNL A   1      32.864  21.510  23.411  1.00  0.00     0.011 A 
ATOM     24  C   UNL A   1      34.193  24.621  25.923  1.00  0.00     0.178 C 
ATOM     25  C   UNL A   1      35.801  23.325  24.812  1.00  0.00     0.274 A 
ATOM     26  C   UNL A   1      35.024  20.997  25.155  1.00  0.00     0.014 A 
ATOM     27  C   UNL A   1      32.949  20.305  24.127  1.00  0.00     0.001 A 
ATOM     28  O   UNL A   1      36.918  23.172  25.291  1.00  0.00    -0.267 OA
ATOM     29  C   UNL A   1      34.017  20.052  25.001  1.00  0.00     0.001 A 
ENDBRANCH  15  18
ENDBRANCH  11  14
ENDBRANCH   4   7
ENDBRANCH   2   3
ENDBRANCH   1   2
BRANCH   1  30
ATOM     30  C   UNL A   1      33.257  31.187  27.442  1.00  0.00     0.118 C 
BRANCH  30  31
ATOM     31  N   UNL A   1      34.648  31.597  27.632  1.00  0.00    -0.352 N 
ATOM     32  C   UNL A   1      35.572  31.240  28.622  1.00  0.00     0.251 C 
ATOM     33  H   UNL A   1      34.989  32.227  26.957  1.00  0.00     0.163 HD
ATOM     34  O   UNL A   1      36.366  32.016  29.133  1.00  0.00    -0.269 OA
BRANCH  32  35
ATOM     35  C   UNL A   1      35.902  29.808  28.704  1.00  0.00     0.039 A 
ATOM     36  C   UNL A   1      36.285  29.466  30.016  1.00  0.00     0.014 A 
ATOM     37  C   UNL A   1      36.571  29.334  27.597  1.00  0.00     0.014 A 
ATOM     38  C   UNL A   1      37.578  29.030  30.230  1.00  0.00     0.010 A 
ATOM     39  C   UNL A   1      37.893  29.031  27.808  1.00  0.00     0.010 A 
ATOM     40  C   UNL A   1      38.407  28.943  29.121  1.00  0.00    -0.014 A 
BRANCH  40  41
ATOM     41  C   UNL A   1      39.820  28.643  29.193  1.00  0.00     0.031 A 
ATOM     42  C   UNL A   1      40.195  27.248  28.883  1.00  0.00     0.074 A 
ATOM     43  C   UNL A   1      40.757  29.596  29.385  1.00  0.00     0.049 A 
ATOM     44  N   UNL A   1      41.306  26.694  29.219  1.00  0.00    -0.248 NA
ATOM     45  C   UNL A   1      39.279  26.334  28.203  1.00  0.00     0.031 C 
ATOM     46  C   UNL A   1      42.172  29.474  29.049  1.00  0.00     0.029 A 
ATOM     47  N   UNL A   1      40.663  30.830  30.056  1.00  0.00    -0.354 N 
ATOM     48  C   UNL A   1      41.384  25.502  28.536  1.00  0.00     0.074 A 
ATOM     49  C   UNL A   1      40.070  25.288  27.987  1.00  0.00     0.031 C 
ATOM     50  C   UNL A   1      42.867  30.411  29.709  1.00  0.00     0.029 A 
ATOM     51  C   UNL A   1      41.949  31.066  30.620  1.00  0.00     0.049 A 
ATOM     52  H   UNL A   1      39.871  31.410  30.121  1.00  0.00     0.167 HD
ATOM     53  C   UNL A   1      42.603  24.917  28.367  1.00  0.00     0.037 A 
ATOM     54  C   UNL A   1      42.151  31.193  31.966  1.00  0.00     0.037 A 
ATOM     55  C   UNL A   1      43.636  25.644  29.104  1.00  0.00     0.049 A 
ATOM     56  C   UNL A   1      43.067  30.147  32.558  1.00  0.00     0.074 A 
ATOM     57  C   UNL A   1      44.572  26.591  28.720  1.00  0.00     0.029 A 
ATOM     58  N   UNL A   1      43.570  25.707  30.494  1.00  0.00    -0.354 N 
ATOM     59  N   UNL A   1      43.444  29.077  31.918  1.00  0.00    -0.248 NA
ATOM     60  C   UNL A   1      43.556  30.176  33.934  1.00  0.00     0.031 C 
ATOM     61  C   UNL A   1      45.041  27.250  29.883  1.00  0.00     0.029 A 
ATOM     62  C   UNL A   1      44.397  26.704  30.978  1.00  0.00     0.049 A 
ATOM     63  H   UNL A   1      43.010  25.124  31.056  1.00  0.00     0.167 HD
ATOM     64  C   UNL A   1      44.108  28.244  32.777  1.00  0.00     0.074 A 
ATOM     65  C   UNL A   1      44.197  28.996  34.014  1.00  0.00     0.031 C 
ATOM     66  C   UNL A   1      44.476  26.984  32.405  1.00  0.00     0.037 A 
BRANCH  53  67
ATOM     67  C   UNL A   1      42.865  23.953  27.231  1.00  0.00     0.064 A 
ATOM     68  C   UNL A   1      42.528  22.590  27.353  1.00  0.00     0.173 A 
ATOM     69  C   UNL A   1      43.548  24.281  26.045  1.00  0.00     0.173 A 
ATOM     70  F   UNL A   1      41.742  22.149  28.343  1.00  0.00    -0.203 F 
ATOM     71  C   UNL A   1      42.990  21.622  26.459  1.00  0.00     0.198 A 
ATOM     72  C   UNL A   1      44.071  23.310  25.187  1.00  0.00     0.198 A 
ATOM     73  F   UNL A   1      43.678  25.554  25.649  1.00  0.00    -0.203 F 
ATOM     74  F   UNL A   1      42.653  20.337  26.641  1.00  0.00    -0.200 F 
ATOM     75  C   UNL A   1      43.808  21.975  25.406  1.00  0.00     0.200 A 
ATOM     76  F   UNL A   1      44.837  23.680  24.150  1.00  0.00    -0.200 F 
ATOM     77  F   UNL A   1      44.307  21.040  24.588  1.00  0.00    -0.200 F 
ENDBRANCH  53  67
BRANCH  54  78
ATOM     78  C   UNL A   1      40.973  31.769  32.661  1.00  0.00     0.064 A 
ATOM     79  C   UNL A   1      40.730  33.144  32.489  1.00  0.00     0.173 A 
ATOM     80  C   UNL A   1      39.896  30.943  33.003  1.00  0.00     0.173 A 
ATOM     81  F   UNL A   1      41.744  33.972  32.194  1.00  0.00    -0.203 F 
ATOM     82  C   UNL A   1      39.430  33.634  32.450  1.00  0.00     0.198 A 
ATOM     83  C   UNL A   1      38.597  31.441  32.973  1.00  0.00     0.198 A 
ATOM     84  F   UNL A   1      40.083  29.632  33.211  1.00  0.00    -0.203 F 
ATOM     85  F   UNL A   1      39.199  34.912  32.116  1.00  0.00    -0.200 F 
ATOM     86  C   UNL A   1      38.367  32.767  32.636  1.00  0.00     0.200 A 
ATOM     87  F   UNL A   1      37.559  30.613  33.158  1.00  0.00    -0.200 F 
ATOM     88  F   UNL A   1      37.116  33.193  32.421  1.00  0.00    -0.200 F 
ENDBRANCH  54  78
BRANCH  66  89
ATOM     89  C   UNL A   1      44.998  25.918  33.332  1.00  0.00     0.064 A 
ATOM     90  C   UNL A   1      44.187  25.167  34.197  1.00  0.00     0.173 A 
ATOM     91  C   UNL A   1      46.353  25.522  33.259  1.00  0.00     0.173 A 
ATOM     92  F   UNL A   1      42.865  25.372  34.266  1.00  0.00    -0.203 F 
ATOM     93  C   UNL A   1      44.707  24.135  34.982  1.00  0.00     0.198 A 
ATOM     94  C   UNL A   1      46.857  24.454  33.999  1.00  0.00     0.198 A 
ATOM     95  F   UNL A   1      47.220  26.146  32.446  1.00  0.00    -0.203 F 
ATOM     96  F   UNL A   1      43.904  23.473  35.826  1.00  0.00    -0.200 F 
ATOM     97  C   UNL A   1      46.039  23.772  34.874  1.00  0.00     0.200 A 
ATOM     98  F   UNL A   1      48.135  24.079  33.843  1.00  0.00    -0.200 F 
ATOM     99  F   UNL A   1      46.523  22.753  35.597  1.00  0.00    -0.200 F 
ENDBRANCH  66  89
ENDBRANCH  40  41
ENDBRANCH  32  35
ENDBRANCH  30  31
ENDBRANCH   1  30
TORSDOF 12
ENDMDL
