MODEL 1
REMARK VINA RESULT:     -13.1      0.000      0.000
REMARK SMILES O=C(NCCCNC(=O)[C@H]1CC[C@@H]2CCCC[C@H]2N1C(=O)N1CCSCC1)c1ccc(-c2c3nc(c(-c4c(F)c(F)c(F)c(F)c4F)c4ccc([nH]4)c(-c4c(F)c(F)c(F)c(F)c4F)c4nc(c(-c5c(F)c(F)c(F)c(F)c5F)c5ccc2[nH]5)C=C4)C=C3)cc1
REMARK SMILES IDX 4 1 3 2 1 3 2 4 28 6 29 7 90 8 30 9 89 10 31 11 32 12 33 13
REMARK SMILES IDX 83 14 34 15 88 16 82 17 84 18 35 19 87 20 81 21 80 22 36 24
REMARK SMILES IDX 68 25 48 26 67 27 49 28 52 29 66 30 85 31 50 32 51 33 65 35
REMARK SMILES IDX 86 36 53 37 37 38 38 39 46 40 39 41 40 42 44 43 47 44 41 45
REMARK SMILES IDX 42 46 45 47 43 48 69 49 70 50 78 51 71 52 72 53 76 54 79 55
REMARK SMILES IDX 73 56 74 57 77 58 75 59 54 60 55 61 63 62 56 63 57 64 61 65
REMARK SMILES IDX 64 66 58 67 59 68 62 69 60 70 5 71 6 72 7 73 8 74 9 76 10 77
REMARK SMILES IDX 11 78 19 79 12 80 18 81 13 82 17 83 14 84 16 85 15 86 20 87
REMARK SMILES IDX 21 88 22 89 23 90 27 91 24 92 26 93 25 94
REMARK H PARENT 3 5 84 23 52 34 7 75
REMARK Flexibility Score: inf
ROOT
ATOM      1  C   UNL A   1      32.735  29.803  26.164  1.00  0.00     0.118 C 
ENDROOT
BRANCH   1   2
ATOM      2  N   UNL A   1      32.513  31.216  26.433  1.00  0.00    -0.352 N 
ATOM      3  O   UNL A   1      32.722  33.220  27.431  1.00  0.00    -0.269 OA
ATOM      4  C   UNL A   1      33.181  32.094  27.251  1.00  0.00     0.251 C 
ATOM      5  H   UNL A   1      31.753  31.611  25.946  1.00  0.00     0.163 HD
BRANCH   4   6
ATOM      6  C   UNL A   1      34.430  31.695  27.936  1.00  0.00     0.039 A 
ATOM      7  C   UNL A   1      34.595  30.406  28.439  1.00  0.00     0.014 A 
ATOM      8  C   UNL A   1      35.474  32.620  28.044  1.00  0.00     0.014 A 
ATOM      9  C   UNL A   1      35.720  30.096  29.195  1.00  0.00     0.010 A 
ATOM     10  C   UNL A   1      36.653  32.274  28.714  1.00  0.00     0.010 A 
ATOM     11  C   UNL A   1      36.771  31.020  29.328  1.00  0.00    -0.014 A 
BRANCH  11  12
ATOM     12  C   UNL A   1      37.996  30.602  30.058  1.00  0.00     0.031 A 
ATOM     13  C   UNL A   1      38.242  31.016  31.482  1.00  0.00     0.074 A 
ATOM     14  C   UNL A   1      38.860  29.777  29.436  1.00  0.00     0.049 A 
ATOM     15  N   UNL A   1      39.213  30.656  32.287  1.00  0.00    -0.248 NA
ATOM     16  C   UNL A   1      37.287  31.958  32.083  1.00  0.00     0.031 C 
ATOM     17  C   UNL A   1      38.743  29.335  28.044  1.00  0.00     0.029 A 
ATOM     18  N   UNL A   1      39.982  29.135  29.893  1.00  0.00    -0.354 N 
ATOM     19  C   UNL A   1      38.988  31.327  33.482  1.00  0.00     0.074 A 
ATOM     20  C   UNL A   1      37.811  32.147  33.288  1.00  0.00     0.031 C 
ATOM     21  C   UNL A   1      39.712  28.449  27.779  1.00  0.00     0.029 A 
ATOM     22  C   UNL A   1      40.554  28.303  28.961  1.00  0.00     0.049 A 
ATOM     23  H   UNL A   1      40.343  29.258  30.801  1.00  0.00     0.167 HD
ATOM     24  C   UNL A   1      39.692  31.253  34.638  1.00  0.00     0.037 A 
ATOM     25  C   UNL A   1      41.640  27.513  29.044  1.00  0.00     0.037 A 
ATOM     26  C   UNL A   1      40.862  30.433  34.827  1.00  0.00     0.049 A 
ATOM     27  C   UNL A   1      42.396  27.450  30.340  1.00  0.00     0.074 A 
ATOM     28  C   UNL A   1      41.639  30.285  35.964  1.00  0.00     0.029 A 
ATOM     29  N   UNL A   1      41.424  29.619  33.854  1.00  0.00    -0.354 N 
ATOM     30  N   UNL A   1      42.151  28.068  31.469  1.00  0.00    -0.248 NA
ATOM     31  C   UNL A   1      43.577  26.578  30.372  1.00  0.00     0.031 C 
ATOM     32  C   UNL A   1      42.691  29.412  35.668  1.00  0.00     0.029 A 
ATOM     33  C   UNL A   1      42.544  28.978  34.360  1.00  0.00     0.049 A 
ATOM     34  H   UNL A   1      41.078  29.514  32.938  1.00  0.00     0.167 HD
ATOM     35  C   UNL A   1      43.144  27.659  32.347  1.00  0.00     0.074 A 
ATOM     36  C   UNL A   1      43.970  26.709  31.630  1.00  0.00     0.031 C 
ATOM     37  C   UNL A   1      43.361  28.045  33.629  1.00  0.00     0.037 A 
BRANCH  24  38
ATOM     38  C   UNL A   1      39.220  32.084  35.798  1.00  0.00     0.064 A 
ATOM     39  C   UNL A   1      38.310  31.579  36.738  1.00  0.00     0.173 A 
ATOM     40  C   UNL A   1      39.736  33.372  36.011  1.00  0.00     0.173 A 
ATOM     41  F   UNL A   1      37.778  30.358  36.575  1.00  0.00    -0.203 F 
ATOM     42  C   UNL A   1      37.920  32.338  37.839  1.00  0.00     0.198 A 
ATOM     43  C   UNL A   1      39.363  34.119  37.127  1.00  0.00     0.198 A 
ATOM     44  F   UNL A   1      40.614  33.900  35.146  1.00  0.00    -0.203 F 
ATOM     45  F   UNL A   1      37.022  31.848  38.705  1.00  0.00    -0.200 F 
ATOM     46  C   UNL A   1      38.453  33.603  38.037  1.00  0.00     0.200 A 
ATOM     47  F   UNL A   1      39.889  35.335  37.323  1.00  0.00    -0.200 F 
ATOM     48  F   UNL A   1      38.087  34.327  39.103  1.00  0.00    -0.200 F 
ENDBRANCH  24  38
BRANCH  25  49
ATOM     49  C   UNL A   1      42.074  26.727  27.859  1.00  0.00     0.064 A 
ATOM     50  C   UNL A   1      43.043  27.218  26.975  1.00  0.00     0.173 A 
ATOM     51  C   UNL A   1      41.526  25.463  27.593  1.00  0.00     0.173 A 
ATOM     52  F   UNL A   1      43.583  28.430  27.178  1.00  0.00    -0.203 F 
ATOM     53  C   UNL A   1      43.434  26.485  25.857  1.00  0.00     0.198 A 
ATOM     54  C   UNL A   1      41.942  24.716  26.494  1.00  0.00     0.198 A 
ATOM     55  F   UNL A   1      40.601  24.946  28.413  1.00  0.00    -0.203 F 
ATOM     56  F   UNL A   1      44.326  26.998  25.000  1.00  0.00    -0.200 F 
ATOM     57  C   UNL A   1      42.889  25.231  25.622  1.00  0.00     0.200 A 
ATOM     58  F   UNL A   1      41.426  23.498  26.282  1.00  0.00    -0.200 F 
ATOM     59  F   UNL A   1      43.269  24.523  24.550  1.00  0.00    -0.200 F 
ENDBRANCH  25  49
BRANCH  37  60
ATOM     60  C   UNL A   1      44.536  27.429  34.329  1.00  0.00     0.064 A 
ATOM     61  C   UNL A   1      44.411  26.239  35.061  1.00  0.00     0.173 A 
ATOM     62  C   UNL A   1      45.800  28.036  34.270  1.00  0.00     0.173 A 
ATOM     63  F   UNL A   1      43.220  25.631  35.162  1.00  0.00    -0.203 F 
ATOM     64  C   UNL A   1      45.500  25.698  35.739  1.00  0.00     0.198 A 
ATOM     65  C   UNL A   1      46.893  27.476  34.924  1.00  0.00     0.198 A 
ATOM     66  F   UNL A   1      45.973  29.172  33.579  1.00  0.00    -0.203 F 
ATOM     67  F   UNL A   1      45.343  24.594  36.482  1.00  0.00    -0.200 F 
ATOM     68  C   UNL A   1      46.741  26.314  35.667  1.00  0.00     0.200 A 
ATOM     69  F   UNL A   1      48.094  28.067  34.845  1.00  0.00    -0.200 F 
ATOM     70  F   UNL A   1      47.787  25.795  36.324  1.00  0.00    -0.200 F 
ENDBRANCH  37  60
ENDBRANCH  11  12
ENDBRANCH   4   6
ENDBRANCH   1   2
BRANCH   1  71
ATOM     71  C   UNL A   1      31.778  28.883  26.917  1.00  0.00     0.042 C 
BRANCH  71  72
ATOM     72  C   UNL A   1      32.295  27.461  27.094  1.00  0.00     0.117 C 
BRANCH  72  73
ATOM     73  N   UNL A   1      31.266  26.455  26.877  1.00  0.00    -0.354 N 
ATOM     74  C   UNL A   1      31.360  25.145  26.478  1.00  0.00     0.242 C 
ATOM     75  H   UNL A   1      30.347  26.767  27.043  1.00  0.00     0.163 HD
ATOM     76  O   UNL A   1      30.325  24.479  26.510  1.00  0.00    -0.273 OA
BRANCH  74  77
ATOM     77  C   UNL A   1      32.746  24.553  26.128  1.00  0.00     0.176 C 
ATOM     78  C   UNL A   1      32.777  23.280  27.001  1.00  0.00     0.036 C 
ATOM     79  N   UNL A   1      33.227  24.224  24.754  1.00  0.00    -0.309 N 
ATOM     80  C   UNL A   1      34.152  22.650  27.043  1.00  0.00     0.008 C 
ATOM     81  C   UNL A   1      34.610  23.633  24.746  1.00  0.00     0.091 C 
ATOM     82  C   UNL A   1      34.646  22.355  25.628  1.00  0.00     0.012 C 
ATOM     83  C   UNL A   1      35.265  23.331  23.380  1.00  0.00     0.025 C 
ATOM     84  C   UNL A   1      36.044  21.728  25.718  1.00  0.00     0.006 C 
ATOM     85  C   UNL A   1      36.653  22.703  23.503  1.00  0.00     0.002 C 
ATOM     86  C   UNL A   1      36.626  21.439  24.345  1.00  0.00     0.000 C 
BRANCH  79  87
ATOM     87  C   UNL A   1      32.643  24.688  23.579  1.00  0.00     0.321 C 
ATOM     88  O   UNL A   1      32.253  23.974  22.657  1.00  0.00    -0.248 OA
ATOM     89  N   UNL A   1      32.403  26.047  23.493  1.00  0.00    -0.323 N 
ATOM     90  C   UNL A   1      30.981  26.381  23.353  1.00  0.00     0.132 C 
ATOM     91  C   UNL A   1      33.284  26.795  22.600  1.00  0.00     0.132 C 
ATOM     92  C   UNL A   1      30.642  27.846  23.613  1.00  0.00     0.091 C 
ATOM     93  C   UNL A   1      33.194  28.315  22.752  1.00  0.00     0.091 C 
ATOM     94  S   UNL A   1      31.517  28.953  22.457  1.00  0.00    -0.158 SA
ENDBRANCH  79  87
ENDBRANCH  74  77
ENDBRANCH  72  73
ENDBRANCH  71  72
ENDBRANCH   1  71
TORSDOF 11
ENDMDL
MODEL 2
REMARK VINA RESULT:     -13.1      0.085      1.586
REMARK SMILES O=C(NCCCNC(=O)[C@H]1CC[C@@H]2CCCC[C@H]2N1C(=O)N1CCSCC1)c1ccc(-c2c3nc(c(-c4c(F)c(F)c(F)c(F)c4F)c4ccc([nH]4)c(-c4c(F)c(F)c(F)c(F)c4F)c4nc(c(-c5c(F)c(F)c(F)c(F)c5F)c5ccc2[nH]5)C=C4)C=C3)cc1
REMARK SMILES IDX 4 1 3 2 1 3 2 4 28 6 29 7 90 8 30 9 89 10 31 11 32 12 33 13
REMARK SMILES IDX 83 14 34 15 88 16 82 17 84 18 35 19 87 20 81 21 80 22 36 24
REMARK SMILES IDX 68 25 48 26 67 27 49 28 52 29 66 30 85 31 50 32 51 33 65 35
REMARK SMILES IDX 86 36 53 37 37 38 38 39 46 40 39 41 40 42 44 43 47 44 41 45
REMARK SMILES IDX 42 46 45 47 43 48 69 49 70 50 78 51 71 52 72 53 76 54 79 55
REMARK SMILES IDX 73 56 74 57 77 58 75 59 54 60 55 61 63 62 56 63 57 64 61 65
REMARK SMILES IDX 64 66 58 67 59 68 62 69 60 70 5 71 6 72 7 73 8 74 9 76 10 77
REMARK SMILES IDX 11 78 19 79 12 80 18 81 13 82 17 83 14 84 16 85 15 86 20 87
REMARK SMILES IDX 21 88 22 89 23 90 27 91 24 92 26 93 25 94
REMARK H PARENT 3 5 84 23 52 34 7 75
REMARK Flexibility Score: inf
ROOT
ATOM      1  C   UNL A   1      32.815  29.784  26.169  1.00  0.00     0.118 C 
ENDROOT
BRANCH   1   2
ATOM      2  N   UNL A   1      32.593  31.199  26.435  1.00  0.00    -0.352 N 
ATOM      3  O   UNL A   1      32.802  33.204  27.429  1.00  0.00    -0.269 OA
ATOM      4  C   UNL A   1      33.261  32.078  27.251  1.00  0.00     0.251 C 
ATOM      5  H   UNL A   1      31.833  31.592  25.948  1.00  0.00     0.163 HD
BRANCH   4   6
ATOM      6  C   UNL A   1      34.510  31.680  27.937  1.00  0.00     0.039 A 
ATOM      7  C   UNL A   1      34.681  30.388  28.429  1.00  0.00     0.014 A 
ATOM      8  C   UNL A   1      35.548  32.611  28.056  1.00  0.00     0.014 A 
ATOM      9  C   UNL A   1      35.805  30.078  29.185  1.00  0.00     0.010 A 
ATOM     10  C   UNL A   1      36.727  32.266  28.728  1.00  0.00     0.010 A 
ATOM     11  C   UNL A   1      36.850  31.006  29.330  1.00  0.00    -0.014 A 
BRANCH  11  12
ATOM     12  C   UNL A   1      38.075  30.589  30.061  1.00  0.00     0.031 A 
ATOM     13  C   UNL A   1      38.320  31.003  31.486  1.00  0.00     0.074 A 
ATOM     14  C   UNL A   1      38.941  29.766  29.439  1.00  0.00     0.049 A 
ATOM     15  N   UNL A   1      39.291  30.643  32.291  1.00  0.00    -0.248 NA
ATOM     16  C   UNL A   1      37.364  31.943  32.086  1.00  0.00     0.031 C 
ATOM     17  C   UNL A   1      38.825  29.325  28.046  1.00  0.00     0.029 A 
ATOM     18  N   UNL A   1      40.063  29.124  29.896  1.00  0.00    -0.354 N 
ATOM     19  C   UNL A   1      39.065  31.313  33.486  1.00  0.00     0.074 A 
ATOM     20  C   UNL A   1      37.887  32.132  33.292  1.00  0.00     0.031 C 
ATOM     21  C   UNL A   1      39.795  28.440  27.782  1.00  0.00     0.029 A 
ATOM     22  C   UNL A   1      40.636  28.294  28.964  1.00  0.00     0.049 A 
ATOM     23  H   UNL A   1      40.423  29.247  30.804  1.00  0.00     0.167 HD
ATOM     24  C   UNL A   1      39.768  31.239  34.642  1.00  0.00     0.037 A 
ATOM     25  C   UNL A   1      41.723  27.505  29.046  1.00  0.00     0.037 A 
ATOM     26  C   UNL A   1      40.939  30.420  34.832  1.00  0.00     0.049 A 
ATOM     27  C   UNL A   1      42.478  27.442  30.343  1.00  0.00     0.074 A 
ATOM     28  C   UNL A   1      41.716  30.272  35.969  1.00  0.00     0.029 A 
ATOM     29  N   UNL A   1      41.503  29.608  33.859  1.00  0.00    -0.354 N 
ATOM     30  N   UNL A   1      42.233  28.059  31.473  1.00  0.00    -0.248 NA
ATOM     31  C   UNL A   1      43.660  26.571  30.375  1.00  0.00     0.031 C 
ATOM     32  C   UNL A   1      42.769  29.400  35.672  1.00  0.00     0.029 A 
ATOM     33  C   UNL A   1      42.623  28.967  34.365  1.00  0.00     0.049 A 
ATOM     34  H   UNL A   1      41.157  29.502  32.942  1.00  0.00     0.167 HD
ATOM     35  C   UNL A   1      43.225  27.651  32.351  1.00  0.00     0.074 A 
ATOM     36  C   UNL A   1      44.053  26.702  31.634  1.00  0.00     0.031 C 
ATOM     37  C   UNL A   1      43.441  28.035  33.633  1.00  0.00     0.037 A 
BRANCH  24  38
ATOM     38  C   UNL A   1      39.295  32.069  35.803  1.00  0.00     0.064 A 
ATOM     39  C   UNL A   1      38.349  31.579  36.715  1.00  0.00     0.173 A 
ATOM     40  C   UNL A   1      39.843  33.338  36.045  1.00  0.00     0.173 A 
ATOM     41  F   UNL A   1      37.785  30.376  36.523  1.00  0.00    -0.203 F 
ATOM     42  C   UNL A   1      37.956  32.335  37.817  1.00  0.00     0.198 A 
ATOM     43  C   UNL A   1      39.467  34.081  37.162  1.00  0.00     0.198 A 
ATOM     44  F   UNL A   1      40.756  33.851  35.207  1.00  0.00    -0.203 F 
ATOM     45  F   UNL A   1      37.025  31.861  38.656  1.00  0.00    -0.200 F 
ATOM     46  C   UNL A   1      38.522  33.581  38.045  1.00  0.00     0.200 A 
ATOM     47  F   UNL A   1      40.025  35.278  37.387  1.00  0.00    -0.200 F 
ATOM     48  F   UNL A   1      38.153  34.301  39.112  1.00  0.00    -0.200 F 
ENDBRANCH  24  38
BRANCH  25  49
ATOM     49  C   UNL A   1      42.158  26.720  27.862  1.00  0.00     0.064 A 
ATOM     50  C   UNL A   1      41.625  25.453  27.592  1.00  0.00     0.173 A 
ATOM     51  C   UNL A   1      43.116  27.230  26.972  1.00  0.00     0.173 A 
ATOM     52  F   UNL A   1      40.720  24.916  28.424  1.00  0.00    -0.203 F 
ATOM     53  C   UNL A   1      42.050  24.714  26.489  1.00  0.00     0.198 A 
ATOM     54  C   UNL A   1      43.514  26.505  25.852  1.00  0.00     0.198 A 
ATOM     55  F   UNL A   1      43.651  28.441  27.182  1.00  0.00    -0.203 F 
ATOM     56  F   UNL A   1      41.561  23.485  26.281  1.00  0.00    -0.200 F 
ATOM     57  C   UNL A   1      42.988  25.245  25.616  1.00  0.00     0.200 A 
ATOM     58  F   UNL A   1      44.407  27.030  25.001  1.00  0.00    -0.200 F 
ATOM     59  F   UNL A   1      43.391  24.537  24.552  1.00  0.00    -0.200 F 
ENDBRANCH  25  49
BRANCH  37  60
ATOM     60  C   UNL A   1      44.617  27.421  34.333  1.00  0.00     0.064 A 
ATOM     61  C   UNL A   1      45.877  28.037  34.325  1.00  0.00     0.173 A 
ATOM     62  C   UNL A   1      44.483  26.204  35.018  1.00  0.00     0.173 A 
ATOM     63  F   UNL A   1      46.059  29.193  33.669  1.00  0.00    -0.203 F 
ATOM     64  C   UNL A   1      46.970  27.438  34.946  1.00  0.00     0.198 A 
ATOM     65  C   UNL A   1      45.571  25.623  35.663  1.00  0.00     0.198 A 
ATOM     66  F   UNL A   1      43.298  25.577  35.059  1.00  0.00    -0.203 F 
ATOM     67  F   UNL A   1      48.178  28.014  34.873  1.00  0.00    -0.200 F 
ATOM     68  C   UNL A   1      46.816  26.234  35.617  1.00  0.00     0.200 A 
ATOM     69  F   UNL A   1      45.418  24.465  36.320  1.00  0.00    -0.200 F 
ATOM     70  F   UNL A   1      47.869  25.657  36.210  1.00  0.00    -0.200 F 
ENDBRANCH  37  60
ENDBRANCH  11  12
ENDBRANCH   4   6
ENDBRANCH   1   2
BRANCH   1  71
ATOM     71  C   UNL A   1      31.778  28.873  26.820  1.00  0.00     0.042 C 
BRANCH  71  72
ATOM     72  C   UNL A   1      32.277  27.460  27.090  1.00  0.00     0.117 C 
BRANCH  72  73
ATOM     73  N   UNL A   1      31.253  26.449  26.876  1.00  0.00    -0.354 N 
ATOM     74  C   UNL A   1      31.353  25.138  26.480  1.00  0.00     0.242 C 
ATOM     75  H   UNL A   1      30.333  26.757  27.043  1.00  0.00     0.163 HD
ATOM     76  O   UNL A   1      30.320  24.467  26.514  1.00  0.00    -0.273 OA
BRANCH  74  77
ATOM     77  C   UNL A   1      32.741  24.551  26.130  1.00  0.00     0.176 C 
ATOM     78  C   UNL A   1      32.779  23.282  27.007  1.00  0.00     0.036 C 
ATOM     79  N   UNL A   1      33.221  24.220  24.756  1.00  0.00    -0.309 N 
ATOM     80  C   UNL A   1      34.158  22.659  27.049  1.00  0.00     0.008 C 
ATOM     81  C   UNL A   1      34.608  23.636  24.749  1.00  0.00     0.091 C 
ATOM     82  C   UNL A   1      34.651  22.361  25.634  1.00  0.00     0.012 C 
ATOM     83  C   UNL A   1      35.262  23.333  23.382  1.00  0.00     0.025 C 
ATOM     84  C   UNL A   1      36.053  21.741  25.725  1.00  0.00     0.006 C 
ATOM     85  C   UNL A   1      36.654  22.713  23.506  1.00  0.00     0.002 C 
ATOM     86  C   UNL A   1      36.634  21.451  24.352  1.00  0.00     0.000 C 
BRANCH  79  87
ATOM     87  C   UNL A   1      32.634  24.678  23.581  1.00  0.00     0.321 C 
ATOM     88  O   UNL A   1      32.237  23.959  22.666  1.00  0.00    -0.248 OA
ATOM     89  N   UNL A   1      32.399  26.038  23.486  1.00  0.00    -0.323 N 
ATOM     90  C   UNL A   1      30.977  26.376  23.350  1.00  0.00     0.132 C 
ATOM     91  C   UNL A   1      33.278  26.776  22.584  1.00  0.00     0.132 C 
ATOM     92  C   UNL A   1      30.645  27.844  23.600  1.00  0.00     0.091 C 
ATOM     93  C   UNL A   1      33.195  28.297  22.724  1.00  0.00     0.091 C 
ATOM     94  S   UNL A   1      31.519  28.939  22.433  1.00  0.00    -0.158 SA
ENDBRANCH  79  87
ENDBRANCH  74  77
ENDBRANCH  72  73
ENDBRANCH  71  72
ENDBRANCH   1  71
TORSDOF 11
ENDMDL
MODEL 3
REMARK VINA RESULT:     -12.4      4.313      9.759
REMARK SMILES O=C(NCCCNC(=O)[C@H]1CC[C@@H]2CCCC[C@H]2N1C(=O)N1CCSCC1)c1ccc(-c2c3nc(c(-c4c(F)c(F)c(F)c(F)c4F)c4ccc([nH]4)c(-c4c(F)c(F)c(F)c(F)c4F)c4nc(c(-c5c(F)c(F)c(F)c(F)c5F)c5ccc2[nH]5)C=C4)C=C3)cc1
REMARK SMILES IDX 4 1 3 2 1 3 2 4 28 6 29 7 90 8 30 9 89 10 31 11 32 12 33 13
REMARK SMILES IDX 83 14 34 15 88 16 82 17 84 18 35 19 87 20 81 21 80 22 36 24
REMARK SMILES IDX 68 25 48 26 67 27 49 28 52 29 66 30 85 31 50 32 51 33 65 35
REMARK SMILES IDX 86 36 53 37 37 38 38 39 46 40 39 41 40 42 44 43 47 44 41 45
REMARK SMILES IDX 42 46 45 47 43 48 69 49 70 50 78 51 71 52 72 53 76 54 79 55
REMARK SMILES IDX 73 56 74 57 77 58 75 59 54 60 55 61 63 62 56 63 57 64 61 65
REMARK SMILES IDX 64 66 58 67 59 68 62 69 60 70 5 71 6 72 7 73 8 74 9 76 10 77
REMARK SMILES IDX 11 78 19 79 12 80 18 81 13 82 17 83 14 84 16 85 15 86 20 87
REMARK SMILES IDX 21 88 22 89 23 90 27 91 24 92 26 93 25 94
REMARK H PARENT 3 5 84 23 52 34 7 75
REMARK Flexibility Score: inf
ROOT
ATOM      1  C   UNL A   1      36.953  22.074  25.696  1.00  0.00     0.118 C 
ENDROOT
BRANCH   1   2
ATOM      2  N   UNL A   1      37.955  21.029  25.853  1.00  0.00    -0.352 N 
ATOM      3  O   UNL A   1      39.978  20.087  26.126  1.00  0.00    -0.269 OA
ATOM      4  C   UNL A   1      39.283  21.098  26.196  1.00  0.00     0.251 C 
ATOM      5  H   UNL A   1      37.625  20.117  25.683  1.00  0.00     0.163 HD
BRANCH   4   6
ATOM      6  C   UNL A   1      39.893  22.376  26.624  1.00  0.00     0.039 A 
ATOM      7  C   UNL A   1      39.473  23.590  26.084  1.00  0.00     0.014 A 
ATOM      8  C   UNL A   1      40.880  22.362  27.615  1.00  0.00     0.014 A 
ATOM      9  C   UNL A   1      40.151  24.761  26.402  1.00  0.00     0.010 A 
ATOM     10  C   UNL A   1      41.492  23.557  28.014  1.00  0.00     0.010 A 
ATOM     11  C   UNL A   1      41.158  24.763  27.383  1.00  0.00    -0.014 A 
BRANCH  11  12
ATOM     12  C   UNL A   1      41.780  26.059  27.761  1.00  0.00     0.031 A 
ATOM     13  C   UNL A   1      43.173  26.419  27.323  1.00  0.00     0.074 A 
ATOM     14  C   UNL A   1      41.039  26.945  28.453  1.00  0.00     0.049 A 
ATOM     15  N   UNL A   1      43.820  27.547  27.489  1.00  0.00    -0.248 NA
ATOM     16  C   UNL A   1      43.944  25.387  26.617  1.00  0.00     0.031 C 
ATOM     17  C   UNL A   1      39.687  26.694  28.961  1.00  0.00     0.029 A 
ATOM     18  N   UNL A   1      41.293  28.241  28.819  1.00  0.00    -0.354 N 
ATOM     19  C   UNL A   1      45.070  27.359  26.914  1.00  0.00     0.074 A 
ATOM     20  C   UNL A   1      45.107  25.997  26.427  1.00  0.00     0.031 C 
ATOM     21  C   UNL A   1      39.208  27.815  29.515  1.00  0.00     0.029 A 
ATOM     22  C   UNL A   1      40.237  28.847  29.456  1.00  0.00     0.049 A 
ATOM     23  H   UNL A   1      42.149  28.695  28.644  1.00  0.00     0.167 HD
ATOM     24  C   UNL A   1      46.086  28.248  26.791  1.00  0.00     0.037 A 
ATOM     25  C   UNL A   1      40.109  30.094  29.945  1.00  0.00     0.037 A 
ATOM     26  C   UNL A   1      46.043  29.605  27.275  1.00  0.00     0.049 A 
ATOM     27  C   UNL A   1      41.251  31.056  29.790  1.00  0.00     0.074 A 
ATOM     28  C   UNL A   1      47.019  30.584  27.191  1.00  0.00     0.029 A 
ATOM     29  N   UNL A   1      44.964  30.177  27.933  1.00  0.00    -0.354 N 
ATOM     30  N   UNL A   1      42.415  30.871  29.216  1.00  0.00    -0.248 NA
ATOM     31  C   UNL A   1      41.061  32.401  30.348  1.00  0.00     0.031 C 
ATOM     32  C   UNL A   1      46.545  31.735  27.831  1.00  0.00     0.029 A 
ATOM     33  C   UNL A   1      45.255  31.490  28.272  1.00  0.00     0.049 A 
ATOM     34  H   UNL A   1      44.116  29.718  28.131  1.00  0.00     0.167 HD
ATOM     35  C   UNL A   1      43.094  32.073  29.341  1.00  0.00     0.074 A 
ATOM     36  C   UNL A   1      42.197  32.993  30.009  1.00  0.00     0.031 C 
ATOM     37  C   UNL A   1      44.354  32.386  28.948  1.00  0.00     0.037 A 
BRANCH  24  38
ATOM     38  C   UNL A   1      47.341  27.785  26.106  1.00  0.00     0.064 A 
ATOM     39  C   UNL A   1      48.437  27.301  26.836  1.00  0.00     0.173 A 
ATOM     40  C   UNL A   1      47.423  27.761  24.705  1.00  0.00     0.173 A 
ATOM     41  F   UNL A   1      48.414  27.312  28.177  1.00  0.00    -0.203 F 
ATOM     42  C   UNL A   1      49.575  26.825  26.189  1.00  0.00     0.198 A 
ATOM     43  C   UNL A   1      48.553  27.261  24.062  1.00  0.00     0.198 A 
ATOM     44  F   UNL A   1      46.402  28.208  23.960  1.00  0.00    -0.203 F 
ATOM     45  F   UNL A   1      50.623  26.400  26.907  1.00  0.00    -0.200 F 
ATOM     46  C   UNL A   1      49.629  26.797  24.803  1.00  0.00     0.200 A 
ATOM     47  F   UNL A   1      48.598  27.224  22.723  1.00  0.00    -0.200 F 
ATOM     48  F   UNL A   1      50.720  26.328  24.183  1.00  0.00    -0.200 F 
ENDBRANCH  24  38
BRANCH  25  49
ATOM     49  C   UNL A   1      38.853  30.493  30.631  1.00  0.00     0.064 A 
ATOM     50  C   UNL A   1      38.723  30.401  32.023  1.00  0.00     0.173 A 
ATOM     51  C   UNL A   1      37.757  30.981  29.903  1.00  0.00     0.173 A 
ATOM     52  F   UNL A   1      39.736  29.923  32.761  1.00  0.00    -0.203 F 
ATOM     53  C   UNL A   1      37.536  30.760  32.660  1.00  0.00     0.198 A 
ATOM     54  C   UNL A   1      36.584  31.372  30.544  1.00  0.00     0.198 A 
ATOM     55  F   UNL A   1      37.834  31.096  28.570  1.00  0.00    -0.203 F 
ATOM     56  F   UNL A   1      37.420  30.616  33.986  1.00  0.00    -0.200 F 
ATOM     57  C   UNL A   1      36.472  31.253  31.920  1.00  0.00     0.200 A 
ATOM     58  F   UNL A   1      35.565  31.865  29.826  1.00  0.00    -0.200 F 
ATOM     59  F   UNL A   1      35.333  31.605  32.533  1.00  0.00    -0.200 F 
ENDBRANCH  25  49
BRANCH  37  60
ATOM     60  C   UNL A   1      44.823  33.782  29.233  1.00  0.00     0.064 A 
ATOM     61  C   UNL A   1      45.499  34.099  30.421  1.00  0.00     0.173 A 
ATOM     62  C   UNL A   1      44.592  34.814  28.312  1.00  0.00     0.173 A 
ATOM     63  F   UNL A   1      45.729  33.150  31.340  1.00  0.00    -0.203 F 
ATOM     64  C   UNL A   1      45.896  35.406  30.691  1.00  0.00     0.198 A 
ATOM     65  C   UNL A   1      45.016  36.114  28.573  1.00  0.00     0.198 A 
ATOM     66  F   UNL A   1      43.953  34.562  27.160  1.00  0.00    -0.203 F 
ATOM     67  F   UNL A   1      46.487  35.697  31.858  1.00  0.00    -0.200 F 
ATOM     68  C   UNL A   1      45.657  36.412  29.766  1.00  0.00     0.200 A 
ATOM     69  F   UNL A   1      44.794  37.083  27.673  1.00  0.00    -0.200 F 
ATOM     70  F   UNL A   1      46.035  37.669  30.030  1.00  0.00    -0.200 F 
ENDBRANCH  37  60
ENDBRANCH  11  12
ENDBRANCH   4   6
ENDBRANCH   1   2
BRANCH   1  71
ATOM     71  C   UNL A   1      36.482  22.254  24.256  1.00  0.00     0.042 C 
BRANCH  71  72
ATOM     72  C   UNL A   1      36.049  23.674  23.918  1.00  0.00     0.117 C 
BRANCH  72  73
ATOM     73  N   UNL A   1      34.971  23.719  22.942  1.00  0.00    -0.354 N 
ATOM     74  C   UNL A   1      33.926  24.598  22.796  1.00  0.00     0.242 C 
ATOM     75  H   UNL A   1      34.993  22.996  22.275  1.00  0.00     0.163 HD
ATOM     76  O   UNL A   1      33.232  24.474  21.786  1.00  0.00    -0.273 OA
BRANCH  74  77
ATOM     77  C   UNL A   1      33.747  25.744  23.819  1.00  0.00     0.176 C 
ATOM     78  C   UNL A   1      33.641  26.978  22.898  1.00  0.00     0.036 C 
ATOM     79  N   UNL A   1      32.685  25.814  24.866  1.00  0.00    -0.309 N 
ATOM     80  C   UNL A   1      33.725  28.276  23.672  1.00  0.00     0.008 C 
ATOM     81  C   UNL A   1      32.758  27.072  25.688  1.00  0.00     0.091 C 
ATOM     82  C   UNL A   1      32.657  28.316  24.763  1.00  0.00     0.012 C 
ATOM     83  C   UNL A   1      31.772  27.229  26.867  1.00  0.00     0.025 C 
ATOM     84  C   UNL A   1      32.786  29.642  25.526  1.00  0.00     0.006 C 
ATOM     85  C   UNL A   1      31.922  28.561  27.603  1.00  0.00     0.002 C 
ATOM     86  C   UNL A   1      31.781  29.743  26.660  1.00  0.00     0.000 C 
BRANCH  79  87
ATOM     87  C   UNL A   1      31.912  24.734  25.282  1.00  0.00     0.321 C 
ATOM     88  O   UNL A   1      30.683  24.724  25.327  1.00  0.00    -0.248 OA
ATOM     89  N   UNL A   1      32.582  23.560  25.575  1.00  0.00    -0.323 N 
ATOM     90  C   UNL A   1      32.196  22.438  24.712  1.00  0.00     0.132 C 
ATOM     91  C   UNL A   1      32.680  23.219  26.991  1.00  0.00     0.132 C 
ATOM     92  C   UNL A   1      33.146  21.245  24.756  1.00  0.00     0.091 C 
ATOM     93  C   UNL A   1      33.669  22.093  27.302  1.00  0.00     0.091 C 
ATOM     94  S   UNL A   1      33.268  20.546  26.436  1.00  0.00    -0.158 SA
ENDBRANCH  79  87
ENDBRANCH  74  77
ENDBRANCH  72  73
ENDBRANCH  71  72
ENDBRANCH   1  71
TORSDOF 11
ENDMDL
