MODEL 1
REMARK VINA RESULT:     -12.6      0.000      0.000
REMARK SMILES CC1(C)C[C@@](Cc2ccccc2)(C(=O)NCCCNC(=O)c2ccc(-c3c4nc(c(-c5c(F)c(F)c(F)c(F)c5F)c5ccc([nH]5)c(-c5c(F)c(F)c(F)c(F)c5F)c5nc(c(-c6c(F)c(F)c(F)c(F)c6F)c6ccc3[nH]6)C=C5)C=C4)cc2)CCO1
REMARK SMILES IDX 17 1 16 2 15 3 13 4 14 5 5 7 1 8 2 9 3 10 4 11 87 12 86 13
REMARK SMILES IDX 85 14 6 15 7 16 8 17 12 18 9 19 11 20 10 21 18 22 19 23
REMARK SMILES IDX 20 24 21 26 22 27 23 28 84 29 24 30 83 31 25 32 26 33 27 34
REMARK SMILES IDX 77 35 28 36 82 37 76 38 78 39 29 40 81 41 75 42 74 43 30 45
REMARK SMILES IDX 62 46 42 47 61 48 43 49 46 50 60 51 79 52 44 53 45 54 59 56
REMARK SMILES IDX 80 57 47 58 31 59 32 60 40 61 33 62 34 63 38 64 41 65 35 66
REMARK SMILES IDX 36 67 39 68 37 69 63 70 64 71 72 72 65 73 66 74 70 75 73 76
REMARK SMILES IDX 67 77 68 78 71 79 69 80 48 81 49 82 57 83 50 84 51 85 55 86
REMARK SMILES IDX 58 87 52 88 53 89 56 90 54 91
REMARK H PARENT 15 6 19 25 78 44 46 55
REMARK Flexibility Score: inf
ROOT
ATOM      1  C   UNL A   1      31.778  28.372  26.748  1.00  0.00     0.042 C 
ENDROOT
BRANCH   1   2
ATOM      2  C   UNL A   1      31.988  26.894  26.487  1.00  0.00     0.117 C 
BRANCH   2   3
ATOM      3  N   UNL A   1      31.176  26.440  25.380  1.00  0.00    -0.356 N 
ATOM      4  C   UNL A   1      31.350  25.610  24.343  1.00  0.00     0.226 C 
ATOM      5  O   UNL A   1      30.267  25.226  23.876  1.00  0.00    -0.274 OA
ATOM      6  H   UNL A   1      30.275  26.837  25.392  1.00  0.00     0.163 HD
BRANCH   4   7
ATOM      7  C   UNL A   1      32.675  25.155  23.710  1.00  0.00     0.058 C 
ATOM      8  C   UNL A   1      31.886  28.088  22.659  1.00  0.00     0.042 C 
ATOM      9  C   UNL A   1      33.275  27.425  22.626  1.00  0.00     0.064 C 
ATOM     10  C   UNL A   1      34.296  28.569  22.742  1.00  0.00     0.042 C 
ATOM     11  C   UNL A   1      33.588  26.403  23.738  1.00  0.00     0.052 C 
ATOM     12  O   UNL A   1      33.481  26.767  21.368  1.00  0.00    -0.376 OA
ATOM     13  C   UNL A   1      32.645  25.634  21.144  1.00  0.00     0.162 C 
ATOM     14  C   UNL A   1      32.709  24.601  22.268  1.00  0.00     0.046 C 
BRANCH   7  15
ATOM     15  C   UNL A   1      33.192  23.988  24.647  1.00  0.00     0.052 C 
BRANCH  15  16
ATOM     16  C   UNL A   1      34.674  23.677  24.647  1.00  0.00    -0.047 A 
ATOM     17  C   UNL A   1      35.471  24.027  25.748  1.00  0.00     0.004 A 
ATOM     18  C   UNL A   1      35.279  23.024  23.567  1.00  0.00     0.004 A 
ATOM     19  C   UNL A   1      36.827  23.696  25.780  1.00  0.00     0.000 A 
ATOM     20  C   UNL A   1      36.629  22.673  23.607  1.00  0.00     0.000 A 
ATOM     21  C   UNL A   1      37.402  23.006  24.715  1.00  0.00     0.000 A 
ENDBRANCH  15  16
ENDBRANCH   7  15
ENDBRANCH   4   7
ENDBRANCH   2   3
ENDBRANCH   1   2
BRANCH   1  22
ATOM     22  C   UNL A   1      32.862  29.252  26.142  1.00  0.00     0.118 C 
BRANCH  22  23
ATOM     23  N   UNL A   1      32.677  30.671  26.423  1.00  0.00    -0.352 N 
ATOM     24  C   UNL A   1      33.399  31.516  27.233  1.00  0.00     0.251 C 
ATOM     25  H   UNL A   1      31.915  31.090  25.961  1.00  0.00     0.163 HD
ATOM     26  O   UNL A   1      32.972  32.638  27.494  1.00  0.00    -0.269 OA
BRANCH  24  27
ATOM     27  C   UNL A   1      34.672  31.053  27.820  1.00  0.00     0.039 A 
ATOM     28  C   UNL A   1      35.715  31.960  28.010  1.00  0.00     0.014 A 
ATOM     29  C   UNL A   1      34.821  29.725  28.217  1.00  0.00     0.014 A 
ATOM     30  C   UNL A   1      36.870  31.548  28.679  1.00  0.00     0.010 A 
ATOM     31  C   UNL A   1      35.894  29.362  29.016  1.00  0.00     0.010 A 
ATOM     32  C   UNL A   1      36.948  30.260  29.234  1.00  0.00    -0.014 A 
BRANCH  32  33
ATOM     33  C   UNL A   1      38.134  29.803  30.004  1.00  0.00     0.031 A 
ATOM     34  C   UNL A   1      38.329  30.282  31.421  1.00  0.00     0.074 A 
ATOM     35  C   UNL A   1      39.067  29.031  29.412  1.00  0.00     0.049 A 
ATOM     36  N   UNL A   1      39.340  30.087  32.230  1.00  0.00    -0.248 NA
ATOM     37  C   UNL A   1      37.271  31.135  31.992  1.00  0.00     0.031 C 
ATOM     38  C   UNL A   1      39.031  28.564  28.024  1.00  0.00     0.029 A 
ATOM     39  N   UNL A   1      40.240  28.511  29.902  1.00  0.00    -0.354 N 
ATOM     40  C   UNL A   1      39.055  30.823  33.375  1.00  0.00     0.074 A 
ATOM     41  C   UNL A   1      37.813  31.520  33.138  1.00  0.00     0.031 C 
ATOM     42  C   UNL A   1      40.108  27.798  27.786  1.00  0.00     0.029 A 
ATOM     43  C   UNL A   1      40.935  27.757  28.986  1.00  0.00     0.049 A 
ATOM     44  H   UNL A   1      40.553  28.664  30.822  1.00  0.00     0.167 HD
ATOM     45  C   UNL A   1      39.750  30.885  34.534  1.00  0.00     0.037 A 
ATOM     46  C   UNL A   1      42.111  27.109  29.106  1.00  0.00     0.037 A 
ATOM     47  C   UNL A   1      40.944  30.130  34.791  1.00  0.00     0.049 A 
ATOM     48  C   UNL A   1      42.835  27.161  30.427  1.00  0.00     0.074 A 
ATOM     49  C   UNL A   1      41.668  30.037  35.966  1.00  0.00     0.029 A 
ATOM     50  N   UNL A   1      41.587  29.331  33.858  1.00  0.00    -0.354 N 
ATOM     51  N   UNL A   1      42.503  27.780  31.533  1.00  0.00    -0.248 NA
ATOM     52  C   UNL A   1      44.096  26.409  30.518  1.00  0.00     0.031 C 
ATOM     53  C   UNL A   1      42.781  29.225  35.729  1.00  0.00     0.029 A 
ATOM     54  C   UNL A   1      42.714  28.761  34.426  1.00  0.00     0.049 A 
ATOM     55  H   UNL A   1      41.287  29.190  32.930  1.00  0.00     0.167 HD
ATOM     56  C   UNL A   1      43.486  27.461  32.460  1.00  0.00     0.074 A 
ATOM     57  C   UNL A   1      44.418  26.578  31.792  1.00  0.00     0.031 C 
ATOM     58  C   UNL A   1      43.611  27.862  33.749  1.00  0.00     0.037 A 
BRANCH  45  59
ATOM     59  C   UNL A   1      39.234  31.780  35.622  1.00  0.00     0.064 A 
ATOM     60  C   UNL A   1      38.331  31.324  36.593  1.00  0.00     0.173 A 
ATOM     61  C   UNL A   1      39.704  33.098  35.733  1.00  0.00     0.173 A 
ATOM     62  F   UNL A   1      37.838  30.078  36.525  1.00  0.00    -0.203 F 
ATOM     63  C   UNL A   1      37.905  32.156  37.626  1.00  0.00     0.198 A 
ATOM     64  C   UNL A   1      39.303  33.917  36.786  1.00  0.00     0.198 A 
ATOM     65  F   UNL A   1      40.571  33.586  34.832  1.00  0.00    -0.203 F 
ATOM     66  F   UNL A   1      37.012  31.710  38.519  1.00  0.00    -0.200 F 
ATOM     67  C   UNL A   1      38.400  33.447  37.728  1.00  0.00     0.200 A 
ATOM     68  F   UNL A   1      39.794  35.160  36.891  1.00  0.00    -0.200 F 
ATOM     69  F   UNL A   1      38.007  34.240  38.733  1.00  0.00    -0.200 F 
ENDBRANCH  45  59
BRANCH  46  70
ATOM     70  C   UNL A   1      42.675  26.341  27.963  1.00  0.00     0.064 A 
ATOM     71  C   UNL A   1      43.527  26.953  27.032  1.00  0.00     0.173 A 
ATOM     72  C   UNL A   1      42.334  24.998  27.745  1.00  0.00     0.173 A 
ATOM     73  F   UNL A   1      43.871  28.240  27.185  1.00  0.00    -0.203 F 
ATOM     74  C   UNL A   1      43.976  26.269  25.904  1.00  0.00     0.198 A 
ATOM     75  C   UNL A   1      42.815  24.302  26.636  1.00  0.00     0.198 A 
ATOM     76  F   UNL A   1      41.532  24.358  28.608  1.00  0.00    -0.203 F 
ATOM     77  F   UNL A   1      44.727  26.903  24.994  1.00  0.00    -0.200 F 
ATOM     78  C   UNL A   1      43.622  24.943  25.708  1.00  0.00     0.200 A 
ATOM     79  F   UNL A   1      42.484  23.016  26.459  1.00  0.00    -0.200 F 
ATOM     80  F   UNL A   1      44.046  24.288  24.619  1.00  0.00    -0.200 F 
ENDBRANCH  46  70
BRANCH  58  81
ATOM     81  C   UNL A   1      44.758  27.301  34.538  1.00  0.00     0.064 A 
ATOM     82  C   UNL A   1      44.653  26.091  35.240  1.00  0.00     0.173 A 
ATOM     83  C   UNL A   1      45.992  27.969  34.560  1.00  0.00     0.173 A 
ATOM     84  F   UNL A   1      43.491  25.420  35.261  1.00  0.00    -0.203 F 
ATOM     85  C   UNL A   1      45.730  25.591  35.966  1.00  0.00     0.198 A 
ATOM     86  C   UNL A   1      47.078  27.446  35.254  1.00  0.00     0.198 A 
ATOM     87  F   UNL A   1      46.148  29.123  33.893  1.00  0.00    -0.203 F 
ATOM     88  F   UNL A   1      45.589  24.465  36.680  1.00  0.00    -0.200 F 
ATOM     89  C   UNL A   1      46.943  26.264  35.966  1.00  0.00     0.200 A 
ATOM     90  F   UNL A   1      48.254  28.088  35.237  1.00  0.00    -0.200 F 
ATOM     91  F   UNL A   1      47.981  25.777  36.660  1.00  0.00    -0.200 F 
ENDBRANCH  58  81
ENDBRANCH  32  33
ENDBRANCH  24  27
ENDBRANCH  22  23
ENDBRANCH   1  22
TORSDOF 12
ENDMDL
MODEL 2
REMARK VINA RESULT:     -12.6      4.926     10.076
REMARK SMILES CC1(C)C[C@@](Cc2ccccc2)(C(=O)NCCCNC(=O)c2ccc(-c3c4nc(c(-c5c(F)c(F)c(F)c(F)c5F)c5ccc([nH]5)c(-c5c(F)c(F)c(F)c(F)c5F)c5nc(c(-c6c(F)c(F)c(F)c(F)c6F)c6ccc3[nH]6)C=C5)C=C4)cc2)CCO1
REMARK SMILES IDX 17 1 16 2 15 3 13 4 14 5 5 7 1 8 2 9 3 10 4 11 87 12 86 13
REMARK SMILES IDX 85 14 6 15 7 16 8 17 12 18 9 19 11 20 10 21 18 22 19 23
REMARK SMILES IDX 20 24 21 26 22 27 23 28 84 29 24 30 83 31 25 32 26 33 27 34
REMARK SMILES IDX 77 35 28 36 82 37 76 38 78 39 29 40 81 41 75 42 74 43 30 45
REMARK SMILES IDX 62 46 42 47 61 48 43 49 46 50 60 51 79 52 44 53 45 54 59 56
REMARK SMILES IDX 80 57 47 58 31 59 32 60 40 61 33 62 34 63 38 64 41 65 35 66
REMARK SMILES IDX 36 67 39 68 37 69 63 70 64 71 72 72 65 73 66 74 70 75 73 76
REMARK SMILES IDX 67 77 68 78 71 79 69 80 48 81 49 82 57 83 50 84 51 85 55 86
REMARK SMILES IDX 58 87 52 88 53 89 56 90 54 91
REMARK H PARENT 15 6 19 25 78 44 46 55
REMARK Flexibility Score: inf
ROOT
ATOM      1  C   UNL A   1      37.395  20.628  25.068  1.00  0.00     0.042 C 
ENDROOT
BRANCH   1   2
ATOM      2  C   UNL A   1      36.356  21.652  25.479  1.00  0.00     0.117 C 
BRANCH   2   3
ATOM      3  N   UNL A   1      35.431  21.919  24.400  1.00  0.00    -0.356 N 
ATOM      4  C   UNL A   1      34.099  21.957  24.270  1.00  0.00     0.226 C 
ATOM      5  O   UNL A   1      33.755  22.606  23.271  1.00  0.00    -0.274 OA
ATOM      6  H   UNL A   1      35.894  22.124  23.556  1.00  0.00     0.163 HD
BRANCH   4   7
ATOM      7  C   UNL A   1      33.042  21.288  25.165  1.00  0.00     0.058 C 
ATOM      8  C   UNL A   1      33.492  24.341  26.062  1.00  0.00     0.042 C 
ATOM      9  C   UNL A   1      32.285  23.441  26.381  1.00  0.00     0.064 C 
ATOM     10  C   UNL A   1      31.073  24.380  26.499  1.00  0.00     0.042 C 
ATOM     11  C   UNL A   1      31.934  22.350  25.347  1.00  0.00     0.052 C 
ATOM     12  O   UNL A   1      32.472  22.790  27.645  1.00  0.00    -0.376 OA
ATOM     13  C   UNL A   1      33.528  21.832  27.671  1.00  0.00     0.162 C 
ATOM     14  C   UNL A   1      33.415  20.775  26.573  1.00  0.00     0.046 C 
BRANCH   7  15
ATOM     15  C   UNL A   1      32.559  20.024  24.344  1.00  0.00     0.052 C 
BRANCH  15  16
ATOM     16  C   UNL A   1      33.151  18.675  24.698  1.00  0.00    -0.047 A 
ATOM     17  C   UNL A   1      32.401  17.744  25.434  1.00  0.00     0.004 A 
ATOM     18  C   UNL A   1      34.442  18.319  24.292  1.00  0.00     0.004 A 
ATOM     19  C   UNL A   1      32.918  16.478  25.719  1.00  0.00     0.000 A 
ATOM     20  C   UNL A   1      34.951  17.047  24.556  1.00  0.00     0.000 A 
ATOM     21  C   UNL A   1      34.188  16.126  25.267  1.00  0.00     0.000 A 
ENDBRANCH  15  16
ENDBRANCH   7  15
ENDBRANCH   4   7
ENDBRANCH   2   3
ENDBRANCH   1   2
BRANCH   1  22
ATOM     22  C   UNL A   1      38.826  21.097  25.290  1.00  0.00     0.118 C 
BRANCH  22  23
ATOM     23  N   UNL A   1      39.589  20.219  26.170  1.00  0.00    -0.352 N 
ATOM     24  C   UNL A   1      40.587  20.516  27.069  1.00  0.00     0.251 C 
ATOM     25  H   UNL A   1      39.355  19.265  26.110  1.00  0.00     0.163 HD
ATOM     26  O   UNL A   1      41.247  19.616  27.582  1.00  0.00    -0.269 OA
BRANCH  24  27
ATOM     27  C   UNL A   1      40.886  21.926  27.388  1.00  0.00     0.039 A 
ATOM     28  C   UNL A   1      41.813  22.227  28.387  1.00  0.00     0.014 A 
ATOM     29  C   UNL A   1      40.273  22.954  26.673  1.00  0.00     0.014 A 
ATOM     30  C   UNL A   1      42.187  23.556  28.599  1.00  0.00     0.010 A 
ATOM     31  C   UNL A   1      40.760  24.248  26.775  1.00  0.00     0.010 A 
ATOM     32  C   UNL A   1      41.702  24.573  27.759  1.00  0.00    -0.014 A 
BRANCH  32  33
ATOM     33  C   UNL A   1      42.121  25.990  27.914  1.00  0.00     0.031 A 
ATOM     34  C   UNL A   1      43.445  26.440  27.349  1.00  0.00     0.074 A 
ATOM     35  C   UNL A   1      41.359  26.846  28.624  1.00  0.00     0.049 A 
ATOM     36  N   UNL A   1      44.044  27.599  27.460  1.00  0.00    -0.248 NA
ATOM     37  C   UNL A   1      44.227  25.441  26.598  1.00  0.00     0.031 C 
ATOM     38  C   UNL A   1      40.093  26.513  29.285  1.00  0.00     0.029 A 
ATOM     39  N   UNL A   1      41.543  28.174  28.920  1.00  0.00    -0.354 N 
ATOM     40  C   UNL A   1      45.276  27.449  26.834  1.00  0.00     0.074 A 
ATOM     41  C   UNL A   1      45.373  26.075  26.401  1.00  0.00     0.031 C 
ATOM     42  C   UNL A   1      39.600  27.614  29.875  1.00  0.00     0.029 A 
ATOM     43  C   UNL A   1      40.531  28.718  29.676  1.00  0.00     0.049 A 
ATOM     44  H   UNL A   1      42.326  28.688  28.620  1.00  0.00     0.167 HD
ATOM     45  C   UNL A   1      46.229  28.383  26.610  1.00  0.00     0.037 A 
ATOM     46  C   UNL A   1      40.379  29.968  30.155  1.00  0.00     0.037 A 
ATOM     47  C   UNL A   1      46.094  29.766  26.976  1.00  0.00     0.049 A 
ATOM     48  C   UNL A   1      41.437  30.996  29.847  1.00  0.00     0.074 A 
ATOM     49  C   UNL A   1      46.951  30.817  26.703  1.00  0.00     0.029 A 
ATOM     50  N   UNL A   1      45.027  30.291  27.690  1.00  0.00    -0.354 N 
ATOM     51  N   UNL A   1      42.551  30.865  29.169  1.00  0.00    -0.248 NA
ATOM     52  C   UNL A   1      41.208  32.354  30.362  1.00  0.00     0.031 C 
ATOM     53  C   UNL A   1      46.431  31.969  27.298  1.00  0.00     0.029 A 
ATOM     54  C   UNL A   1      45.218  31.649  27.887  1.00  0.00     0.049 A 
ATOM     55  H   UNL A   1      44.251  29.777  28.009  1.00  0.00     0.167 HD
ATOM     56  C   UNL A   1      43.133  32.125  29.140  1.00  0.00     0.074 A 
ATOM     57  C   UNL A   1      42.239  33.013  29.854  1.00  0.00     0.031 C 
ATOM     58  C   UNL A   1      44.301  32.517  28.576  1.00  0.00     0.037 A 
BRANCH  45  59
ATOM     59  C   UNL A   1      47.492  27.956  25.924  1.00  0.00     0.064 A 
ATOM     60  C   UNL A   1      48.651  27.626  26.641  1.00  0.00     0.173 A 
ATOM     61  C   UNL A   1      47.522  27.809  24.528  1.00  0.00     0.173 A 
ATOM     62  F   UNL A   1      48.682  27.762  27.975  1.00  0.00    -0.203 F 
ATOM     63  C   UNL A   1      49.798  27.180  25.987  1.00  0.00     0.198 A 
ATOM     64  C   UNL A   1      48.659  27.332  23.880  1.00  0.00     0.198 A 
ATOM     65  F   UNL A   1      46.440  28.110  23.793  1.00  0.00    -0.203 F 
ATOM     66  F   UNL A   1      50.906  26.909  26.690  1.00  0.00    -0.200 F 
ATOM     67  C   UNL A   1      49.797  27.023  24.610  1.00  0.00     0.200 A 
ATOM     68  F   UNL A   1      48.650  27.166  22.550  1.00  0.00    -0.200 F 
ATOM     69  F   UNL A   1      50.893  26.574  23.984  1.00  0.00    -0.200 F 
ENDBRANCH  45  59
BRANCH  46  70
ATOM     70  C   UNL A   1      39.180  30.333  30.958  1.00  0.00     0.064 A 
ATOM     71  C   UNL A   1      38.048  30.896  30.349  1.00  0.00     0.173 A 
ATOM     72  C   UNL A   1      39.158  30.180  32.352  1.00  0.00     0.173 A 
ATOM     73  F   UNL A   1      38.024  31.080  29.021  1.00  0.00    -0.203 F 
ATOM     74  C   UNL A   1      36.963  31.334  31.106  1.00  0.00     0.198 A 
ATOM     75  C   UNL A   1      38.055  30.584  33.104  1.00  0.00     0.198 A 
ATOM     76  F   UNL A   1      40.207  29.638  32.986  1.00  0.00    -0.203 F 
ATOM     77  F   UNL A   1      35.929  31.936  30.503  1.00  0.00    -0.200 F 
ATOM     78  C   UNL A   1      36.967  31.175  32.483  1.00  0.00     0.200 A 
ATOM     79  F   UNL A   1      38.056  30.413  34.433  1.00  0.00    -0.200 F 
ATOM     80  F   UNL A   1      35.928  31.605  33.212  1.00  0.00    -0.200 F 
ENDBRANCH  46  70
BRANCH  58  81
ATOM     81  C   UNL A   1      44.649  33.975  28.653  1.00  0.00     0.064 A 
ATOM     82  C   UNL A   1      44.212  34.893  27.687  1.00  0.00     0.173 A 
ATOM     83  C   UNL A   1      45.403  34.464  29.731  1.00  0.00     0.173 A 
ATOM     84  F   UNL A   1      43.498  34.474  26.630  1.00  0.00    -0.203 F 
ATOM     85  C   UNL A   1      44.548  36.241  27.778  1.00  0.00     0.198 A 
ATOM     86  C   UNL A   1      45.705  35.817  29.840  1.00  0.00     0.198 A 
ATOM     87  F   UNL A   1      45.834  33.629  30.688  1.00  0.00    -0.203 F 
ATOM     88  F   UNL A   1      44.171  37.090  26.812  1.00  0.00    -0.200 F 
ATOM     89  C   UNL A   1      45.287  36.702  28.857  1.00  0.00     0.200 A 
ATOM     90  F   UNL A   1      46.402  36.264  30.893  1.00  0.00    -0.200 F 
ATOM     91  F   UNL A   1      45.604  38.002  28.947  1.00  0.00    -0.200 F 
ENDBRANCH  58  81
ENDBRANCH  32  33
ENDBRANCH  24  27
ENDBRANCH  22  23
ENDBRANCH   1  22
TORSDOF 12
ENDMDL
MODEL 3
REMARK VINA RESULT:     -12.6      0.575      1.741
REMARK SMILES CC1(C)C[C@@](Cc2ccccc2)(C(=O)NCCCNC(=O)c2ccc(-c3c4nc(c(-c5c(F)c(F)c(F)c(F)c5F)c5ccc([nH]5)c(-c5c(F)c(F)c(F)c(F)c5F)c5nc(c(-c6c(F)c(F)c(F)c(F)c6F)c6ccc3[nH]6)C=C5)C=C4)cc2)CCO1
REMARK SMILES IDX 17 1 16 2 15 3 13 4 14 5 5 7 1 8 2 9 3 10 4 11 87 12 86 13
REMARK SMILES IDX 85 14 6 15 7 16 8 17 12 18 9 19 11 20 10 21 18 22 19 23
REMARK SMILES IDX 20 24 21 26 22 27 23 28 84 29 24 30 83 31 25 32 26 33 27 34
REMARK SMILES IDX 77 35 28 36 82 37 76 38 78 39 29 40 81 41 75 42 74 43 30 45
REMARK SMILES IDX 62 46 42 47 61 48 43 49 46 50 60 51 79 52 44 53 45 54 59 56
REMARK SMILES IDX 80 57 47 58 31 59 32 60 40 61 33 62 34 63 38 64 41 65 35 66
REMARK SMILES IDX 36 67 39 68 37 69 63 70 64 71 72 72 65 73 66 74 70 75 73 76
REMARK SMILES IDX 67 77 68 78 71 79 69 80 48 81 49 82 57 83 50 84 51 85 55 86
REMARK SMILES IDX 58 87 52 88 53 89 56 90 54 91
REMARK H PARENT 15 6 19 25 78 44 46 55
REMARK Flexibility Score: inf
ROOT
ATOM      1  C   UNL A   1      31.662  28.906  26.816  1.00  0.00     0.042 C 
ENDROOT
BRANCH   1   2
ATOM      2  C   UNL A   1      32.069  27.447  26.865  1.00  0.00     0.117 C 
BRANCH   2   3
ATOM      3  N   UNL A   1      31.380  26.679  25.852  1.00  0.00    -0.356 N 
ATOM      4  C   UNL A   1      31.715  25.700  25.002  1.00  0.00     0.226 C 
ATOM      5  O   UNL A   1      30.717  25.084  24.597  1.00  0.00    -0.274 OA
ATOM      6  H   UNL A   1      30.434  26.939  25.767  1.00  0.00     0.163 HD
BRANCH   4   7
ATOM      7  C   UNL A   1      33.118  25.325  24.498  1.00  0.00     0.058 C 
ATOM      8  C   UNL A   1      31.872  27.669  22.686  1.00  0.00     0.042 C 
ATOM      9  C   UNL A   1      33.355  27.275  22.816  1.00  0.00     0.064 C 
ATOM     10  C   UNL A   1      34.160  28.566  22.593  1.00  0.00     0.042 C 
ATOM     11  C   UNL A   1      33.802  26.670  24.163  1.00  0.00     0.052 C 
ATOM     12  O   UNL A   1      33.711  26.341  21.787  1.00  0.00    -0.376 OA
ATOM     13  C   UNL A   1      33.089  25.063  21.901  1.00  0.00     0.162 C 
ATOM     14  C   UNL A   1      33.293  24.408  23.267  1.00  0.00     0.046 C 
BRANCH   7  15
ATOM     15  C   UNL A   1      33.796  24.571  25.713  1.00  0.00     0.052 C 
BRANCH  15  16
ATOM     16  C   UNL A   1      34.858  23.534  25.407  1.00  0.00    -0.047 A 
ATOM     17  C   UNL A   1      34.541  22.168  25.432  1.00  0.00     0.004 A 
ATOM     18  C   UNL A   1      36.165  23.910  25.080  1.00  0.00     0.004 A 
ATOM     19  C   UNL A   1      35.500  21.208  25.099  1.00  0.00     0.000 A 
ATOM     20  C   UNL A   1      37.118  22.954  24.725  1.00  0.00     0.000 A 
ATOM     21  C   UNL A   1      36.784  21.603  24.732  1.00  0.00     0.000 A 
ENDBRANCH  15  16
ENDBRANCH   7  15
ENDBRANCH   4   7
ENDBRANCH   2   3
ENDBRANCH   1   2
BRANCH   1  22
ATOM     22  C   UNL A   1      32.690  29.796  26.133  1.00  0.00     0.118 C 
BRANCH  22  23
ATOM     23  N   UNL A   1      32.539  31.209  26.463  1.00  0.00    -0.352 N 
ATOM     24  C   UNL A   1      33.296  32.013  27.283  1.00  0.00     0.251 C 
ATOM     25  H   UNL A   1      31.776  31.657  26.032  1.00  0.00     0.163 HD
ATOM     26  O   UNL A   1      32.898  33.134  27.589  1.00  0.00    -0.269 OA
BRANCH  24  27
ATOM     27  C   UNL A   1      34.572  31.507  27.826  1.00  0.00     0.039 A 
ATOM     28  C   UNL A   1      35.644  32.382  28.001  1.00  0.00     0.014 A 
ATOM     29  C   UNL A   1      34.697  30.169  28.196  1.00  0.00     0.014 A 
ATOM     30  C   UNL A   1      36.806  31.929  28.630  1.00  0.00     0.010 A 
ATOM     31  C   UNL A   1      35.782  29.764  28.958  1.00  0.00     0.010 A 
ATOM     32  C   UNL A   1      36.865  30.629  29.161  1.00  0.00    -0.014 A 
BRANCH  32  33
ATOM     33  C   UNL A   1      38.059  30.128  29.889  1.00  0.00     0.031 A 
ATOM     34  C   UNL A   1      38.299  30.565  31.313  1.00  0.00     0.074 A 
ATOM     35  C   UNL A   1      38.962  29.355  29.254  1.00  0.00     0.049 A 
ATOM     36  N   UNL A   1      39.325  30.328  32.092  1.00  0.00    -0.248 NA
ATOM     37  C   UNL A   1      37.272  31.423  31.933  1.00  0.00     0.031 C 
ATOM     38  C   UNL A   1      38.882  28.925  27.855  1.00  0.00     0.029 A 
ATOM     39  N   UNL A   1      40.135  28.798  29.701  1.00  0.00    -0.354 N 
ATOM     40  C   UNL A   1      39.082  31.038  33.262  1.00  0.00     0.074 A 
ATOM     41  C   UNL A   1      37.849  31.766  33.074  1.00  0.00     0.031 C 
ATOM     42  C   UNL A   1      39.938  28.145  27.571  1.00  0.00     0.029 A 
ATOM     43  C   UNL A   1      40.793  28.055  28.749  1.00  0.00     0.049 A 
ATOM     44  H   UNL A   1      40.474  28.920  30.617  1.00  0.00     0.167 HD
ATOM     45  C   UNL A   1      39.806  31.055  34.405  1.00  0.00     0.037 A 
ATOM     46  C   UNL A   1      41.957  27.381  28.823  1.00  0.00     0.037 A 
ATOM     47  C   UNL A   1      40.990  30.270  34.613  1.00  0.00     0.049 A 
ATOM     48  C   UNL A   1      42.714  27.382  30.126  1.00  0.00     0.074 A 
ATOM     49  C   UNL A   1      41.740  30.130  35.767  1.00  0.00     0.029 A 
ATOM     50  N   UNL A   1      41.594  29.483  33.643  1.00  0.00    -0.354 N 
ATOM     51  N   UNL A   1      42.421  27.978  31.256  1.00  0.00    -0.248 NA
ATOM     52  C   UNL A   1      43.960  26.603  30.166  1.00  0.00     0.031 C 
ATOM     53  C   UNL A   1      42.829  29.303  35.481  1.00  0.00     0.029 A 
ATOM     54  C   UNL A   1      42.722  28.876  34.168  1.00  0.00     0.049 A 
ATOM     55  H   UNL A   1      41.269  29.374  32.720  1.00  0.00     0.167 HD
ATOM     56  C   UNL A   1      43.420  27.615  32.150  1.00  0.00     0.074 A 
ATOM     57  C   UNL A   1      44.317  26.731  31.436  1.00  0.00     0.031 C 
ATOM     58  C   UNL A   1      43.584  27.978  33.445  1.00  0.00     0.037 A 
BRANCH  45  59
ATOM     59  C   UNL A   1      39.335  31.931  35.529  1.00  0.00     0.064 A 
ATOM     60  C   UNL A   1      38.448  31.466  36.511  1.00  0.00     0.173 A 
ATOM     61  C   UNL A   1      39.833  33.237  35.662  1.00  0.00     0.173 A 
ATOM     62  F   UNL A   1      37.929  30.232  36.423  1.00  0.00    -0.203 F 
ATOM     63  C   UNL A   1      38.064  32.279  37.575  1.00  0.00     0.198 A 
ATOM     64  C   UNL A   1      39.474  34.035  36.745  1.00  0.00     0.198 A 
ATOM     65  F   UNL A   1      40.686  33.732  34.752  1.00  0.00    -0.203 F 
ATOM     66  F   UNL A   1      37.185  31.826  38.479  1.00  0.00    -0.200 F 
ATOM     67  C   UNL A   1      38.587  33.557  37.698  1.00  0.00     0.200 A 
ATOM     68  F   UNL A   1      39.992  35.265  36.870  1.00  0.00    -0.200 F 
ATOM     69  F   UNL A   1      38.234  34.330  38.733  1.00  0.00    -0.200 F 
ENDBRANCH  45  59
BRANCH  46  70
ATOM     70  C   UNL A   1      42.477  26.632  27.646  1.00  0.00     0.064 A 
ATOM     71  C   UNL A   1      42.113  25.296  27.422  1.00  0.00     0.173 A 
ATOM     72  C   UNL A   1      43.388  27.215  26.753  1.00  0.00     0.173 A 
ATOM     73  F   UNL A   1      41.258  24.686  28.256  1.00  0.00    -0.203 F 
ATOM     74  C   UNL A   1      42.675  24.558  26.382  1.00  0.00     0.198 A 
ATOM     75  C   UNL A   1      43.921  26.487  25.689  1.00  0.00     0.198 A 
ATOM     76  F   UNL A   1      43.763  28.492  26.912  1.00  0.00    -0.203 F 
ATOM     77  F   UNL A   1      42.366  23.262  26.239  1.00  0.00    -0.200 F 
ATOM     78  C   UNL A   1      43.577  25.156  25.515  1.00  0.00     0.200 A 
ATOM     79  F   UNL A   1      44.779  27.073  24.843  1.00  0.00    -0.200 F 
ATOM     80  F   UNL A   1      44.125  24.444  24.520  1.00  0.00    -0.200 F 
ENDBRANCH  46  70
BRANCH  58  81
ATOM     81  C   UNL A   1      44.737  27.373  34.191  1.00  0.00     0.064 A 
ATOM     82  C   UNL A   1      45.989  28.002  34.258  1.00  0.00     0.173 A 
ATOM     83  C   UNL A   1      44.573  26.160  34.878  1.00  0.00     0.173 A 
ATOM     84  F   UNL A   1      46.200  29.157  33.608  1.00  0.00    -0.203 F 
ATOM     85  C   UNL A   1      47.044  27.421  34.954  1.00  0.00     0.198 A 
ATOM     86  C   UNL A   1      45.619  25.602  35.606  1.00  0.00     0.198 A 
ATOM     87  F   UNL A   1      43.392  25.525  34.857  1.00  0.00    -0.203 F 
ATOM     88  F   UNL A   1      48.249  28.009  34.954  1.00  0.00    -0.200 F 
ATOM     89  C   UNL A   1      46.857  26.226  35.634  1.00  0.00     0.200 A 
ATOM     90  F   UNL A   1      45.430  24.458  36.277  1.00  0.00    -0.200 F 
ATOM     91  F   UNL A   1      47.873  25.672  36.310  1.00  0.00    -0.200 F 
ENDBRANCH  58  81
ENDBRANCH  32  33
ENDBRANCH  24  27
ENDBRANCH  22  23
ENDBRANCH   1  22
TORSDOF 12
ENDMDL
