MODEL 1
REMARK VINA RESULT:     -12.7      0.000      0.000
REMARK SMILES O=C(NCCCNC(=O)c1cc(F)ccc1NS(=O)(=O)c1ccc(Cl)s1)c1ccc(-c2c3nc(c(-c4c(F)c(F)c(F)c(F)c4F)c4ccc([nH]4)c(-c4c(F)c(F)c(F)c(F)c4F)c4nc(c(-c5c(F)c(F)c(F)c(F)c5F)c5ccc2[nH]5)C=C4)C=C3)cc1
REMARK SMILES IDX 5 1 4 2 3 3 1 4 2 5 27 7 28 8 89 9 29 10 88 11 30 12 31 13
REMARK SMILES IDX 32 14 82 15 33 16 87 17 81 18 83 19 34 20 86 21 80 22 79 23
REMARK SMILES IDX 35 25 67 26 47 27 66 28 48 29 51 30 65 31 84 32 49 33 50 34
REMARK SMILES IDX 64 36 85 37 52 38 36 39 37 40 45 41 38 42 39 43 43 44 46 45
REMARK SMILES IDX 40 46 41 47 44 48 42 49 68 50 69 51 77 52 70 53 71 54 75 55
REMARK SMILES IDX 78 56 72 57 73 58 76 59 74 60 53 61 54 62 62 63 55 64 56 65
REMARK SMILES IDX 60 66 63 67 57 68 58 69 61 70 59 71 6 72 7 73 8 74 9 76
REMARK SMILES IDX 10 77 11 78 16 79 12 80 15 81 13 82 14 83 17 84 18 86 19 87
REMARK SMILES IDX 20 88 21 89 22 90 26 91 23 92 24 93 25 94
REMARK H PARENT 3 6 83 24 51 35 7 75 17 85
REMARK Flexibility Score: inf
ROOT
ATOM      1  C   UNL A   1      31.418  31.837  26.578  1.00  0.00     0.042 C 
ENDROOT
BRANCH   1   2
ATOM      2  C   UNL A   1      32.726  32.536  26.927  1.00  0.00     0.118 C 
BRANCH   2   3
ATOM      3  N   UNL A   1      32.522  33.860  27.495  1.00  0.00    -0.352 N 
ATOM      4  O   UNL A   1      32.693  35.519  29.008  1.00  0.00    -0.269 OA
ATOM      5  C   UNL A   1      33.142  34.468  28.559  1.00  0.00     0.251 C 
ATOM      6  H   UNL A   1      31.834  34.403  27.048  1.00  0.00     0.163 HD
BRANCH   5   7
ATOM      7  C   UNL A   1      34.334  33.854  29.179  1.00  0.00     0.039 A 
ATOM      8  C   UNL A   1      35.618  34.324  28.896  1.00  0.00     0.014 A 
ATOM      9  C   UNL A   1      34.156  32.809  30.092  1.00  0.00     0.014 A 
ATOM     10  C   UNL A   1      36.729  33.664  29.409  1.00  0.00     0.010 A 
ATOM     11  C   UNL A   1      35.270  32.205  30.677  1.00  0.00     0.010 A 
ATOM     12  C   UNL A   1      36.565  32.610  30.320  1.00  0.00    -0.014 A 
BRANCH  12  13
ATOM     13  C   UNL A   1      37.750  31.985  30.953  1.00  0.00     0.031 A 
ATOM     14  C   UNL A   1      38.546  30.938  30.231  1.00  0.00     0.074 A 
ATOM     15  C   UNL A   1      38.087  32.352  32.203  1.00  0.00     0.049 A 
ATOM     16  N   UNL A   1      39.557  30.227  30.664  1.00  0.00    -0.248 NA
ATOM     17  C   UNL A   1      38.153  30.643  28.846  1.00  0.00     0.031 C 
ATOM     18  C   UNL A   1      37.386  33.362  32.998  1.00  0.00     0.029 A 
ATOM     19  N   UNL A   1      39.095  31.920  33.027  1.00  0.00    -0.354 N 
ATOM     20  C   UNL A   1      39.900  29.382  29.619  1.00  0.00     0.074 A 
ATOM     21  C   UNL A   1      38.982  29.656  28.534  1.00  0.00     0.031 C 
ATOM     22  C   UNL A   1      37.995  33.487  34.184  1.00  0.00     0.029 A 
ATOM     23  C   UNL A   1      39.085  32.520  34.261  1.00  0.00     0.049 A 
ATOM     24  H   UNL A   1      39.760  31.246  32.759  1.00  0.00     0.167 HD
ATOM     25  C   UNL A   1      40.895  28.464  29.576  1.00  0.00     0.037 A 
ATOM     26  C   UNL A   1      39.842  32.295  35.351  1.00  0.00     0.037 A 
ATOM     27  C   UNL A   1      41.817  28.221  30.656  1.00  0.00     0.049 A 
ATOM     28  C   UNL A   1      40.912  31.244  35.295  1.00  0.00     0.074 A 
ATOM     29  C   UNL A   1      42.902  27.364  30.683  1.00  0.00     0.029 A 
ATOM     30  N   UNL A   1      41.755  28.830  31.902  1.00  0.00    -0.354 N 
ATOM     31  N   UNL A   1      41.252  30.474  34.291  1.00  0.00    -0.248 NA
ATOM     32  C   UNL A   1      41.696  31.023  36.517  1.00  0.00     0.031 C 
ATOM     33  C   UNL A   1      43.460  27.407  31.963  1.00  0.00     0.029 A 
ATOM     34  C   UNL A   1      42.761  28.336  32.718  1.00  0.00     0.049 A 
ATOM     35  H   UNL A   1      41.096  29.512  32.166  1.00  0.00     0.167 HD
ATOM     36  C   UNL A   1      42.296  29.686  34.750  1.00  0.00     0.074 A 
ATOM     37  C   UNL A   1      42.539  30.076  36.125  1.00  0.00     0.031 C 
ATOM     38  C   UNL A   1      42.991  28.732  34.085  1.00  0.00     0.037 A 
BRANCH  25  39
ATOM     39  C   UNL A   1      41.031  27.630  28.335  1.00  0.00     0.064 A 
ATOM     40  C   UNL A   1      40.364  26.399  28.237  1.00  0.00     0.173 A 
ATOM     41  C   UNL A   1      41.863  28.011  27.273  1.00  0.00     0.173 A 
ATOM     42  F   UNL A   1      39.562  25.982  29.229  1.00  0.00    -0.203 F 
ATOM     43  C   UNL A   1      40.528  25.579  27.123  1.00  0.00     0.198 A 
ATOM     44  C   UNL A   1      42.003  27.202  26.147  1.00  0.00     0.198 A 
ATOM     45  F   UNL A   1      42.518  29.181  27.313  1.00  0.00    -0.203 F 
ATOM     46  F   UNL A   1      39.900  24.398  27.064  1.00  0.00    -0.200 F 
ATOM     47  C   UNL A   1      41.342  25.985  26.076  1.00  0.00     0.200 A 
ATOM     48  F   UNL A   1      42.771  27.605  25.125  1.00  0.00    -0.200 F 
ATOM     49  F   UNL A   1      41.486  25.203  24.998  1.00  0.00    -0.200 F 
ENDBRANCH  25  39
BRANCH  26  50
ATOM     50  C   UNL A   1      39.585  33.095  36.573  1.00  0.00     0.064 A 
ATOM     51  C   UNL A   1      38.601  32.711  37.497  1.00  0.00     0.173 A 
ATOM     52  C   UNL A   1      40.238  34.316  36.780  1.00  0.00     0.173 A 
ATOM     53  F   UNL A   1      37.941  31.555  37.332  1.00  0.00    -0.203 F 
ATOM     54  C   UNL A   1      38.252  33.538  38.562  1.00  0.00     0.198 A 
ATOM     55  C   UNL A   1      39.904  35.132  37.860  1.00  0.00     0.198 A 
ATOM     56  F   UNL A   1      41.193  34.718  35.929  1.00  0.00    -0.203 F 
ATOM     57  F   UNL A   1      37.268  33.176  39.395  1.00  0.00    -0.200 F 
ATOM     58  C   UNL A   1      38.903  34.749  38.740  1.00  0.00     0.200 A 
ATOM     59  F   UNL A   1      40.543  36.296  38.038  1.00  0.00    -0.200 F 
ATOM     60  F   UNL A   1      38.558  35.552  39.757  1.00  0.00    -0.200 F 
ENDBRANCH  26  50
BRANCH  38  61
ATOM     61  C   UNL A   1      44.100  28.036  34.815  1.00  0.00     0.064 A 
ATOM     62  C   UNL A   1      45.414  28.523  34.736  1.00  0.00     0.173 A 
ATOM     63  C   UNL A   1      43.885  26.824  35.484  1.00  0.00     0.173 A 
ATOM     64  F   UNL A   1      45.668  29.676  34.099  1.00  0.00    -0.203 F 
ATOM     65  C   UNL A   1      46.477  27.802  35.271  1.00  0.00     0.198 A 
ATOM     66  C   UNL A   1      44.948  26.117  36.040  1.00  0.00     0.198 A 
ATOM     67  F   UNL A   1      42.644  26.326  35.599  1.00  0.00    -0.203 F 
ATOM     68  F   UNL A   1      47.729  28.262  35.138  1.00  0.00    -0.200 F 
ATOM     69  C   UNL A   1      46.244  26.600  35.919  1.00  0.00     0.200 A 
ATOM     70  F   UNL A   1      44.722  24.964  36.683  1.00  0.00    -0.200 F 
ATOM     71  F   UNL A   1      47.270  25.902  36.427  1.00  0.00    -0.200 F 
ENDBRANCH  38  61
ENDBRANCH  12  13
ENDBRANCH   5   7
ENDBRANCH   2   3
ENDBRANCH   1   2
BRANCH   1  72
ATOM     72  C   UNL A   1      31.559  30.342  26.326  1.00  0.00     0.118 C 
BRANCH  72  73
ATOM     73  N   UNL A   1      32.197  30.078  25.048  1.00  0.00    -0.352 N 
ATOM     74  C   UNL A   1      31.721  29.405  23.958  1.00  0.00     0.253 C 
ATOM     75  H   UNL A   1      33.109  30.437  24.954  1.00  0.00     0.163 HD
ATOM     76  O   UNL A   1      32.524  28.939  23.150  1.00  0.00    -0.269 OA
BRANCH  74  77
ATOM     77  C   UNL A   1      30.271  29.237  23.709  1.00  0.00     0.066 A 
ATOM     78  C   UNL A   1      29.472  30.371  23.500  1.00  0.00     0.055 A 
ATOM     79  C   UNL A   1      29.744  27.935  23.539  1.00  0.00     0.062 A 
ATOM     80  C   UNL A   1      28.133  30.213  23.187  1.00  0.00     0.124 A 
ATOM     81  C   UNL A   1      28.413  27.822  23.126  1.00  0.00     0.030 A 
ATOM     82  F   UNL A   1      27.349  31.291  23.075  1.00  0.00    -0.207 F 
ATOM     83  C   UNL A   1      27.602  28.953  22.975  1.00  0.00     0.041 A 
BRANCH  79  84
ATOM     84  N   UNL A   1      30.485  26.819  24.090  1.00  0.00    -0.278 N 
ATOM     85  H   UNL A   1      30.609  26.792  25.066  1.00  0.00     0.180 HD
BRANCH  84  86
ATOM     86  S   UNL A   1      31.148  25.569  23.187  1.00  0.00     0.271 S 
ATOM     87  O   UNL A   1      30.259  24.431  23.284  1.00  0.00    -0.200 OA
ATOM     88  O   UNL A   1      31.516  26.125  21.901  1.00  0.00    -0.200 OA
BRANCH  86  89
ATOM     89  C   UNL A   1      32.680  24.972  23.861  1.00  0.00     0.141 A 
ATOM     90  C   UNL A   1      33.390  25.373  24.980  1.00  0.00     0.036 A 
ATOM     91  S   UNL A   1      33.503  23.726  23.018  1.00  0.00    -0.110 S 
ATOM     92  C   UNL A   1      34.705  24.824  25.007  1.00  0.00     0.034 A 
ATOM     93  C   UNL A   1      34.900  23.982  23.943  1.00  0.00     0.094 A 
ATOM     94  Cl  UNL A   1      36.375  23.224  23.498  1.00  0.00    -0.072 Cl
ENDBRANCH  86  89
ENDBRANCH  84  86
ENDBRANCH  79  84
ENDBRANCH  74  77
ENDBRANCH  72  73
ENDBRANCH   1  72
TORSDOF 13
ENDMDL
MODEL 2
REMARK VINA RESULT:     -12.6      0.413      1.638
REMARK SMILES O=C(NCCCNC(=O)c1cc(F)ccc1NS(=O)(=O)c1ccc(Cl)s1)c1ccc(-c2c3nc(c(-c4c(F)c(F)c(F)c(F)c4F)c4ccc([nH]4)c(-c4c(F)c(F)c(F)c(F)c4F)c4nc(c(-c5c(F)c(F)c(F)c(F)c5F)c5ccc2[nH]5)C=C4)C=C3)cc1
REMARK SMILES IDX 5 1 4 2 3 3 1 4 2 5 27 7 28 8 89 9 29 10 88 11 30 12 31 13
REMARK SMILES IDX 32 14 82 15 33 16 87 17 81 18 83 19 34 20 86 21 80 22 79 23
REMARK SMILES IDX 35 25 67 26 47 27 66 28 48 29 51 30 65 31 84 32 49 33 50 34
REMARK SMILES IDX 64 36 85 37 52 38 36 39 37 40 45 41 38 42 39 43 43 44 46 45
REMARK SMILES IDX 40 46 41 47 44 48 42 49 68 50 69 51 77 52 70 53 71 54 75 55
REMARK SMILES IDX 78 56 72 57 73 58 76 59 74 60 53 61 54 62 62 63 55 64 56 65
REMARK SMILES IDX 60 66 63 67 57 68 58 69 61 70 59 71 6 72 7 73 8 74 9 76
REMARK SMILES IDX 10 77 11 78 16 79 12 80 15 81 13 82 14 83 17 84 18 86 19 87
REMARK SMILES IDX 20 88 21 89 22 90 26 91 23 92 24 93 25 94
REMARK H PARENT 3 6 83 24 51 35 7 75 17 85
REMARK Flexibility Score: inf
ROOT
ATOM      1  C   UNL A   1      31.407  31.801  26.545  1.00  0.00     0.042 C 
ENDROOT
BRANCH   1   2
ATOM      2  C   UNL A   1      32.689  32.556  26.872  1.00  0.00     0.118 C 
BRANCH   2   3
ATOM      3  N   UNL A   1      32.437  33.883  27.414  1.00  0.00    -0.352 N 
ATOM      4  O   UNL A   1      32.528  35.568  28.904  1.00  0.00    -0.269 OA
ATOM      5  C   UNL A   1      33.015  34.523  28.483  1.00  0.00     0.251 C 
ATOM      6  H   UNL A   1      31.747  34.401  26.942  1.00  0.00     0.163 HD
BRANCH   5   7
ATOM      7  C   UNL A   1      34.206  33.949  29.141  1.00  0.00     0.039 A 
ATOM      8  C   UNL A   1      35.485  34.445  28.879  1.00  0.00     0.014 A 
ATOM      9  C   UNL A   1      34.033  32.917  30.069  1.00  0.00     0.014 A 
ATOM     10  C   UNL A   1      36.600  33.821  29.429  1.00  0.00     0.010 A 
ATOM     11  C   UNL A   1      35.147  32.351  30.691  1.00  0.00     0.010 A 
ATOM     12  C   UNL A   1      36.440  32.780  30.356  1.00  0.00    -0.014 A 
BRANCH  12  13
ATOM     13  C   UNL A   1      37.625  32.196  31.026  1.00  0.00     0.031 A 
ATOM     14  C   UNL A   1      38.425  31.112  30.369  1.00  0.00     0.074 A 
ATOM     15  C   UNL A   1      37.958  32.636  32.254  1.00  0.00     0.049 A 
ATOM     16  N   UNL A   1      39.436  30.429  30.845  1.00  0.00    -0.248 NA
ATOM     17  C   UNL A   1      38.037  30.735  29.002  1.00  0.00     0.031 C 
ATOM     18  C   UNL A   1      37.252  33.688  32.988  1.00  0.00     0.029 A 
ATOM     19  N   UNL A   1      38.964  32.255  33.105  1.00  0.00    -0.354 N 
ATOM     20  C   UNL A   1      39.785  29.526  29.851  1.00  0.00     0.074 A 
ATOM     21  C   UNL A   1      38.869  29.734  28.750  1.00  0.00     0.031 C 
ATOM     22  C   UNL A   1      37.857  33.884  34.166  1.00  0.00     0.029 A 
ATOM     23  C   UNL A   1      38.949  32.925  34.302  1.00  0.00     0.049 A 
ATOM     24  H   UNL A   1      39.632  31.569  32.877  1.00  0.00     0.167 HD
ATOM     25  C   UNL A   1      40.782  28.609  29.865  1.00  0.00     0.037 A 
ATOM     26  C   UNL A   1      39.704  32.766  35.405  1.00  0.00     0.037 A 
ATOM     27  C   UNL A   1      41.701  28.432  30.959  1.00  0.00     0.049 A 
ATOM     28  C   UNL A   1      40.776  31.717  35.412  1.00  0.00     0.074 A 
ATOM     29  C   UNL A   1      42.789  27.580  31.038  1.00  0.00     0.029 A 
ATOM     30  N   UNL A   1      41.635  29.112  32.168  1.00  0.00    -0.354 N 
ATOM     31  N   UNL A   1      41.121  30.890  34.455  1.00  0.00    -0.248 NA
ATOM     32  C   UNL A   1      41.558  31.569  36.647  1.00  0.00     0.031 C 
ATOM     33  C   UNL A   1      43.342  27.699  32.316  1.00  0.00     0.029 A 
ATOM     34  C   UNL A   1      42.639  28.668  33.014  1.00  0.00     0.049 A 
ATOM     35  H   UNL A   1      40.973  29.806  32.390  1.00  0.00     0.167 HD
ATOM     36  C   UNL A   1      42.166  30.133  34.962  1.00  0.00     0.074 A 
ATOM     37  C   UNL A   1      42.404  30.603  36.313  1.00  0.00     0.031 C 
ATOM     38  C   UNL A   1      42.864  29.144  34.356  1.00  0.00     0.037 A 
BRANCH  25  39
ATOM     39  C   UNL A   1      40.923  27.705  28.674  1.00  0.00     0.064 A 
ATOM     40  C   UNL A   1      41.799  28.046  27.631  1.00  0.00     0.173 A 
ATOM     41  C   UNL A   1      40.156  26.540  28.531  1.00  0.00     0.173 A 
ATOM     42  F   UNL A   1      42.550  29.155  27.713  1.00  0.00    -0.203 F 
ATOM     43  C   UNL A   1      41.897  27.257  26.488  1.00  0.00     0.198 A 
ATOM     44  C   UNL A   1      40.278  25.737  27.400  1.00  0.00     0.198 A 
ATOM     45  F   UNL A   1      39.310  26.165  29.502  1.00  0.00    -0.203 F 
ATOM     46  F   UNL A   1      42.721  27.617  25.496  1.00  0.00    -0.200 F 
ATOM     47  C   UNL A   1      41.141  26.099  26.377  1.00  0.00     0.200 A 
ATOM     48  F   UNL A   1      39.565  24.606  27.302  1.00  0.00    -0.200 F 
ATOM     49  F   UNL A   1      41.249  25.331  25.284  1.00  0.00    -0.200 F 
ENDBRANCH  25  39
BRANCH  26  50
ATOM     50  C   UNL A   1      39.442  33.635  36.578  1.00  0.00     0.064 A 
ATOM     51  C   UNL A   1      40.034  34.903  36.686  1.00  0.00     0.173 A 
ATOM     52  C   UNL A   1      38.687  33.169  37.660  1.00  0.00     0.173 A 
ATOM     53  F   UNL A   1      40.776  35.386  35.678  1.00  0.00    -0.203 F 
ATOM     54  C   UNL A   1      39.913  35.656  37.852  1.00  0.00     0.198 A 
ATOM     55  C   UNL A   1      38.547  33.934  38.817  1.00  0.00     0.198 A 
ATOM     56  F   UNL A   1      38.092  31.969  37.595  1.00  0.00    -0.203 F 
ATOM     57  F   UNL A   1      40.538  36.836  37.953  1.00  0.00    -0.200 F 
ATOM     58  C   UNL A   1      39.171  35.168  38.917  1.00  0.00     0.200 A 
ATOM     59  F   UNL A   1      37.819  33.468  39.841  1.00  0.00    -0.200 F 
ATOM     60  F   UNL A   1      39.066  35.886  40.044  1.00  0.00    -0.200 F 
ENDBRANCH  26  50
BRANCH  38  61
ATOM     61  C   UNL A   1      43.973  28.494  35.128  1.00  0.00     0.064 A 
ATOM     62  C   UNL A   1      45.286  28.977  35.022  1.00  0.00     0.173 A 
ATOM     63  C   UNL A   1      43.758  27.323  35.867  1.00  0.00     0.173 A 
ATOM     64  F   UNL A   1      45.540  30.091  34.318  1.00  0.00    -0.203 F 
ATOM     65  C   UNL A   1      46.349  28.291  35.601  1.00  0.00     0.198 A 
ATOM     66  C   UNL A   1      44.822  26.652  36.466  1.00  0.00     0.198 A 
ATOM     67  F   UNL A   1      42.518  26.831  36.009  1.00  0.00    -0.203 F 
ATOM     68  F   UNL A   1      47.602  28.744  35.443  1.00  0.00    -0.200 F 
ATOM     69  C   UNL A   1      46.117  27.129  36.319  1.00  0.00     0.200 A 
ATOM     70  F   UNL A   1      44.596  25.539  37.176  1.00  0.00    -0.200 F 
ATOM     71  F   UNL A   1      47.143  26.464  36.869  1.00  0.00    -0.200 F 
ENDBRANCH  38  61
ENDBRANCH  12  13
ENDBRANCH   5   7
ENDBRANCH   2   3
ENDBRANCH   1   2
BRANCH   1  72
ATOM     72  C   UNL A   1      31.606  30.310  26.306  1.00  0.00     0.118 C 
BRANCH  72  73
ATOM     73  N   UNL A   1      32.247  30.059  25.026  1.00  0.00    -0.352 N 
ATOM     74  C   UNL A   1      31.786  29.369  23.941  1.00  0.00     0.253 C 
ATOM     75  H   UNL A   1      33.148  30.444  24.928  1.00  0.00     0.163 HD
ATOM     76  O   UNL A   1      32.598  28.923  23.131  1.00  0.00    -0.269 OA
BRANCH  74  77
ATOM     77  C   UNL A   1      30.340  29.160  23.698  1.00  0.00     0.066 A 
ATOM     78  C   UNL A   1      29.508  30.271  23.494  1.00  0.00     0.055 A 
ATOM     79  C   UNL A   1      29.850  27.843  23.529  1.00  0.00     0.062 A 
ATOM     80  C   UNL A   1      28.173  30.074  23.188  1.00  0.00     0.124 A 
ATOM     81  C   UNL A   1      28.520  27.693  23.122  1.00  0.00     0.030 A 
ATOM     82  F   UNL A   1      27.357  31.130  23.079  1.00  0.00    -0.207 F 
ATOM     83  C   UNL A   1      27.677  28.800  22.977  1.00  0.00     0.041 A 
BRANCH  79  84
ATOM     84  N   UNL A   1      30.625  26.749  24.075  1.00  0.00    -0.278 N 
ATOM     85  H   UNL A   1      30.821  26.766  25.040  1.00  0.00     0.180 HD
BRANCH  84  86
ATOM     86  S   UNL A   1      31.214  25.452  23.186  1.00  0.00     0.271 S 
ATOM     87  O   UNL A   1      30.281  24.355  23.329  1.00  0.00    -0.200 OA
ATOM     88  O   UNL A   1      31.572  25.965  21.880  1.00  0.00    -0.200 OA
BRANCH  86  89
ATOM     89  C   UNL A   1      32.736  24.806  23.837  1.00  0.00     0.141 A 
ATOM     90  C   UNL A   1      33.453  25.157  24.969  1.00  0.00     0.036 A 
ATOM     91  S   UNL A   1      33.536  23.576  22.951  1.00  0.00    -0.110 S 
ATOM     92  C   UNL A   1      34.758  24.585  24.975  1.00  0.00     0.034 A 
ATOM     93  C   UNL A   1      34.938  23.777  23.883  1.00  0.00     0.094 A 
ATOM     94  Cl  UNL A   1      36.399  23.009  23.410  1.00  0.00    -0.072 Cl
ENDBRANCH  86  89
ENDBRANCH  84  86
ENDBRANCH  79  84
ENDBRANCH  74  77
ENDBRANCH  72  73
ENDBRANCH   1  72
TORSDOF 13
ENDMDL
MODEL 3
REMARK VINA RESULT:     -12.5      5.656     11.127
REMARK SMILES O=C(NCCCNC(=O)c1cc(F)ccc1NS(=O)(=O)c1ccc(Cl)s1)c1ccc(-c2c3nc(c(-c4c(F)c(F)c(F)c(F)c4F)c4ccc([nH]4)c(-c4c(F)c(F)c(F)c(F)c4F)c4nc(c(-c5c(F)c(F)c(F)c(F)c5F)c5ccc2[nH]5)C=C4)C=C3)cc1
REMARK SMILES IDX 5 1 4 2 3 3 1 4 2 5 27 7 28 8 89 9 29 10 88 11 30 12 31 13
REMARK SMILES IDX 32 14 82 15 33 16 87 17 81 18 83 19 34 20 86 21 80 22 79 23
REMARK SMILES IDX 35 25 67 26 47 27 66 28 48 29 51 30 65 31 84 32 49 33 50 34
REMARK SMILES IDX 64 36 85 37 52 38 36 39 37 40 45 41 38 42 39 43 43 44 46 45
REMARK SMILES IDX 40 46 41 47 44 48 42 49 68 50 69 51 77 52 70 53 71 54 75 55
REMARK SMILES IDX 78 56 72 57 73 58 76 59 74 60 53 61 54 62 62 63 55 64 56 65
REMARK SMILES IDX 60 66 63 67 57 68 58 69 61 70 59 71 6 72 7 73 8 74 9 76
REMARK SMILES IDX 10 77 11 78 16 79 12 80 15 81 13 82 14 83 17 84 18 86 19 87
REMARK SMILES IDX 20 88 21 89 22 90 26 91 23 92 24 93 25 94
REMARK H PARENT 3 6 83 24 51 35 7 75 17 85
REMARK Flexibility Score: inf
ROOT
ATOM      1  C   UNL A   1      38.132  19.833  24.917  1.00  0.00     0.042 C 
ENDROOT
BRANCH   1   2
ATOM      2  C   UNL A   1      39.109  20.069  26.062  1.00  0.00     0.118 C 
BRANCH   2   3
ATOM      3  N   UNL A   1      40.272  19.198  25.998  1.00  0.00    -0.352 N 
ATOM      4  O   UNL A   1      42.445  18.648  25.783  1.00  0.00    -0.269 OA
ATOM      5  C   UNL A   1      41.610  19.506  26.051  1.00  0.00     0.251 C 
ATOM      6  H   UNL A   1      40.070  18.240  25.901  1.00  0.00     0.163 HD
BRANCH   5   7
ATOM      7  C   UNL A   1      42.046  20.871  26.409  1.00  0.00     0.039 A 
ATOM      8  C   UNL A   1      42.328  21.215  27.732  1.00  0.00     0.014 A 
ATOM      9  C   UNL A   1      42.213  21.815  25.390  1.00  0.00     0.014 A 
ATOM     10  C   UNL A   1      42.636  22.532  28.059  1.00  0.00     0.010 A 
ATOM     11  C   UNL A   1      42.610  23.114  25.708  1.00  0.00     0.010 A 
ATOM     12  C   UNL A   1      42.799  23.489  27.047  1.00  0.00    -0.014 A 
BRANCH  12  13
ATOM     13  C   UNL A   1      43.240  24.862  27.389  1.00  0.00     0.031 A 
ATOM     14  C   UNL A   1      42.285  25.849  27.993  1.00  0.00     0.074 A 
ATOM     15  C   UNL A   1      44.509  25.221  27.123  1.00  0.00     0.049 A 
ATOM     16  N   UNL A   1      42.475  27.114  28.275  1.00  0.00    -0.248 NA
ATOM     17  C   UNL A   1      40.937  25.358  28.314  1.00  0.00     0.031 C 
ATOM     18  C   UNL A   1      45.524  24.342  26.539  1.00  0.00     0.029 A 
ATOM     19  N   UNL A   1      45.163  26.414  27.299  1.00  0.00    -0.354 N 
ATOM     20  C   UNL A   1      41.268  27.575  28.777  1.00  0.00     0.074 A 
ATOM     21  C   UNL A   1      40.344  26.462  28.749  1.00  0.00     0.031 C 
ATOM     22  C   UNL A   1      46.675  25.017  26.425  1.00  0.00     0.029 A 
ATOM     23  C   UNL A   1      46.463  26.393  26.861  1.00  0.00     0.049 A 
ATOM     24  H   UNL A   1      44.741  27.207  27.701  1.00  0.00     0.167 HD
ATOM     25  C   UNL A   1      40.966  28.819  29.222  1.00  0.00     0.037 A 
ATOM     26  C   UNL A   1      47.377  27.378  26.783  1.00  0.00     0.037 A 
ATOM     27  C   UNL A   1      41.905  29.910  29.268  1.00  0.00     0.049 A 
ATOM     28  C   UNL A   1      47.009  28.757  27.243  1.00  0.00     0.074 A 
ATOM     29  C   UNL A   1      41.715  31.186  29.768  1.00  0.00     0.029 A 
ATOM     30  N   UNL A   1      43.206  29.856  28.788  1.00  0.00    -0.354 N 
ATOM     31  N   UNL A   1      45.874  29.176  27.748  1.00  0.00    -0.248 NA
ATOM     32  C   UNL A   1      48.034  29.800  27.116  1.00  0.00     0.031 C 
ATOM     33  C   UNL A   1      42.879  31.922  29.534  1.00  0.00     0.029 A 
ATOM     34  C   UNL A   1      43.818  31.090  28.944  1.00  0.00     0.049 A 
ATOM     35  H   UNL A   1      43.632  29.059  28.395  1.00  0.00     0.167 HD
ATOM     36  C   UNL A   1      46.051  30.526  28.015  1.00  0.00     0.074 A 
ATOM     37  C   UNL A   1      47.406  30.855  27.618  1.00  0.00     0.031 C 
ATOM     38  C   UNL A   1      45.167  31.405  28.545  1.00  0.00     0.037 A 
BRANCH  25  39
ATOM     39  C   UNL A   1      39.559  29.083  29.674  1.00  0.00     0.064 A 
ATOM     40  C   UNL A   1      38.598  29.539  28.757  1.00  0.00     0.173 A 
ATOM     41  C   UNL A   1      39.172  28.947  31.015  1.00  0.00     0.173 A 
ATOM     42  F   UNL A   1      38.918  29.695  27.463  1.00  0.00    -0.203 F 
ATOM     43  C   UNL A   1      37.306  29.853  29.167  1.00  0.00     0.198 A 
ATOM     44  C   UNL A   1      37.869  29.235  31.416  1.00  0.00     0.198 A 
ATOM     45  F   UNL A   1      40.048  28.508  31.930  1.00  0.00    -0.203 F 
ATOM     46  F   UNL A   1      36.415  30.310  28.277  1.00  0.00    -0.200 F 
ATOM     47  C   UNL A   1      36.940  29.694  30.495  1.00  0.00     0.200 A 
ATOM     48  F   UNL A   1      37.509  29.058  32.696  1.00  0.00    -0.200 F 
ATOM     49  F   UNL A   1      35.690  29.980  30.885  1.00  0.00    -0.200 F 
ENDBRANCH  25  39
BRANCH  26  50
ATOM     50  C   UNL A   1      48.719  27.060  26.236  1.00  0.00     0.064 A 
ATOM     51  C   UNL A   1      48.989  27.176  24.864  1.00  0.00     0.173 A 
ATOM     52  C   UNL A   1      49.719  26.527  27.058  1.00  0.00     0.173 A 
ATOM     53  F   UNL A   1      48.056  27.670  24.036  1.00  0.00    -0.203 F 
ATOM     54  C   UNL A   1      50.196  26.733  24.328  1.00  0.00     0.198 A 
ATOM     55  C   UNL A   1      50.936  26.107  26.524  1.00  0.00     0.198 A 
ATOM     56  F   UNL A   1      49.510  26.409  28.377  1.00  0.00    -0.203 F 
ATOM     57  F   UNL A   1      50.405  26.801  23.007  1.00  0.00    -0.200 F 
ATOM     58  C   UNL A   1      51.167  26.197  25.159  1.00  0.00     0.200 A 
ATOM     59  F   UNL A   1      51.879  25.601  27.330  1.00  0.00    -0.200 F 
ATOM     60  F   UNL A   1      52.324  25.759  24.642  1.00  0.00    -0.200 F 
ENDBRANCH  26  50
BRANCH  38  61
ATOM     61  C   UNL A   1      45.623  32.818  28.751  1.00  0.00     0.064 A 
ATOM     62  C   UNL A   1      45.444  33.773  27.738  1.00  0.00     0.173 A 
ATOM     63  C   UNL A   1      46.344  33.193  29.892  1.00  0.00     0.173 A 
ATOM     64  F   UNL A   1      44.766  33.456  26.624  1.00  0.00    -0.203 F 
ATOM     65  C   UNL A   1      46.003  35.043  27.846  1.00  0.00     0.198 A 
ATOM     66  C   UNL A   1      46.880  34.473  30.008  1.00  0.00     0.198 A 
ATOM     67  F   UNL A   1      46.527  32.319  30.893  1.00  0.00    -0.203 F 
ATOM     68  F   UNL A   1      45.863  35.922  26.843  1.00  0.00    -0.200 F 
ATOM     69  C   UNL A   1      46.722  35.391  28.979  1.00  0.00     0.200 A 
ATOM     70  F   UNL A   1      47.560  34.816  31.110  1.00  0.00    -0.200 F 
ATOM     71  F   UNL A   1      47.267  36.611  29.078  1.00  0.00    -0.200 F 
ENDBRANCH  38  61
ENDBRANCH  12  13
ENDBRANCH   5   7
ENDBRANCH   2   3
ENDBRANCH   1   2
BRANCH   1  72
ATOM     72  C   UNL A   1      37.144  20.971  24.697  1.00  0.00     0.118 C 
BRANCH  72  73
ATOM     73  N   UNL A   1      36.239  21.112  25.825  1.00  0.00    -0.352 N 
ATOM     74  C   UNL A   1      34.876  21.018  25.867  1.00  0.00     0.253 C 
ATOM     75  H   UNL A   1      36.673  21.306  26.687  1.00  0.00     0.163 HD
ATOM     76  O   UNL A   1      34.272  21.557  26.792  1.00  0.00    -0.269 OA
BRANCH  74  77
ATOM     77  C   UNL A   1      34.108  20.271  24.845  1.00  0.00     0.066 A 
ATOM     78  C   UNL A   1      34.382  18.912  24.634  1.00  0.00     0.055 A 
ATOM     79  C   UNL A   1      33.015  20.900  24.203  1.00  0.00     0.062 A 
ATOM     80  C   UNL A   1      33.611  18.192  23.738  1.00  0.00     0.124 A 
ATOM     81  C   UNL A   1      32.202  20.112  23.382  1.00  0.00     0.030 A 
ATOM     82  F   UNL A   1      33.924  16.919  23.470  1.00  0.00    -0.207 F 
ATOM     83  C   UNL A   1      32.511  18.771  23.129  1.00  0.00     0.041 A 
BRANCH  79  84
ATOM     84  N   UNL A   1      32.978  22.348  24.176  1.00  0.00    -0.278 N 
ATOM     85  H   UNL A   1      33.806  22.820  23.928  1.00  0.00     0.180 HD
BRANCH  84  86
ATOM     86  S   UNL A   1      31.629  23.281  24.533  1.00  0.00     0.271 S 
ATOM     87  O   UNL A   1      30.947  23.570  23.290  1.00  0.00    -0.200 OA
ATOM     88  O   UNL A   1      30.943  22.629  25.629  1.00  0.00    -0.200 OA
BRANCH  86  89
ATOM     89  C   UNL A   1      32.052  24.885  25.171  1.00  0.00     0.141 A 
ATOM     90  C   UNL A   1      33.281  25.509  25.298  1.00  0.00     0.036 A 
ATOM     91  S   UNL A   1      30.791  25.864  25.796  1.00  0.00    -0.110 S 
ATOM     92  C   UNL A   1      33.209  26.674  26.115  1.00  0.00     0.034 A 
ATOM     93  C   UNL A   1      31.918  26.912  26.508  1.00  0.00     0.094 A 
ATOM     94  Cl  UNL A   1      31.391  28.114  27.614  1.00  0.00    -0.072 Cl
ENDBRANCH  86  89
ENDBRANCH  84  86
ENDBRANCH  79  84
ENDBRANCH  74  77
ENDBRANCH  72  73
ENDBRANCH   1  72
TORSDOF 13
ENDMDL
