MODEL 1
REMARK VINA RESULT:     -12.3      0.000      0.000
REMARK SMILES C[C@H]1C[N@H+]2CCCC[C@@H]2CN1C(=O)[C@H]([NH3+])CC(=O)NCCCNC(=O)c1ccc(-c2c3nc(c(-c4c(F)c(F)c(F)c(F)c4F)c4ccc([nH]4)c(-c4c(F)c(F)c(F)c(F)c4F)c4nc(c(-c5c(F)c(F)c(F)c(F)c5F)c5ccc2[nH]5)C=C4)C=C3)cc1
REMARK SMILES IDX 20 1 19 2 17 3 18 4 16 6 14 7 12 8 13 9 11 10 1 11 2 12 3 13
REMARK SMILES IDX 4 14 10 15 5 16 9 17 6 19 8 20 7 21 15 22 21 26 22 27 23 28
REMARK SMILES IDX 24 29 25 31 26 32 27 33 88 34 28 35 87 36 29 37 30 38 31 39
REMARK SMILES IDX 81 40 32 41 86 42 80 43 82 44 33 45 85 46 79 47 78 48 34 50
REMARK SMILES IDX 66 51 46 52 65 53 47 54 50 55 64 56 83 57 48 58 49 59 63 61
REMARK SMILES IDX 84 62 51 63 35 64 36 65 44 66 37 67 38 68 42 69 45 70 39 71
REMARK SMILES IDX 40 72 43 73 41 74 67 75 68 76 76 77 69 78 70 79 74 80 77 81
REMARK SMILES IDX 71 82 72 83 75 84 73 85 52 86 53 87 61 88 54 89 55 90 59 91
REMARK SMILES IDX 62 92 56 93 57 94 60 95 58 96
REMARK H PARENT 19 5 4 18 15 23 15 24 15 25 23 30 82 49 50 60
REMARK Flexibility Score: inf
ROOT
ATOM      1  C   UNL A   1      31.622  30.733  26.269  1.00  0.00     0.117 C 
ENDROOT
BRANCH   1   2
ATOM      2  N   UNL A   1      32.964  30.272  26.588  1.00  0.00    -0.356 N 
ATOM      3  C   UNL A   1      33.411  29.038  26.949  1.00  0.00     0.226 C 
ATOM      4  O   UNL A   1      34.616  28.880  27.145  1.00  0.00    -0.275 OA
ATOM      5  H   UNL A   1      33.663  30.964  26.532  1.00  0.00     0.163 HD
BRANCH   3   6
ATOM      6  C   UNL A   1      32.437  27.902  27.119  1.00  0.00     0.175 C 
BRANCH   6   7
ATOM      7  C   UNL A   1      32.122  27.215  25.786  1.00  0.00     0.280 C 
BRANCH   7   8
ATOM      8  C   UNL A   1      31.661  25.755  26.078  1.00  0.00     0.281 C 
ATOM      9  O   UNL A   1      30.604  25.591  26.699  1.00  0.00    -0.268 OA
BRANCH   8  10
ATOM     10  N   UNL A   1      32.396  24.692  25.565  1.00  0.00    -0.323 N 
ATOM     11  C   UNL A   1      31.173  24.717  23.312  1.00  0.00     0.037 C 
ATOM     12  C   UNL A   1      31.954  23.920  24.371  1.00  0.00     0.137 C 
ATOM     13  C   UNL A   1      33.136  23.217  23.595  1.00  0.00     0.287 C 
ATOM     14  N   UNL A   1      34.429  22.974  24.270  1.00  0.00    -0.329 N 
ATOM     15  C   UNL A   1      33.547  24.097  26.253  1.00  0.00     0.185 C 
ATOM     16  C   UNL A   1      35.506  22.883  23.269  1.00  0.00     0.262 C 
ATOM     17  C   UNL A   1      34.721  24.019  25.266  1.00  0.00     0.203 C 
ATOM     18  H   UNL A   1      34.369  22.087  24.771  1.00  0.00     0.348 HD
ATOM     19  C   UNL A   1      36.862  22.600  23.914  1.00  0.00     0.062 C 
ATOM     20  C   UNL A   1      36.039  23.729  25.994  1.00  0.00     0.067 C 
ATOM     21  C   UNL A   1      37.190  23.619  24.999  1.00  0.00     0.012 C 
ENDBRANCH   8  10
ENDBRANCH   7   8
BRANCH   7  22
ATOM     22  N   UNL A   1      33.302  27.144  24.886  1.00  0.00    -0.347 N 
ATOM     23  H   UNL A   1      33.494  26.170  24.654  1.00  0.00     0.345 HD
ATOM     24  H   UNL A   1      34.112  27.548  25.356  1.00  0.00     0.345 HD
ATOM     25  H   UNL A   1      33.108  27.666  24.031  1.00  0.00     0.345 HD
ENDBRANCH   7  22
ENDBRANCH   6   7
ENDBRANCH   3   6
ENDBRANCH   1   2
BRANCH   1  26
ATOM     26  C   UNL A   1      31.417  32.205  26.608  1.00  0.00     0.042 C 
BRANCH  26  27
ATOM     27  C   UNL A   1      32.591  32.824  27.359  1.00  0.00     0.118 C 
BRANCH  27  28
ATOM     28  N   UNL A   1      32.374  34.236  27.652  1.00  0.00    -0.352 N 
ATOM     29  C   UNL A   1      32.967  35.035  28.596  1.00  0.00     0.251 C 
ATOM     30  H   UNL A   1      31.703  34.682  27.087  1.00  0.00     0.163 HD
ATOM     31  O   UNL A   1      32.492  36.146  28.845  1.00  0.00    -0.269 OA
BRANCH  29  32
ATOM     32  C   UNL A   1      34.154  34.565  29.337  1.00  0.00     0.039 A 
ATOM     33  C   UNL A   1      33.993  34.066  30.632  1.00  0.00     0.014 A 
ATOM     34  C   UNL A   1      35.426  34.619  28.760  1.00  0.00     0.014 A 
ATOM     35  C   UNL A   1      35.094  33.540  31.314  1.00  0.00     0.010 A 
ATOM     36  C   UNL A   1      36.507  34.031  29.411  1.00  0.00     0.010 A 
ATOM     37  C   UNL A   1      36.350  33.475  30.690  1.00  0.00    -0.014 A 
BRANCH  37  38
ATOM     38  C   UNL A   1      37.501  32.797  31.338  1.00  0.00     0.031 A 
ATOM     39  C   UNL A   1      38.152  31.611  30.686  1.00  0.00     0.074 A 
ATOM     40  C   UNL A   1      37.906  33.203  32.558  1.00  0.00     0.049 A 
ATOM     41  N   UNL A   1      39.100  30.832  31.144  1.00  0.00    -0.248 NA
ATOM     42  C   UNL A   1      37.658  31.234  29.353  1.00  0.00     0.031 C 
ATOM     43  C   UNL A   1      37.324  34.313  33.314  1.00  0.00     0.029 A 
ATOM     44  N   UNL A   1      38.888  32.717  33.385  1.00  0.00    -0.354 N 
ATOM     45  C   UNL A   1      39.305  29.870  30.164  1.00  0.00     0.074 A 
ATOM     46  C   UNL A   1      38.355  30.134  29.105  1.00  0.00     0.031 C 
ATOM     47  C   UNL A   1      37.968  34.433  34.485  1.00  0.00     0.029 A 
ATOM     48  C   UNL A   1      38.977  33.383  34.583  1.00  0.00     0.049 A 
ATOM     49  H   UNL A   1      39.473  31.964  33.143  1.00  0.00     0.167 HD
ATOM     50  C   UNL A   1      40.220  28.871  30.141  1.00  0.00     0.037 A 
ATOM     51  C   UNL A   1      39.768  33.160  35.650  1.00  0.00     0.037 A 
ATOM     52  C   UNL A   1      41.179  28.624  31.186  1.00  0.00     0.049 A 
ATOM     53  C   UNL A   1      40.752  32.024  35.609  1.00  0.00     0.074 A 
ATOM     54  C   UNL A   1      42.196  27.685  31.220  1.00  0.00     0.029 A 
ATOM     55  N   UNL A   1      41.236  29.316  32.387  1.00  0.00    -0.354 N 
ATOM     56  N   UNL A   1      40.989  31.168  34.646  1.00  0.00    -0.248 NA
ATOM     57  C   UNL A   1      41.578  31.820  36.810  1.00  0.00     0.031 C 
ATOM     58  C   UNL A   1      42.836  27.777  32.460  1.00  0.00     0.029 A 
ATOM     59  C   UNL A   1      42.247  28.802  33.181  1.00  0.00     0.049 A 
ATOM     60  H   UNL A   1      40.644  30.063  32.637  1.00  0.00     0.167 HD
ATOM     61  C   UNL A   1      41.995  30.334  35.114  1.00  0.00     0.074 A 
ATOM     62  C   UNL A   1      42.342  30.802  36.440  1.00  0.00     0.031 C 
ATOM     63  C   UNL A   1      42.575  29.274  34.503  1.00  0.00     0.037 A 
BRANCH  50  64
ATOM     64  C   UNL A   1      40.233  27.966  28.944  1.00  0.00     0.064 A 
ATOM     65  C   UNL A   1      40.979  28.280  27.797  1.00  0.00     0.173 A 
ATOM     66  C   UNL A   1      39.539  26.747  28.964  1.00  0.00     0.173 A 
ATOM     67  F   UNL A   1      41.652  29.437  27.725  1.00  0.00    -0.203 F 
ATOM     68  C   UNL A   1      41.009  27.416  26.705  1.00  0.00     0.198 A 
ATOM     69  C   UNL A   1      39.595  25.873  27.880  1.00  0.00     0.198 A 
ATOM     70  F   UNL A   1      38.817  26.396  30.039  1.00  0.00    -0.203 F 
ATOM     71  F   UNL A   1      41.696  27.755  25.605  1.00  0.00    -0.200 F 
ATOM     72  C   UNL A   1      40.324  26.211  26.751  1.00  0.00     0.200 A 
ATOM     73  F   UNL A   1      38.943  24.704  27.930  1.00  0.00    -0.200 F 
ATOM     74  F   UNL A   1      40.363  25.377  25.702  1.00  0.00    -0.200 F 
ENDBRANCH  50  64
BRANCH  51  75
ATOM     75  C   UNL A   1      39.663  34.032  36.849  1.00  0.00     0.064 A 
ATOM     76  C   UNL A   1      38.870  33.658  37.941  1.00  0.00     0.173 A 
ATOM     77  C   UNL A   1      40.347  35.254  36.925  1.00  0.00     0.173 A 
ATOM     78  F   UNL A   1      38.179  32.508  37.904  1.00  0.00    -0.203 F 
ATOM     79  C   UNL A   1      38.748  34.482  39.058  1.00  0.00     0.198 A 
ATOM     80  C   UNL A   1      40.246  36.065  38.053  1.00  0.00     0.198 A 
ATOM     81  F   UNL A   1      41.120  35.657  35.907  1.00  0.00    -0.203 F 
ATOM     82  F   UNL A   1      37.947  34.122  40.069  1.00  0.00    -0.200 F 
ATOM     83  C   UNL A   1      39.441  35.682  39.116  1.00  0.00     0.200 A 
ATOM     84  F   UNL A   1      40.926  37.219  38.110  1.00  0.00    -0.200 F 
ATOM     85  F   UNL A   1      39.326  36.473  40.191  1.00  0.00    -0.200 F 
ENDBRANCH  51  75
BRANCH  63  86
ATOM     86  C   UNL A   1      43.649  28.549  35.259  1.00  0.00     0.064 A 
ATOM     87  C   UNL A   1      43.340  27.509  36.148  1.00  0.00     0.173 A 
ATOM     88  C   UNL A   1      45.001  28.869  35.064  1.00  0.00     0.173 A 
ATOM     89  F   UNL A   1      42.061  27.178  36.381  1.00  0.00    -0.203 F 
ATOM     90  C   UNL A   1      44.346  26.828  36.829  1.00  0.00     0.198 A 
ATOM     91  C   UNL A   1      46.005  28.168  35.725  1.00  0.00     0.198 A 
ATOM     92  F   UNL A   1      45.349  29.853  34.222  1.00  0.00    -0.203 F 
ATOM     93  F   UNL A   1      44.025  25.865  37.705  1.00  0.00    -0.200 F 
ATOM     94  C   UNL A   1      45.677  27.152  36.611  1.00  0.00     0.200 A 
ATOM     95  F   UNL A   1      47.291  28.474  35.506  1.00  0.00    -0.200 F 
ATOM     96  F   UNL A   1      46.643  26.490  37.262  1.00  0.00    -0.200 F 
ENDBRANCH  63  86
ENDBRANCH  37  38
ENDBRANCH  29  32
ENDBRANCH  27  28
ENDBRANCH  26  27
ENDBRANCH   1  26
TORSDOF 14
ENDMDL
MODEL 2
REMARK VINA RESULT:     -12.2      1.211      2.175
REMARK SMILES C[C@H]1C[N@H+]2CCCC[C@@H]2CN1C(=O)[C@H]([NH3+])CC(=O)NCCCNC(=O)c1ccc(-c2c3nc(c(-c4c(F)c(F)c(F)c(F)c4F)c4ccc([nH]4)c(-c4c(F)c(F)c(F)c(F)c4F)c4nc(c(-c5c(F)c(F)c(F)c(F)c5F)c5ccc2[nH]5)C=C4)C=C3)cc1
REMARK SMILES IDX 20 1 19 2 17 3 18 4 16 6 14 7 12 8 13 9 11 10 1 11 2 12 3 13
REMARK SMILES IDX 4 14 10 15 5 16 9 17 6 19 8 20 7 21 15 22 21 26 22 27 23 28
REMARK SMILES IDX 24 29 25 31 26 32 27 33 88 34 28 35 87 36 29 37 30 38 31 39
REMARK SMILES IDX 81 40 32 41 86 42 80 43 82 44 33 45 85 46 79 47 78 48 34 50
REMARK SMILES IDX 66 51 46 52 65 53 47 54 50 55 64 56 83 57 48 58 49 59 63 61
REMARK SMILES IDX 84 62 51 63 35 64 36 65 44 66 37 67 38 68 42 69 45 70 39 71
REMARK SMILES IDX 40 72 43 73 41 74 67 75 68 76 76 77 69 78 70 79 74 80 77 81
REMARK SMILES IDX 71 82 72 83 75 84 73 85 52 86 53 87 61 88 54 89 55 90 59 91
REMARK SMILES IDX 62 92 56 93 57 94 60 95 58 96
REMARK H PARENT 19 5 4 18 15 23 15 24 15 25 23 30 82 49 50 60
REMARK Flexibility Score: inf
ROOT
ATOM      1  C   UNL A   1      31.652  30.703  25.784  1.00  0.00     0.117 C 
ENDROOT
BRANCH   1   2
ATOM      2  N   UNL A   1      30.690  30.717  24.693  1.00  0.00    -0.356 N 
ATOM      3  C   UNL A   1      30.265  29.713  23.877  1.00  0.00     0.226 C 
ATOM      4  O   UNL A   1      29.409  29.964  23.029  1.00  0.00    -0.275 OA
ATOM      5  H   UNL A   1      30.280  31.595  24.516  1.00  0.00     0.163 HD
BRANCH   3   6
ATOM      6  C   UNL A   1      30.852  28.333  24.011  1.00  0.00     0.175 C 
BRANCH   6   7
ATOM      7  C   UNL A   1      31.902  28.050  22.931  1.00  0.00     0.280 C 
BRANCH   7   8
ATOM      8  C   UNL A   1      33.265  27.761  23.630  1.00  0.00     0.281 C 
ATOM      9  O   UNL A   1      34.027  28.712  23.839  1.00  0.00    -0.268 OA
BRANCH   8  10
ATOM     10  N   UNL A   1      33.545  26.471  24.070  1.00  0.00    -0.323 N 
ATOM     11  C   UNL A   1      32.893  26.980  26.496  1.00  0.00     0.037 C 
ATOM     12  C   UNL A   1      33.727  26.143  25.511  1.00  0.00     0.137 C 
ATOM     13  C   UNL A   1      33.422  24.634  25.863  1.00  0.00     0.287 C 
ATOM     14  N   UNL A   1      33.434  23.605  24.801  1.00  0.00    -0.329 N 
ATOM     15  C   UNL A   1      33.892  25.366  23.170  1.00  0.00     0.185 C 
ATOM     16  C   UNL A   1      32.585  22.468  25.197  1.00  0.00     0.262 C 
ATOM     17  C   UNL A   1      33.003  24.161  23.507  1.00  0.00     0.203 C 
ATOM     18  H   UNL A   1      34.393  23.276  24.684  1.00  0.00     0.348 HD
ATOM     19  C   UNL A   1      32.590  21.360  24.145  1.00  0.00     0.062 C 
ATOM     20  C   UNL A   1      33.068  23.098  22.404  1.00  0.00     0.067 C 
ATOM     21  C   UNL A   1      32.207  21.892  22.769  1.00  0.00     0.012 C 
ENDBRANCH   8  10
ENDBRANCH   7   8
BRANCH   7  22
ATOM     22  N   UNL A   1      32.101  29.200  22.012  1.00  0.00    -0.347 N 
ATOM     23  H   UNL A   1      31.482  29.103  21.208  1.00  0.00     0.345 HD
ATOM     24  H   UNL A   1      33.070  29.217  21.696  1.00  0.00     0.345 HD
ATOM     25  H   UNL A   1      31.887  30.068  22.504  1.00  0.00     0.345 HD
ENDBRANCH   7  22
ENDBRANCH   6   7
ENDBRANCH   3   6
ENDBRANCH   1   2
BRANCH   1  26
ATOM     26  C   UNL A   1      31.397  31.811  26.799  1.00  0.00     0.042 C 
BRANCH  26  27
ATOM     27  C   UNL A   1      32.668  32.520  27.256  1.00  0.00     0.118 C 
BRANCH  27  28
ATOM     28  N   UNL A   1      32.442  33.934  27.527  1.00  0.00    -0.352 N 
ATOM     29  C   UNL A   1      33.012  34.745  28.476  1.00  0.00     0.251 C 
ATOM     30  H   UNL A   1      31.783  34.373  26.942  1.00  0.00     0.163 HD
ATOM     31  O   UNL A   1      32.529  35.859  28.700  1.00  0.00    -0.269 OA
BRANCH  29  32
ATOM     32  C   UNL A   1      34.182  34.286  29.249  1.00  0.00     0.039 A 
ATOM     33  C   UNL A   1      33.978  33.629  30.465  1.00  0.00     0.014 A 
ATOM     34  C   UNL A   1      35.481  34.506  28.781  1.00  0.00     0.014 A 
ATOM     35  C   UNL A   1      35.071  33.115  31.167  1.00  0.00     0.010 A 
ATOM     36  C   UNL A   1      36.562  33.932  29.444  1.00  0.00     0.010 A 
ATOM     37  C   UNL A   1      36.368  33.221  30.638  1.00  0.00    -0.014 A 
BRANCH  37  38
ATOM     38  C   UNL A   1      37.527  32.564  31.294  1.00  0.00     0.031 A 
ATOM     39  C   UNL A   1      38.214  31.401  30.638  1.00  0.00     0.074 A 
ATOM     40  C   UNL A   1      37.906  32.966  32.523  1.00  0.00     0.049 A 
ATOM     41  N   UNL A   1      39.175  30.640  31.099  1.00  0.00    -0.248 NA
ATOM     42  C   UNL A   1      37.746  31.027  29.294  1.00  0.00     0.031 C 
ATOM     43  C   UNL A   1      37.287  34.054  33.283  1.00  0.00     0.029 A 
ATOM     44  N   UNL A   1      38.888  32.495  33.358  1.00  0.00    -0.354 N 
ATOM     45  C   UNL A   1      39.416  29.694  30.112  1.00  0.00     0.074 A 
ATOM     46  C   UNL A   1      38.473  29.948  29.044  1.00  0.00     0.031 C 
ATOM     47  C   UNL A   1      37.913  34.176  34.464  1.00  0.00     0.029 A 
ATOM     48  C   UNL A   1      38.946  33.150  34.563  1.00  0.00     0.049 A 
ATOM     49  H   UNL A   1      39.495  31.759  33.115  1.00  0.00     0.167 HD
ATOM     50  C   UNL A   1      40.355  28.718  30.091  1.00  0.00     0.037 A 
ATOM     51  C   UNL A   1      39.729  32.934  35.638  1.00  0.00     0.037 A 
ATOM     52  C   UNL A   1      41.307  28.483  31.145  1.00  0.00     0.049 A 
ATOM     53  C   UNL A   1      40.741  31.822  35.598  1.00  0.00     0.074 A 
ATOM     54  C   UNL A   1      42.345  27.569  31.182  1.00  0.00     0.029 A 
ATOM     55  N   UNL A   1      41.331  29.163  32.353  1.00  0.00    -0.354 N 
ATOM     56  N   UNL A   1      41.010  30.983  34.629  1.00  0.00    -0.248 NA
ATOM     57  C   UNL A   1      41.555  31.626  36.807  1.00  0.00     0.031 C 
ATOM     58  C   UNL A   1      42.967  27.662  32.431  1.00  0.00     0.029 A 
ATOM     59  C   UNL A   1      42.345  28.665  33.156  1.00  0.00     0.049 A 
ATOM     60  H   UNL A   1      40.718  29.892  32.604  1.00  0.00     0.167 HD
ATOM     61  C   UNL A   1      42.030  30.169  35.101  1.00  0.00     0.074 A 
ATOM     62  C   UNL A   1      42.349  30.630  36.436  1.00  0.00     0.031 C 
ATOM     63  C   UNL A   1      42.644  29.130  34.486  1.00  0.00     0.037 A 
BRANCH  50  64
ATOM     64  C   UNL A   1      40.406  27.827  28.884  1.00  0.00     0.064 A 
ATOM     65  C   UNL A   1      39.663  26.638  28.819  1.00  0.00     0.173 A 
ATOM     66  C   UNL A   1      41.162  28.192  27.759  1.00  0.00     0.173 A 
ATOM     67  F   UNL A   1      38.932  26.241  29.871  1.00  0.00    -0.203 F 
ATOM     68  C   UNL A   1      39.694  25.835  27.681  1.00  0.00     0.198 A 
ATOM     69  C   UNL A   1      41.168  27.400  26.613  1.00  0.00     0.198 A 
ATOM     70  F   UNL A   1      41.884  29.322  27.767  1.00  0.00    -0.203 F 
ATOM     71  F   UNL A   1      39.008  24.685  27.658  1.00  0.00    -0.200 F 
ATOM     72  C   UNL A   1      40.439  26.221  26.578  1.00  0.00     0.200 A 
ATOM     73  F   UNL A   1      41.879  27.780  25.542  1.00  0.00    -0.200 F 
ATOM     74  F   UNL A   1      40.459  25.452  25.480  1.00  0.00    -0.200 F 
ENDBRANCH  50  64
BRANCH  51  75
ATOM     75  C   UNL A   1      39.587  33.790  36.845  1.00  0.00     0.064 A 
ATOM     76  C   UNL A   1      38.768  33.397  37.912  1.00  0.00     0.173 A 
ATOM     77  C   UNL A   1      40.261  35.015  36.954  1.00  0.00     0.173 A 
ATOM     78  F   UNL A   1      38.086  32.244  37.842  1.00  0.00    -0.203 F 
ATOM     79  C   UNL A   1      38.612  34.206  39.035  1.00  0.00     0.198 A 
ATOM     80  C   UNL A   1      40.125  35.811  38.090  1.00  0.00     0.198 A 
ATOM     81  F   UNL A   1      41.057  35.436  35.961  1.00  0.00    -0.203 F 
ATOM     82  F   UNL A   1      37.788  33.828  40.021  1.00  0.00    -0.200 F 
ATOM     83  C   UNL A   1      39.296  35.409  39.126  1.00  0.00     0.200 A 
ATOM     84  F   UNL A   1      40.796  36.968  38.179  1.00  0.00    -0.200 F 
ATOM     85  F   UNL A   1      39.148  36.186  40.208  1.00  0.00    -0.200 F 
ENDBRANCH  51  75
BRANCH  63  86
ATOM     86  C   UNL A   1      43.725  28.423  35.249  1.00  0.00     0.064 A 
ATOM     87  C   UNL A   1      43.442  27.311  36.055  1.00  0.00     0.173 A 
ATOM     88  C   UNL A   1      45.062  28.835  35.141  1.00  0.00     0.173 A 
ATOM     89  F   UNL A   1      42.177  26.890  36.204  1.00  0.00    -0.203 F 
ATOM     90  C   UNL A   1      44.456  26.649  36.742  1.00  0.00     0.198 A 
ATOM     91  C   UNL A   1      46.077  28.154  35.807  1.00  0.00     0.198 A 
ATOM     92  F   UNL A   1      45.385  29.891  34.380  1.00  0.00    -0.203 F 
ATOM     93  F   UNL A   1      44.157  25.614  37.540  1.00  0.00    -0.200 F 
ATOM     94  C   UNL A   1      45.772  27.065  36.611  1.00  0.00     0.200 A 
ATOM     95  F   UNL A   1      47.350  28.550  35.671  1.00  0.00    -0.200 F 
ATOM     96  F   UNL A   1      46.748  26.421  37.267  1.00  0.00    -0.200 F 
ENDBRANCH  63  86
ENDBRANCH  37  38
ENDBRANCH  29  32
ENDBRANCH  27  28
ENDBRANCH  26  27
ENDBRANCH   1  26
TORSDOF 14
ENDMDL
MODEL 3
REMARK VINA RESULT:     -12.2      5.738     11.265
REMARK SMILES C[C@H]1C[N@H+]2CCCC[C@@H]2CN1C(=O)[C@H]([NH3+])CC(=O)NCCCNC(=O)c1ccc(-c2c3nc(c(-c4c(F)c(F)c(F)c(F)c4F)c4ccc([nH]4)c(-c4c(F)c(F)c(F)c(F)c4F)c4nc(c(-c5c(F)c(F)c(F)c(F)c5F)c5ccc2[nH]5)C=C4)C=C3)cc1
REMARK SMILES IDX 20 1 19 2 17 3 18 4 16 6 14 7 12 8 13 9 11 10 1 11 2 12 3 13
REMARK SMILES IDX 4 14 10 15 5 16 9 17 6 19 8 20 7 21 15 22 21 26 22 27 23 28
REMARK SMILES IDX 24 29 25 31 26 32 27 33 88 34 28 35 87 36 29 37 30 38 31 39
REMARK SMILES IDX 81 40 32 41 86 42 80 43 82 44 33 45 85 46 79 47 78 48 34 50
REMARK SMILES IDX 66 51 46 52 65 53 47 54 50 55 64 56 83 57 48 58 49 59 63 61
REMARK SMILES IDX 84 62 51 63 35 64 36 65 44 66 37 67 38 68 42 69 45 70 39 71
REMARK SMILES IDX 40 72 43 73 41 74 67 75 68 76 76 77 69 78 70 79 74 80 77 81
REMARK SMILES IDX 71 82 72 83 75 84 73 85 52 86 53 87 61 88 54 89 55 90 59 91
REMARK SMILES IDX 62 92 56 93 57 94 60 95 58 96
REMARK H PARENT 19 5 4 18 15 23 15 24 15 25 23 30 82 49 50 60
REMARK Flexibility Score: inf
ROOT
ATOM      1  C   UNL A   1      36.984  20.615  25.039  1.00  0.00     0.117 C 
ENDROOT
BRANCH   1   2
ATOM      2  N   UNL A   1      37.344  21.849  25.719  1.00  0.00    -0.356 N 
ATOM      3  C   UNL A   1      37.042  23.143  25.420  1.00  0.00     0.226 C 
ATOM      4  O   UNL A   1      37.443  24.032  26.171  1.00  0.00    -0.275 OA
ATOM      5  H   UNL A   1      37.895  21.730  26.527  1.00  0.00     0.163 HD
BRANCH   3   6
ATOM      6  C   UNL A   1      36.248  23.465  24.182  1.00  0.00     0.175 C 
BRANCH   6   7
ATOM      7  C   UNL A   1      34.741  23.314  24.414  1.00  0.00     0.280 C 
BRANCH   7   8
ATOM      8  C   UNL A   1      33.989  24.216  23.390  1.00  0.00     0.281 C 
ATOM      9  O   UNL A   1      34.030  23.902  22.195  1.00  0.00    -0.268 OA
BRANCH   8  10
ATOM     10  N   UNL A   1      33.231  25.288  23.853  1.00  0.00    -0.323 N 
ATOM     11  C   UNL A   1      31.134  23.860  24.221  1.00  0.00     0.037 C 
ATOM     12  C   UNL A   1      31.745  25.241  23.924  1.00  0.00     0.137 C 
ATOM     13  C   UNL A   1      31.128  26.223  24.995  1.00  0.00     0.287 C 
ATOM     14  N   UNL A   1      31.916  27.371  25.493  1.00  0.00    -0.329 N 
ATOM     15  C   UNL A   1      33.788  26.619  24.113  1.00  0.00     0.185 C 
ATOM     16  C   UNL A   1      31.438  27.765  26.829  1.00  0.00     0.262 C 
ATOM     17  C   UNL A   1      33.357  27.065  25.518  1.00  0.00     0.203 C 
ATOM     18  H   UNL A   1      31.785  28.153  24.852  1.00  0.00     0.348 HD
ATOM     19  C   UNL A   1      32.200  28.970  27.376  1.00  0.00     0.062 C 
ATOM     20  C   UNL A   1      34.168  28.279  25.987  1.00  0.00     0.067 C 
ATOM     21  C   UNL A   1      33.706  28.732  27.369  1.00  0.00     0.012 C 
ENDBRANCH   8  10
ENDBRANCH   7   8
BRANCH   7  22
ATOM     22  N   UNL A   1      34.327  23.735  25.777  1.00  0.00    -0.347 N 
ATOM     23  H   UNL A   1      35.140  23.742  26.392  1.00  0.00     0.345 HD
ATOM     24  H   UNL A   1      33.632  23.081  26.138  1.00  0.00     0.345 HD
ATOM     25  H   UNL A   1      33.923  24.671  25.734  1.00  0.00     0.345 HD
ENDBRANCH   7  22
ENDBRANCH   6   7
ENDBRANCH   3   6
ENDBRANCH   1   2
BRANCH   1  26
ATOM     26  C   UNL A   1      38.133  19.614  25.002  1.00  0.00     0.042 C 
BRANCH  26  27
ATOM     27  C   UNL A   1      39.368  20.079  25.767  1.00  0.00     0.118 C 
BRANCH  27  28
ATOM     28  N   UNL A   1      40.365  19.024  25.897  1.00  0.00    -0.352 N 
ATOM     29  C   UNL A   1      41.720  19.119  26.084  1.00  0.00     0.251 C 
ATOM     30  H   UNL A   1      40.012  18.106  25.845  1.00  0.00     0.163 HD
ATOM     31  O   UNL A   1      42.430  18.119  25.945  1.00  0.00    -0.269 OA
BRANCH  29  32
ATOM     32  C   UNL A   1      42.341  20.414  26.424  1.00  0.00     0.039 A 
ATOM     33  C   UNL A   1      42.954  21.160  25.415  1.00  0.00     0.014 A 
ATOM     34  C   UNL A   1      42.325  20.893  27.737  1.00  0.00     0.014 A 
ATOM     35  C   UNL A   1      43.472  22.425  25.704  1.00  0.00     0.010 A 
ATOM     36  C   UNL A   1      42.776  22.181  28.011  1.00  0.00     0.010 A 
ATOM     37  C   UNL A   1      43.345  22.965  26.995  1.00  0.00    -0.014 A 
BRANCH  37  38
ATOM     38  C   UNL A   1      43.761  24.358  27.294  1.00  0.00     0.031 A 
ATOM     39  C   UNL A   1      42.749  25.378  27.733  1.00  0.00     0.074 A 
ATOM     40  C   UNL A   1      45.042  24.724  27.089  1.00  0.00     0.049 A 
ATOM     41  N   UNL A   1      42.905  26.661  27.944  1.00  0.00    -0.248 NA
ATOM     42  C   UNL A   1      41.374  24.899  27.941  1.00  0.00     0.031 C 
ATOM     43  C   UNL A   1      46.108  23.837  26.621  1.00  0.00     0.029 A 
ATOM     44  N   UNL A   1      45.661  25.941  27.229  1.00  0.00    -0.354 N 
ATOM     45  C   UNL A   1      41.651  27.142  28.295  1.00  0.00     0.074 A 
ATOM     46  C   UNL A   1      40.735  26.024  28.228  1.00  0.00     0.031 C 
ATOM     47  C   UNL A   1      47.251  24.534  26.526  1.00  0.00     0.029 A 
ATOM     48  C   UNL A   1      46.990  25.925  26.883  1.00  0.00     0.049 A 
ATOM     49  H   UNL A   1      45.197  26.749  27.547  1.00  0.00     0.167 HD
ATOM     50  C   UNL A   1      41.303  28.398  28.663  1.00  0.00     0.037 A 
ATOM     51  C   UNL A   1      47.894  26.923  26.839  1.00  0.00     0.037 A 
ATOM     52  C   UNL A   1      42.221  29.503  28.752  1.00  0.00     0.049 A 
ATOM     53  C   UNL A   1      47.470  28.314  27.222  1.00  0.00     0.074 A 
ATOM     54  C   UNL A   1      41.979  30.794  29.188  1.00  0.00     0.029 A 
ATOM     55  N   UNL A   1      43.559  29.450  28.388  1.00  0.00    -0.354 N 
ATOM     56  N   UNL A   1      46.299  28.741  27.625  1.00  0.00    -0.248 NA
ATOM     57  C   UNL A   1      48.496  29.364  27.139  1.00  0.00     0.031 C 
ATOM     58  C   UNL A   1      43.157  31.535  29.044  1.00  0.00     0.029 A 
ATOM     59  C   UNL A   1      44.145  30.693  28.559  1.00  0.00     0.049 A 
ATOM     60  H   UNL A   1      44.023  28.646  28.059  1.00  0.00     0.167 HD
ATOM     61  C   UNL A   1      46.447  30.101  27.856  1.00  0.00     0.074 A 
ATOM     62  C   UNL A   1      47.830  30.426  27.572  1.00  0.00     0.031 C 
ATOM     63  C   UNL A   1      45.521  31.002  28.263  1.00  0.00     0.037 A 
BRANCH  50  64
ATOM     64  C   UNL A   1      39.863  28.650  29.004  1.00  0.00     0.064 A 
ATOM     65  C   UNL A   1      39.370  28.440  30.301  1.00  0.00     0.173 A 
ATOM     66  C   UNL A   1      38.980  29.159  28.039  1.00  0.00     0.173 A 
ATOM     67  F   UNL A   1      40.171  27.946  31.256  1.00  0.00    -0.203 F 
ATOM     68  C   UNL A   1      38.039  28.708  30.613  1.00  0.00     0.198 A 
ATOM     69  C   UNL A   1      37.657  29.451  28.363  1.00  0.00     0.198 A 
ATOM     70  F   UNL A   1      39.403  29.384  26.786  1.00  0.00    -0.203 F 
ATOM     71  F   UNL A   1      37.581  28.462  31.848  1.00  0.00    -0.200 F 
ATOM     72  C   UNL A   1      37.187  29.220  29.646  1.00  0.00     0.200 A 
ATOM     73  F   UNL A   1      36.838  29.959  27.432  1.00  0.00    -0.200 F 
ATOM     74  F   UNL A   1      35.910  29.487  29.952  1.00  0.00    -0.200 F 
ENDBRANCH  50  64
BRANCH  51  75
ATOM     75  C   UNL A   1      49.290  26.643  26.415  1.00  0.00     0.064 A 
ATOM     76  C   UNL A   1      49.688  26.826  25.084  1.00  0.00     0.173 A 
ATOM     77  C   UNL A   1      50.252  26.183  27.327  1.00  0.00     0.173 A 
ATOM     78  F   UNL A   1      48.796  27.242  24.171  1.00  0.00    -0.203 F 
ATOM     79  C   UNL A   1      50.989  26.543  24.676  1.00  0.00     0.198 A 
ATOM     80  C   UNL A   1      51.560  25.926  26.924  1.00  0.00     0.198 A 
ATOM     81  F   UNL A   1      49.923  25.993  28.613  1.00  0.00    -0.203 F 
ATOM     82  F   UNL A   1      51.330  26.683  23.388  1.00  0.00    -0.200 F 
ATOM     83  C   UNL A   1      51.926  26.099  25.597  1.00  0.00     0.200 A 
ATOM     84  F   UNL A   1      52.466  25.508  27.819  1.00  0.00    -0.200 F 
ATOM     85  F   UNL A   1      53.178  25.829  25.204  1.00  0.00    -0.200 F 
ENDBRANCH  51  75
BRANCH  63  86
ATOM     86  C   UNL A   1      45.972  32.423  28.428  1.00  0.00     0.064 A 
ATOM     87  C   UNL A   1      46.522  32.879  29.635  1.00  0.00     0.173 A 
ATOM     88  C   UNL A   1      45.890  33.328  27.359  1.00  0.00     0.173 A 
ATOM     89  F   UNL A   1      46.606  32.057  30.691  1.00  0.00    -0.203 F 
ATOM     90  C   UNL A   1      46.958  34.195  29.771  1.00  0.00     0.198 A 
ATOM     91  C   UNL A   1      46.350  34.634  27.489  1.00  0.00     0.198 A 
ATOM     92  F   UNL A   1      45.373  32.940  26.183  1.00  0.00    -0.203 F 
ATOM     93  F   UNL A   1      47.443  34.619  30.946  1.00  0.00    -0.200 F 
ATOM     94  C   UNL A   1      46.879  35.068  28.696  1.00  0.00     0.200 A 
ATOM     95  F   UNL A   1      46.285  35.475  26.448  1.00  0.00    -0.200 F 
ATOM     96  F   UNL A   1      47.306  36.332  28.827  1.00  0.00    -0.200 F 
ENDBRANCH  63  86
ENDBRANCH  37  38
ENDBRANCH  29  32
ENDBRANCH  27  28
ENDBRANCH  26  27
ENDBRANCH   1  26
TORSDOF 14
ENDMDL
