MODEL 1
REMARK VINA RESULT:     -13.2      0.000      0.000
REMARK SMILES Cc1cc(Nc2ccc(C(=O)NCCCNC(=O)c3ccc(-c4c5nc(c(-c6c(F)c(F)c(F)c(F)c6F)c6ccc([nH]6)c(-c6c(F)c(F)c(F)c(F)c6F)c6nc(c(-c7c(F)c(F)c(F)c(F)c7F)c7ccc4[nH]7)C=C6)C=C5)cc3)cc2)nc(-n2nc(C)cc2C)n1
REMARK SMILES IDX 13 1 12 2 10 3 11 4 9 6 6 7 7 8 83 9 8 10 82 11 5 12 4 14
REMARK SMILES IDX 1 15 2 16 3 17 93 18 85 19 84 20 86 21 87 22 91 23 88 24
REMARK SMILES IDX 90 25 92 26 89 27 14 28 15 29 16 30 17 31 18 33 19 34 20 35
REMARK SMILES IDX 81 36 21 37 80 38 22 39 23 40 24 41 74 42 25 43 79 44 73 45
REMARK SMILES IDX 75 46 26 47 78 48 72 49 71 50 27 52 59 53 39 54 58 55 40 56
REMARK SMILES IDX 43 57 57 58 76 59 41 60 42 61 56 63 77 64 44 65 28 66 29 67
REMARK SMILES IDX 37 68 30 69 31 70 35 71 38 72 32 73 33 74 36 75 34 76 60 77
REMARK SMILES IDX 61 78 69 79 62 80 63 81 67 82 70 83 64 84 65 85 68 86 66 87
REMARK SMILES IDX 45 88 46 89 54 90 47 91 48 92 52 93 55 94 49 95 50 96 53 97
REMARK SMILES IDX 51 98
REMARK H PARENT 12 5 5 13 16 32 75 51 43 62
REMARK Flexibility Score: inf
ROOT
ATOM      1  C   UNL A   1      32.765  27.824  22.854  1.00  0.00     0.118 C 
ENDROOT
BRANCH   1   2
ATOM      2  N   UNL A   1      31.324  27.977  22.950  1.00  0.00    -0.352 N 
ATOM      3  C   UNL A   1      30.345  27.176  23.481  1.00  0.00     0.251 C 
ATOM      4  O   UNL A   1      29.192  27.608  23.481  1.00  0.00    -0.269 OA
ATOM      5  H   UNL A   1      30.985  28.816  22.560  1.00  0.00     0.163 HD
BRANCH   3   6
ATOM      6  C   UNL A   1      30.618  25.847  24.092  1.00  0.00     0.039 A 
ATOM      7  C   UNL A   1      31.222  23.420  25.411  1.00  0.00     0.040 A 
ATOM      8  C   UNL A   1      31.071  24.603  26.138  1.00  0.00     0.027 A 
ATOM      9  C   UNL A   1      31.027  23.461  24.025  1.00  0.00     0.027 A 
ATOM     10  C   UNL A   1      30.779  25.805  25.485  1.00  0.00     0.016 A 
ATOM     11  C   UNL A   1      30.690  24.653  23.374  1.00  0.00     0.016 A 
BRANCH   7  12
ATOM     12  N   UNL A   1      31.667  22.249  26.048  1.00  0.00    -0.340 N 
ATOM     13  H   UNL A   1      31.178  21.959  26.851  1.00  0.00     0.168 HD
BRANCH  12  14
ATOM     14  C   UNL A   1      32.754  21.458  25.632  1.00  0.00     0.136 A 
ATOM     15  C   UNL A   1      33.442  18.093  24.133  1.00  0.00     0.067 C 
ATOM     16  C   UNL A   1      33.593  19.500  24.626  1.00  0.00     0.045 A 
ATOM     17  C   UNL A   1      32.510  20.200  25.119  1.00  0.00     0.070 A 
ATOM     18  N   UNL A   1      34.839  20.009  24.630  1.00  0.00    -0.216 NA
ATOM     19  C   UNL A   1      35.007  21.215  25.218  1.00  0.00     0.252 A 
ATOM     20  N   UNL A   1      33.998  21.953  25.717  1.00  0.00    -0.194 NA
BRANCH  19  21
ATOM     21  N   UNL A   1      36.349  21.712  25.364  1.00  0.00    -0.203 N 
ATOM     22  N   UNL A   1      36.600  23.028  25.641  1.00  0.00    -0.170 NA
ATOM     23  C   UNL A   1      37.531  20.981  25.317  1.00  0.00     0.045 A 
ATOM     24  C   UNL A   1      37.894  23.066  25.973  1.00  0.00     0.060 A 
ATOM     25  C   UNL A   1      38.528  21.828  25.749  1.00  0.00     0.049 A 
ATOM     26  C   UNL A   1      37.610  19.583  24.825  1.00  0.00     0.067 C 
ATOM     27  C   UNL A   1      38.497  24.314  26.500  1.00  0.00     0.069 C 
ENDBRANCH  19  21
ENDBRANCH  12  14
ENDBRANCH   7  12
ENDBRANCH   3   6
ENDBRANCH   1   2
BRANCH   1  28
ATOM     28  C   UNL A   1      33.492  28.937  23.612  1.00  0.00     0.042 C 
BRANCH  28  29
ATOM     29  C   UNL A   1      33.305  28.875  25.127  1.00  0.00     0.118 C 
BRANCH  29  30
ATOM     30  N   UNL A   1      32.766  30.114  25.665  1.00  0.00    -0.352 N 
ATOM     31  C   UNL A   1      33.172  30.875  26.732  1.00  0.00     0.251 C 
ATOM     32  H   UNL A   1      31.982  30.464  25.186  1.00  0.00     0.163 HD
ATOM     33  O   UNL A   1      32.452  31.792  27.116  1.00  0.00    -0.269 OA
BRANCH  31  34
ATOM     34  C   UNL A   1      34.450  30.611  27.437  1.00  0.00     0.039 A 
ATOM     35  C   UNL A   1      34.638  29.344  28.001  1.00  0.00     0.014 A 
ATOM     36  C   UNL A   1      35.419  31.601  27.626  1.00  0.00     0.014 A 
ATOM     37  C   UNL A   1      35.798  29.062  28.725  1.00  0.00     0.010 A 
ATOM     38  C   UNL A   1      36.606  31.302  28.301  1.00  0.00     0.010 A 
ATOM     39  C   UNL A   1      36.801  30.034  28.869  1.00  0.00    -0.014 A 
BRANCH  39  40
ATOM     40  C   UNL A   1      38.043  29.721  29.621  1.00  0.00     0.031 A 
ATOM     41  C   UNL A   1      38.268  30.280  30.998  1.00  0.00     0.074 A 
ATOM     42  C   UNL A   1      38.981  28.941  29.053  1.00  0.00     0.049 A 
ATOM     43  N   UNL A   1      39.275  30.091  31.815  1.00  0.00    -0.248 NA
ATOM     44  C   UNL A   1      37.236  31.189  31.521  1.00  0.00     0.031 C 
ATOM     45  C   UNL A   1      38.907  28.381  27.704  1.00  0.00     0.029 A 
ATOM     46  N   UNL A   1      40.178  28.479  29.540  1.00  0.00    -0.354 N 
ATOM     47  C   UNL A   1      39.004  30.861  32.939  1.00  0.00     0.074 A 
ATOM     48  C   UNL A   1      37.762  31.557  32.683  1.00  0.00     0.031 C 
ATOM     49  C   UNL A   1      39.996  27.627  27.481  1.00  0.00     0.029 A 
ATOM     50  C   UNL A   1      40.852  27.667  28.662  1.00  0.00     0.049 A 
ATOM     51  H   UNL A   1      40.521  28.709  30.434  1.00  0.00     0.167 HD
ATOM     52  C   UNL A   1      39.715  30.962  34.088  1.00  0.00     0.037 A 
ATOM     53  C   UNL A   1      42.024  27.018  28.799  1.00  0.00     0.037 A 
ATOM     54  C   UNL A   1      40.938  30.250  34.354  1.00  0.00     0.049 A 
ATOM     55  C   UNL A   1      42.774  27.116  30.098  1.00  0.00     0.074 A 
ATOM     56  C   UNL A   1      41.703  30.243  35.508  1.00  0.00     0.029 A 
ATOM     57  N   UNL A   1      41.575  29.413  33.449  1.00  0.00    -0.354 N 
ATOM     58  N   UNL A   1      42.470  27.790  31.180  1.00  0.00    -0.248 NA
ATOM     59  C   UNL A   1      44.023  26.349  30.199  1.00  0.00     0.031 C 
ATOM     60  C   UNL A   1      42.820  29.429  35.291  1.00  0.00     0.029 A 
ATOM     61  C   UNL A   1      42.731  28.896  34.015  1.00  0.00     0.049 A 
ATOM     62  H   UNL A   1      41.255  29.216  32.540  1.00  0.00     0.167 HD
ATOM     63  C   UNL A   1      43.474  27.512  32.097  1.00  0.00     0.074 A 
ATOM     64  C   UNL A   1      44.387  26.593  31.450  1.00  0.00     0.031 C 
ATOM     65  C   UNL A   1      43.628  27.980  33.359  1.00  0.00     0.037 A 
BRANCH  52  66
ATOM     66  C   UNL A   1      39.182  31.874  35.154  1.00  0.00     0.064 A 
ATOM     67  C   UNL A   1      38.434  31.381  36.234  1.00  0.00     0.173 A 
ATOM     68  C   UNL A   1      39.451  33.251  35.116  1.00  0.00     0.173 A 
ATOM     69  F   UNL A   1      38.140  30.075  36.312  1.00  0.00    -0.203 F 
ATOM     70  C   UNL A   1      37.953  32.237  37.222  1.00  0.00     0.198 A 
ATOM     71  C   UNL A   1      38.992  34.099  36.120  1.00  0.00     0.198 A 
ATOM     72  F   UNL A   1      40.168  33.773  34.109  1.00  0.00    -0.203 F 
ATOM     73  F   UNL A   1      37.204  31.750  38.221  1.00  0.00    -0.200 F 
ATOM     74  C   UNL A   1      38.238  33.593  37.168  1.00  0.00     0.200 A 
ATOM     75  F   UNL A   1      39.277  35.408  36.073  1.00  0.00    -0.200 F 
ATOM     76  F   UNL A   1      37.779  34.414  38.124  1.00  0.00    -0.200 F 
ENDBRANCH  52  66
BRANCH  53  77
ATOM     77  C   UNL A   1      42.532  26.174  27.688  1.00  0.00     0.064 A 
ATOM     78  C   UNL A   1      43.462  26.681  26.770  1.00  0.00     0.173 A 
ATOM     79  C   UNL A   1      42.103  24.850  27.523  1.00  0.00     0.173 A 
ATOM     80  F   UNL A   1      43.886  27.948  26.878  1.00  0.00    -0.203 F 
ATOM     81  C   UNL A   1      43.933  25.898  25.718  1.00  0.00     0.198 A 
ATOM     82  C   UNL A   1      42.594  24.061  26.484  1.00  0.00     0.198 A 
ATOM     83  F   UNL A   1      41.218  24.319  28.378  1.00  0.00    -0.203 F 
ATOM     84  F   UNL A   1      44.793  26.419  24.832  1.00  0.00    -0.200 F 
ATOM     85  C   UNL A   1      43.502  24.587  25.579  1.00  0.00     0.200 A 
ATOM     86  F   UNL A   1      42.185  22.791  26.360  1.00  0.00    -0.200 F 
ATOM     87  F   UNL A   1      43.959  23.834  24.569  1.00  0.00    -0.200 F 
ENDBRANCH  53  77
BRANCH  65  88
ATOM     88  C   UNL A   1      44.814  27.482  34.130  1.00  0.00     0.064 A 
ATOM     89  C   UNL A   1      44.750  26.311  34.900  1.00  0.00     0.173 A 
ATOM     90  C   UNL A   1      46.034  28.176  34.087  1.00  0.00     0.173 A 
ATOM     91  F   UNL A   1      43.602  25.623  34.985  1.00  0.00    -0.203 F 
ATOM     92  C   UNL A   1      45.855  25.869  35.622  1.00  0.00     0.198 A 
ATOM     93  C   UNL A   1      47.144  27.717  34.790  1.00  0.00     0.198 A 
ATOM     94  F   UNL A   1      46.147  29.298  33.361  1.00  0.00    -0.203 F 
ATOM     95  F   UNL A   1      45.756  24.777  36.393  1.00  0.00    -0.200 F 
ATOM     96  C   UNL A   1      47.051  26.569  35.564  1.00  0.00     0.200 A 
ATOM     97  F   UNL A   1      48.301  28.388  34.724  1.00  0.00    -0.200 F 
ATOM     98  F   UNL A   1      48.112  26.144  36.262  1.00  0.00    -0.200 F 
ENDBRANCH  65  88
ENDBRANCH  39  40
ENDBRANCH  31  34
ENDBRANCH  29  30
ENDBRANCH  28  29
ENDBRANCH   1  28
TORSDOF 13
ENDMDL
MODEL 2
REMARK VINA RESULT:     -13.2      4.201      9.746
REMARK SMILES Cc1cc(Nc2ccc(C(=O)NCCCNC(=O)c3ccc(-c4c5nc(c(-c6c(F)c(F)c(F)c(F)c6F)c6ccc([nH]6)c(-c6c(F)c(F)c(F)c(F)c6F)c6nc(c(-c7c(F)c(F)c(F)c(F)c7F)c7ccc4[nH]7)C=C6)C=C5)cc3)cc2)nc(-n2nc(C)cc2C)n1
REMARK SMILES IDX 13 1 12 2 10 3 11 4 9 6 6 7 7 8 83 9 8 10 82 11 5 12 4 14
REMARK SMILES IDX 1 15 2 16 3 17 93 18 85 19 84 20 86 21 87 22 91 23 88 24
REMARK SMILES IDX 90 25 92 26 89 27 14 28 15 29 16 30 17 31 18 33 19 34 20 35
REMARK SMILES IDX 81 36 21 37 80 38 22 39 23 40 24 41 74 42 25 43 79 44 73 45
REMARK SMILES IDX 75 46 26 47 78 48 72 49 71 50 27 52 59 53 39 54 58 55 40 56
REMARK SMILES IDX 43 57 57 58 76 59 41 60 42 61 56 63 77 64 44 65 28 66 29 67
REMARK SMILES IDX 37 68 30 69 31 70 35 71 38 72 32 73 33 74 36 75 34 76 60 77
REMARK SMILES IDX 61 78 69 79 62 80 63 81 67 82 70 83 64 84 65 85 68 86 66 87
REMARK SMILES IDX 45 88 46 89 54 90 47 91 48 92 52 93 55 94 49 95 50 96 53 97
REMARK SMILES IDX 51 98
REMARK H PARENT 12 5 5 13 16 32 75 51 43 62
REMARK Flexibility Score: inf
ROOT
ATOM      1  C   UNL A   1      35.060  21.468  26.039  1.00  0.00     0.118 C 
ENDROOT
BRANCH   1   2
ATOM      2  N   UNL A   1      34.026  20.498  25.720  1.00  0.00    -0.352 N 
ATOM      3  C   UNL A   1      32.724  20.639  25.313  1.00  0.00     0.251 C 
ATOM      4  O   UNL A   1      32.097  19.614  25.044  1.00  0.00    -0.269 OA
ATOM      5  H   UNL A   1      34.316  19.562  25.814  1.00  0.00     0.163 HD
BRANCH   3   6
ATOM      6  C   UNL A   1      32.060  21.959  25.137  1.00  0.00     0.039 A 
ATOM      7  C   UNL A   1      30.705  24.436  24.983  1.00  0.00     0.040 A 
ATOM      8  C   UNL A   1      30.956  23.842  26.222  1.00  0.00     0.027 A 
ATOM      9  C   UNL A   1      31.176  23.796  23.830  1.00  0.00     0.027 A 
ATOM     10  C   UNL A   1      31.620  22.613  26.298  1.00  0.00     0.016 A 
ATOM     11  C   UNL A   1      31.881  22.590  23.906  1.00  0.00     0.016 A 
BRANCH   7  12
ATOM     12  N   UNL A   1      29.905  25.587  24.899  1.00  0.00    -0.340 N 
ATOM     13  H   UNL A   1      28.935  25.474  25.026  1.00  0.00     0.168 HD
BRANCH  12  14
ATOM     14  C   UNL A   1      30.374  26.890  24.647  1.00  0.00     0.136 A 
ATOM     15  C   UNL A   1      30.028  29.619  22.102  1.00  0.00     0.067 C 
ATOM     16  C   UNL A   1      30.356  28.856  23.349  1.00  0.00     0.045 A 
ATOM     17  C   UNL A   1      29.957  27.544  23.505  1.00  0.00     0.070 A 
ATOM     18  N   UNL A   1      31.113  29.490  24.265  1.00  0.00    -0.216 NA
ATOM     19  C   UNL A   1      31.543  28.758  25.318  1.00  0.00     0.252 A 
ATOM     20  N   UNL A   1      31.192  27.477  25.533  1.00  0.00    -0.194 NA
BRANCH  19  21
ATOM     21  N   UNL A   1      32.470  29.373  26.230  1.00  0.00    -0.203 N 
ATOM     22  N   UNL A   1      33.564  28.700  26.702  1.00  0.00    -0.170 NA
ATOM     23  C   UNL A   1      32.452  30.681  26.701  1.00  0.00     0.045 A 
ATOM     24  C   UNL A   1      34.321  29.638  27.277  1.00  0.00     0.060 A 
ATOM     25  C   UNL A   1      33.657  30.879  27.340  1.00  0.00     0.049 A 
ATOM     26  C   UNL A   1      31.290  31.590  26.548  1.00  0.00     0.067 C 
ATOM     27  C   UNL A   1      35.682  29.310  27.765  1.00  0.00     0.069 C 
ENDBRANCH  19  21
ENDBRANCH  12  14
ENDBRANCH   7  12
ENDBRANCH   3   6
ENDBRANCH   1   2
BRANCH   1  28
ATOM     28  C   UNL A   1      35.652  22.084  24.770  1.00  0.00     0.042 C 
BRANCH  28  29
ATOM     29  C   UNL A   1      37.153  22.359  24.860  1.00  0.00     0.118 C 
BRANCH  29  30
ATOM     30  N   UNL A   1      37.874  21.267  25.492  1.00  0.00    -0.352 N 
ATOM     31  C   UNL A   1      39.039  21.268  26.216  1.00  0.00     0.251 C 
ATOM     32  H   UNL A   1      37.459  20.382  25.384  1.00  0.00     0.163 HD
ATOM     33  O   UNL A   1      39.563  20.194  26.503  1.00  0.00    -0.269 OA
BRANCH  31  34
ATOM     34  C   UNL A   1      39.687  22.529  26.650  1.00  0.00     0.039 A 
ATOM     35  C   UNL A   1      39.240  23.726  26.079  1.00  0.00     0.014 A 
ATOM     36  C   UNL A   1      40.771  22.549  27.534  1.00  0.00     0.014 A 
ATOM     37  C   UNL A   1      39.854  24.935  26.410  1.00  0.00     0.010 A 
ATOM     38  C   UNL A   1      41.348  23.765  27.909  1.00  0.00     0.010 A 
ATOM     39  C   UNL A   1      40.905  24.969  27.341  1.00  0.00    -0.014 A 
BRANCH  39  40
ATOM     40  C   UNL A   1      41.540  26.261  27.707  1.00  0.00     0.031 A 
ATOM     41  C   UNL A   1      42.939  26.581  27.261  1.00  0.00     0.074 A 
ATOM     42  C   UNL A   1      40.856  27.145  28.457  1.00  0.00     0.049 A 
ATOM     43  N   UNL A   1      43.643  27.669  27.459  1.00  0.00    -0.248 NA
ATOM     44  C   UNL A   1      43.653  25.535  26.513  1.00  0.00     0.031 C 
ATOM     45  C   UNL A   1      39.513  26.930  28.996  1.00  0.00     0.029 A 
ATOM     46  N   UNL A   1      41.194  28.402  28.892  1.00  0.00    -0.354 N 
ATOM     47  C   UNL A   1      44.879  27.436  26.870  1.00  0.00     0.074 A 
ATOM     48  C   UNL A   1      44.848  26.086  26.348  1.00  0.00     0.031 C 
ATOM     49  C   UNL A   1      39.129  28.030  29.665  1.00  0.00     0.029 A 
ATOM     50  C   UNL A   1      40.204  29.015  29.619  1.00  0.00     0.049 A 
ATOM     51  H   UNL A   1      42.063  28.823  28.702  1.00  0.00     0.167 HD
ATOM     52  C   UNL A   1      45.936  28.276  26.757  1.00  0.00     0.037 A 
ATOM     53  C   UNL A   1      40.164  30.241  30.175  1.00  0.00     0.037 A 
ATOM     54  C   UNL A   1      45.958  29.628  27.255  1.00  0.00     0.049 A 
ATOM     55  C   UNL A   1      41.334  31.168  30.002  1.00  0.00     0.074 A 
ATOM     56  C   UNL A   1      46.960  30.576  27.140  1.00  0.00     0.029 A 
ATOM     57  N   UNL A   1      44.924  30.224  27.961  1.00  0.00    -0.354 N 
ATOM     58  N   UNL A   1      42.469  30.960  29.381  1.00  0.00    -0.248 NA
ATOM     59  C   UNL A   1      41.210  32.506  30.595  1.00  0.00     0.031 C 
ATOM     60  C   UNL A   1      46.547  31.735  27.806  1.00  0.00     0.029 A 
ATOM     61  C   UNL A   1      45.270  31.523  28.300  1.00  0.00     0.049 A 
ATOM     62  H   UNL A   1      44.071  29.790  28.188  1.00  0.00     0.167 HD
ATOM     63  C   UNL A   1      43.184  32.145  29.487  1.00  0.00     0.074 A 
ATOM     64  C   UNL A   1      42.346  33.074  30.217  1.00  0.00     0.031 C 
ATOM     65  C   UNL A   1      44.424  32.436  29.025  1.00  0.00     0.037 A 
BRANCH  52  66
ATOM     66  C   UNL A   1      47.160  27.759  26.059  1.00  0.00     0.064 A 
ATOM     67  C   UNL A   1      47.277  27.794  24.662  1.00  0.00     0.173 A 
ATOM     68  C   UNL A   1      48.244  27.257  26.796  1.00  0.00     0.173 A 
ATOM     69  F   UNL A   1      46.265  28.255  23.911  1.00  0.00    -0.203 F 
ATOM     70  C   UNL A   1      48.422  27.320  24.026  1.00  0.00     0.198 A 
ATOM     71  C   UNL A   1      49.398  26.810  26.159  1.00  0.00     0.198 A 
ATOM     72  F   UNL A   1      48.186  27.208  28.135  1.00  0.00    -0.203 F 
ATOM     73  F   UNL A   1      48.493  27.324  22.688  1.00  0.00    -0.200 F 
ATOM     74  C   UNL A   1      49.484  26.835  24.775  1.00  0.00     0.200 A 
ATOM     75  F   UNL A   1      50.428  26.351  26.884  1.00  0.00    -0.200 F 
ATOM     76  F   UNL A   1      50.587  26.385  24.161  1.00  0.00    -0.200 F 
ENDBRANCH  52  66
BRANCH  53  77
ATOM     77  C   UNL A   1      38.947  30.679  30.905  1.00  0.00     0.064 A 
ATOM     78  C   UNL A   1      38.845  30.515  32.293  1.00  0.00     0.173 A 
ATOM     79  C   UNL A   1      37.867  31.270  30.234  1.00  0.00     0.173 A 
ATOM     80  F   UNL A   1      39.845  29.936  32.973  1.00  0.00    -0.203 F 
ATOM     81  C   UNL A   1      37.701  30.911  32.981  1.00  0.00     0.198 A 
ATOM     82  C   UNL A   1      36.734  31.688  30.928  1.00  0.00     0.198 A 
ATOM     83  F   UNL A   1      37.919  31.452  28.907  1.00  0.00    -0.203 F 
ATOM     84  F   UNL A   1      37.613  30.708  34.303  1.00  0.00    -0.200 F 
ATOM     85  C   UNL A   1      36.648  31.503  32.299  1.00  0.00     0.200 A 
ATOM     86  F   UNL A   1      35.724  32.271  30.267  1.00  0.00    -0.200 F 
ATOM     87  F   UNL A   1      35.550  31.888  32.963  1.00  0.00    -0.200 F 
ENDBRANCH  53  77
BRANCH  65  88
ATOM     88  C   UNL A   1      44.936  33.824  29.275  1.00  0.00     0.064 A 
ATOM     89  C   UNL A   1      45.684  34.135  30.420  1.00  0.00     0.173 A 
ATOM     90  C   UNL A   1      44.688  34.851  28.350  1.00  0.00     0.173 A 
ATOM     91  F   UNL A   1      45.933  33.192  31.340  1.00  0.00    -0.203 F 
ATOM     92  C   UNL A   1      46.139  35.431  30.646  1.00  0.00     0.198 A 
ATOM     93  C   UNL A   1      45.168  36.139  28.567  1.00  0.00     0.198 A 
ATOM     94  F   UNL A   1      43.983  34.602  27.237  1.00  0.00    -0.203 F 
ATOM     95  F   UNL A   1      46.807  35.718  31.772  1.00  0.00    -0.200 F 
ATOM     96  C   UNL A   1      45.885  36.431  29.718  1.00  0.00     0.200 A 
ATOM     97  F   UNL A   1      44.930  37.101  27.665  1.00  0.00    -0.200 F 
ATOM     98  F   UNL A   1      46.322  37.678  29.938  1.00  0.00    -0.200 F 
ENDBRANCH  65  88
ENDBRANCH  39  40
ENDBRANCH  31  34
ENDBRANCH  29  30
ENDBRANCH  28  29
ENDBRANCH   1  28
TORSDOF 13
ENDMDL
MODEL 3
REMARK VINA RESULT:     -13.2      4.243      9.747
REMARK SMILES Cc1cc(Nc2ccc(C(=O)NCCCNC(=O)c3ccc(-c4c5nc(c(-c6c(F)c(F)c(F)c(F)c6F)c6ccc([nH]6)c(-c6c(F)c(F)c(F)c(F)c6F)c6nc(c(-c7c(F)c(F)c(F)c(F)c7F)c7ccc4[nH]7)C=C6)C=C5)cc3)cc2)nc(-n2nc(C)cc2C)n1
REMARK SMILES IDX 13 1 12 2 10 3 11 4 9 6 6 7 7 8 83 9 8 10 82 11 5 12 4 14
REMARK SMILES IDX 1 15 2 16 3 17 93 18 85 19 84 20 86 21 87 22 91 23 88 24
REMARK SMILES IDX 90 25 92 26 89 27 14 28 15 29 16 30 17 31 18 33 19 34 20 35
REMARK SMILES IDX 81 36 21 37 80 38 22 39 23 40 24 41 74 42 25 43 79 44 73 45
REMARK SMILES IDX 75 46 26 47 78 48 72 49 71 50 27 52 59 53 39 54 58 55 40 56
REMARK SMILES IDX 43 57 57 58 76 59 41 60 42 61 56 63 77 64 44 65 28 66 29 67
REMARK SMILES IDX 37 68 30 69 31 70 35 71 38 72 32 73 33 74 36 75 34 76 60 77
REMARK SMILES IDX 61 78 69 79 62 80 63 81 67 82 70 83 64 84 65 85 68 86 66 87
REMARK SMILES IDX 45 88 46 89 54 90 47 91 48 92 52 93 55 94 49 95 50 96 53 97
REMARK SMILES IDX 51 98
REMARK H PARENT 12 5 5 13 16 32 75 51 43 62
REMARK Flexibility Score: inf
ROOT
ATOM      1  C   UNL A   1      35.005  21.408  26.031  1.00  0.00     0.118 C 
ENDROOT
BRANCH   1   2
ATOM      2  N   UNL A   1      33.971  20.443  25.701  1.00  0.00    -0.352 N 
ATOM      3  C   UNL A   1      32.670  20.589  25.293  1.00  0.00     0.251 C 
ATOM      4  O   UNL A   1      32.042  19.568  25.013  1.00  0.00    -0.269 OA
ATOM      5  H   UNL A   1      34.260  19.505  25.784  1.00  0.00     0.163 HD
BRANCH   3   6
ATOM      6  C   UNL A   1      32.007  21.912  25.131  1.00  0.00     0.039 A 
ATOM      7  C   UNL A   1      30.657  24.392  25.004  1.00  0.00     0.040 A 
ATOM      8  C   UNL A   1      30.924  23.794  26.237  1.00  0.00     0.027 A 
ATOM      9  C   UNL A   1      31.110  23.755  23.842  1.00  0.00     0.027 A 
ATOM     10  C   UNL A   1      31.585  22.563  26.300  1.00  0.00     0.016 A 
ATOM     11  C   UNL A   1      31.811  22.546  23.904  1.00  0.00     0.016 A 
BRANCH   7  12
ATOM     12  N   UNL A   1      29.859  25.546  24.935  1.00  0.00    -0.340 N 
ATOM     13  H   UNL A   1      28.893  25.438  25.093  1.00  0.00     0.168 HD
BRANCH  12  14
ATOM     14  C   UNL A   1      30.325  26.845  24.656  1.00  0.00     0.136 A 
ATOM     15  C   UNL A   1      29.946  29.533  22.073  1.00  0.00     0.067 C 
ATOM     16  C   UNL A   1      30.290  28.790  23.328  1.00  0.00     0.045 A 
ATOM     17  C   UNL A   1      29.893  27.481  23.510  1.00  0.00     0.070 A 
ATOM     18  N   UNL A   1      31.058  29.439  24.224  1.00  0.00    -0.216 NA
ATOM     19  C   UNL A   1      31.501  28.723  25.282  1.00  0.00     0.252 A 
ATOM     20  N   UNL A   1      31.154  27.446  25.523  1.00  0.00    -0.194 NA
BRANCH  19  21
ATOM     21  N   UNL A   1      32.441  29.352  26.173  1.00  0.00    -0.203 N 
ATOM     22  N   UNL A   1      33.550  28.692  26.627  1.00  0.00    -0.170 NA
ATOM     23  C   UNL A   1      32.419  30.662  26.637  1.00  0.00     0.045 A 
ATOM     24  C   UNL A   1      34.308  29.640  27.183  1.00  0.00     0.060 A 
ATOM     25  C   UNL A   1      33.634  30.876  27.251  1.00  0.00     0.049 A 
ATOM     26  C   UNL A   1      31.246  31.559  26.501  1.00  0.00     0.067 C 
ATOM     27  C   UNL A   1      35.682  29.328  27.646  1.00  0.00     0.069 C 
ENDBRANCH  19  21
ENDBRANCH  12  14
ENDBRANCH   7  12
ENDBRANCH   3   6
ENDBRANCH   1   2
BRANCH   1  28
ATOM     28  C   UNL A   1      35.599  22.037  24.769  1.00  0.00     0.042 C 
BRANCH  28  29
ATOM     29  C   UNL A   1      37.078  22.399  24.898  1.00  0.00     0.118 C 
BRANCH  29  30
ATOM     30  N   UNL A   1      37.863  21.313  25.461  1.00  0.00    -0.352 N 
ATOM     31  C   UNL A   1      39.062  21.330  26.126  1.00  0.00     0.251 C 
ATOM     32  H   UNL A   1      37.470  20.419  25.346  1.00  0.00     0.163 HD
ATOM     33  O   UNL A   1      39.631  20.266  26.355  1.00  0.00    -0.269 OA
BRANCH  31  34
ATOM     34  C   UNL A   1      39.692  22.598  26.567  1.00  0.00     0.039 A 
ATOM     35  C   UNL A   1      39.368  23.768  25.871  1.00  0.00     0.014 A 
ATOM     36  C   UNL A   1      40.650  22.644  27.585  1.00  0.00     0.014 A 
ATOM     37  C   UNL A   1      39.977  24.979  26.207  1.00  0.00     0.010 A 
ATOM     38  C   UNL A   1      41.217  23.866  27.960  1.00  0.00     0.010 A 
ATOM     39  C   UNL A   1      40.896  25.042  27.266  1.00  0.00    -0.014 A 
BRANCH  39  40
ATOM     40  C   UNL A   1      41.524  26.337  27.635  1.00  0.00     0.031 A 
ATOM     41  C   UNL A   1      42.934  26.652  27.220  1.00  0.00     0.074 A 
ATOM     42  C   UNL A   1      40.823  27.229  28.361  1.00  0.00     0.049 A 
ATOM     43  N   UNL A   1      43.634  27.741  27.425  1.00  0.00    -0.248 NA
ATOM     44  C   UNL A   1      43.664  25.598  26.499  1.00  0.00     0.031 C 
ATOM     45  C   UNL A   1      39.468  27.021  28.869  1.00  0.00     0.029 A 
ATOM     46  N   UNL A   1      41.152  28.489  28.792  1.00  0.00    -0.354 N 
ATOM     47  C   UNL A   1      44.884  27.501  26.868  1.00  0.00     0.074 A 
ATOM     48  C   UNL A   1      44.864  26.147  26.358  1.00  0.00     0.031 C 
ATOM     49  C   UNL A   1      39.069  28.126  29.519  1.00  0.00     0.029 A 
ATOM     50  C   UNL A   1      40.146  29.111  29.489  1.00  0.00     0.049 A 
ATOM     51  H   UNL A   1      42.027  28.907  28.619  1.00  0.00     0.167 HD
ATOM     52  C   UNL A   1      45.944  28.339  26.773  1.00  0.00     0.037 A 
ATOM     53  C   UNL A   1      40.094  30.342  30.033  1.00  0.00     0.037 A 
ATOM     54  C   UNL A   1      45.956  29.695  27.258  1.00  0.00     0.049 A 
ATOM     55  C   UNL A   1      41.269  31.265  29.880  1.00  0.00     0.074 A 
ATOM     56  C   UNL A   1      46.962  30.641  27.159  1.00  0.00     0.029 A 
ATOM     57  N   UNL A   1      44.906  30.299  27.934  1.00  0.00    -0.354 N 
ATOM     58  N   UNL A   1      42.419  31.051  29.288  1.00  0.00    -0.248 NA
ATOM     59  C   UNL A   1      41.133  32.609  30.458  1.00  0.00     0.031 C 
ATOM     60  C   UNL A   1      46.534  31.807  27.804  1.00  0.00     0.029 A 
ATOM     61  C   UNL A   1      45.246  31.601  28.270  1.00  0.00     0.049 A 
ATOM     62  H   UNL A   1      44.047  29.868  28.145  1.00  0.00     0.167 HD
ATOM     63  C   UNL A   1      43.133  32.236  29.400  1.00  0.00     0.074 A 
ATOM     64  C   UNL A   1      42.279  33.172  30.102  1.00  0.00     0.031 C 
ATOM     65  C   UNL A   1      44.384  32.521  28.966  1.00  0.00     0.037 A 
BRANCH  52  66
ATOM     66  C   UNL A   1      47.184  27.814  26.109  1.00  0.00     0.064 A 
ATOM     67  C   UNL A   1      47.330  27.828  24.714  1.00  0.00     0.173 A 
ATOM     68  C   UNL A   1      48.253  27.326  26.876  1.00  0.00     0.173 A 
ATOM     69  F   UNL A   1      46.334  28.275  23.935  1.00  0.00    -0.203 F 
ATOM     70  C   UNL A   1      48.490  27.347  24.110  1.00  0.00     0.198 A 
ATOM     71  C   UNL A   1      49.421  26.871  26.271  1.00  0.00     0.198 A 
ATOM     72  F   UNL A   1      48.167  27.297  28.215  1.00  0.00    -0.203 F 
ATOM     73  F   UNL A   1      48.589  27.331  22.774  1.00  0.00    -0.200 F 
ATOM     74  C   UNL A   1      49.536  26.876  24.889  1.00  0.00     0.200 A 
ATOM     75  F   UNL A   1      50.436  26.426  27.024  1.00  0.00    -0.200 F 
ATOM     76  F   UNL A   1      50.653  26.419  24.306  1.00  0.00    -0.200 F 
ENDBRANCH  52  66
BRANCH  53  77
ATOM     77  C   UNL A   1      38.861  30.787  30.730  1.00  0.00     0.064 A 
ATOM     78  C   UNL A   1      37.811  31.384  30.018  1.00  0.00     0.173 A 
ATOM     79  C   UNL A   1      38.705  30.624  32.113  1.00  0.00     0.173 A 
ATOM     80  F   UNL A   1      37.924  31.578  28.696  1.00  0.00    -0.203 F 
ATOM     81  C   UNL A   1      36.657  31.815  30.668  1.00  0.00     0.198 A 
ATOM     82  C   UNL A   1      37.540  31.034  32.757  1.00  0.00     0.198 A 
ATOM     83  F   UNL A   1      39.680  30.055  32.836  1.00  0.00    -0.203 F 
ATOM     84  F   UNL A   1      35.683  32.417  29.970  1.00  0.00    -0.200 F 
ATOM     85  C   UNL A   1      36.520  31.635  32.036  1.00  0.00     0.200 A 
ATOM     86  F   UNL A   1      37.406  30.847  34.078  1.00  0.00    -0.200 F 
ATOM     87  F   UNL A   1      35.407  32.046  32.660  1.00  0.00    -0.200 F 
ENDBRANCH  53  77
BRANCH  65  88
ATOM     88  C   UNL A   1      44.891  33.910  29.215  1.00  0.00     0.064 A 
ATOM     89  C   UNL A   1      44.695  34.941  28.284  1.00  0.00     0.173 A 
ATOM     90  C   UNL A   1      45.569  34.218  30.405  1.00  0.00     0.173 A 
ATOM     91  F   UNL A   1      44.067  34.692  27.125  1.00  0.00    -0.203 F 
ATOM     92  C   UNL A   1      45.185  36.222  28.521  1.00  0.00     0.198 A 
ATOM     93  C   UNL A   1      46.035  35.507  30.650  1.00  0.00     0.198 A 
ATOM     94  F   UNL A   1      45.778  33.269  31.329  1.00  0.00    -0.203 F 
ATOM     95  F   UNL A   1      45.031  37.179  27.595  1.00  0.00    -0.200 F 
ATOM     96  C   UNL A   1      45.850  36.505  29.705  1.00  0.00     0.200 A 
ATOM     97  F   UNL A   1      46.669  35.781  31.798  1.00  0.00    -0.200 F 
ATOM     98  F   UNL A   1      46.323  37.738  29.930  1.00  0.00    -0.200 F 
ENDBRANCH  65  88
ENDBRANCH  39  40
ENDBRANCH  31  34
ENDBRANCH  29  30
ENDBRANCH  28  29
ENDBRANCH   1  28
TORSDOF 13
ENDMDL
