MODEL 1
REMARK VINA RESULT:     -13.6      0.000      0.000
REMARK SMILES COc1ccc2c(c1)c(CC(=O)NCCCNC(=O)c1ccc(-c3c4nc(c(-c5c(F)c(F)c(F)c(F)c5F)c5ccc([nH]5)c(-c5c(F)c(F)c(F)c(F)c5F)c5nc(c(-c6c(F)c(F)c(F)c(F)c6F)c6ccc3[nH]6)C=C5)C=C4)cc1)c(C(F)(F)F)n2C(=O)c1ccc(Cl)cc1
REMARK SMILES IDX 14 1 13 2 11 3 12 4 10 6 9 7 3 8 4 9 8 10 5 11 7 12 6 13
REMARK SMILES IDX 88 14 83 15 2 16 1 17 89 18 90 19 91 20 92 21 97 22 93 23
REMARK SMILES IDX 96 24 94 25 95 26 84 27 85 28 86 29 87 30 15 31 16 32 17 33
REMARK SMILES IDX 18 34 19 36 20 37 21 38 82 39 22 40 81 41 23 42 24 43 25 44
REMARK SMILES IDX 75 45 26 46 80 47 74 48 76 49 27 50 79 51 73 52 72 53 28 55
REMARK SMILES IDX 60 56 40 57 59 58 41 59 44 60 58 61 77 62 42 63 43 64 57 66
REMARK SMILES IDX 78 67 45 68 29 69 30 70 38 71 31 72 32 73 36 74 39 75 33 76
REMARK SMILES IDX 34 77 37 78 35 79 61 80 62 81 70 82 63 83 64 84 68 85 71 86
REMARK SMILES IDX 65 87 66 88 69 89 67 90 46 91 47 92 55 93 48 94 49 95 53 96
REMARK SMILES IDX 56 97 50 98 51 99 54 100 52 101
REMARK H PARENT 13 5 17 35 76 54 44 65
REMARK Flexibility Score: inf
ROOT
ATOM      1  C   UNL A   1      39.155  22.687  26.527  1.00  0.00     0.117 C 
ENDROOT
BRANCH   1   2
ATOM      2  N   UNL A   1      38.551  22.581  25.211  1.00  0.00    -0.356 N 
ATOM      3  C   UNL A   1      37.331  22.080  24.856  1.00  0.00     0.224 C 
ATOM      4  O   UNL A   1      36.998  22.143  23.670  1.00  0.00    -0.275 OA
ATOM      5  H   UNL A   1      39.100  22.919  24.466  1.00  0.00     0.163 HD
BRANCH   3   6
ATOM      6  C   UNL A   1      36.401  21.496  25.909  1.00  0.00     0.138 C 
BRANCH   6   7
ATOM      7  C   UNL A   1      34.967  21.425  25.462  1.00  0.00     0.000 A 
ATOM      8  C   UNL A   1      33.884  18.064  24.003  1.00  0.00     0.119 A 
ATOM      9  C   UNL A   1      32.599  18.457  23.663  1.00  0.00     0.048 A 
ATOM     10  C   UNL A   1      34.743  18.971  24.626  1.00  0.00     0.057 A 
ATOM     11  C   UNL A   1      32.153  19.756  23.929  1.00  0.00     0.031 A 
ATOM     12  C   UNL A   1      34.314  20.287  24.912  1.00  0.00     0.008 A 
ATOM     13  C   UNL A   1      33.004  20.661  24.594  1.00  0.00     0.057 A 
ATOM     14  N   UNL A   1      32.799  21.947  25.116  1.00  0.00    -0.271 N 
ATOM     15  C   UNL A   1      34.053  22.474  25.418  1.00  0.00     0.135 A 
BRANCH   8  16
ATOM     16  O   UNL A   1      34.395  16.811  23.801  1.00  0.00    -0.497 OA
ATOM     17  C   UNL A   1      34.767  16.112  24.985  1.00  0.00     0.278 C 
ENDBRANCH   8  16
BRANCH  14  18
ATOM     18  C   UNL A   1      31.548  22.573  25.360  1.00  0.00     0.262 C 
ATOM     19  O   UNL A   1      30.764  22.013  26.131  1.00  0.00    -0.268 OA
BRANCH  18  20
ATOM     20  C   UNL A   1      31.072  23.801  24.708  1.00  0.00     0.040 A 
ATOM     21  C   UNL A   1      31.255  23.978  23.330  1.00  0.00     0.015 A 
ATOM     22  C   UNL A   1      30.498  24.808  25.491  1.00  0.00     0.015 A 
ATOM     23  C   UNL A   1      30.934  25.207  22.751  1.00  0.00     0.021 A 
ATOM     24  C   UNL A   1      30.168  26.030  24.900  1.00  0.00     0.021 A 
ATOM     25  C   UNL A   1      30.405  26.230  23.539  1.00  0.00     0.041 A 
ATOM     26  Cl  UNL A   1      30.071  27.763  22.832  1.00  0.00    -0.084 Cl
ENDBRANCH  18  20
ENDBRANCH  14  18
BRANCH  15  27
ATOM     27  C   UNL A   1      34.288  23.924  25.680  1.00  0.00     0.432 C 
ATOM     28  F   UNL A   1      34.017  24.683  24.591  1.00  0.00    -0.165 F 
ATOM     29  F   UNL A   1      33.449  24.361  26.662  1.00  0.00    -0.165 F 
ATOM     30  F   UNL A   1      35.532  24.218  26.122  1.00  0.00    -0.165 F 
ENDBRANCH  15  27
ENDBRANCH   6   7
ENDBRANCH   3   6
ENDBRANCH   1   2
BRANCH   1  31
ATOM     31  C   UNL A   1      40.031  21.482  26.877  1.00  0.00     0.042 C 
BRANCH  31  32
ATOM     32  C   UNL A   1      41.495  21.833  27.149  1.00  0.00     0.118 C 
BRANCH  32  33
ATOM     33  N   UNL A   1      42.209  22.349  25.997  1.00  0.00    -0.352 N 
ATOM     34  C   UNL A   1      42.738  23.552  25.624  1.00  0.00     0.251 C 
ATOM     35  H   UNL A   1      42.348  21.657  25.311  1.00  0.00     0.163 HD
ATOM     36  O   UNL A   1      43.397  23.541  24.580  1.00  0.00    -0.269 OA
BRANCH  34  37
ATOM     37  C   UNL A   1      42.547  24.852  26.325  1.00  0.00     0.039 A 
ATOM     38  C   UNL A   1      43.240  25.289  27.451  1.00  0.00     0.014 A 
ATOM     39  C   UNL A   1      41.536  25.684  25.797  1.00  0.00     0.014 A 
ATOM     40  C   UNL A   1      42.882  26.487  28.073  1.00  0.00     0.010 A 
ATOM     41  C   UNL A   1      41.181  26.883  26.408  1.00  0.00     0.010 A 
ATOM     42  C   UNL A   1      41.833  27.270  27.570  1.00  0.00    -0.014 A 
BRANCH  42  43
ATOM     43  C   UNL A   1      41.569  28.566  28.202  1.00  0.00     0.031 A 
ATOM     44  C   UNL A   1      42.626  29.584  27.945  1.00  0.00     0.074 A 
ATOM     45  C   UNL A   1      40.440  28.890  28.868  1.00  0.00     0.049 A 
ATOM     46  N   UNL A   1      43.405  30.148  28.808  1.00  0.00    -0.248 NA
ATOM     47  C   UNL A   1      42.935  29.930  26.549  1.00  0.00     0.031 C 
ATOM     48  C   UNL A   1      39.201  28.116  28.956  1.00  0.00     0.029 A 
ATOM     49  N   UNL A   1      40.133  30.037  29.552  1.00  0.00    -0.354 N 
ATOM     50  C   UNL A   1      44.194  31.048  28.090  1.00  0.00     0.074 A 
ATOM     51  C   UNL A   1      43.957  30.775  26.699  1.00  0.00     0.031 C 
ATOM     52  C   UNL A   1      38.218  28.894  29.465  1.00  0.00     0.029 A 
ATOM     53  C   UNL A   1      38.784  30.169  29.872  1.00  0.00     0.049 A 
ATOM     54  H   UNL A   1      40.808  30.711  29.795  1.00  0.00     0.167 HD
ATOM     55  C   UNL A   1      44.800  32.094  28.715  1.00  0.00     0.037 A 
ATOM     56  C   UNL A   1      38.176  31.259  30.406  1.00  0.00     0.037 A 
ATOM     57  C   UNL A   1      44.828  31.889  30.138  1.00  0.00     0.049 A 
ATOM     58  C   UNL A   1      39.217  32.062  31.084  1.00  0.00     0.074 A 
ATOM     59  C   UNL A   1      45.527  31.099  31.021  1.00  0.00     0.029 A 
ATOM     60  N   UNL A   1      43.725  32.362  30.794  1.00  0.00    -0.354 N 
ATOM     61  N   UNL A   1      39.830  31.689  32.172  1.00  0.00    -0.248 NA
ATOM     62  C   UNL A   1      39.807  33.200  30.390  1.00  0.00     0.031 C 
ATOM     63  C   UNL A   1      44.671  30.925  32.151  1.00  0.00     0.029 A 
ATOM     64  C   UNL A   1      43.497  31.645  31.934  1.00  0.00     0.049 A 
ATOM     65  H   UNL A   1      43.171  33.116  30.486  1.00  0.00     0.167 HD
ATOM     66  C   UNL A   1      41.089  32.238  32.053  1.00  0.00     0.074 A 
ATOM     67  C   UNL A   1      40.956  33.297  31.063  1.00  0.00     0.031 C 
ATOM     68  C   UNL A   1      42.179  31.569  32.523  1.00  0.00     0.037 A 
BRANCH  55  69
ATOM     69  C   UNL A   1      44.943  33.490  28.136  1.00  0.00     0.064 A 
ATOM     70  C   UNL A   1      46.238  34.038  27.982  1.00  0.00     0.173 A 
ATOM     71  C   UNL A   1      43.885  34.419  28.047  1.00  0.00     0.173 A 
ATOM     72  F   UNL A   1      47.326  33.259  28.067  1.00  0.00    -0.203 F 
ATOM     73  C   UNL A   1      46.451  35.412  27.830  1.00  0.00     0.198 A 
ATOM     74  C   UNL A   1      44.100  35.783  27.847  1.00  0.00     0.198 A 
ATOM     75  F   UNL A   1      42.611  34.071  28.262  1.00  0.00    -0.203 F 
ATOM     76  F   UNL A   1      47.701  35.896  27.814  1.00  0.00    -0.200 F 
ATOM     77  C   UNL A   1      45.382  36.284  27.770  1.00  0.00     0.200 A 
ATOM     78  F   UNL A   1      43.050  36.616  27.815  1.00  0.00    -0.200 F 
ATOM     79  F   UNL A   1      45.583  37.606  27.686  1.00  0.00    -0.200 F 
ENDBRANCH  55  69
BRANCH  56  80
ATOM     80  C   UNL A   1      36.805  31.798  30.207  1.00  0.00     0.064 A 
ATOM     81  C   UNL A   1      35.904  31.883  31.287  1.00  0.00     0.173 A 
ATOM     82  C   UNL A   1      36.467  32.535  29.059  1.00  0.00     0.173 A 
ATOM     83  F   UNL A   1      36.152  31.228  32.430  1.00  0.00    -0.203 F 
ATOM     84  C   UNL A   1      34.779  32.713  31.246  1.00  0.00     0.198 A 
ATOM     85  C   UNL A   1      35.338  33.357  29.016  1.00  0.00     0.198 A 
ATOM     86  F   UNL A   1      37.280  32.557  27.992  1.00  0.00    -0.203 F 
ATOM     87  F   UNL A   1      34.000  32.838  32.330  1.00  0.00    -0.200 F 
ATOM     88  C   UNL A   1      34.508  33.466  30.117  1.00  0.00     0.200 A 
ATOM     89  F   UNL A   1      35.101  34.102  27.927  1.00  0.00    -0.200 F 
ATOM     90  F   UNL A   1      33.481  34.326  30.106  1.00  0.00    -0.200 F 
ENDBRANCH  56  80
BRANCH  68  91
ATOM     91  C   UNL A   1      41.956  30.546  33.592  1.00  0.00     0.064 A 
ATOM     92  C   UNL A   1      41.638  29.198  33.355  1.00  0.00     0.173 A 
ATOM     93  C   UNL A   1      42.182  30.937  34.919  1.00  0.00     0.173 A 
ATOM     94  F   UNL A   1      41.482  28.734  32.109  1.00  0.00    -0.203 F 
ATOM     95  C   UNL A   1      41.526  28.294  34.410  1.00  0.00     0.198 A 
ATOM     96  C   UNL A   1      42.112  30.024  35.963  1.00  0.00     0.198 A 
ATOM     97  F   UNL A   1      42.524  32.206  35.197  1.00  0.00    -0.203 F 
ATOM     98  F   UNL A   1      41.206  27.014  34.166  1.00  0.00    -0.200 F 
ATOM     99  C   UNL A   1      41.775  28.704  35.710  1.00  0.00     0.200 A 
ATOM    100  F   UNL A   1      42.396  30.418  37.212  1.00  0.00    -0.200 F 
ATOM    101  F   UNL A   1      41.715  27.824  36.719  1.00  0.00    -0.200 F 
ENDBRANCH  68  91
ENDBRANCH  42  43
ENDBRANCH  34  37
ENDBRANCH  32  33
ENDBRANCH  31  32
ENDBRANCH   1  31
TORSDOF 15
ENDMDL
MODEL 2
REMARK VINA RESULT:     -13.6      2.033      3.638
REMARK SMILES COc1ccc2c(c1)c(CC(=O)NCCCNC(=O)c1ccc(-c3c4nc(c(-c5c(F)c(F)c(F)c(F)c5F)c5ccc([nH]5)c(-c5c(F)c(F)c(F)c(F)c5F)c5nc(c(-c6c(F)c(F)c(F)c(F)c6F)c6ccc3[nH]6)C=C5)C=C4)cc1)c(C(F)(F)F)n2C(=O)c1ccc(Cl)cc1
REMARK SMILES IDX 14 1 13 2 11 3 12 4 10 6 9 7 3 8 4 9 8 10 5 11 7 12 6 13
REMARK SMILES IDX 88 14 83 15 2 16 1 17 89 18 90 19 91 20 92 21 97 22 93 23
REMARK SMILES IDX 96 24 94 25 95 26 84 27 85 28 86 29 87 30 15 31 16 32 17 33
REMARK SMILES IDX 18 34 19 36 20 37 21 38 82 39 22 40 81 41 23 42 24 43 25 44
REMARK SMILES IDX 75 45 26 46 80 47 74 48 76 49 27 50 79 51 73 52 72 53 28 55
REMARK SMILES IDX 60 56 40 57 59 58 41 59 44 60 58 61 77 62 42 63 43 64 57 66
REMARK SMILES IDX 78 67 45 68 29 69 30 70 38 71 31 72 32 73 36 74 39 75 33 76
REMARK SMILES IDX 34 77 37 78 35 79 61 80 62 81 70 82 63 83 64 84 68 85 71 86
REMARK SMILES IDX 65 87 66 88 69 89 67 90 46 91 47 92 55 93 48 94 49 95 53 96
REMARK SMILES IDX 56 97 50 98 51 99 54 100 52 101
REMARK H PARENT 13 5 17 35 76 54 44 65
REMARK Flexibility Score: inf
ROOT
ATOM      1  C   UNL A   1      37.261  23.321  25.366  1.00  0.00     0.117 C 
ENDROOT
BRANCH   1   2
ATOM      2  N   UNL A   1      36.076  23.195  26.196  1.00  0.00    -0.356 N 
ATOM      3  C   UNL A   1      34.855  23.791  26.057  1.00  0.00     0.224 C 
ATOM      4  O   UNL A   1      33.966  23.490  26.858  1.00  0.00    -0.275 OA
ATOM      5  H   UNL A   1      36.166  22.593  26.970  1.00  0.00     0.163 HD
BRANCH   3   6
ATOM      6  C   UNL A   1      34.599  24.769  24.920  1.00  0.00     0.138 C 
BRANCH   6   7
ATOM      7  C   UNL A   1      33.336  25.568  25.097  1.00  0.00     0.000 A 
ATOM      8  C   UNL A   1      33.682  28.696  27.263  1.00  0.00     0.119 A 
ATOM      9  C   UNL A   1      32.342  29.049  27.228  1.00  0.00     0.048 A 
ATOM     10  C   UNL A   1      34.118  27.567  26.568  1.00  0.00     0.057 A 
ATOM     11  C   UNL A   1      31.416  28.282  26.511  1.00  0.00     0.031 A 
ATOM     12  C   UNL A   1      33.204  26.779  25.830  1.00  0.00     0.008 A 
ATOM     13  C   UNL A   1      31.861  27.165  25.776  1.00  0.00     0.057 A 
ATOM     14  N   UNL A   1      31.218  26.311  24.867  1.00  0.00    -0.271 N 
ATOM     15  C   UNL A   1      32.061  25.222  24.658  1.00  0.00     0.135 A 
BRANCH   8  16
ATOM     16  O   UNL A   1      34.656  29.397  27.918  1.00  0.00    -0.497 OA
ATOM     17  C   UNL A   1      34.820  30.746  27.491  1.00  0.00     0.278 C 
ENDBRANCH   8  16
BRANCH  14  18
ATOM     18  C   UNL A   1      29.974  26.542  24.222  1.00  0.00     0.262 C 
ATOM     19  O   UNL A   1      29.097  25.681  24.335  1.00  0.00    -0.268 OA
BRANCH  18  20
ATOM     20  C   UNL A   1      29.667  27.693  23.361  1.00  0.00     0.040 A 
ATOM     21  C   UNL A   1      30.698  28.350  22.676  1.00  0.00     0.015 A 
ATOM     22  C   UNL A   1      28.348  28.154  23.289  1.00  0.00     0.015 A 
ATOM     23  C   UNL A   1      30.414  29.528  21.982  1.00  0.00     0.021 A 
ATOM     24  C   UNL A   1      28.071  29.326  22.580  1.00  0.00     0.021 A 
ATOM     25  C   UNL A   1      29.106  30.017  21.948  1.00  0.00     0.041 A 
ATOM     26  Cl  UNL A   1      28.775  31.502  21.144  1.00  0.00    -0.084 Cl
ENDBRANCH  18  20
ENDBRANCH  14  18
BRANCH  15  27
ATOM     27  C   UNL A   1      31.608  23.949  24.026  1.00  0.00     0.432 C 
ATOM     28  F   UNL A   1      30.632  23.347  24.747  1.00  0.00    -0.165 F 
ATOM     29  F   UNL A   1      31.068  24.205  22.800  1.00  0.00    -0.165 F 
ATOM     30  F   UNL A   1      32.598  23.056  23.795  1.00  0.00    -0.165 F 
ENDBRANCH  15  27
ENDBRANCH   6   7
ENDBRANCH   3   6
ENDBRANCH   1   2
BRANCH   1  31
ATOM     31  C   UNL A   1      38.133  22.063  25.383  1.00  0.00     0.042 C 
BRANCH  31  32
ATOM     32  C   UNL A   1      39.263  22.102  26.413  1.00  0.00     0.118 C 
BRANCH  32  33
ATOM     33  N   UNL A   1      40.590  22.217  25.839  1.00  0.00    -0.352 N 
ATOM     34  C   UNL A   1      41.632  23.095  25.939  1.00  0.00     0.251 C 
ATOM     35  H   UNL A   1      40.790  21.477  25.223  1.00  0.00     0.163 HD
ATOM     36  O   UNL A   1      42.668  22.756  25.360  1.00  0.00    -0.269 OA
BRANCH  34  37
ATOM     37  C   UNL A   1      41.607  24.418  26.623  1.00  0.00     0.039 A 
ATOM     38  C   UNL A   1      42.332  24.769  27.759  1.00  0.00     0.014 A 
ATOM     39  C   UNL A   1      40.729  25.374  26.067  1.00  0.00     0.014 A 
ATOM     40  C   UNL A   1      42.129  26.012  28.363  1.00  0.00     0.010 A 
ATOM     41  C   UNL A   1      40.530  26.617  26.660  1.00  0.00     0.010 A 
ATOM     42  C   UNL A   1      41.206  26.925  27.832  1.00  0.00    -0.014 A 
BRANCH  42  43
ATOM     43  C   UNL A   1      41.110  28.252  28.446  1.00  0.00     0.031 A 
ATOM     44  C   UNL A   1      42.235  29.161  28.088  1.00  0.00     0.074 A 
ATOM     45  C   UNL A   1      40.067  28.694  29.181  1.00  0.00     0.049 A 
ATOM     46  N   UNL A   1      43.124  29.666  28.879  1.00  0.00    -0.248 NA
ATOM     47  C   UNL A   1      42.472  29.448  26.665  1.00  0.00     0.031 C 
ATOM     48  C   UNL A   1      38.771  28.042  29.377  1.00  0.00     0.029 A 
ATOM     49  N   UNL A   1      39.918  29.878  29.855  1.00  0.00    -0.354 N 
ATOM     50  C   UNL A   1      43.938  30.474  28.084  1.00  0.00     0.074 A 
ATOM     51  C   UNL A   1      43.576  30.196  26.720  1.00  0.00     0.031 C 
ATOM     52  C   UNL A   1      37.904  28.919  29.933  1.00  0.00     0.029 A 
ATOM     53  C   UNL A   1      38.614  30.142  30.266  1.00  0.00     0.049 A 
ATOM     54  H   UNL A   1      40.669  30.490  30.032  1.00  0.00     0.167 HD
ATOM     55  C   UNL A   1      44.682  31.470  28.636  1.00  0.00     0.037 A 
ATOM     56  C   UNL A   1      38.149  31.295  30.812  1.00  0.00     0.037 A 
ATOM     57  C   UNL A   1      44.795  31.291  30.059  1.00  0.00     0.049 A 
ATOM     58  C   UNL A   1      39.307  32.009  31.394  1.00  0.00     0.074 A 
ATOM     59  C   UNL A   1      45.480  30.456  30.911  1.00  0.00     0.029 A 
ATOM     60  N   UNL A   1      43.791  31.879  30.778  1.00  0.00    -0.354 N 
ATOM     61  N   UNL A   1      39.961  31.602  32.445  1.00  0.00    -0.248 NA
ATOM     62  C   UNL A   1      39.948  33.073  30.630  1.00  0.00     0.031 C 
ATOM     63  C   UNL A   1      44.696  30.386  32.102  1.00  0.00     0.029 A 
ATOM     64  C   UNL A   1      43.580  31.208  31.950  1.00  0.00     0.049 A 
ATOM     65  H   UNL A   1      43.288  32.675  30.490  1.00  0.00     0.167 HD
ATOM     66  C   UNL A   1      41.253  32.028  32.223  1.00  0.00     0.074 A 
ATOM     67  C   UNL A   1      41.146  33.075  31.217  1.00  0.00     0.031 C 
ATOM     68  C   UNL A   1      42.308  31.269  32.632  1.00  0.00     0.037 A 
BRANCH  55  69
ATOM     69  C   UNL A   1      44.911  32.835  28.012  1.00  0.00     0.064 A 
ATOM     70  C   UNL A   1      46.227  33.215  27.662  1.00  0.00     0.173 A 
ATOM     71  C   UNL A   1      43.974  33.888  28.054  1.00  0.00     0.173 A 
ATOM     72  F   UNL A   1      47.212  32.306  27.609  1.00  0.00    -0.203 F 
ATOM     73  C   UNL A   1      46.585  34.551  27.452  1.00  0.00     0.198 A 
ATOM     74  C   UNL A   1      44.324  35.214  27.796  1.00  0.00     0.198 A 
ATOM     75  F   UNL A   1      42.711  33.703  28.457  1.00  0.00    -0.203 F 
ATOM     76  F   UNL A   1      47.869  34.875  27.247  1.00  0.00    -0.200 F 
ATOM     77  C   UNL A   1      45.634  35.550  27.526  1.00  0.00     0.200 A 
ATOM     78  F   UNL A   1      43.391  36.172  27.895  1.00  0.00    -0.200 F 
ATOM     79  F   UNL A   1      45.981  36.836  27.384  1.00  0.00    -0.200 F 
ENDBRANCH  55  69
BRANCH  56  80
ATOM     80  C   UNL A   1      36.823  31.957  30.696  1.00  0.00     0.064 A 
ATOM     81  C   UNL A   1      35.914  31.935  31.773  1.00  0.00     0.173 A 
ATOM     82  C   UNL A   1      36.557  32.889  29.679  1.00  0.00     0.173 A 
ATOM     83  F   UNL A   1      36.098  31.091  32.798  1.00  0.00    -0.203 F 
ATOM     84  C   UNL A   1      34.852  32.840  31.860  1.00  0.00     0.198 A 
ATOM     85  C   UNL A   1      35.489  33.787  29.763  1.00  0.00     0.198 A 
ATOM     86  F   UNL A   1      37.385  33.021  28.632  1.00  0.00    -0.203 F 
ATOM     87  F   UNL A   1      34.068  32.847  32.947  1.00  0.00    -0.200 F 
ATOM     88  C   UNL A   1      34.653  33.780  30.864  1.00  0.00     0.200 A 
ATOM     89  F   UNL A   1      35.322  34.711  28.806  1.00  0.00    -0.200 F 
ATOM     90  F   UNL A   1      33.690  34.703  30.986  1.00  0.00    -0.200 F 
ENDBRANCH  56  80
BRANCH  68  91
ATOM     91  C   UNL A   1      42.069  30.292  33.741  1.00  0.00     0.064 A 
ATOM     92  C   UNL A   1      41.666  28.959  33.560  1.00  0.00     0.173 A 
ATOM     93  C   UNL A   1      42.370  30.709  35.046  1.00  0.00     0.173 A 
ATOM     94  F   UNL A   1      41.434  28.468  32.335  1.00  0.00    -0.203 F 
ATOM     95  C   UNL A   1      41.544  28.094  34.646  1.00  0.00     0.198 A 
ATOM     96  C   UNL A   1      42.289  29.833  36.120  1.00  0.00     0.198 A 
ATOM     97  F   UNL A   1      42.794  31.964  35.269  1.00  0.00    -0.203 F 
ATOM     98  F   UNL A   1      41.142  26.829  34.455  1.00  0.00    -0.200 F 
ATOM     99  C   UNL A   1      41.868  28.528  35.922  1.00  0.00     0.200 A 
ATOM    100  F   UNL A   1      42.645  30.246  37.344  1.00  0.00    -0.200 F 
ATOM    101  F   UNL A   1      41.798  27.683  36.959  1.00  0.00    -0.200 F 
ENDBRANCH  68  91
ENDBRANCH  42  43
ENDBRANCH  34  37
ENDBRANCH  32  33
ENDBRANCH  31  32
ENDBRANCH   1  31
TORSDOF 15
ENDMDL
MODEL 3
REMARK VINA RESULT:     -13.5      3.593      8.791
REMARK SMILES COc1ccc2c(c1)c(CC(=O)NCCCNC(=O)c1ccc(-c3c4nc(c(-c5c(F)c(F)c(F)c(F)c5F)c5ccc([nH]5)c(-c5c(F)c(F)c(F)c(F)c5F)c5nc(c(-c6c(F)c(F)c(F)c(F)c6F)c6ccc3[nH]6)C=C5)C=C4)cc1)c(C(F)(F)F)n2C(=O)c1ccc(Cl)cc1
REMARK SMILES IDX 14 1 13 2 11 3 12 4 10 6 9 7 3 8 4 9 8 10 5 11 7 12 6 13
REMARK SMILES IDX 88 14 83 15 2 16 1 17 89 18 90 19 91 20 92 21 97 22 93 23
REMARK SMILES IDX 96 24 94 25 95 26 84 27 85 28 86 29 87 30 15 31 16 32 17 33
REMARK SMILES IDX 18 34 19 36 20 37 21 38 82 39 22 40 81 41 23 42 24 43 25 44
REMARK SMILES IDX 75 45 26 46 80 47 74 48 76 49 27 50 79 51 73 52 72 53 28 55
REMARK SMILES IDX 60 56 40 57 59 58 41 59 44 60 58 61 77 62 42 63 43 64 57 66
REMARK SMILES IDX 78 67 45 68 29 69 30 70 38 71 31 72 32 73 36 74 39 75 33 76
REMARK SMILES IDX 34 77 37 78 35 79 61 80 62 81 70 82 63 83 64 84 68 85 71 86
REMARK SMILES IDX 65 87 66 88 69 89 67 90 46 91 47 92 55 93 48 94 49 95 53 96
REMARK SMILES IDX 56 97 50 98 51 99 54 100 52 101
REMARK H PARENT 13 5 17 35 76 54 44 65
REMARK Flexibility Score: inf
ROOT
ATOM      1  C   UNL A   1      33.429  28.530  27.188  1.00  0.00     0.117 C 
ENDROOT
BRANCH   1   2
ATOM      2  N   UNL A   1      33.658  28.270  25.777  1.00  0.00    -0.356 N 
ATOM      3  C   UNL A   1      33.555  27.097  25.085  1.00  0.00     0.224 C 
ATOM      4  O   UNL A   1      33.742  27.122  23.866  1.00  0.00    -0.275 OA
ATOM      5  H   UNL A   1      33.924  29.053  25.242  1.00  0.00     0.163 HD
BRANCH   3   6
ATOM      6  C   UNL A   1      33.183  25.808  25.803  1.00  0.00     0.138 C 
BRANCH   6   7
ATOM      7  C   UNL A   1      33.521  24.571  25.016  1.00  0.00     0.000 A 
ATOM      8  C   UNL A   1      37.156  23.425  25.268  1.00  0.00     0.119 A 
ATOM      9  C   UNL A   1      37.043  22.373  24.372  1.00  0.00     0.048 A 
ATOM     10  C   UNL A   1      36.037  24.203  25.566  1.00  0.00     0.057 A 
ATOM     11  C   UNL A   1      35.820  22.086  23.755  1.00  0.00     0.031 A 
ATOM     12  C   UNL A   1      34.789  23.929  24.962  1.00  0.00     0.008 A 
ATOM     13  C   UNL A   1      34.679  22.845  24.086  1.00  0.00     0.057 A 
ATOM     14  N   UNL A   1      33.322  22.709  23.757  1.00  0.00    -0.271 N 
ATOM     15  C   UNL A   1      32.687  23.891  24.132  1.00  0.00     0.135 A 
BRANCH   8  16
ATOM     16  O   UNL A   1      38.303  23.763  25.931  1.00  0.00    -0.497 OA
ATOM     17  C   UNL A   1      39.014  22.670  26.504  1.00  0.00     0.278 C 
ENDBRANCH   8  16
BRANCH  14  18
ATOM     18  C   UNL A   1      32.693  21.559  23.210  1.00  0.00     0.262 C 
ATOM     19  O   UNL A   1      32.110  21.679  22.129  1.00  0.00    -0.268 OA
BRANCH  18  20
ATOM     20  C   UNL A   1      32.612  20.246  23.865  1.00  0.00     0.040 A 
ATOM     21  C   UNL A   1      32.838  20.136  25.244  1.00  0.00     0.015 A 
ATOM     22  C   UNL A   1      32.370  19.111  23.084  1.00  0.00     0.015 A 
ATOM     23  C   UNL A   1      32.904  18.868  25.826  1.00  0.00     0.021 A 
ATOM     24  C   UNL A   1      32.425  17.847  23.678  1.00  0.00     0.021 A 
ATOM     25  C   UNL A   1      32.711  17.731  25.039  1.00  0.00     0.041 A 
ATOM     26  Cl  UNL A   1      32.856  16.171  25.750  1.00  0.00    -0.084 Cl
ENDBRANCH  18  20
ENDBRANCH  14  18
BRANCH  15  27
ATOM     27  C   UNL A   1      31.325  24.272  23.658  1.00  0.00     0.432 C 
ATOM     28  F   UNL A   1      30.388  23.372  24.039  1.00  0.00    -0.165 F 
ATOM     29  F   UNL A   1      30.954  25.461  24.215  1.00  0.00    -0.165 F 
ATOM     30  F   UNL A   1      31.232  24.465  22.322  1.00  0.00    -0.165 F 
ENDBRANCH  15  27
ENDBRANCH   6   7
ENDBRANCH   3   6
ENDBRANCH   1   2
BRANCH   1  31
ATOM     31  C   UNL A   1      32.830  29.913  27.446  1.00  0.00     0.042 C 
BRANCH  31  32
ATOM     32  C   UNL A   1      33.815  31.067  27.248  1.00  0.00     0.118 C 
BRANCH  32  33
ATOM     33  N   UNL A   1      34.089  31.831  28.450  1.00  0.00    -0.352 N 
ATOM     34  C   UNL A   1      35.125  31.937  29.333  1.00  0.00     0.251 C 
ATOM     35  H   UNL A   1      33.339  32.422  28.689  1.00  0.00     0.163 HD
ATOM     36  O   UNL A   1      35.008  32.824  30.184  1.00  0.00    -0.269 OA
BRANCH  34  37
ATOM     37  C   UNL A   1      36.328  31.060  29.389  1.00  0.00     0.039 A 
ATOM     38  C   UNL A   1      36.328  29.667  29.410  1.00  0.00     0.014 A 
ATOM     39  C   UNL A   1      37.568  31.731  29.465  1.00  0.00     0.014 A 
ATOM     40  C   UNL A   1      37.527  28.970  29.575  1.00  0.00     0.010 A 
ATOM     41  C   UNL A   1      38.766  31.040  29.621  1.00  0.00     0.010 A 
ATOM     42  C   UNL A   1      38.743  29.656  29.711  1.00  0.00    -0.014 A 
BRANCH  42  43
ATOM     43  C   UNL A   1      39.979  28.871  29.779  1.00  0.00     0.031 A 
ATOM     44  C   UNL A   1      40.515  28.715  31.160  1.00  0.00     0.074 A 
ATOM     45  C   UNL A   1      40.554  28.237  28.735  1.00  0.00     0.049 A 
ATOM     46  N   UNL A   1      41.636  29.157  31.627  1.00  0.00    -0.248 NA
ATOM     47  C   UNL A   1      39.649  28.096  32.176  1.00  0.00     0.031 C 
ATOM     48  C   UNL A   1      40.005  28.047  27.391  1.00  0.00     0.029 A 
ATOM     49  N   UNL A   1      41.738  27.549  28.681  1.00  0.00    -0.354 N 
ATOM     50  C   UNL A   1      41.701  28.729  32.953  1.00  0.00     0.074 A 
ATOM     51  C   UNL A   1      40.402  28.203  33.274  1.00  0.00     0.031 C 
ATOM     52  C   UNL A   1      40.743  27.128  26.728  1.00  0.00     0.029 A 
ATOM     53  C   UNL A   1      41.896  26.771  27.537  1.00  0.00     0.049 A 
ATOM     54  H   UNL A   1      42.418  27.599  29.391  1.00  0.00     0.167 HD
ATOM     55  C   UNL A   1      42.895  28.641  33.599  1.00  0.00     0.037 A 
ATOM     56  C   UNL A   1      42.888  25.877  27.290  1.00  0.00     0.037 A 
ATOM     57  C   UNL A   1      43.910  29.380  32.895  1.00  0.00     0.049 A 
ATOM     58  C   UNL A   1      44.038  26.240  28.147  1.00  0.00     0.074 A 
ATOM     59  C   UNL A   1      44.233  30.703  32.706  1.00  0.00     0.029 A 
ATOM     60  N   UNL A   1      44.568  28.656  31.940  1.00  0.00    -0.354 N 
ATOM     61  N   UNL A   1      44.761  27.311  27.980  1.00  0.00    -0.248 NA
ATOM     62  C   UNL A   1      44.236  25.540  29.410  1.00  0.00     0.031 C 
ATOM     63  C   UNL A   1      44.918  30.763  31.455  1.00  0.00     0.029 A 
ATOM     64  C   UNL A   1      45.019  29.471  30.941  1.00  0.00     0.049 A 
ATOM     65  H   UNL A   1      44.698  27.680  31.968  1.00  0.00     0.167 HD
ATOM     66  C   UNL A   1      45.155  27.653  29.256  1.00  0.00     0.074 A 
ATOM     67  C   UNL A   1      44.978  26.446  30.051  1.00  0.00     0.031 C 
ATOM     68  C   UNL A   1      45.273  28.963  29.612  1.00  0.00     0.037 A 
BRANCH  55  69
ATOM     69  C   UNL A   1      43.281  27.541  34.571  1.00  0.00     0.064 A 
ATOM     70  C   UNL A   1      43.595  27.885  35.905  1.00  0.00     0.173 A 
ATOM     71  C   UNL A   1      43.676  26.245  34.177  1.00  0.00     0.173 A 
ATOM     72  F   UNL A   1      43.288  29.098  36.390  1.00  0.00    -0.203 F 
ATOM     73  C   UNL A   1      44.314  27.029  36.746  1.00  0.00     0.198 A 
ATOM     74  C   UNL A   1      44.352  25.375  35.035  1.00  0.00     0.198 A 
ATOM     75  F   UNL A   1      43.533  25.806  32.922  1.00  0.00    -0.203 F 
ATOM     76  F   UNL A   1      44.696  27.450  37.960  1.00  0.00    -0.200 F 
ATOM     77  C   UNL A   1      44.698  25.777  36.307  1.00  0.00     0.200 A 
ATOM     78  F   UNL A   1      44.736  24.173  34.582  1.00  0.00    -0.200 F 
ATOM     79  F   UNL A   1      45.438  24.978  37.086  1.00  0.00    -0.200 F 
ENDBRANCH  55  69
BRANCH  56  80
ATOM     80  C   UNL A   1      42.872  24.596  26.536  1.00  0.00     0.064 A 
ATOM     81  C   UNL A   1      43.598  24.460  25.337  1.00  0.00     0.173 A 
ATOM     82  C   UNL A   1      42.430  23.401  27.132  1.00  0.00     0.173 A 
ATOM     83  F   UNL A   1      44.076  25.542  24.707  1.00  0.00    -0.203 F 
ATOM     84  C   UNL A   1      43.926  23.206  24.811  1.00  0.00     0.198 A 
ATOM     85  C   UNL A   1      42.750  22.150  26.599  1.00  0.00     0.198 A 
ATOM     86  F   UNL A   1      41.768  23.418  28.298  1.00  0.00    -0.203 F 
ATOM     87  F   UNL A   1      44.700  23.121  23.719  1.00  0.00    -0.200 F 
ATOM     88  C   UNL A   1      43.518  22.051  25.454  1.00  0.00     0.200 A 
ATOM     89  F   UNL A   1      42.373  21.037  27.246  1.00  0.00    -0.200 F 
ATOM     90  F   UNL A   1      43.902  20.851  25.001  1.00  0.00    -0.200 F 
ENDBRANCH  56  80
BRANCH  68  91
ATOM     91  C   UNL A   1      45.487  29.962  28.518  1.00  0.00     0.064 A 
ATOM     92  C   UNL A   1      44.459  30.613  27.817  1.00  0.00     0.173 A 
ATOM     93  C   UNL A   1      46.807  30.349  28.245  1.00  0.00     0.173 A 
ATOM     94  F   UNL A   1      43.171  30.351  28.077  1.00  0.00    -0.203 F 
ATOM     95  C   UNL A   1      44.749  31.590  26.866  1.00  0.00     0.198 A 
ATOM     96  C   UNL A   1      47.090  31.353  27.328  1.00  0.00     0.198 A 
ATOM     97  F   UNL A   1      47.825  29.782  28.913  1.00  0.00    -0.203 F 
ATOM     98  F   UNL A   1      43.754  32.190  26.195  1.00  0.00    -0.200 F 
ATOM     99  C   UNL A   1      46.062  31.967  26.632  1.00  0.00     0.200 A 
ATOM    100  F   UNL A   1      48.358  31.742  27.139  1.00  0.00    -0.200 F 
ATOM    101  F   UNL A   1      46.338  32.940  25.753  1.00  0.00    -0.200 F 
ENDBRANCH  68  91
ENDBRANCH  42  43
ENDBRANCH  34  37
ENDBRANCH  32  33
ENDBRANCH  31  32
ENDBRANCH   1  31
TORSDOF 15
ENDMDL
