MODEL 1
REMARK VINA RESULT:     -13.4      0.000      0.000
REMARK SMILES CC(C)[C@@H](NC(=O)/C(=C\c1ccccc1F)NC(=O)c1ccccc1)C(=O)NCCCNC(=O)c1ccc(-c2c3nc(c(-c4c(F)c(F)c(F)c(F)c4F)c4ccc([nH]4)c(-c4c(F)c(F)c(F)c(F)c4F)c4nc(c(-c5c(F)c(F)c(F)c(F)c5F)c5ccc2[nH]5)C=C4)C=C3)cc1
REMARK SMILES IDX 29 1 28 2 26 3 27 4 4 6 2 7 1 8 3 9 5 10 6 11 7 13 8 14 9 15
REMARK SMILES IDX 17 16 18 17 19 19 20 20 21 21 25 22 22 23 24 24 23 25 10 26
REMARK SMILES IDX 11 27 15 28 12 29 14 30 16 31 13 32 30 33 31 34 32 35 33 36
REMARK SMILES IDX 34 38 35 39 36 40 97 41 37 42 96 43 38 44 39 45 40 46 90 47
REMARK SMILES IDX 41 48 95 49 89 50 91 51 42 52 94 53 88 54 87 55 43 57 75 58
REMARK SMILES IDX 55 59 74 60 56 61 59 62 73 63 92 64 57 65 58 66 72 68 93 69
REMARK SMILES IDX 60 70 44 71 45 72 53 73 46 74 47 75 51 76 54 77 48 78 49 79
REMARK SMILES IDX 52 80 50 81 76 82 77 83 85 84 78 85 79 86 83 87 86 88 80 89
REMARK SMILES IDX 81 90 84 91 82 92 61 93 62 94 70 95 63 96 64 97 68 98 71 99
REMARK SMILES IDX 65 100 66 101 69 102 67 103
REMARK H PARENT 28 5 5 12 17 18 32 37 91 56 59 67
REMARK Flexibility Score: inf
ROOT
ATOM      1  C   UNL A   1      31.709  30.628  26.017  1.00  0.00     0.117 C 
ENDROOT
BRANCH   1   2
ATOM      2  N   UNL A   1      31.919  29.759  27.151  1.00  0.00    -0.354 N 
ATOM      3  C   UNL A   1      31.552  28.460  27.248  1.00  0.00     0.242 C 
ATOM      4  O   UNL A   1      31.001  28.110  28.293  1.00  0.00    -0.273 OA
ATOM      5  H   UNL A   1      32.374  30.150  27.932  1.00  0.00     0.163 HD
BRANCH   3   6
ATOM      6  C   UNL A   1      31.684  27.529  26.046  1.00  0.00     0.174 C 
BRANCH   6   7
ATOM      7  C   UNL A   1      33.010  26.703  26.178  1.00  0.00     0.015 C 
ATOM      8  C   UNL A   1      33.065  25.546  25.175  1.00  0.00     0.010 C 
ATOM      9  C   UNL A   1      34.281  27.552  25.982  1.00  0.00     0.010 C 
ENDBRANCH   6   7
BRANCH   6  10
ATOM     10  N   UNL A   1      30.492  26.671  25.824  1.00  0.00    -0.339 N 
ATOM     11  C   UNL A   1      29.958  26.253  24.623  1.00  0.00     0.268 C 
ATOM     12  H   UNL A   1      30.025  26.362  26.634  1.00  0.00     0.164 HD
ATOM     13  O   UNL A   1      29.746  25.048  24.473  1.00  0.00    -0.268 OA
BRANCH  11  14
ATOM     14  C   UNL A   1      29.389  27.231  23.616  1.00  0.00     0.107 C 
ATOM     15  C   UNL A   1      30.114  27.850  22.656  1.00  0.00     0.043 C 
BRANCH  14  16
ATOM     16  N   UNL A   1      28.022  27.493  23.577  1.00  0.00    -0.317 N 
ATOM     17  C   UNL A   1      27.228  28.563  23.250  1.00  0.00     0.255 C 
ATOM     18  H   UNL A   1      27.490  26.711  23.853  1.00  0.00     0.170 HD
ATOM     19  O   UNL A   1      26.006  28.439  23.347  1.00  0.00    -0.269 OA
BRANCH  17  20
ATOM     20  C   UNL A   1      27.752  29.852  22.802  1.00  0.00     0.040 A 
ATOM     21  C   UNL A   1      27.962  30.854  23.752  1.00  0.00     0.014 A 
ATOM     22  C   UNL A   1      27.912  30.117  21.442  1.00  0.00     0.014 A 
ATOM     23  C   UNL A   1      28.413  32.106  23.339  1.00  0.00     0.001 A 
ATOM     24  C   UNL A   1      28.377  31.365  21.033  1.00  0.00     0.001 A 
ATOM     25  C   UNL A   1      28.636  32.354  21.983  1.00  0.00     0.000 A 
ENDBRANCH  17  20
ENDBRANCH  14  16
BRANCH  15  26
ATOM     26  C   UNL A   1      31.560  27.884  22.408  1.00  0.00     0.012 A 
ATOM     27  C   UNL A   1      32.245  29.060  22.765  1.00  0.00     0.011 A 
ATOM     28  C   UNL A   1      32.295  26.820  21.892  1.00  0.00     0.130 A 
ATOM     29  C   UNL A   1      33.640  29.103  22.749  1.00  0.00     0.001 A 
ATOM     30  C   UNL A   1      33.687  26.862  21.859  1.00  0.00     0.040 A 
ATOM     31  F   UNL A   1      31.677  25.718  21.450  1.00  0.00    -0.206 F 
ATOM     32  C   UNL A   1      34.362  27.991  22.322  1.00  0.00     0.003 A 
ENDBRANCH  15  26
ENDBRANCH  11  14
ENDBRANCH   6  10
ENDBRANCH   3   6
ENDBRANCH   1   2
BRANCH   1  33
ATOM     33  C   UNL A   1      31.376  32.014  26.537  1.00  0.00     0.042 C 
BRANCH  33  34
ATOM     34  C   UNL A   1      32.580  32.632  27.233  1.00  0.00     0.118 C 
BRANCH  34  35
ATOM     35  N   UNL A   1      32.382  34.052  27.481  1.00  0.00    -0.352 N 
ATOM     36  C   UNL A   1      32.939  34.816  28.476  1.00  0.00     0.251 C 
ATOM     37  H   UNL A   1      31.776  34.520  26.863  1.00  0.00     0.163 HD
ATOM     38  O   UNL A   1      32.493  35.917  28.757  1.00  0.00    -0.269 OA
BRANCH  36  39
ATOM     39  C   UNL A   1      34.083  34.255  29.217  1.00  0.00     0.039 A 
ATOM     40  C   UNL A   1      33.844  33.395  30.286  1.00  0.00     0.014 A 
ATOM     41  C   UNL A   1      35.385  34.533  28.792  1.00  0.00     0.014 A 
ATOM     42  C   UNL A   1      34.924  32.762  30.899  1.00  0.00     0.010 A 
ATOM     43  C   UNL A   1      36.444  33.817  29.327  1.00  0.00     0.010 A 
ATOM     44  C   UNL A   1      36.225  32.940  30.399  1.00  0.00    -0.014 A 
BRANCH  44  45
ATOM     45  C   UNL A   1      37.385  32.242  31.001  1.00  0.00     0.031 A 
ATOM     46  C   UNL A   1      37.860  32.639  32.370  1.00  0.00     0.074 A 
ATOM     47  C   UNL A   1      38.041  31.303  30.293  1.00  0.00     0.049 A 
ATOM     48  N   UNL A   1      38.897  32.210  33.040  1.00  0.00    -0.248 NA
ATOM     49  C   UNL A   1      37.087  33.682  33.066  1.00  0.00     0.031 C 
ATOM     50  C   UNL A   1      37.701  30.874  28.936  1.00  0.00     0.029 A 
ATOM     51  N   UNL A   1      39.135  30.541  30.618  1.00  0.00    -0.354 N 
ATOM     52  C   UNL A   1      38.907  32.939  34.222  1.00  0.00     0.074 A 
ATOM     53  C   UNL A   1      37.816  33.883  34.152  1.00  0.00     0.031 C 
ATOM     54  C   UNL A   1      38.544  29.900  28.559  1.00  0.00     0.029 A 
ATOM     55  C   UNL A   1      39.510  29.665  29.628  1.00  0.00     0.049 A 
ATOM     56  H   UNL A   1      39.606  30.614  31.479  1.00  0.00     0.167 HD
ATOM     57  C   UNL A   1      39.734  32.807  35.283  1.00  0.00     0.037 A 
ATOM     58  C   UNL A   1      40.521  28.777  29.589  1.00  0.00     0.037 A 
ATOM     59  C   UNL A   1      40.789  31.835  35.361  1.00  0.00     0.049 A 
ATOM     60  C   UNL A   1      41.426  28.649  30.783  1.00  0.00     0.074 A 
ATOM     61  C   UNL A   1      41.643  31.577  36.418  1.00  0.00     0.029 A 
ATOM     62  N   UNL A   1      41.132  30.958  34.342  1.00  0.00    -0.354 N 
ATOM     63  N   UNL A   1      41.391  29.304  31.919  1.00  0.00    -0.248 NA
ATOM     64  C   UNL A   1      42.507  27.658  30.695  1.00  0.00     0.031 C 
ATOM     65  C   UNL A   1      42.534  30.577  36.022  1.00  0.00     0.029 A 
ATOM     66  C   UNL A   1      42.200  30.172  34.739  1.00  0.00     0.049 A 
ATOM     67  H   UNL A   1      40.683  30.903  33.467  1.00  0.00     0.167 HD
ATOM     68  C   UNL A   1      42.427  28.791  32.688  1.00  0.00     0.074 A 
ATOM     69  C   UNL A   1      43.065  27.760  31.895  1.00  0.00     0.031 C 
ATOM     70  C   UNL A   1      42.816  29.145  33.937  1.00  0.00     0.037 A 
BRANCH  57  71
ATOM     71  C   UNL A   1      39.520  33.716  36.457  1.00  0.00     0.064 A 
ATOM     72  C   UNL A   1      40.157  34.964  36.517  1.00  0.00     0.173 A 
ATOM     73  C   UNL A   1      38.738  33.325  37.555  1.00  0.00     0.173 A 
ATOM     74  F   UNL A   1      40.918  35.385  35.494  1.00  0.00    -0.203 F 
ATOM     75  C   UNL A   1      40.034  35.779  37.639  1.00  0.00     0.198 A 
ATOM     76  C   UNL A   1      38.591  34.156  38.662  1.00  0.00     0.198 A 
ATOM     77  F   UNL A   1      38.094  32.149  37.541  1.00  0.00    -0.203 F 
ATOM     78  F   UNL A   1      40.682  36.951  37.688  1.00  0.00    -0.200 F 
ATOM     79  C   UNL A   1      39.249  35.377  38.708  1.00  0.00     0.200 A 
ATOM     80  F   UNL A   1      37.809  33.777  39.682  1.00  0.00    -0.200 F 
ATOM     81  F   UNL A   1      39.123  36.166  39.784  1.00  0.00    -0.200 F 
ENDBRANCH  57  71
BRANCH  58  82
ATOM     82  C   UNL A   1      40.697  27.917  28.390  1.00  0.00     0.064 A 
ATOM     83  C   UNL A   1      41.456  28.341  27.290  1.00  0.00     0.173 A 
ATOM     84  C   UNL A   1      40.073  26.665  28.309  1.00  0.00     0.173 A 
ATOM     85  F   UNL A   1      42.067  29.534  27.314  1.00  0.00    -0.203 F 
ATOM     86  C   UNL A   1      41.568  27.553  26.146  1.00  0.00     0.198 A 
ATOM     87  C   UNL A   1      40.208  25.865  27.175  1.00  0.00     0.198 A 
ATOM     88  F   UNL A   1      39.350  26.209  29.342  1.00  0.00    -0.203 F 
ATOM     89  F   UNL A   1      42.268  27.998  25.094  1.00  0.00    -0.200 F 
ATOM     90  C   UNL A   1      40.947  26.314  26.091  1.00  0.00     0.200 A 
ATOM     91  F   UNL A   1      39.624  24.660  27.135  1.00  0.00    -0.200 F 
ATOM     92  F   UNL A   1      41.062  25.552  24.995  1.00  0.00    -0.200 F 
ENDBRANCH  58  82
BRANCH  70  93
ATOM     93  C   UNL A   1      43.968  28.403  34.546  1.00  0.00     0.064 A 
ATOM     94  C   UNL A   1      43.747  27.225  35.276  1.00  0.00     0.173 A 
ATOM     95  C   UNL A   1      45.275  28.907  34.489  1.00  0.00     0.173 A 
ATOM     96  F   UNL A   1      42.512  26.708  35.369  1.00  0.00    -0.203 F 
ATOM     97  C   UNL A   1      44.789  26.591  35.945  1.00  0.00     0.198 A 
ATOM     98  C   UNL A   1      46.321  28.254  35.134  1.00  0.00     0.198 A 
ATOM     99  F   UNL A   1      45.538  30.024  33.794  1.00  0.00    -0.203 F 
ATOM    100  F   UNL A   1      44.546  25.492  36.672  1.00  0.00    -0.200 F 
ATOM    101  C   UNL A   1      46.075  27.104  35.872  1.00  0.00     0.200 A 
ATOM    102  F   UNL A   1      47.567  28.738  35.044  1.00  0.00    -0.200 F 
ATOM    103  F   UNL A   1      47.079  26.491  36.512  1.00  0.00    -0.200 F 
ENDBRANCH  70  93
ENDBRANCH  44  45
ENDBRANCH  36  39
ENDBRANCH  34  35
ENDBRANCH  33  34
ENDBRANCH   1  33
TORSDOF 16
ENDMDL
MODEL 2
REMARK VINA RESULT:     -13.1      4.179      8.947
REMARK SMILES CC(C)[C@@H](NC(=O)/C(=C\c1ccccc1F)NC(=O)c1ccccc1)C(=O)NCCCNC(=O)c1ccc(-c2c3nc(c(-c4c(F)c(F)c(F)c(F)c4F)c4ccc([nH]4)c(-c4c(F)c(F)c(F)c(F)c4F)c4nc(c(-c5c(F)c(F)c(F)c(F)c5F)c5ccc2[nH]5)C=C4)C=C3)cc1
REMARK SMILES IDX 29 1 28 2 26 3 27 4 4 6 2 7 1 8 3 9 5 10 6 11 7 13 8 14 9 15
REMARK SMILES IDX 17 16 18 17 19 19 20 20 21 21 25 22 22 23 24 24 23 25 10 26
REMARK SMILES IDX 11 27 15 28 12 29 14 30 16 31 13 32 30 33 31 34 32 35 33 36
REMARK SMILES IDX 34 38 35 39 36 40 97 41 37 42 96 43 38 44 39 45 40 46 90 47
REMARK SMILES IDX 41 48 95 49 89 50 91 51 42 52 94 53 88 54 87 55 43 57 75 58
REMARK SMILES IDX 55 59 74 60 56 61 59 62 73 63 92 64 57 65 58 66 72 68 93 69
REMARK SMILES IDX 60 70 44 71 45 72 53 73 46 74 47 75 51 76 54 77 48 78 49 79
REMARK SMILES IDX 52 80 50 81 76 82 77 83 85 84 78 85 79 86 83 87 86 88 80 89
REMARK SMILES IDX 81 90 84 91 82 92 61 93 62 94 70 95 63 96 64 97 68 98 71 99
REMARK SMILES IDX 65 100 66 101 69 102 67 103
REMARK H PARENT 28 5 5 12 17 18 32 37 91 56 59 67
REMARK Flexibility Score: inf
ROOT
ATOM      1  C   UNL A   1      35.182  24.044  24.285  1.00  0.00     0.117 C 
ENDROOT
BRANCH   1   2
ATOM      2  N   UNL A   1      34.488  23.596  23.100  1.00  0.00    -0.354 N 
ATOM      3  C   UNL A   1      33.174  23.764  22.825  1.00  0.00     0.242 C 
ATOM      4  O   UNL A   1      32.562  22.785  22.395  1.00  0.00    -0.273 OA
ATOM      5  H   UNL A   1      35.024  23.120  22.425  1.00  0.00     0.163 HD
BRANCH   3   6
ATOM      6  C   UNL A   1      32.470  25.069  23.187  1.00  0.00     0.174 C 
BRANCH   6   7
ATOM      7  C   UNL A   1      32.818  26.156  22.112  1.00  0.00     0.015 C 
ATOM      8  C   UNL A   1      32.116  25.883  20.778  1.00  0.00     0.010 C 
ATOM      9  C   UNL A   1      32.452  27.587  22.549  1.00  0.00     0.010 C 
ENDBRANCH   6   7
BRANCH   6  10
ATOM     10  N   UNL A   1      31.008  24.918  23.400  1.00  0.00    -0.339 N 
ATOM     11  C   UNL A   1      30.209  25.581  24.308  1.00  0.00     0.268 C 
ATOM     12  H   UNL A   1      30.553  24.263  22.823  1.00  0.00     0.164 HD
ATOM     13  O   UNL A   1      29.188  26.129  23.887  1.00  0.00    -0.268 OA
BRANCH  11  14
ATOM     14  C   UNL A   1      30.400  25.431  25.803  1.00  0.00     0.107 C 
ATOM     15  C   UNL A   1      31.138  26.266  26.568  1.00  0.00     0.043 C 
BRANCH  14  16
ATOM     16  N   UNL A   1      29.734  24.429  26.505  1.00  0.00    -0.317 N 
ATOM     17  C   UNL A   1      30.034  23.169  26.955  1.00  0.00     0.255 C 
ATOM     18  H   UNL A   1      28.814  24.693  26.738  1.00  0.00     0.170 HD
ATOM     19  O   UNL A   1      29.164  22.536  27.554  1.00  0.00    -0.269 OA
BRANCH  17  20
ATOM     20  C   UNL A   1      31.331  22.525  26.753  1.00  0.00     0.040 A 
ATOM     21  C   UNL A   1      32.369  22.820  27.639  1.00  0.00     0.014 A 
ATOM     22  C   UNL A   1      31.562  21.740  25.623  1.00  0.00     0.014 A 
ATOM     23  C   UNL A   1      33.627  22.256  27.434  1.00  0.00     0.001 A 
ATOM     24  C   UNL A   1      32.817  21.166  25.428  1.00  0.00     0.001 A 
ATOM     25  C   UNL A   1      33.844  21.418  26.339  1.00  0.00     0.000 A 
ENDBRANCH  17  20
ENDBRANCH  14  16
BRANCH  15  26
ATOM     26  C   UNL A   1      32.022  27.380  26.207  1.00  0.00     0.012 A 
ATOM     27  C   UNL A   1      31.422  28.635  25.999  1.00  0.00     0.011 A 
ATOM     28  C   UNL A   1      33.408  27.284  26.107  1.00  0.00     0.130 A 
ATOM     29  C   UNL A   1      32.205  29.782  25.851  1.00  0.00     0.001 A 
ATOM     30  C   UNL A   1      34.194  28.423  25.944  1.00  0.00     0.040 A 
ATOM     31  F   UNL A   1      34.015  26.095  26.202  1.00  0.00    -0.206 F 
ATOM     32  C   UNL A   1      33.593  29.678  25.852  1.00  0.00     0.003 A 
ENDBRANCH  15  26
ENDBRANCH  11  14
ENDBRANCH   6  10
ENDBRANCH   3   6
ENDBRANCH   1   2
BRANCH   1  33
ATOM     33  C   UNL A   1      36.438  23.209  24.444  1.00  0.00     0.042 C 
BRANCH  33  34
ATOM     34  C   UNL A   1      36.967  23.297  25.867  1.00  0.00     0.118 C 
BRANCH  34  35
ATOM     35  N   UNL A   1      38.105  22.413  26.069  1.00  0.00    -0.352 N 
ATOM     36  C   UNL A   1      39.387  22.758  26.416  1.00  0.00     0.251 C 
ATOM     37  H   UNL A   1      37.935  21.451  25.942  1.00  0.00     0.163 HD
ATOM     38  O   UNL A   1      40.314  21.975  26.287  1.00  0.00    -0.269 OA
BRANCH  36  39
ATOM     39  C   UNL A   1      39.618  24.121  26.928  1.00  0.00     0.039 A 
ATOM     40  C   UNL A   1      39.368  24.394  28.271  1.00  0.00     0.014 A 
ATOM     41  C   UNL A   1      40.152  25.097  26.081  1.00  0.00     0.014 A 
ATOM     42  C   UNL A   1      39.712  25.644  28.782  1.00  0.00     0.010 A 
ATOM     43  C   UNL A   1      40.597  26.295  26.617  1.00  0.00     0.010 A 
ATOM     44  C   UNL A   1      40.363  26.587  27.968  1.00  0.00    -0.014 A 
BRANCH  44  45
ATOM     45  C   UNL A   1      40.783  27.905  28.499  1.00  0.00     0.031 A 
ATOM     46  C   UNL A   1      42.233  28.152  28.806  1.00  0.00     0.074 A 
ATOM     47  C   UNL A   1      39.856  28.846  28.761  1.00  0.00     0.049 A 
ATOM     48  N   UNL A   1      42.795  29.202  29.346  1.00  0.00    -0.248 NA
ATOM     49  C   UNL A   1      43.174  27.062  28.496  1.00  0.00     0.031 C 
ATOM     50  C   UNL A   1      38.415  28.697  28.552  1.00  0.00     0.029 A 
ATOM     51  N   UNL A   1      39.990  30.116  29.263  1.00  0.00    -0.354 N 
ATOM     52  C   UNL A   1      44.143  28.891  29.453  1.00  0.00     0.074 A 
ATOM     53  C   UNL A   1      44.309  27.535  28.986  1.00  0.00     0.031 C 
ATOM     54  C   UNL A   1      37.802  29.843  28.886  1.00  0.00     0.029 A 
ATOM     55  C   UNL A   1      38.798  30.792  29.374  1.00  0.00     0.049 A 
ATOM     56  H   UNL A   1      40.856  30.505  29.519  1.00  0.00     0.167 HD
ATOM     57  C   UNL A   1      45.157  29.682  29.873  1.00  0.00     0.037 A 
ATOM     58  C   UNL A   1      38.543  32.035  29.823  1.00  0.00     0.037 A 
ATOM     59  C   UNL A   1      44.987  31.045  30.294  1.00  0.00     0.049 A 
ATOM     60  C   UNL A   1      39.687  32.895  30.282  1.00  0.00     0.074 A 
ATOM     61  C   UNL A   1      45.959  31.953  30.677  1.00  0.00     0.029 A 
ATOM     62  N   UNL A   1      43.767  31.699  30.383  1.00  0.00    -0.354 N 
ATOM     63  N   UNL A   1      40.967  32.611  30.326  1.00  0.00    -0.248 NA
ATOM     64  C   UNL A   1      39.356  34.247  30.752  1.00  0.00     0.031 C 
ATOM     65  C   UNL A   1      45.322  33.140  31.044  1.00  0.00     0.029 A 
ATOM     66  C   UNL A   1      43.960  32.992  30.837  1.00  0.00     0.049 A 
ATOM     67  H   UNL A   1      42.895  31.302  30.158  1.00  0.00     0.167 HD
ATOM     68  C   UNL A   1      41.596  33.753  30.805  1.00  0.00     0.074 A 
ATOM     69  C   UNL A   1      40.558  34.739  31.025  1.00  0.00     0.031 C 
ATOM     70  C   UNL A   1      42.914  33.963  31.042  1.00  0.00     0.037 A 
BRANCH  57  71
ATOM     71  C   UNL A   1      46.542  29.106  29.876  1.00  0.00     0.064 A 
ATOM     72  C   UNL A   1      47.053  28.489  31.027  1.00  0.00     0.173 A 
ATOM     73  C   UNL A   1      47.388  29.224  28.763  1.00  0.00     0.173 A 
ATOM     74  F   UNL A   1      46.286  28.352  32.119  1.00  0.00    -0.203 F 
ATOM     75  C   UNL A   1      48.366  28.027  31.070  1.00  0.00     0.198 A 
ATOM     76  C   UNL A   1      48.690  28.732  28.797  1.00  0.00     0.198 A 
ATOM     77  F   UNL A   1      46.942  29.791  27.632  1.00  0.00    -0.203 F 
ATOM     78  F   UNL A   1      48.843  27.473  32.192  1.00  0.00    -0.200 F 
ATOM     79  C   UNL A   1      49.182  28.146  29.955  1.00  0.00     0.200 A 
ATOM     80  F   UNL A   1      49.467  28.823  27.710  1.00  0.00    -0.200 F 
ATOM     81  F   UNL A   1      50.442  27.692  29.993  1.00  0.00    -0.200 F 
ENDBRANCH  57  71
BRANCH  58  82
ATOM     82  C   UNL A   1      37.147  32.545  29.816  1.00  0.00     0.064 A 
ATOM     83  C   UNL A   1      36.635  33.262  28.724  1.00  0.00     0.173 A 
ATOM     84  C   UNL A   1      36.309  32.357  30.924  1.00  0.00     0.173 A 
ATOM     85  F   UNL A   1      37.398  33.476  27.643  1.00  0.00    -0.203 F 
ATOM     86  C   UNL A   1      35.345  33.787  28.750  1.00  0.00     0.198 A 
ATOM     87  C   UNL A   1      35.009  32.860  30.937  1.00  0.00     0.198 A 
ATOM     88  F   UNL A   1      36.749  31.664  31.984  1.00  0.00    -0.203 F 
ATOM     89  F   UNL A   1      34.893  34.500  27.709  1.00  0.00    -0.200 F 
ATOM     90  C   UNL A   1      34.531  33.582  29.855  1.00  0.00     0.200 A 
ATOM     91  F   UNL A   1      34.220  32.640  31.998  1.00  0.00    -0.200 F 
ATOM     92  F   UNL A   1      33.287  34.079  29.875  1.00  0.00    -0.200 F 
ENDBRANCH  58  82
BRANCH  70  93
ATOM     93  C   UNL A   1      43.325  35.315  31.544  1.00  0.00     0.064 A 
ATOM     94  C   UNL A   1      43.252  35.614  32.913  1.00  0.00     0.173 A 
ATOM     95  C   UNL A   1      43.698  36.340  30.664  1.00  0.00     0.173 A 
ATOM     96  F   UNL A   1      42.890  34.670  33.794  1.00  0.00    -0.203 F 
ATOM     97  C   UNL A   1      43.517  36.899  33.379  1.00  0.00     0.198 A 
ATOM     98  C   UNL A   1      43.992  37.615  31.137  1.00  0.00     0.198 A 
ATOM     99  F   UNL A   1      43.793  36.098  29.348  1.00  0.00    -0.203 F 
ATOM    100  F   UNL A   1      43.399  37.172  34.686  1.00  0.00    -0.200 F 
ATOM    101  C   UNL A   1      43.890  37.897  32.492  1.00  0.00     0.200 A 
ATOM    102  F   UNL A   1      44.374  38.573  30.282  1.00  0.00    -0.200 F 
ATOM    103  F   UNL A   1      44.149  39.131  32.942  1.00  0.00    -0.200 F 
ENDBRANCH  70  93
ENDBRANCH  44  45
ENDBRANCH  36  39
ENDBRANCH  34  35
ENDBRANCH  33  34
ENDBRANCH   1  33
TORSDOF 16
ENDMDL
MODEL 3
REMARK VINA RESULT:     -12.9      4.616      9.555
REMARK SMILES CC(C)[C@@H](NC(=O)/C(=C\c1ccccc1F)NC(=O)c1ccccc1)C(=O)NCCCNC(=O)c1ccc(-c2c3nc(c(-c4c(F)c(F)c(F)c(F)c4F)c4ccc([nH]4)c(-c4c(F)c(F)c(F)c(F)c4F)c4nc(c(-c5c(F)c(F)c(F)c(F)c5F)c5ccc2[nH]5)C=C4)C=C3)cc1
REMARK SMILES IDX 29 1 28 2 26 3 27 4 4 6 2 7 1 8 3 9 5 10 6 11 7 13 8 14 9 15
REMARK SMILES IDX 17 16 18 17 19 19 20 20 21 21 25 22 22 23 24 24 23 25 10 26
REMARK SMILES IDX 11 27 15 28 12 29 14 30 16 31 13 32 30 33 31 34 32 35 33 36
REMARK SMILES IDX 34 38 35 39 36 40 97 41 37 42 96 43 38 44 39 45 40 46 90 47
REMARK SMILES IDX 41 48 95 49 89 50 91 51 42 52 94 53 88 54 87 55 43 57 75 58
REMARK SMILES IDX 55 59 74 60 56 61 59 62 73 63 92 64 57 65 58 66 72 68 93 69
REMARK SMILES IDX 60 70 44 71 45 72 53 73 46 74 47 75 51 76 54 77 48 78 49 79
REMARK SMILES IDX 52 80 50 81 76 82 77 83 85 84 78 85 79 86 83 87 86 88 80 89
REMARK SMILES IDX 81 90 84 91 82 92 61 93 62 94 70 95 63 96 64 97 68 98 71 99
REMARK SMILES IDX 65 100 66 101 69 102 67 103
REMARK H PARENT 28 5 5 12 17 18 32 37 91 56 59 67
REMARK Flexibility Score: inf
ROOT
ATOM      1  C   UNL A   1      35.431  23.695  24.139  1.00  0.00     0.117 C 
ENDROOT
BRANCH   1   2
ATOM      2  N   UNL A   1      34.598  23.269  23.040  1.00  0.00    -0.354 N 
ATOM      3  C   UNL A   1      33.285  23.549  22.870  1.00  0.00     0.242 C 
ATOM      4  O   UNL A   1      32.552  22.616  22.538  1.00  0.00    -0.273 OA
ATOM      5  H   UNL A   1      35.027  22.719  22.344  1.00  0.00     0.163 HD
BRANCH   3   6
ATOM      6  C   UNL A   1      32.737  24.927  23.230  1.00  0.00     0.174 C 
BRANCH   6   7
ATOM      7  C   UNL A   1      33.280  25.981  22.205  1.00  0.00     0.015 C 
ATOM      8  C   UNL A   1      32.547  25.902  20.862  1.00  0.00     0.010 C 
ATOM      9  C   UNL A   1      33.178  27.433  22.708  1.00  0.00     0.010 C 
ENDBRANCH   6   7
BRANCH   6  10
ATOM     10  N   UNL A   1      31.258  24.963  23.362  1.00  0.00    -0.339 N 
ATOM     11  C   UNL A   1      30.502  25.697  24.252  1.00  0.00     0.268 C 
ATOM     12  H   UNL A   1      30.754  24.393  22.738  1.00  0.00     0.164 HD
ATOM     13  O   UNL A   1      29.587  26.388  23.801  1.00  0.00    -0.268 OA
BRANCH  11  14
ATOM     14  C   UNL A   1      30.589  25.477  25.748  1.00  0.00     0.107 C 
ATOM     15  C   UNL A   1      31.266  26.278  26.602  1.00  0.00     0.043 C 
BRANCH  14  16
ATOM     16  N   UNL A   1      29.881  24.442  26.354  1.00  0.00    -0.317 N 
ATOM     17  C   UNL A   1      30.160  23.166  26.773  1.00  0.00     0.255 C 
ATOM     18  H   UNL A   1      28.943  24.688  26.525  1.00  0.00     0.170 HD
ATOM     19  O   UNL A   1      29.253  22.501  27.276  1.00  0.00    -0.269 OA
BRANCH  17  20
ATOM     20  C   UNL A   1      31.476  22.542  26.646  1.00  0.00     0.040 A 
ATOM     21  C   UNL A   1      31.668  21.584  25.648  1.00  0.00     0.014 A 
ATOM     22  C   UNL A   1      32.475  22.800  27.585  1.00  0.00     0.014 A 
ATOM     23  C   UNL A   1      32.900  20.942  25.542  1.00  0.00     0.001 A 
ATOM     24  C   UNL A   1      33.710  22.166  27.469  1.00  0.00     0.001 A 
ATOM     25  C   UNL A   1      33.924  21.246  26.442  1.00  0.00     0.000 A 
ENDBRANCH  17  20
ENDBRANCH  14  16
BRANCH  15  26
ATOM     26  C   UNL A   1      32.166  27.411  26.357  1.00  0.00     0.012 A 
ATOM     27  C   UNL A   1      31.589  28.693  26.323  1.00  0.00     0.011 A 
ATOM     28  C   UNL A   1      33.546  27.301  26.207  1.00  0.00     0.130 A 
ATOM     29  C   UNL A   1      32.394  29.834  26.297  1.00  0.00     0.001 A 
ATOM     30  C   UNL A   1      34.353  28.435  26.164  1.00  0.00     0.040 A 
ATOM     31  F   UNL A   1      34.128  26.097  26.137  1.00  0.00    -0.206 F 
ATOM     32  C   UNL A   1      33.779  29.703  26.246  1.00  0.00     0.003 A 
ENDBRANCH  15  26
ENDBRANCH  11  14
ENDBRANCH   6  10
ENDBRANCH   3   6
ENDBRANCH   1   2
BRANCH   1  33
ATOM     33  C   UNL A   1      36.560  22.693  24.295  1.00  0.00     0.042 C 
BRANCH  33  34
ATOM     34  C   UNL A   1      37.059  22.663  25.732  1.00  0.00     0.118 C 
BRANCH  34  35
ATOM     35  N   UNL A   1      38.092  21.655  25.917  1.00  0.00    -0.352 N 
ATOM     36  C   UNL A   1      39.403  21.851  26.275  1.00  0.00     0.251 C 
ATOM     37  H   UNL A   1      37.819  20.721  25.768  1.00  0.00     0.163 HD
ATOM     38  O   UNL A   1      40.239  20.974  26.130  1.00  0.00    -0.269 OA
BRANCH  36  39
ATOM     39  C   UNL A   1      39.778  23.169  26.818  1.00  0.00     0.039 A 
ATOM     40  C   UNL A   1      40.571  23.231  27.962  1.00  0.00     0.014 A 
ATOM     41  C   UNL A   1      39.398  24.331  26.140  1.00  0.00     0.014 A 
ATOM     42  C   UNL A   1      41.034  24.472  28.396  1.00  0.00     0.010 A 
ATOM     43  C   UNL A   1      39.953  25.546  26.507  1.00  0.00     0.010 A 
ATOM     44  C   UNL A   1      40.759  25.631  27.650  1.00  0.00    -0.014 A 
BRANCH  44  45
ATOM     45  C   UNL A   1      41.280  26.955  28.063  1.00  0.00     0.031 A 
ATOM     46  C   UNL A   1      42.741  27.263  27.894  1.00  0.00     0.074 A 
ATOM     47  C   UNL A   1      40.454  27.847  28.642  1.00  0.00     0.049 A 
ATOM     48  N   UNL A   1      43.408  28.326  28.260  1.00  0.00    -0.248 NA
ATOM     49  C   UNL A   1      43.571  26.225  27.260  1.00  0.00     0.031 C 
ATOM     50  C   UNL A   1      39.029  27.636  28.904  1.00  0.00     0.029 A 
ATOM     51  N   UNL A   1      40.696  29.111  29.119  1.00  0.00    -0.354 N 
ATOM     52  C   UNL A   1      44.729  28.076  27.916  1.00  0.00     0.074 A 
ATOM     53  C   UNL A   1      44.785  26.738  27.373  1.00  0.00     0.031 C 
ATOM     54  C   UNL A   1      38.515  28.745  29.458  1.00  0.00     0.029 A 
ATOM     55  C   UNL A   1      39.581  29.729  29.632  1.00  0.00     0.049 A 
ATOM     56  H   UNL A   1      41.584  29.534  29.095  1.00  0.00     0.167 HD
ATOM     57  C   UNL A   1      45.794  28.903  28.014  1.00  0.00     0.037 A 
ATOM     58  C   UNL A   1      39.439  30.949  30.182  1.00  0.00     0.037 A 
ATOM     59  C   UNL A   1      45.720  30.248  28.515  1.00  0.00     0.049 A 
ATOM     60  C   UNL A   1      40.638  31.851  30.278  1.00  0.00     0.074 A 
ATOM     61  C   UNL A   1      46.729  31.191  28.596  1.00  0.00     0.029 A 
ATOM     62  N   UNL A   1      44.572  30.842  29.016  1.00  0.00    -0.354 N 
ATOM     63  N   UNL A   1      41.872  31.626  29.896  1.00  0.00    -0.248 NA
ATOM     64  C   UNL A   1      40.427  33.176  30.876  1.00  0.00     0.031 C 
ATOM     65  C   UNL A   1      46.203  32.340  29.190  1.00  0.00     0.029 A 
ATOM     66  C   UNL A   1      44.853  32.134  29.428  1.00  0.00     0.049 A 
ATOM     67  H   UNL A   1      43.688  30.410  29.070  1.00  0.00     0.167 HD
ATOM     68  C   UNL A   1      42.579  32.784  30.186  1.00  0.00     0.074 A 
ATOM     69  C   UNL A   1      41.633  33.718  30.763  1.00  0.00     0.031 C 
ATOM     70  C   UNL A   1      43.894  33.050  29.993  1.00  0.00     0.037 A 
BRANCH  57  71
ATOM     71  C   UNL A   1      47.126  28.392  27.550  1.00  0.00     0.064 A 
ATOM     72  C   UNL A   1      47.459  28.409  26.188  1.00  0.00     0.173 A 
ATOM     73  C   UNL A   1      48.046  27.824  28.444  1.00  0.00     0.173 A 
ATOM     74  F   UNL A   1      46.615  28.939  25.291  1.00  0.00    -0.203 F 
ATOM     75  C   UNL A   1      48.656  27.859  25.736  1.00  0.00     0.198 A 
ATOM     76  C   UNL A   1      49.256  27.305  27.994  1.00  0.00     0.198 A 
ATOM     77  F   UNL A   1      47.782  27.799  29.760  1.00  0.00    -0.203 F 
ATOM     78  F   UNL A   1      48.937  27.854  24.426  1.00  0.00    -0.200 F 
ATOM     79  C   UNL A   1      49.555  27.311  26.639  1.00  0.00     0.200 A 
ATOM     80  F   UNL A   1      50.135  26.801  28.871  1.00  0.00    -0.200 F 
ATOM     81  F   UNL A   1      50.711  26.792  26.205  1.00  0.00    -0.200 F 
ENDBRANCH  57  71
BRANCH  58  82
ATOM     82  C   UNL A   1      38.098  31.394  30.643  1.00  0.00     0.064 A 
ATOM     83  C   UNL A   1      37.138  31.880  29.743  1.00  0.00     0.173 A 
ATOM     84  C   UNL A   1      37.766  31.378  32.005  1.00  0.00     0.173 A 
ATOM     85  F   UNL A   1      37.408  31.923  28.431  1.00  0.00    -0.203 F 
ATOM     86  C   UNL A   1      35.905  32.350  30.191  1.00  0.00     0.198 A 
ATOM     87  C   UNL A   1      36.522  31.824  32.449  1.00  0.00     0.198 A 
ATOM     88  F   UNL A   1      38.645  30.908  32.902  1.00  0.00    -0.203 F 
ATOM     89  F   UNL A   1      35.020  32.843  29.314  1.00  0.00    -0.200 F 
ATOM     90  C   UNL A   1      35.597  32.318  31.543  1.00  0.00     0.200 A 
ATOM     91  F   UNL A   1      36.221  31.770  33.753  1.00  0.00    -0.200 F 
ATOM     92  F   UNL A   1      34.407  32.761  31.972  1.00  0.00    -0.200 F 
ENDBRANCH  58  82
BRANCH  70  93
ATOM     93  C   UNL A   1      44.397  34.409  30.382  1.00  0.00     0.064 A 
ATOM     94  C   UNL A   1      44.845  34.650  31.690  1.00  0.00     0.173 A 
ATOM     95  C   UNL A   1      44.343  35.491  29.493  1.00  0.00     0.173 A 
ATOM     96  F   UNL A   1      44.905  33.649  32.581  1.00  0.00    -0.203 F 
ATOM     97  C   UNL A   1      45.202  35.932  32.098  1.00  0.00     0.198 A 
ATOM     98  C   UNL A   1      44.730  36.766  29.897  1.00  0.00     0.198 A 
ATOM     99  F   UNL A   1      43.932  35.307  28.230  1.00  0.00    -0.203 F 
ATOM    100  F   UNL A   1      45.586  36.147  33.364  1.00  0.00    -0.200 F 
ATOM    101  C   UNL A   1      45.147  36.987  31.201  1.00  0.00     0.200 A 
ATOM    102  F   UNL A   1      44.697  37.781  29.023  1.00  0.00    -0.200 F 
ATOM    103  F   UNL A   1      45.495  38.220  31.594  1.00  0.00    -0.200 F 
ENDBRANCH  70  93
ENDBRANCH  44  45
ENDBRANCH  36  39
ENDBRANCH  34  35
ENDBRANCH  33  34
ENDBRANCH   1  33
TORSDOF 16
ENDMDL
