MODEL 1
REMARK VINA RESULT:     -11.0      0.000      0.000
REMARK SMILES COC[C@@H](C)CNc1cc(C)c(N)c(C(=O)NCCCNC(=O)c2ccc(-c3c4nc(c(-c5c(F)c(F)c(F)c(F)c5F)c5ccc([nH]5)c(-c5c(F)c(F)c(F)c(F)c5F)c5nc(c(-c6c(F)c(F)c(F)c(F)c6F)c6ccc3[nH]6)C=C5)C=C4)cc2)c1
REMARK SMILES IDX 15 1 16 2 17 3 14 5 8 6 9 7 87 8 10 9 11 10 12 11 7 12 6 14
REMARK SMILES IDX 4 15 5 16 3 17 2 18 1 19 13 20 18 23 19 24 20 25 21 26 22 27
REMARK SMILES IDX 23 29 24 30 25 31 86 32 26 33 85 34 27 35 28 36 29 37 79 38
REMARK SMILES IDX 30 39 84 40 78 41 80 42 31 43 83 44 77 45 76 46 32 48 64 49
REMARK SMILES IDX 44 50 63 51 45 52 48 53 62 54 81 55 46 56 47 57 61 59 82 60
REMARK SMILES IDX 49 61 33 62 34 63 42 64 35 65 36 66 40 67 43 68 37 69 38 70
REMARK SMILES IDX 41 71 39 72 65 73 66 74 74 75 67 76 68 77 72 78 75 79 69 80
REMARK SMILES IDX 70 81 73 82 71 83 50 84 51 85 59 86 52 87 53 88 57 89 60 90
REMARK SMILES IDX 54 91 55 92 58 93 56 94
REMARK H PARENT 17 4 7 13 13 21 13 22 21 28 80 47 48 58
REMARK Flexibility Score: inf
ROOT
ATOM      1  C   UNL A   1      36.115  22.478  25.726  1.00  0.00     0.253 C 
ATOM      2  O   UNL A   1      36.296  23.422  26.502  1.00  0.00    -0.269 OA
ATOM      3  N   UNL A   1      37.251  21.959  25.152  1.00  0.00    -0.352 N 
ATOM      4  H   UNL A   1      38.073  22.411  25.449  1.00  0.00     0.163 HD
ENDROOT
BRANCH   1   5
ATOM      5  C   UNL A   1      34.723  21.966  25.487  1.00  0.00     0.065 A 
ATOM      6  C   UNL A   1      33.087  20.139  25.554  1.00  0.00     0.035 A 
ATOM      7  C   UNL A   1      32.123  20.997  25.039  1.00  0.00     0.031 A 
ATOM      8  C   UNL A   1      34.387  20.626  25.705  1.00  0.00     0.041 A 
ATOM      9  C   UNL A   1      32.423  22.341  24.753  1.00  0.00    -0.025 A 
ATOM     10  C   UNL A   1      31.326  23.232  24.234  1.00  0.00     0.046 C 
ATOM     11  C   UNL A   1      33.731  22.837  24.968  1.00  0.00     0.047 A 
BRANCH   6  12
ATOM     12  N   UNL A   1      32.845  18.826  25.896  1.00  0.00    -0.385 N 
ATOM     13  H   UNL A   1      32.970  18.569  26.839  1.00  0.00     0.160 HD
BRANCH  12  14
ATOM     14  C   UNL A   1      32.420  17.793  24.971  1.00  0.00     0.118 C 
BRANCH  14  15
ATOM     15  C   UNL A   1      33.267  17.872  23.681  1.00  0.00     0.031 C 
ATOM     16  C   UNL A   1      32.355  18.169  22.489  1.00  0.00     0.012 C 
BRANCH  15  17
ATOM     17  C   UNL A   1      34.073  16.576  23.467  1.00  0.00     0.164 C 
BRANCH  17  18
ATOM     18  O   UNL A   1      34.129  15.758  24.634  1.00  0.00    -0.384 OA
ATOM     19  C   UNL A   1      35.376  15.779  25.313  1.00  0.00     0.194 C 
ENDBRANCH  17  18
ENDBRANCH  15  17
ENDBRANCH  14  15
ENDBRANCH  12  14
ENDBRANCH   6  12
BRANCH  11  20
ATOM     20  N   UNL A   1      33.979  24.207  24.812  1.00  0.00    -0.398 N 
ATOM     21  H   UNL A   1      34.903  24.529  24.701  1.00  0.00     0.156 HD
ATOM     22  H   UNL A   1      33.231  24.845  24.812  1.00  0.00     0.156 HD
ENDBRANCH  11  20
ENDBRANCH   1   5
BRANCH   3  23
ATOM     23  C   UNL A   1      37.501  20.888  24.204  1.00  0.00     0.118 C 
BRANCH  23  24
ATOM     24  C   UNL A   1      38.082  19.657  24.905  1.00  0.00     0.042 C 
BRANCH  24  25
ATOM     25  C   UNL A   1      39.075  20.007  26.012  1.00  0.00     0.118 C 
BRANCH  25  26
ATOM     26  N   UNL A   1      40.235  19.129  25.992  1.00  0.00    -0.352 N 
ATOM     27  C   UNL A   1      41.572  19.429  26.049  1.00  0.00     0.251 C 
ATOM     28  H   UNL A   1      40.029  18.168  25.928  1.00  0.00     0.163 HD
ATOM     29  O   UNL A   1      42.398  18.560  25.789  1.00  0.00    -0.269 OA
BRANCH  27  30
ATOM     30  C   UNL A   1      42.033  20.785  26.423  1.00  0.00     0.039 A 
ATOM     31  C   UNL A   1      42.247  21.722  25.406  1.00  0.00     0.014 A 
ATOM     32  C   UNL A   1      42.326  21.117  27.748  1.00  0.00     0.014 A 
ATOM     33  C   UNL A   1      42.722  22.997  25.720  1.00  0.00     0.010 A 
ATOM     34  C   UNL A   1      42.741  22.408  28.069  1.00  0.00     0.010 A 
ATOM     35  C   UNL A   1      42.956  23.356  27.057  1.00  0.00    -0.014 A 
BRANCH  35  36
ATOM     36  C   UNL A   1      43.454  24.709  27.413  1.00  0.00     0.031 A 
ATOM     37  C   UNL A   1      42.509  25.734  27.975  1.00  0.00     0.074 A 
ATOM     38  C   UNL A   1      44.741  25.028  27.182  1.00  0.00     0.049 A 
ATOM     39  N   UNL A   1      42.727  26.992  28.267  1.00  0.00    -0.248 NA
ATOM     40  C   UNL A   1      41.126  25.294  28.218  1.00  0.00     0.031 C 
ATOM     41  C   UNL A   1      45.746  24.130  26.613  1.00  0.00     0.029 A 
ATOM     42  N   UNL A   1      45.422  26.203  27.387  1.00  0.00    -0.354 N 
ATOM     43  C   UNL A   1      41.510  27.494  28.710  1.00  0.00     0.074 A 
ATOM     44  C   UNL A   1      40.546  26.421  28.604  1.00  0.00     0.031 C 
ATOM     45  C   UNL A   1      46.918  24.779  26.529  1.00  0.00     0.029 A 
ATOM     46  C   UNL A   1      46.740  26.148  27.004  1.00  0.00     0.049 A 
ATOM     47  H   UNL A   1      45.005  27.007  27.772  1.00  0.00     0.167 HD
ATOM     48  C   UNL A   1      41.228  28.734  29.181  1.00  0.00     0.037 A 
ATOM     49  C   UNL A   1      47.692  27.100  27.027  1.00  0.00     0.037 A 
ATOM     50  C   UNL A   1      42.196  29.790  29.310  1.00  0.00     0.049 A 
ATOM     51  C   UNL A   1      47.350  28.468  27.551  1.00  0.00     0.074 A 
ATOM     52  C   UNL A   1      42.021  31.067  29.815  1.00  0.00     0.029 A 
ATOM     53  N   UNL A   1      43.528  29.689  28.934  1.00  0.00    -0.354 N 
ATOM     54  N   UNL A   1      46.209  28.917  28.012  1.00  0.00    -0.248 NA
ATOM     55  C   UNL A   1      48.435  29.460  27.567  1.00  0.00     0.031 C 
ATOM     56  C   UNL A   1      43.238  31.749  29.712  1.00  0.00     0.029 A 
ATOM     57  C   UNL A   1      44.183  30.883  29.185  1.00  0.00     0.049 A 
ATOM     58  H   UNL A   1      43.945  28.886  28.546  1.00  0.00     0.167 HD
ATOM     59  C   UNL A   1      46.442  30.229  28.399  1.00  0.00     0.074 A 
ATOM     60  C   UNL A   1      47.839  30.501  28.132  1.00  0.00     0.031 C 
ATOM     61  C   UNL A   1      45.578  31.129  28.930  1.00  0.00     0.037 A 
BRANCH  48  62
ATOM     62  C   UNL A   1      39.813  29.011  29.598  1.00  0.00     0.064 A 
ATOM     63  C   UNL A   1      38.850  29.454  28.680  1.00  0.00     0.173 A 
ATOM     64  C   UNL A   1      39.404  28.793  30.924  1.00  0.00     0.173 A 
ATOM     65  F   UNL A   1      39.191  29.687  27.404  1.00  0.00    -0.203 F 
ATOM     66  C   UNL A   1      37.537  29.697  29.078  1.00  0.00     0.198 A 
ATOM     67  C   UNL A   1      38.084  29.009  31.311  1.00  0.00     0.198 A 
ATOM     68  F   UNL A   1      40.283  28.363  31.841  1.00  0.00    -0.203 F 
ATOM     69  F   UNL A   1      36.647  30.165  28.192  1.00  0.00    -0.200 F 
ATOM     70  C   UNL A   1      37.154  29.468  30.390  1.00  0.00     0.200 A 
ATOM     71  F   UNL A   1      37.712  28.775  32.577  1.00  0.00    -0.200 F 
ATOM     72  F   UNL A   1      35.889  29.695  30.769  1.00  0.00    -0.200 F 
ENDBRANCH  48  62
BRANCH  49  73
ATOM     73  C   UNL A   1      49.068  26.785  26.562  1.00  0.00     0.064 A 
ATOM     74  C   UNL A   1      50.044  26.341  27.465  1.00  0.00     0.173 A 
ATOM     75  C   UNL A   1      49.439  26.931  25.218  1.00  0.00     0.173 A 
ATOM     76  F   UNL A   1      49.742  26.206  28.765  1.00  0.00    -0.203 F 
ATOM     77  C   UNL A   1      51.345  26.075  27.045  1.00  0.00     0.198 A 
ATOM     78  C   UNL A   1      50.733  26.638  24.794  1.00  0.00     0.198 A 
ATOM     79  F   UNL A   1      48.541  27.349  24.315  1.00  0.00    -0.203 F 
ATOM     80  F   UNL A   1      52.271  25.698  27.937  1.00  0.00    -0.200 F 
ATOM     81  C   UNL A   1      51.688  26.219  25.709  1.00  0.00     0.200 A 
ATOM     82  F   UNL A   1      51.058  26.766  23.500  1.00  0.00    -0.200 F 
ATOM     83  F   UNL A   1      52.940  25.963  25.304  1.00  0.00    -0.200 F 
ENDBRANCH  49  73
BRANCH  61  84
ATOM     84  C   UNL A   1      46.128  32.475  29.299  1.00  0.00     0.064 A 
ATOM     85  C   UNL A   1      46.095  33.554  28.404  1.00  0.00     0.173 A 
ATOM     86  C   UNL A   1      46.660  32.694  30.578  1.00  0.00     0.173 A 
ATOM     87  F   UNL A   1      45.611  33.388  27.164  1.00  0.00    -0.203 F 
ATOM     88  C   UNL A   1      46.597  34.800  28.770  1.00  0.00     0.198 A 
ATOM     89  C   UNL A   1      47.135  33.949  30.950  1.00  0.00     0.198 A 
ATOM     90  F   UNL A   1      46.708  31.695  31.471  1.00  0.00    -0.203 F 
ATOM     91  F   UNL A   1      46.597  35.806  27.886  1.00  0.00    -0.200 F 
ATOM     92  C   UNL A   1      47.109  34.998  30.044  1.00  0.00     0.200 A 
ATOM     93  F   UNL A   1      47.619  34.141  32.185  1.00  0.00    -0.200 F 
ATOM     94  F   UNL A   1      47.586  36.200  30.396  1.00  0.00    -0.200 F 
ENDBRANCH  61  84
ENDBRANCH  35  36
ENDBRANCH  27  30
ENDBRANCH  25  26
ENDBRANCH  24  25
ENDBRANCH  23  24
ENDBRANCH   3  23
TORSDOF 16
ENDMDL
MODEL 2
REMARK VINA RESULT:     -10.8      5.569     10.827
REMARK SMILES COC[C@@H](C)CNc1cc(C)c(N)c(C(=O)NCCCNC(=O)c2ccc(-c3c4nc(c(-c5c(F)c(F)c(F)c(F)c5F)c5ccc([nH]5)c(-c5c(F)c(F)c(F)c(F)c5F)c5nc(c(-c6c(F)c(F)c(F)c(F)c6F)c6ccc3[nH]6)C=C5)C=C4)cc2)c1
REMARK SMILES IDX 15 1 16 2 17 3 14 5 8 6 9 7 87 8 10 9 11 10 12 11 7 12 6 14
REMARK SMILES IDX 4 15 5 16 3 17 2 18 1 19 13 20 18 23 19 24 20 25 21 26 22 27
REMARK SMILES IDX 23 29 24 30 25 31 86 32 26 33 85 34 27 35 28 36 29 37 79 38
REMARK SMILES IDX 30 39 84 40 78 41 80 42 31 43 83 44 77 45 76 46 32 48 64 49
REMARK SMILES IDX 44 50 63 51 45 52 48 53 62 54 81 55 46 56 47 57 61 59 82 60
REMARK SMILES IDX 49 61 33 62 34 63 42 64 35 65 36 66 40 67 43 68 37 69 38 70
REMARK SMILES IDX 41 71 39 72 65 73 66 74 74 75 67 76 68 77 72 78 75 79 69 80
REMARK SMILES IDX 70 81 73 82 71 83 50 84 51 85 59 86 52 87 53 88 57 89 60 90
REMARK SMILES IDX 54 91 55 92 58 93 56 94
REMARK H PARENT 17 4 7 13 13 21 13 22 21 28 80 47 48 58
REMARK Flexibility Score: inf
ROOT
ATOM      1  C   UNL A   1      34.113  29.106  26.723  1.00  0.00     0.253 C 
ATOM      2  O   UNL A   1      35.248  29.206  27.201  1.00  0.00    -0.269 OA
ATOM      3  N   UNL A   1      33.216  30.068  27.124  1.00  0.00    -0.352 N 
ATOM      4  H   UNL A   1      33.608  30.725  27.744  1.00  0.00     0.163 HD
ENDROOT
BRANCH   1   5
ATOM      5  C   UNL A   1      33.806  27.999  25.756  1.00  0.00     0.065 A 
ATOM      6  C   UNL A   1      33.386  25.624  25.303  1.00  0.00     0.035 A 
ATOM      7  C   UNL A   1      33.236  25.918  23.954  1.00  0.00     0.031 A 
ATOM      8  C   UNL A   1      33.733  26.664  26.168  1.00  0.00     0.041 A 
ATOM      9  C   UNL A   1      33.351  27.238  23.480  1.00  0.00    -0.025 A 
ATOM     10  C   UNL A   1      33.140  27.499  22.012  1.00  0.00     0.046 C 
ATOM     11  C   UNL A   1      33.645  28.291  24.378  1.00  0.00     0.047 A 
BRANCH   6  12
ATOM     12  N   UNL A   1      33.241  24.362  25.837  1.00  0.00    -0.385 N 
ATOM     13  H   UNL A   1      33.906  23.680  25.585  1.00  0.00     0.160 HD
BRANCH  12  14
ATOM     14  C   UNL A   1      32.182  23.961  26.744  1.00  0.00     0.118 C 
BRANCH  14  15
ATOM     15  C   UNL A   1      31.092  23.195  25.962  1.00  0.00     0.031 C 
ATOM     16  C   UNL A   1      29.893  22.938  26.877  1.00  0.00     0.012 C 
BRANCH  15  17
ATOM     17  C   UNL A   1      31.648  21.882  25.377  1.00  0.00     0.164 C 
BRANCH  17  18
ATOM     18  O   UNL A   1      32.914  21.521  25.929  1.00  0.00    -0.384 OA
ATOM     19  C   UNL A   1      33.773  20.829  25.035  1.00  0.00     0.194 C 
ENDBRANCH  17  18
ENDBRANCH  15  17
ENDBRANCH  14  15
ENDBRANCH  12  14
ENDBRANCH   6  12
BRANCH  11  20
ATOM     20  N   UNL A   1      33.619  29.614  23.916  1.00  0.00    -0.398 N 
ATOM     21  H   UNL A   1      32.942  30.241  24.260  1.00  0.00     0.156 HD
ATOM     22  H   UNL A   1      34.276  29.915  23.249  1.00  0.00     0.156 HD
ENDBRANCH  11  20
ENDBRANCH   1   5
BRANCH   3  23
ATOM     23  C   UNL A   1      31.817  30.324  26.834  1.00  0.00     0.118 C 
BRANCH  23  24
ATOM     24  C   UNL A   1      31.513  31.824  26.876  1.00  0.00     0.042 C 
BRANCH  24  25
ATOM     25  C   UNL A   1      32.768  32.695  26.863  1.00  0.00     0.118 C 
BRANCH  25  26
ATOM     26  N   UNL A   1      32.521  34.005  27.445  1.00  0.00    -0.352 N 
ATOM     27  C   UNL A   1      33.037  34.581  28.578  1.00  0.00     0.251 C 
ATOM     28  H   UNL A   1      31.884  34.567  26.947  1.00  0.00     0.163 HD
ATOM     29  O   UNL A   1      32.527  35.607  29.019  1.00  0.00    -0.269 OA
BRANCH  27  30
ATOM     30  C   UNL A   1      34.199  33.986  29.273  1.00  0.00     0.039 A 
ATOM     31  C   UNL A   1      35.483  34.402  28.904  1.00  0.00     0.014 A 
ATOM     32  C   UNL A   1      34.041  32.974  30.223  1.00  0.00     0.014 A 
ATOM     33  C   UNL A   1      36.604  33.829  29.510  1.00  0.00     0.010 A 
ATOM     34  C   UNL A   1      35.156  32.447  30.873  1.00  0.00     0.010 A 
ATOM     35  C   UNL A   1      36.448  32.860  30.513  1.00  0.00    -0.014 A 
BRANCH  35  36
ATOM     36  C   UNL A   1      37.626  32.243  31.175  1.00  0.00     0.031 A 
ATOM     37  C   UNL A   1      38.391  31.150  30.482  1.00  0.00     0.074 A 
ATOM     38  C   UNL A   1      37.971  32.630  32.417  1.00  0.00     0.049 A 
ATOM     39  N   UNL A   1      39.390  30.427  30.925  1.00  0.00    -0.248 NA
ATOM     40  C   UNL A   1      37.961  30.805  29.118  1.00  0.00     0.031 C 
ATOM     41  C   UNL A   1      37.289  33.658  33.203  1.00  0.00     0.029 A 
ATOM     42  N   UNL A   1      38.979  32.195  33.242  1.00  0.00    -0.354 N 
ATOM     43  C   UNL A   1      39.693  29.536  29.905  1.00  0.00     0.074 A 
ATOM     44  C   UNL A   1      38.744  29.774  28.838  1.00  0.00     0.031 C 
ATOM     45  C   UNL A   1      37.905  33.786  34.389  1.00  0.00     0.029 A 
ATOM     46  C   UNL A   1      39.002  32.826  34.462  1.00  0.00     0.049 A 
ATOM     47  H   UNL A   1      39.622  31.496  32.984  1.00  0.00     0.167 HD
ATOM     48  C   UNL A   1      40.686  28.615  29.854  1.00  0.00     0.037 A 
ATOM     49  C   UNL A   1      39.814  32.643  35.520  1.00  0.00     0.037 A 
ATOM     50  C   UNL A   1      41.645  28.400  30.905  1.00  0.00     0.049 A 
ATOM     51  C   UNL A   1      40.906  31.611  35.438  1.00  0.00     0.074 A 
ATOM     52  C   UNL A   1      42.714  27.521  30.934  1.00  0.00     0.029 A 
ATOM     53  N   UNL A   1      41.651  29.077  32.117  1.00  0.00    -0.354 N 
ATOM     54  N   UNL A   1      41.213  30.808  34.449  1.00  0.00    -0.248 NA
ATOM     55  C   UNL A   1      41.771  31.469  36.618  1.00  0.00     0.031 C 
ATOM     56  C   UNL A   1      43.347  27.642  32.176  1.00  0.00     0.029 A 
ATOM     57  C   UNL A   1      42.699  28.628  32.904  1.00  0.00     0.049 A 
ATOM     58  H   UNL A   1      41.006  29.773  32.377  1.00  0.00     0.167 HD
ATOM     59  C   UNL A   1      42.321  30.087  34.874  1.00  0.00     0.074 A 
ATOM     60  C   UNL A   1      42.641  30.557  36.205  1.00  0.00     0.031 C 
ATOM     61  C   UNL A   1      43.013  29.122  34.219  1.00  0.00     0.037 A 
BRANCH  48  62
ATOM     62  C   UNL A   1      40.790  27.775  28.614  1.00  0.00     0.064 A 
ATOM     63  C   UNL A   1      40.087  26.567  28.485  1.00  0.00     0.173 A 
ATOM     64  C   UNL A   1      41.569  28.200  27.526  1.00  0.00     0.173 A 
ATOM     65  F   UNL A   1      39.337  26.111  29.499  1.00  0.00    -0.203 F 
ATOM     66  C   UNL A   1      40.182  25.802  27.325  1.00  0.00     0.198 A 
ATOM     67  C   UNL A   1      41.638  27.446  26.358  1.00  0.00     0.198 A 
ATOM     68  F   UNL A   1      42.256  29.350  27.594  1.00  0.00    -0.203 F 
ATOM     69  F   UNL A   1      39.539  24.629  27.244  1.00  0.00    -0.200 F 
ATOM     70  C   UNL A   1      40.952  26.245  26.261  1.00  0.00     0.200 A 
ATOM     71  F   UNL A   1      42.372  27.882  25.324  1.00  0.00    -0.200 F 
ATOM     72  F   UNL A   1      41.037  25.511  25.142  1.00  0.00    -0.200 F 
ENDBRANCH  48  62
BRANCH  49  73
ATOM     73  C   UNL A   1      39.643  33.473  36.740  1.00  0.00     0.064 A 
ATOM     74  C   UNL A   1      38.767  33.075  37.760  1.00  0.00     0.173 A 
ATOM     75  C   UNL A   1      40.336  34.680  36.909  1.00  0.00     0.173 A 
ATOM     76  F   UNL A   1      38.066  31.938  37.635  1.00  0.00    -0.203 F 
ATOM     77  C   UNL A   1      38.576  33.863  38.893  1.00  0.00     0.198 A 
ATOM     78  C   UNL A   1      40.165  35.453  38.055  1.00  0.00     0.198 A 
ATOM     79  F   UNL A   1      41.188  35.103  35.964  1.00  0.00    -0.203 F 
ATOM     80  F   UNL A   1      37.697  33.482  39.830  1.00  0.00    -0.200 F 
ATOM     81  C   UNL A   1      39.278  35.049  39.042  1.00  0.00     0.200 A 
ATOM     82  F   UNL A   1      40.854  36.593  38.201  1.00  0.00    -0.200 F 
ATOM     83  F   UNL A   1      39.094  35.808  40.131  1.00  0.00    -0.200 F 
ENDBRANCH  49  73
BRANCH  61  84
ATOM     84  C   UNL A   1      44.210  28.544  34.913  1.00  0.00     0.064 A 
ATOM     85  C   UNL A   1      45.485  29.111  34.777  1.00  0.00     0.173 A 
ATOM     86  C   UNL A   1      44.070  27.431  35.756  1.00  0.00     0.173 A 
ATOM     87  F   UNL A   1      45.672  30.165  33.969  1.00  0.00    -0.203 F 
ATOM     88  C   UNL A   1      46.582  28.569  35.442  1.00  0.00     0.198 A 
ATOM     89  C   UNL A   1      45.163  26.910  36.442  1.00  0.00     0.198 A 
ATOM     90  F   UNL A   1      42.869  26.857  35.924  1.00  0.00    -0.203 F 
ATOM     91  F   UNL A   1      47.800  29.098  35.263  1.00  0.00    -0.200 F 
ATOM     92  C   UNL A   1      46.419  27.475  36.279  1.00  0.00     0.200 A 
ATOM     93  F   UNL A   1      45.001  25.860  37.259  1.00  0.00    -0.200 F 
ATOM     94  F   UNL A   1      47.474  26.960  36.923  1.00  0.00    -0.200 F 
ENDBRANCH  61  84
ENDBRANCH  35  36
ENDBRANCH  27  30
ENDBRANCH  25  26
ENDBRANCH  24  25
ENDBRANCH  23  24
ENDBRANCH   3  23
TORSDOF 16
ENDMDL
MODEL 3
REMARK VINA RESULT:     -10.8      1.851      3.855
REMARK SMILES COC[C@@H](C)CNc1cc(C)c(N)c(C(=O)NCCCNC(=O)c2ccc(-c3c4nc(c(-c5c(F)c(F)c(F)c(F)c5F)c5ccc([nH]5)c(-c5c(F)c(F)c(F)c(F)c5F)c5nc(c(-c6c(F)c(F)c(F)c(F)c6F)c6ccc3[nH]6)C=C5)C=C4)cc2)c1
REMARK SMILES IDX 15 1 16 2 17 3 14 5 8 6 9 7 87 8 10 9 11 10 12 11 7 12 6 14
REMARK SMILES IDX 4 15 5 16 3 17 2 18 1 19 13 20 18 23 19 24 20 25 21 26 22 27
REMARK SMILES IDX 23 29 24 30 25 31 86 32 26 33 85 34 27 35 28 36 29 37 79 38
REMARK SMILES IDX 30 39 84 40 78 41 80 42 31 43 83 44 77 45 76 46 32 48 64 49
REMARK SMILES IDX 44 50 63 51 45 52 48 53 62 54 81 55 46 56 47 57 61 59 82 60
REMARK SMILES IDX 49 61 33 62 34 63 42 64 35 65 36 66 40 67 43 68 37 69 38 70
REMARK SMILES IDX 41 71 39 72 65 73 66 74 74 75 67 76 68 77 72 78 75 79 69 80
REMARK SMILES IDX 70 81 73 82 71 83 50 84 51 85 59 86 52 87 53 88 57 89 60 90
REMARK SMILES IDX 54 91 55 92 58 93 56 94
REMARK H PARENT 17 4 7 13 13 21 13 22 21 28 80 47 48 58
REMARK Flexibility Score: inf
ROOT
ATOM      1  C   UNL A   1      36.974  23.296  25.832  1.00  0.00     0.253 C 
ATOM      2  O   UNL A   1      37.656  24.087  26.492  1.00  0.00    -0.269 OA
ATOM      3  N   UNL A   1      37.620  22.152  25.427  1.00  0.00    -0.352 N 
ATOM      4  H   UNL A   1      38.556  22.112  25.729  1.00  0.00     0.163 HD
ENDROOT
BRANCH   1   5
ATOM      5  C   UNL A   1      35.533  23.612  25.548  1.00  0.00     0.065 A 
ATOM      6  C   UNL A   1      33.817  24.610  24.105  1.00  0.00     0.035 A 
ATOM      7  C   UNL A   1      32.841  24.213  25.010  1.00  0.00     0.031 A 
ATOM      8  C   UNL A   1      35.153  24.357  24.428  1.00  0.00     0.041 A 
ATOM      9  C   UNL A   1      33.176  23.505  26.178  1.00  0.00    -0.025 A 
ATOM     10  C   UNL A   1      32.068  23.067  27.101  1.00  0.00     0.046 C 
ATOM     11  C   UNL A   1      34.528  23.204  26.463  1.00  0.00     0.047 A 
BRANCH   6  12
ATOM     12  N   UNL A   1      33.551  25.265  22.922  1.00  0.00    -0.385 N 
ATOM     13  H   UNL A   1      34.318  25.615  22.412  1.00  0.00     0.160 HD
BRANCH  12  14
ATOM     14  C   UNL A   1      32.226  25.476  22.372  1.00  0.00     0.118 C 
BRANCH  14  15
ATOM     15  C   UNL A   1      32.029  26.976  22.058  1.00  0.00     0.031 C 
ATOM     16  C   UNL A   1      33.317  27.737  22.376  1.00  0.00     0.012 C 
BRANCH  15  17
ATOM     17  C   UNL A   1      30.827  27.552  22.831  1.00  0.00     0.164 C 
BRANCH  17  18
ATOM     18  O   UNL A   1      29.937  28.296  22.000  1.00  0.00    -0.384 OA
ATOM     19  C   UNL A   1      30.161  29.698  22.001  1.00  0.00     0.194 C 
ENDBRANCH  17  18
ENDBRANCH  15  17
ENDBRANCH  14  15
ENDBRANCH  12  14
ENDBRANCH   6  12
BRANCH  11  20
ATOM     20  N   UNL A   1      34.833  22.381  27.555  1.00  0.00    -0.398 N 
ATOM     21  H   UNL A   1      35.641  22.554  28.090  1.00  0.00     0.156 HD
ATOM     22  H   UNL A   1      34.240  21.631  27.786  1.00  0.00     0.156 HD
ENDBRANCH  11  20
ENDBRANCH   1   5
BRANCH   3  23
ATOM     23  C   UNL A   1      37.223  20.992  24.650  1.00  0.00     0.118 C 
BRANCH  23  24
ATOM     24  C   UNL A   1      38.128  19.794  24.949  1.00  0.00     0.042 C 
BRANCH  24  25
ATOM     25  C   UNL A   1      39.072  20.031  26.127  1.00  0.00     0.118 C 
BRANCH  25  26
ATOM     26  N   UNL A   1      40.204  19.117  26.101  1.00  0.00    -0.352 N 
ATOM     27  C   UNL A   1      41.551  19.377  26.090  1.00  0.00     0.251 C 
ATOM     28  H   UNL A   1      39.967  18.161  26.091  1.00  0.00     0.163 HD
ATOM     29  O   UNL A   1      42.339  18.471  25.838  1.00  0.00    -0.269 OA
BRANCH  27  30
ATOM     30  C   UNL A   1      42.066  20.734  26.381  1.00  0.00     0.039 A 
ATOM     31  C   UNL A   1      42.313  21.084  27.712  1.00  0.00     0.014 A 
ATOM     32  C   UNL A   1      42.235  21.682  25.369  1.00  0.00     0.014 A 
ATOM     33  C   UNL A   1      42.759  22.370  28.025  1.00  0.00     0.010 A 
ATOM     34  C   UNL A   1      42.739  22.945  25.673  1.00  0.00     0.010 A 
ATOM     35  C   UNL A   1      42.993  23.305  27.006  1.00  0.00    -0.014 A 
BRANCH  35  36
ATOM     36  C   UNL A   1      43.474  24.676  27.316  1.00  0.00     0.031 A 
ATOM     37  C   UNL A   1      42.521  25.700  27.866  1.00  0.00     0.074 A 
ATOM     38  C   UNL A   1      44.751  25.010  27.052  1.00  0.00     0.049 A 
ATOM     39  N   UNL A   1      42.723  26.970  28.119  1.00  0.00    -0.248 NA
ATOM     40  C   UNL A   1      41.151  25.244  28.146  1.00  0.00     0.031 C 
ATOM     41  C   UNL A   1      45.761  24.114  26.490  1.00  0.00     0.029 A 
ATOM     42  N   UNL A   1      45.415  26.201  27.213  1.00  0.00    -0.354 N 
ATOM     43  C   UNL A   1      41.506  27.463  28.570  1.00  0.00     0.074 A 
ATOM     44  C   UNL A   1      40.558  26.371  28.512  1.00  0.00     0.031 C 
ATOM     45  C   UNL A   1      46.920  24.780  26.367  1.00  0.00     0.029 A 
ATOM     46  C   UNL A   1      46.727  26.158  26.807  1.00  0.00     0.049 A 
ATOM     47  H   UNL A   1      44.991  27.009  27.582  1.00  0.00     0.167 HD
ATOM     48  C   UNL A   1      41.211  28.710  29.011  1.00  0.00     0.037 A 
ATOM     49  C   UNL A   1      47.663  27.125  26.786  1.00  0.00     0.037 A 
ATOM     50  C   UNL A   1      42.163  29.786  29.094  1.00  0.00     0.049 A 
ATOM     51  C   UNL A   1      47.307  28.502  27.279  1.00  0.00     0.074 A 
ATOM     52  C   UNL A   1      41.974  31.074  29.566  1.00  0.00     0.029 A 
ATOM     53  N   UNL A   1      43.489  29.697  28.696  1.00  0.00    -0.354 N 
ATOM     54  N   UNL A   1      46.166  28.944  27.748  1.00  0.00    -0.248 NA
ATOM     55  C   UNL A   1      48.374  29.512  27.247  1.00  0.00     0.031 C 
ATOM     56  C   UNL A   1      43.177  31.773  29.423  1.00  0.00     0.029 A 
ATOM     57  C   UNL A   1      44.128  30.909  28.903  1.00  0.00     0.049 A 
ATOM     58  H   UNL A   1      43.913  28.891  28.324  1.00  0.00     0.167 HD
ATOM     59  C   UNL A   1      46.384  30.271  28.094  1.00  0.00     0.074 A 
ATOM     60  C   UNL A   1      47.771  30.558  27.794  1.00  0.00     0.031 C 
ATOM     61  C   UNL A   1      45.513  31.170  28.615  1.00  0.00     0.037 A 
BRANCH  48  62
ATOM     62  C   UNL A   1      39.799  28.975  29.447  1.00  0.00     0.064 A 
ATOM     63  C   UNL A   1      39.391  28.777  30.774  1.00  0.00     0.173 A 
ATOM     64  C   UNL A   1      38.851  29.471  28.537  1.00  0.00     0.173 A 
ATOM     65  F   UNL A   1      40.254  28.295  31.681  1.00  0.00    -0.203 F 
ATOM     66  C   UNL A   1      38.081  29.037  31.169  1.00  0.00     0.198 A 
ATOM     67  C   UNL A   1      37.551  29.757  28.942  1.00  0.00     0.198 A 
ATOM     68  F   UNL A   1      39.190  29.685  27.257  1.00  0.00    -0.203 F 
ATOM     69  F   UNL A   1      37.703  28.795  32.432  1.00  0.00    -0.200 F 
ATOM     70  C   UNL A   1      37.164  29.533  30.255  1.00  0.00     0.200 A 
ATOM     71  F   UNL A   1      36.669  30.249  28.061  1.00  0.00    -0.200 F 
ATOM     72  F   UNL A   1      35.906  29.790  30.638  1.00  0.00    -0.200 F 
ENDBRANCH  48  62
BRANCH  49  73
ATOM     73  C   UNL A   1      49.035  26.821  26.306  1.00  0.00     0.064 A 
ATOM     74  C   UNL A   1      49.382  27.014  24.961  1.00  0.00     0.173 A 
ATOM     75  C   UNL A   1      50.021  26.325  27.170  1.00  0.00     0.173 A 
ATOM     76  F   UNL A   1      48.467  27.467  24.091  1.00  0.00    -0.203 F 
ATOM     77  C   UNL A   1      50.657  26.700  24.495  1.00  0.00     0.198 A 
ATOM     78  C   UNL A   1      51.304  26.038  26.708  1.00  0.00     0.198 A 
ATOM     79  F   UNL A   1      49.740  26.127  28.466  1.00  0.00    -0.203 F 
ATOM     80  F   UNL A   1      50.948  26.849  23.195  1.00  0.00    -0.200 F 
ATOM     81  C   UNL A   1      51.619  26.217  25.370  1.00  0.00     0.200 A 
ATOM     82  F   UNL A   1      52.234  25.584  27.559  1.00  0.00    -0.200 F 
ATOM     83  F   UNL A   1      52.845  25.916  24.922  1.00  0.00    -0.200 F 
ENDBRANCH  49  73
BRANCH  61  84
ATOM     84  C   UNL A   1      46.047  32.535  28.937  1.00  0.00     0.064 A 
ATOM     85  C   UNL A   1      46.622  32.826  30.182  1.00  0.00     0.173 A 
ATOM     86  C   UNL A   1      46.016  33.552  27.971  1.00  0.00     0.173 A 
ATOM     87  F   UNL A   1      46.660  31.890  31.143  1.00  0.00    -0.203 F 
ATOM     88  C   UNL A   1      47.126  34.094  30.457  1.00  0.00     0.198 A 
ATOM     89  C   UNL A   1      46.546  34.810  28.240  1.00  0.00     0.198 A 
ATOM     90  F   UNL A   1      45.481  33.321  26.763  1.00  0.00    -0.203 F 
ATOM     91  F   UNL A   1      47.631  34.364  31.668  1.00  0.00    -0.200 F 
ATOM     92  C   UNL A   1      47.094  35.082  29.484  1.00  0.00     0.200 A 
ATOM     93  F   UNL A   1      46.525  35.760  27.294  1.00  0.00    -0.200 F 
ATOM     94  F   UNL A   1      47.586  36.300  29.748  1.00  0.00    -0.200 F 
ENDBRANCH  61  84
ENDBRANCH  35  36
ENDBRANCH  27  30
ENDBRANCH  25  26
ENDBRANCH  24  25
ENDBRANCH  23  24
ENDBRANCH   3  23
TORSDOF 16
ENDMDL
