MODEL 1
REMARK VINA RESULT:     -12.6      0.000      0.000
REMARK SMILES Cc1ccc(S(=O)(=O)Nc2cc3c(cc2C(=O)NCCCNC(=O)c2ccc(-c4c5nc(c(-c6c(F)c(F)c(F)c(F)c6F)c6ccc([nH]6)c(-c6c(F)c(F)c(F)c(F)c6F)c6nc(c(-c7c(F)c(F)c(F)c(F)c7F)c7ccc4[nH]7)C=C6)C=C5)cc2)OCCO3)s1
REMARK SMILES IDX 19 1 18 2 16 3 17 4 15 6 10 7 11 8 12 9 14 10 13 11 91 12
REMARK SMILES IDX 88 13 90 14 89 15 9 16 6 18 7 19 8 20 5 21 1 22 2 23 3 24
REMARK SMILES IDX 92 25 4 26 20 27 21 28 22 29 23 30 24 32 25 33 26 34 87 35
REMARK SMILES IDX 27 36 86 37 28 38 29 39 30 40 80 41 31 42 85 43 79 44 81 45
REMARK SMILES IDX 32 46 84 47 78 48 77 49 33 51 65 52 45 53 64 54 46 55 49 56
REMARK SMILES IDX 63 57 82 58 47 59 48 60 62 62 83 63 50 64 34 65 35 66 43 67
REMARK SMILES IDX 36 68 37 69 41 70 44 71 38 72 39 73 42 74 40 75 66 76 67 77
REMARK SMILES IDX 75 78 68 79 69 80 73 81 76 82 70 83 71 84 74 85 72 86 51 87
REMARK SMILES IDX 52 88 60 89 53 90 54 91 58 92 61 93 55 94 56 95 59 96 57 97
REMARK H PARENT 18 5 9 17 22 31 81 50 49 61
REMARK Flexibility Score: inf
ROOT
ATOM      1  C   UNL A   1      32.258  27.559  26.975  1.00  0.00     0.118 C 
ENDROOT
BRANCH   1   2
ATOM      2  N   UNL A   1      31.334  26.438  26.875  1.00  0.00    -0.352 N 
ATOM      3  C   UNL A   1      31.364  25.194  26.292  1.00  0.00     0.253 C 
ATOM      4  O   UNL A   1      30.383  24.480  26.496  1.00  0.00    -0.269 OA
ATOM      5  H   UNL A   1      30.482  26.614  27.335  1.00  0.00     0.163 HD
BRANCH   3   6
ATOM      6  C   UNL A   1      32.487  24.695  25.445  1.00  0.00     0.067 A 
ATOM      7  C   UNL A   1      32.409  24.747  24.032  1.00  0.00     0.066 A 
ATOM      8  C   UNL A   1      33.478  24.291  23.245  1.00  0.00     0.078 A 
ATOM      9  C   UNL A   1      34.630  23.799  23.853  1.00  0.00     0.163 A 
ATOM     10  C   UNL A   1      33.612  24.100  26.025  1.00  0.00     0.066 A 
ATOM     11  C   UNL A   1      34.702  23.726  25.244  1.00  0.00     0.162 A 
ATOM     12  O   UNL A   1      35.653  23.402  23.031  1.00  0.00    -0.486 OA
ATOM     13  O   UNL A   1      35.817  23.300  25.919  1.00  0.00    -0.486 OA
ATOM     14  C   UNL A   1      36.653  22.660  23.744  1.00  0.00     0.271 C 
ATOM     15  C   UNL A   1      36.971  23.329  25.070  1.00  0.00     0.271 C 
BRANCH   7  16
ATOM     16  N   UNL A   1      31.243  25.254  23.371  1.00  0.00    -0.278 N 
ATOM     17  H   UNL A   1      30.388  24.768  23.415  1.00  0.00     0.180 HD
BRANCH  16  18
ATOM     18  S   UNL A   1      31.364  26.705  22.518  1.00  0.00     0.271 S 
ATOM     19  O   UNL A   1      31.421  26.383  21.114  1.00  0.00    -0.200 OA
ATOM     20  O   UNL A   1      32.428  27.471  23.144  1.00  0.00    -0.200 OA
BRANCH  18  21
ATOM     21  C   UNL A   1      29.901  27.677  22.815  1.00  0.00     0.140 A 
ATOM     22  C   UNL A   1      27.776  30.965  23.033  1.00  0.00     0.056 C 
ATOM     23  C   UNL A   1      28.362  29.595  23.020  1.00  0.00     0.003 A 
ATOM     24  C   UNL A   1      27.803  28.430  23.501  1.00  0.00     0.016 A 
ATOM     25  S   UNL A   1      29.927  29.327  22.379  1.00  0.00    -0.127 S 
ATOM     26  C   UNL A   1      28.690  27.326  23.383  1.00  0.00     0.034 A 
ENDBRANCH  18  21
ENDBRANCH  16  18
ENDBRANCH   7  16
ENDBRANCH   3   6
ENDBRANCH   1   2
BRANCH   1  27
ATOM     27  C   UNL A   1      31.791  28.819  26.260  1.00  0.00     0.042 C 
BRANCH  27  28
ATOM     28  C   UNL A   1      32.908  29.718  25.748  1.00  0.00     0.118 C 
BRANCH  28  29
ATOM     29  N   UNL A   1      32.750  31.103  26.168  1.00  0.00    -0.352 N 
ATOM     30  C   UNL A   1      33.324  31.821  27.188  1.00  0.00     0.251 C 
ATOM     31  H   UNL A   1      32.116  31.620  25.620  1.00  0.00     0.163 HD
ATOM     32  O   UNL A   1      32.852  32.916  27.485  1.00  0.00    -0.269 OA
BRANCH  30  33
ATOM     33  C   UNL A   1      34.489  31.309  27.944  1.00  0.00     0.039 A 
ATOM     34  C   UNL A   1      35.584  32.158  28.149  1.00  0.00     0.014 A 
ATOM     35  C   UNL A   1      34.558  29.984  28.377  1.00  0.00     0.014 A 
ATOM     36  C   UNL A   1      36.713  31.698  28.833  1.00  0.00     0.010 A 
ATOM     37  C   UNL A   1      35.645  29.550  29.132  1.00  0.00     0.010 A 
ATOM     38  C   UNL A   1      36.742  30.396  29.355  1.00  0.00    -0.014 A 
BRANCH  38  39
ATOM     39  C   UNL A   1      37.911  29.887  30.117  1.00  0.00     0.031 A 
ATOM     40  C   UNL A   1      38.157  30.356  31.524  1.00  0.00     0.074 A 
ATOM     41  C   UNL A   1      38.802  29.079  29.512  1.00  0.00     0.049 A 
ATOM     42  N   UNL A   1      39.183  30.130  32.307  1.00  0.00    -0.248 NA
ATOM     43  C   UNL A   1      37.131  31.228  32.116  1.00  0.00     0.031 C 
ATOM     44  C   UNL A   1      38.709  28.602  28.132  1.00  0.00     0.029 A 
ATOM     45  N   UNL A   1      39.975  28.538  29.974  1.00  0.00    -0.354 N 
ATOM     46  C   UNL A   1      38.942  30.860  33.464  1.00  0.00     0.074 A 
ATOM     47  C   UNL A   1      37.695  31.568  33.265  1.00  0.00     0.031 C 
ATOM     48  C   UNL A   1      39.777  27.836  27.860  1.00  0.00     0.029 A 
ATOM     49  C   UNL A   1      40.644  27.794  29.033  1.00  0.00     0.049 A 
ATOM     50  H   UNL A   1      40.306  28.671  30.893  1.00  0.00     0.167 HD
ATOM     51  C   UNL A   1      39.682  30.919  34.597  1.00  0.00     0.037 A 
ATOM     52  C   UNL A   1      41.831  27.161  29.105  1.00  0.00     0.037 A 
ATOM     53  C   UNL A   1      40.895  30.176  34.811  1.00  0.00     0.049 A 
ATOM     54  C   UNL A   1      42.610  27.195  30.389  1.00  0.00     0.074 A 
ATOM     55  C   UNL A   1      41.669  30.093  35.955  1.00  0.00     0.029 A 
ATOM     56  N   UNL A   1      41.512  29.383  33.854  1.00  0.00    -0.354 N 
ATOM     57  N   UNL A   1      42.336  27.830  31.502  1.00  0.00    -0.248 NA
ATOM     58  C   UNL A   1      43.855  26.417  30.430  1.00  0.00     0.031 C 
ATOM     59  C   UNL A   1      42.773  29.277  35.680  1.00  0.00     0.029 A 
ATOM     60  C   UNL A   1      42.666  28.821  34.376  1.00  0.00     0.049 A 
ATOM     61  H   UNL A   1      41.178  29.240  32.939  1.00  0.00     0.167 HD
ATOM     62  C   UNL A   1      43.364  27.519  32.382  1.00  0.00     0.074 A 
ATOM     63  C   UNL A   1      44.260  26.625  31.676  1.00  0.00     0.031 C 
ATOM     64  C   UNL A   1      43.549  27.938  33.657  1.00  0.00     0.037 A 
BRANCH  51  65
ATOM     65  C   UNL A   1      39.194  31.823  35.692  1.00  0.00     0.064 A 
ATOM     66  C   UNL A   1      39.609  33.161  35.787  1.00  0.00     0.173 A 
ATOM     67  C   UNL A   1      38.295  31.347  36.659  1.00  0.00     0.173 A 
ATOM     68  F   UNL A   1      40.476  33.662  34.894  1.00  0.00    -0.203 F 
ATOM     69  C   UNL A   1      39.177  33.974  36.831  1.00  0.00     0.198 A 
ATOM     70  C   UNL A   1      37.841  32.172  37.685  1.00  0.00     0.198 A 
ATOM     71  F   UNL A   1      37.861  30.079  36.613  1.00  0.00    -0.203 F 
ATOM     72  F   UNL A   1      39.637  35.228  36.934  1.00  0.00    -0.200 F 
ATOM     73  C   UNL A   1      38.291  33.481  37.776  1.00  0.00     0.200 A 
ATOM     74  F   UNL A   1      36.977  31.698  38.593  1.00  0.00    -0.200 F 
ATOM     75  F   UNL A   1      37.879  34.264  38.783  1.00  0.00    -0.200 F 
ENDBRANCH  51  65
BRANCH  52  76
ATOM     76  C   UNL A   1      42.329  26.417  27.921  1.00  0.00     0.064 A 
ATOM     77  C   UNL A   1      41.889  25.115  27.653  1.00  0.00     0.173 A 
ATOM     78  C   UNL A   1      43.218  27.011  27.012  1.00  0.00     0.173 A 
ATOM     79  F   UNL A   1      41.051  24.504  28.503  1.00  0.00    -0.203 F 
ATOM     80  C   UNL A   1      42.323  24.430  26.520  1.00  0.00     0.198 A 
ATOM     81  C   UNL A   1      43.634  26.332  25.869  1.00  0.00     0.198 A 
ATOM     82  F   UNL A   1      43.659  28.259  27.222  1.00  0.00    -0.203 F 
ATOM     83  F   UNL A   1      41.905  23.176  26.297  1.00  0.00    -0.200 F 
ATOM     84  C   UNL A   1      43.189  25.041  25.625  1.00  0.00     0.200 A 
ATOM     85  F   UNL A   1      44.457  26.932  24.999  1.00  0.00    -0.200 F 
ATOM     86  F   UNL A   1      43.593  24.387  24.528  1.00  0.00    -0.200 F 
ENDBRANCH  52  76
BRANCH  64  87
ATOM     87  C   UNL A   1      44.760  27.424  34.378  1.00  0.00     0.064 A 
ATOM     88  C   UNL A   1      45.968  28.137  34.378  1.00  0.00     0.173 A 
ATOM     89  C   UNL A   1      44.699  26.230  35.110  1.00  0.00     0.173 A 
ATOM     90  F   UNL A   1      46.078  29.277  33.679  1.00  0.00    -0.203 F 
ATOM     91  C   UNL A   1      47.077  27.661  35.071  1.00  0.00     0.198 A 
ATOM     92  C   UNL A   1      45.803  25.769  35.821  1.00  0.00     0.198 A 
ATOM     93  F   UNL A   1      43.564  25.514  35.143  1.00  0.00    -0.203 F 
ATOM     94  F   UNL A   1      48.233  28.338  35.027  1.00  0.00    -0.200 F 
ATOM     95  C   UNL A   1      46.992  26.483  35.797  1.00  0.00     0.200 A 
ATOM     96  F   UNL A   1      45.717  24.635  36.530  1.00  0.00    -0.200 F 
ATOM     97  F   UNL A   1      48.060  26.030  36.469  1.00  0.00    -0.200 F 
ENDBRANCH  64  87
ENDBRANCH  38  39
ENDBRANCH  30  33
ENDBRANCH  28  29
ENDBRANCH  27  28
ENDBRANCH   1  27
TORSDOF 13
ENDMDL
MODEL 2
REMARK VINA RESULT:     -12.5      3.186      5.433
REMARK SMILES Cc1ccc(S(=O)(=O)Nc2cc3c(cc2C(=O)NCCCNC(=O)c2ccc(-c4c5nc(c(-c6c(F)c(F)c(F)c(F)c6F)c6ccc([nH]6)c(-c6c(F)c(F)c(F)c(F)c6F)c6nc(c(-c7c(F)c(F)c(F)c(F)c7F)c7ccc4[nH]7)C=C6)C=C5)cc2)OCCO3)s1
REMARK SMILES IDX 19 1 18 2 16 3 17 4 15 6 10 7 11 8 12 9 14 10 13 11 91 12
REMARK SMILES IDX 88 13 90 14 89 15 9 16 6 18 7 19 8 20 5 21 1 22 2 23 3 24
REMARK SMILES IDX 92 25 4 26 20 27 21 28 22 29 23 30 24 32 25 33 26 34 87 35
REMARK SMILES IDX 27 36 86 37 28 38 29 39 30 40 80 41 31 42 85 43 79 44 81 45
REMARK SMILES IDX 32 46 84 47 78 48 77 49 33 51 65 52 45 53 64 54 46 55 49 56
REMARK SMILES IDX 63 57 82 58 47 59 48 60 62 62 83 63 50 64 34 65 35 66 43 67
REMARK SMILES IDX 36 68 37 69 41 70 44 71 38 72 39 73 42 74 40 75 66 76 67 77
REMARK SMILES IDX 75 78 68 79 69 80 73 81 76 82 70 83 71 84 74 85 72 86 51 87
REMARK SMILES IDX 52 88 60 89 53 90 54 91 58 92 61 93 55 94 56 95 59 96 57 97
REMARK H PARENT 18 5 9 17 22 31 81 50 49 61
REMARK Flexibility Score: inf
ROOT
ATOM      1  C   UNL A   1      34.056  27.357  24.072  1.00  0.00     0.118 C 
ENDROOT
BRANCH   1   2
ATOM      2  N   UNL A   1      33.512  26.121  23.527  1.00  0.00    -0.352 N 
ATOM      3  C   UNL A   1      32.290  25.718  23.045  1.00  0.00     0.253 C 
ATOM      4  O   UNL A   1      32.240  24.576  22.591  1.00  0.00    -0.269 OA
ATOM      5  H   UNL A   1      34.181  25.400  23.499  1.00  0.00     0.163 HD
BRANCH   3   6
ATOM      6  C   UNL A   1      31.064  26.570  23.060  1.00  0.00     0.067 A 
ATOM      7  C   UNL A   1      29.912  26.170  23.781  1.00  0.00     0.066 A 
ATOM      8  C   UNL A   1      28.770  26.987  23.803  1.00  0.00     0.078 A 
ATOM      9  C   UNL A   1      28.772  28.204  23.125  1.00  0.00     0.163 A 
ATOM     10  C   UNL A   1      31.000  27.745  22.306  1.00  0.00     0.066 A 
ATOM     11  C   UNL A   1      29.897  28.590  22.397  1.00  0.00     0.162 A 
ATOM     12  O   UNL A   1      27.640  28.972  23.213  1.00  0.00    -0.486 OA
ATOM     13  O   UNL A   1      29.995  29.792  21.744  1.00  0.00    -0.486 OA
ATOM     14  C   UNL A   1      27.648  30.046  22.261  1.00  0.00     0.271 C 
ATOM     15  C   UNL A   1      29.010  30.716  22.224  1.00  0.00     0.271 C 
BRANCH   7  16
ATOM     16  N   UNL A   1      29.877  24.929  24.496  1.00  0.00    -0.278 N 
ATOM     17  H   UNL A   1      29.512  24.117  24.075  1.00  0.00     0.180 HD
BRANCH  16  18
ATOM     18  S   UNL A   1      30.474  24.887  26.073  1.00  0.00     0.271 S 
ATOM     19  O   UNL A   1      29.532  24.150  26.879  1.00  0.00    -0.200 OA
ATOM     20  O   UNL A   1      30.835  26.251  26.421  1.00  0.00    -0.200 OA
BRANCH  18  21
ATOM     21  C   UNL A   1      32.027  24.015  26.082  1.00  0.00     0.140 A 
ATOM     22  C   UNL A   1      34.380  20.897  25.735  1.00  0.00     0.056 C 
ATOM     23  C   UNL A   1      33.707  22.214  25.914  1.00  0.00     0.003 A 
ATOM     24  C   UNL A   1      34.250  23.383  26.405  1.00  0.00     0.016 A 
ATOM     25  S   UNL A   1      32.050  22.403  25.523  1.00  0.00    -0.127 S 
ATOM     26  C   UNL A   1      33.282  24.419  26.501  1.00  0.00     0.034 A 
ENDBRANCH  18  21
ENDBRANCH  16  18
ENDBRANCH   7  16
ENDBRANCH   3   6
ENDBRANCH   1   2
BRANCH   1  27
ATOM     27  C   UNL A   1      33.196  27.996  25.152  1.00  0.00     0.042 C 
BRANCH  27  28
ATOM     28  C   UNL A   1      33.902  28.234  26.479  1.00  0.00     0.118 C 
BRANCH  28  29
ATOM     29  N   UNL A   1      33.745  29.598  26.964  1.00  0.00    -0.352 N 
ATOM     30  C   UNL A   1      34.515  30.365  27.801  1.00  0.00     0.251 C 
ATOM     31  H   UNL A   1      32.938  30.053  26.629  1.00  0.00     0.163 HD
ATOM     32  O   UNL A   1      34.048  31.411  28.248  1.00  0.00    -0.269 OA
BRANCH  30  33
ATOM     33  C   UNL A   1      35.887  29.964  28.188  1.00  0.00     0.039 A 
ATOM     34  C   UNL A   1      36.916  30.098  27.249  1.00  0.00     0.014 A 
ATOM     35  C   UNL A   1      36.158  29.379  29.426  1.00  0.00     0.014 A 
ATOM     36  C   UNL A   1      38.218  29.701  27.570  1.00  0.00     0.010 A 
ATOM     37  C   UNL A   1      37.468  29.062  29.778  1.00  0.00     0.010 A 
ATOM     38  C   UNL A   1      38.510  29.205  28.849  1.00  0.00    -0.014 A 
BRANCH  38  39
ATOM     39  C   UNL A   1      39.888  28.807  29.235  1.00  0.00     0.031 A 
ATOM     40  C   UNL A   1      40.757  29.755  30.014  1.00  0.00     0.074 A 
ATOM     41  C   UNL A   1      40.391  27.634  28.804  1.00  0.00     0.049 A 
ATOM     42  N   UNL A   1      42.023  29.648  30.336  1.00  0.00    -0.248 NA
ATOM     43  C   UNL A   1      40.130  31.010  30.456  1.00  0.00     0.031 C 
ATOM     44  C   UNL A   1      39.670  26.655  27.991  1.00  0.00     0.029 A 
ATOM     45  N   UNL A   1      41.635  27.081  28.969  1.00  0.00    -0.354 N 
ATOM     46  C   UNL A   1      42.349  30.833  30.983  1.00  0.00     0.074 A 
ATOM     47  C   UNL A   1      41.162  31.661  30.972  1.00  0.00     0.031 C 
ATOM     48  C   UNL A   1      40.483  25.619  27.731  1.00  0.00     0.029 A 
ATOM     49  C   UNL A   1      41.788  25.875  28.331  1.00  0.00     0.049 A 
ATOM     50  H   UNL A   1      42.351  27.508  29.495  1.00  0.00     0.167 HD
ATOM     51  C   UNL A   1      43.525  31.190  31.552  1.00  0.00     0.037 A 
ATOM     52  C   UNL A   1      42.865  25.072  28.231  1.00  0.00     0.037 A 
ATOM     53  C   UNL A   1      44.688  30.345  31.606  1.00  0.00     0.049 A 
ATOM     54  C   UNL A   1      44.144  25.462  28.916  1.00  0.00     0.074 A 
ATOM     55  C   UNL A   1      45.896  30.575  32.240  1.00  0.00     0.029 A 
ATOM     56  N   UNL A   1      44.786  29.101  30.999  1.00  0.00    -0.354 N 
ATOM     57  N   UNL A   1      44.419  26.553  29.587  1.00  0.00    -0.248 NA
ATOM     58  C   UNL A   1      45.256  24.506  28.838  1.00  0.00     0.031 C 
ATOM     59  C   UNL A   1      46.739  29.485  31.987  1.00  0.00     0.029 A 
ATOM     60  C   UNL A   1      46.041  28.559  31.229  1.00  0.00     0.049 A 
ATOM     61  H   UNL A   1      44.069  28.667  30.482  1.00  0.00     0.167 HD
ATOM     62  C   UNL A   1      45.729  26.412  30.024  1.00  0.00     0.074 A 
ATOM     63  C   UNL A   1      46.188  25.120  29.554  1.00  0.00     0.031 C 
ATOM     64  C   UNL A   1      46.482  27.275  30.748  1.00  0.00     0.037 A 
BRANCH  51  65
ATOM     65  C   UNL A   1      43.606  32.559  32.164  1.00  0.00     0.064 A 
ATOM     66  C   UNL A   1      44.016  33.677  31.420  1.00  0.00     0.173 A 
ATOM     67  C   UNL A   1      43.267  32.758  33.510  1.00  0.00     0.173 A 
ATOM     68  F   UNL A   1      44.363  33.540  30.130  1.00  0.00    -0.203 F 
ATOM     69  C   UNL A   1      44.123  34.933  32.012  1.00  0.00     0.198 A 
ATOM     70  C   UNL A   1      43.346  34.021  34.092  1.00  0.00     0.198 A 
ATOM     71  F   UNL A   1      42.863  31.725  34.266  1.00  0.00    -0.203 F 
ATOM     72  F   UNL A   1      44.577  35.971  31.296  1.00  0.00    -0.200 F 
ATOM     73  C   UNL A   1      43.785  35.104  33.345  1.00  0.00     0.200 A 
ATOM     74  F   UNL A   1      43.009  34.188  35.378  1.00  0.00    -0.200 F 
ATOM     75  F   UNL A   1      43.892  36.313  33.915  1.00  0.00    -0.200 F 
ENDBRANCH  51  65
BRANCH  52  76
ATOM     76  C   UNL A   1      42.755  23.803  27.468  1.00  0.00     0.064 A 
ATOM     77  C   UNL A   1      43.127  23.741  26.120  1.00  0.00     0.173 A 
ATOM     78  C   UNL A   1      42.322  22.620  28.085  1.00  0.00     0.173 A 
ATOM     79  F   UNL A   1      43.533  24.851  25.486  1.00  0.00    -0.203 F 
ATOM     80  C   UNL A   1      43.064  22.543  25.412  1.00  0.00     0.198 A 
ATOM     81  C   UNL A   1      42.280  21.418  27.381  1.00  0.00     0.198 A 
ATOM     82  F   UNL A   1      41.964  22.628  29.377  1.00  0.00    -0.203 F 
ATOM     83  F   UNL A   1      43.405  22.515  24.116  1.00  0.00    -0.200 F 
ATOM     84  C   UNL A   1      42.649  21.381  26.045  1.00  0.00     0.200 A 
ATOM     85  F   UNL A   1      41.894  20.295  28.001  1.00  0.00    -0.200 F 
ATOM     86  F   UNL A   1      42.605  20.225  25.368  1.00  0.00    -0.200 F 
ENDBRANCH  52  76
BRANCH  64  87
ATOM     87  C   UNL A   1      47.879  26.846  31.088  1.00  0.00     0.064 A 
ATOM     88  C   UNL A   1      48.140  26.002  32.178  1.00  0.00     0.173 A 
ATOM     89  C   UNL A   1      48.961  27.249  30.293  1.00  0.00     0.173 A 
ATOM     90  F   UNL A   1      47.138  25.603  32.978  1.00  0.00    -0.203 F 
ATOM     91  C   UNL A   1      49.438  25.592  32.469  1.00  0.00     0.198 A 
ATOM     92  C   UNL A   1      50.254  26.818  30.573  1.00  0.00     0.198 A 
ATOM     93  F   UNL A   1      48.762  28.053  29.237  1.00  0.00    -0.203 F 
ATOM     94  F   UNL A   1      49.670  24.817  33.536  1.00  0.00    -0.200 F 
ATOM     95  C   UNL A   1      50.492  25.993  31.662  1.00  0.00     0.200 A 
ATOM     96  F   UNL A   1      51.271  27.199  29.787  1.00  0.00    -0.200 F 
ATOM     97  F   UNL A   1      51.741  25.592  31.940  1.00  0.00    -0.200 F 
ENDBRANCH  64  87
ENDBRANCH  38  39
ENDBRANCH  30  33
ENDBRANCH  28  29
ENDBRANCH  27  28
ENDBRANCH   1  27
TORSDOF 13
ENDMDL
MODEL 3
REMARK VINA RESULT:     -12.5      4.156      8.924
REMARK SMILES Cc1ccc(S(=O)(=O)Nc2cc3c(cc2C(=O)NCCCNC(=O)c2ccc(-c4c5nc(c(-c6c(F)c(F)c(F)c(F)c6F)c6ccc([nH]6)c(-c6c(F)c(F)c(F)c(F)c6F)c6nc(c(-c7c(F)c(F)c(F)c(F)c7F)c7ccc4[nH]7)C=C6)C=C5)cc2)OCCO3)s1
REMARK SMILES IDX 19 1 18 2 16 3 17 4 15 6 10 7 11 8 12 9 14 10 13 11 91 12
REMARK SMILES IDX 88 13 90 14 89 15 9 16 6 18 7 19 8 20 5 21 1 22 2 23 3 24
REMARK SMILES IDX 92 25 4 26 20 27 21 28 22 29 23 30 24 32 25 33 26 34 87 35
REMARK SMILES IDX 27 36 86 37 28 38 29 39 30 40 80 41 31 42 85 43 79 44 81 45
REMARK SMILES IDX 32 46 84 47 78 48 77 49 33 51 65 52 45 53 64 54 46 55 49 56
REMARK SMILES IDX 63 57 82 58 47 59 48 60 62 62 83 63 50 64 34 65 35 66 43 67
REMARK SMILES IDX 36 68 37 69 41 70 44 71 38 72 39 73 42 74 40 75 66 76 67 77
REMARK SMILES IDX 75 78 68 79 69 80 73 81 76 82 70 83 71 84 74 85 72 86 51 87
REMARK SMILES IDX 52 88 60 89 53 90 54 91 58 92 61 93 55 94 56 95 59 96 57 97
REMARK H PARENT 18 5 9 17 22 31 81 50 49 61
REMARK Flexibility Score: inf
ROOT
ATOM      1  C   UNL A   1      35.284  22.789  23.867  1.00  0.00     0.118 C 
ENDROOT
BRANCH   1   2
ATOM      2  N   UNL A   1      34.530  23.441  22.805  1.00  0.00    -0.352 N 
ATOM      3  C   UNL A   1      33.623  24.471  22.739  1.00  0.00     0.253 C 
ATOM      4  O   UNL A   1      33.251  24.789  21.610  1.00  0.00    -0.269 OA
ATOM      5  H   UNL A   1      34.715  23.048  21.922  1.00  0.00     0.163 HD
BRANCH   3   6
ATOM      6  C   UNL A   1      33.082  25.185  23.933  1.00  0.00     0.067 A 
ATOM      7  C   UNL A   1      32.055  24.608  24.719  1.00  0.00     0.066 A 
ATOM      8  C   UNL A   1      31.565  25.280  25.850  1.00  0.00     0.078 A 
ATOM      9  C   UNL A   1      32.099  26.514  26.212  1.00  0.00     0.163 A 
ATOM     10  C   UNL A   1      33.525  26.470  24.260  1.00  0.00     0.066 A 
ATOM     11  C   UNL A   1      33.095  27.095  25.427  1.00  0.00     0.162 A 
ATOM     12  O   UNL A   1      31.603  27.104  27.346  1.00  0.00    -0.486 OA
ATOM     13  O   UNL A   1      33.705  28.282  25.742  1.00  0.00    -0.486 OA
ATOM     14  C   UNL A   1      32.014  28.474  27.458  1.00  0.00     0.271 C 
ATOM     15  C   UNL A   1      33.487  28.620  27.118  1.00  0.00     0.271 C 
BRANCH   7  16
ATOM     16  N   UNL A   1      31.487  23.336  24.382  1.00  0.00    -0.278 N 
ATOM     17  H   UNL A   1      30.965  23.222  23.555  1.00  0.00     0.180 HD
BRANCH  16  18
ATOM     18  S   UNL A   1      31.735  22.036  25.429  1.00  0.00     0.271 S 
ATOM     19  O   UNL A   1      30.490  21.781  26.112  1.00  0.00    -0.200 OA
ATOM     20  O   UNL A   1      32.942  22.329  26.182  1.00  0.00    -0.200 OA
BRANCH  18  21
ATOM     21  C   UNL A   1      32.161  20.594  24.475  1.00  0.00     0.140 A 
ATOM     22  C   UNL A   1      33.741  17.061  23.846  1.00  0.00     0.056 C 
ATOM     23  C   UNL A   1      33.063  18.388  23.835  1.00  0.00     0.003 A 
ATOM     24  C   UNL A   1      32.586  19.087  22.746  1.00  0.00     0.016 A 
ATOM     25  S   UNL A   1      32.824  19.252  25.294  1.00  0.00    -0.127 S 
ATOM     26  C   UNL A   1      32.066  20.357  23.116  1.00  0.00     0.034 A 
ENDBRANCH  18  21
ENDBRANCH  16  18
ENDBRANCH   7  16
ENDBRANCH   3   6
ENDBRANCH   1   2
BRANCH   1  27
ATOM     27  C   UNL A   1      36.231  23.713  24.619  1.00  0.00     0.042 C 
BRANCH  27  28
ATOM     28  C   UNL A   1      36.548  23.287  26.045  1.00  0.00     0.118 C 
BRANCH  28  29
ATOM     29  N   UNL A   1      37.725  22.433  26.128  1.00  0.00    -0.352 N 
ATOM     30  C   UNL A   1      39.044  22.716  26.380  1.00  0.00     0.251 C 
ATOM     31  H   UNL A   1      37.541  21.477  25.976  1.00  0.00     0.163 HD
ATOM     32  O   UNL A   1      39.891  21.851  26.164  1.00  0.00    -0.269 OA
BRANCH  30  33
ATOM     33  C   UNL A   1      39.476  24.035  26.894  1.00  0.00     0.039 A 
ATOM     34  C   UNL A   1      39.258  24.334  28.244  1.00  0.00     0.014 A 
ATOM     35  C   UNL A   1      40.011  25.011  26.052  1.00  0.00     0.014 A 
ATOM     36  C   UNL A   1      39.625  25.582  28.757  1.00  0.00     0.010 A 
ATOM     37  C   UNL A   1      40.456  26.222  26.579  1.00  0.00     0.010 A 
ATOM     38  C   UNL A   1      40.254  26.527  27.933  1.00  0.00    -0.014 A 
BRANCH  38  39
ATOM     39  C   UNL A   1      40.689  27.849  28.454  1.00  0.00     0.031 A 
ATOM     40  C   UNL A   1      42.123  28.069  28.850  1.00  0.00     0.074 A 
ATOM     41  C   UNL A   1      39.779  28.819  28.661  1.00  0.00     0.049 A 
ATOM     42  N   UNL A   1      42.673  29.101  29.440  1.00  0.00    -0.248 NA
ATOM     43  C   UNL A   1      43.057  26.964  28.581  1.00  0.00     0.031 C 
ATOM     44  C   UNL A   1      38.348  28.708  28.375  1.00  0.00     0.029 A 
ATOM     45  N   UNL A   1      39.919  30.079  29.184  1.00  0.00    -0.354 N 
ATOM     46  C   UNL A   1      44.002  28.755  29.645  1.00  0.00     0.074 A 
ATOM     47  C   UNL A   1      44.167  27.403  29.155  1.00  0.00     0.031 C 
ATOM     48  C   UNL A   1      37.742  29.855  28.723  1.00  0.00     0.029 A 
ATOM     49  C   UNL A   1      38.734  30.767  29.284  1.00  0.00     0.049 A 
ATOM     50  H   UNL A   1      40.786  30.455  29.462  1.00  0.00     0.167 HD
ATOM     51  C   UNL A   1      44.999  29.502  30.175  1.00  0.00     0.037 A 
ATOM     52  C   UNL A   1      38.476  31.990  29.783  1.00  0.00     0.037 A 
ATOM     53  C   UNL A   1      44.844  30.864  30.616  1.00  0.00     0.049 A 
ATOM     54  C   UNL A   1      39.606  32.824  30.317  1.00  0.00     0.074 A 
ATOM     55  C   UNL A   1      45.810  31.738  31.080  1.00  0.00     0.029 A 
ATOM     56  N   UNL A   1      43.638  31.549  30.645  1.00  0.00    -0.354 N 
ATOM     57  N   UNL A   1      40.873  32.513  30.440  1.00  0.00    -0.248 NA
ATOM     58  C   UNL A   1      39.271  34.181  30.772  1.00  0.00     0.031 C 
ATOM     59  C   UNL A   1      45.184  32.942  31.424  1.00  0.00     0.029 A 
ATOM     60  C   UNL A   1      43.833  32.830  31.136  1.00  0.00     0.049 A 
ATOM     61  H   UNL A   1      42.772  31.179  30.358  1.00  0.00     0.167 HD
ATOM     62  C   UNL A   1      41.491  33.636  30.972  1.00  0.00     0.074 A 
ATOM     63  C   UNL A   1      40.461  34.642  31.134  1.00  0.00     0.031 C 
ATOM     64  C   UNL A   1      42.795  33.816  31.296  1.00  0.00     0.037 A 
BRANCH  51  65
ATOM     65  C   UNL A   1      46.349  28.857  30.306  1.00  0.00     0.064 A 
ATOM     66  C   UNL A   1      46.740  28.193  31.479  1.00  0.00     0.173 A 
ATOM     67  C   UNL A   1      47.264  28.901  29.243  1.00  0.00     0.173 A 
ATOM     68  F   UNL A   1      45.906  28.132  32.530  1.00  0.00    -0.203 F 
ATOM     69  C   UNL A   1      48.009  27.633  31.598  1.00  0.00     0.198 A 
ATOM     70  C   UNL A   1      48.522  28.314  29.354  1.00  0.00     0.198 A 
ATOM     71  F   UNL A   1      46.940  29.517  28.096  1.00  0.00    -0.203 F 
ATOM     72  F   UNL A   1      48.380  27.059  32.751  1.00  0.00    -0.200 F 
ATOM     73  C   UNL A   1      48.897  27.691  30.535  1.00  0.00     0.200 A 
ATOM     74  F   UNL A   1      49.376  28.360  28.323  1.00  0.00    -0.200 F 
ATOM     75  F   UNL A   1      50.120  27.155  30.652  1.00  0.00    -0.200 F 
ENDBRANCH  51  65
BRANCH  52  76
ATOM     76  C   UNL A   1      37.081  32.500  29.769  1.00  0.00     0.064 A 
ATOM     77  C   UNL A   1      36.231  32.297  30.863  1.00  0.00     0.173 A 
ATOM     78  C   UNL A   1      36.589  33.239  28.683  1.00  0.00     0.173 A 
ATOM     79  F   UNL A   1      36.656  31.584  31.916  1.00  0.00    -0.203 F 
ATOM     80  C   UNL A   1      34.936  32.810  30.870  1.00  0.00     0.198 A 
ATOM     81  C   UNL A   1      35.301  33.769  28.701  1.00  0.00     0.198 A 
ATOM     82  F   UNL A   1      37.370  33.467  27.617  1.00  0.00    -0.203 F 
ATOM     83  F   UNL A   1      34.134  32.583  31.920  1.00  0.00    -0.200 F 
ATOM     84  C   UNL A   1      34.474  33.552  29.793  1.00  0.00     0.200 A 
ATOM     85  F   UNL A   1      34.865  34.499  27.666  1.00  0.00    -0.200 F 
ATOM     86  F   UNL A   1      33.234  34.059  29.808  1.00  0.00    -0.200 F 
ENDBRANCH  52  76
BRANCH  64  87
ATOM     87  C   UNL A   1      43.185  35.155  31.849  1.00  0.00     0.064 A 
ATOM     88  C   UNL A   1      43.631  36.189  31.013  1.00  0.00     0.173 A 
ATOM     89  C   UNL A   1      43.071  35.419  33.221  1.00  0.00     0.173 A 
ATOM     90  F   UNL A   1      43.771  35.978  29.695  1.00  0.00    -0.203 F 
ATOM     91  C   UNL A   1      43.967  37.435  31.535  1.00  0.00     0.198 A 
ATOM     92  C   UNL A   1      43.385  36.673  33.736  1.00  0.00     0.198 A 
ATOM     93  F   UNL A   1      42.645  34.463  34.061  1.00  0.00    -0.203 F 
ATOM     94  F   UNL A   1      44.427  38.397  30.724  1.00  0.00    -0.200 F 
ATOM     95  C   UNL A   1      43.836  37.678  32.894  1.00  0.00     0.200 A 
ATOM     96  F   UNL A   1      43.251  36.910  35.049  1.00  0.00    -0.200 F 
ATOM     97  F   UNL A   1      44.154  38.880  33.394  1.00  0.00    -0.200 F 
ENDBRANCH  64  87
ENDBRANCH  38  39
ENDBRANCH  30  33
ENDBRANCH  28  29
ENDBRANCH  27  28
ENDBRANCH   1  27
TORSDOF 13
ENDMDL
