MODEL 1
REMARK VINA RESULT:     -13.1      0.000      0.000
REMARK SMILES Cc1cccc2nc(C(=O)NCC(=O)NCCCNC(=O)c3ccc(-c4c5nc(c(-c6c(F)c(F)c(F)c(F)c6F)c6ccc([nH]6)c(-c6c(F)c(F)c(F)c(F)c6F)c6nc(c(-c7c(F)c(F)c(F)c(F)c7F)c7ccc4[nH]7)C=C6)C=C5)cc3)cn12
REMARK SMILES IDX 17 1 16 2 15 3 13 4 14 5 12 7 11 8 9 9 10 10 8 12 1 13 2 14
REMARK SMILES IDX 3 15 86 16 4 17 6 18 85 19 5 20 7 21 18 22 19 23 20 24 21 26
REMARK SMILES IDX 22 27 23 28 84 29 24 30 83 31 25 32 26 33 27 34 77 35 28 36
REMARK SMILES IDX 82 37 76 38 78 39 29 40 81 41 75 42 74 43 30 45 62 46 42 47
REMARK SMILES IDX 61 48 43 49 46 50 60 51 79 52 44 53 45 54 59 56 80 57 47 58
REMARK SMILES IDX 31 59 32 60 40 61 33 62 34 63 38 64 41 65 35 66 36 67 39 68
REMARK SMILES IDX 37 69 63 70 64 71 72 72 65 73 66 74 70 75 73 76 67 77 68 78
REMARK SMILES IDX 71 79 69 80 48 81 49 82 57 83 50 84 51 85 55 86 58 87 52 88
REMARK SMILES IDX 53 89 56 90 54 91
REMARK H PARENT 15 6 11 11 19 25 78 44 46 55
REMARK Flexibility Score: inf
ROOT
ATOM      1  C   UNL A   1      37.119  22.521  24.837  1.00  0.00     0.042 C 
ENDROOT
BRANCH   1   2
ATOM      2  C   UNL A   1      36.270  21.317  25.251  1.00  0.00     0.117 C 
BRANCH   2   3
ATOM      3  N   UNL A   1      35.579  21.528  26.507  1.00  0.00    -0.355 N 
ATOM      4  C   UNL A   1      34.248  21.738  26.729  1.00  0.00     0.239 C 
ATOM      5  O   UNL A   1      33.859  21.744  27.899  1.00  0.00    -0.273 OA
ATOM      6  H   UNL A   1      36.145  21.518  27.311  1.00  0.00     0.163 HD
BRANCH   4   7
ATOM      7  C   UNL A   1      33.253  21.850  25.565  1.00  0.00     0.216 C 
BRANCH   7   8
ATOM      8  N   UNL A   1      31.859  21.712  25.967  1.00  0.00    -0.342 N 
ATOM      9  C   UNL A   1      30.854  22.634  26.122  1.00  0.00     0.271 C 
ATOM     10  O   UNL A   1      29.758  22.217  26.501  1.00  0.00    -0.267 OA
ATOM     11  H   UNL A   1      31.587  20.786  26.163  1.00  0.00     0.164 HD
BRANCH   9  12
ATOM     12  C   UNL A   1      31.093  24.068  25.912  1.00  0.00     0.147 A 
ATOM     13  C   UNL A   1      30.939  26.961  22.600  1.00  0.00     0.065 C 
ATOM     14  C   UNL A   1      31.173  27.159  24.066  1.00  0.00     0.021 A 
ATOM     15  C   UNL A   1      31.396  28.383  24.592  1.00  0.00     0.022 A 
ATOM     16  N   UNL A   1      31.183  26.055  24.938  1.00  0.00    -0.304 N 
ATOM     17  C   UNL A   1      31.613  28.529  26.022  1.00  0.00     0.006 A 
ATOM     18  C   UNL A   1      31.421  26.163  26.306  1.00  0.00     0.137 A 
ATOM     19  C   UNL A   1      30.969  24.720  24.697  1.00  0.00     0.127 A 
ATOM     20  C   UNL A   1      31.628  27.462  26.842  1.00  0.00     0.048 A 
ATOM     21  N   UNL A   1      31.396  24.988  26.895  1.00  0.00    -0.223 NA
ENDBRANCH   9  12
ENDBRANCH   7   8
ENDBRANCH   4   7
ENDBRANCH   2   3
ENDBRANCH   1   2
BRANCH   1  22
ATOM     22  C   UNL A   1      38.028  22.975  25.968  1.00  0.00     0.118 C 
BRANCH  22  23
ATOM     23  N   UNL A   1      39.280  22.219  25.994  1.00  0.00    -0.352 N 
ATOM     24  C   UNL A   1      40.566  22.675  26.183  1.00  0.00     0.251 C 
ATOM     25  H   UNL A   1      39.190  21.248  25.857  1.00  0.00     0.163 HD
ATOM     26  O   UNL A   1      41.524  21.986  25.877  1.00  0.00    -0.269 OA
BRANCH  24  27
ATOM     27  C   UNL A   1      40.771  24.012  26.764  1.00  0.00     0.039 A 
ATOM     28  C   UNL A   1      40.281  25.146  26.106  1.00  0.00     0.014 A 
ATOM     29  C   UNL A   1      41.476  24.128  27.960  1.00  0.00     0.014 A 
ATOM     30  C   UNL A   1      40.454  26.395  26.693  1.00  0.00     0.010 A 
ATOM     31  C   UNL A   1      41.548  25.342  28.595  1.00  0.00     0.010 A 
ATOM     32  C   UNL A   1      41.080  26.481  27.942  1.00  0.00    -0.014 A 
BRANCH  32  33
ATOM     33  C   UNL A   1      41.191  27.757  28.633  1.00  0.00     0.031 A 
ATOM     34  C   UNL A   1      42.355  28.601  28.243  1.00  0.00     0.074 A 
ATOM     35  C   UNL A   1      40.169  28.239  29.372  1.00  0.00     0.049 A 
ATOM     36  N   UNL A   1      43.276  29.088  29.009  1.00  0.00    -0.248 NA
ATOM     37  C   UNL A   1      42.570  28.876  26.811  1.00  0.00     0.031 C 
ATOM     38  C   UNL A   1      38.846  27.642  29.582  1.00  0.00     0.029 A 
ATOM     39  N   UNL A   1      40.057  29.442  29.991  1.00  0.00    -0.354 N 
ATOM     40  C   UNL A   1      44.103  29.856  28.190  1.00  0.00     0.074 A 
ATOM     41  C   UNL A   1      43.704  29.579  26.835  1.00  0.00     0.031 C 
ATOM     42  C   UNL A   1      38.002  28.577  30.070  1.00  0.00     0.029 A 
ATOM     43  C   UNL A   1      38.758  29.786  30.342  1.00  0.00     0.049 A 
ATOM     44  H   UNL A   1      40.830  30.022  30.176  1.00  0.00     0.167 HD
ATOM     45  C   UNL A   1      44.925  30.813  28.705  1.00  0.00     0.037 A 
ATOM     46  C   UNL A   1      38.331  30.995  30.782  1.00  0.00     0.037 A 
ATOM     47  C   UNL A   1      45.096  30.648  30.124  1.00  0.00     0.049 A 
ATOM     48  C   UNL A   1      39.526  31.738  31.257  1.00  0.00     0.074 A 
ATOM     49  C   UNL A   1      45.610  29.642  30.920  1.00  0.00     0.029 A 
ATOM     50  N   UNL A   1      44.362  31.449  30.963  1.00  0.00    -0.354 N 
ATOM     51  N   UNL A   1      40.205  31.406  32.321  1.00  0.00    -0.248 NA
ATOM     52  C   UNL A   1      40.241  32.560  30.290  1.00  0.00     0.031 C 
ATOM     53  C   UNL A   1      44.758  29.607  32.060  1.00  0.00     0.029 A 
ATOM     54  C   UNL A   1      43.823  30.634  31.925  1.00  0.00     0.049 A 
ATOM     55  H   UNL A   1      44.245  32.424  30.888  1.00  0.00     0.167 HD
ATOM     56  C   UNL A   1      41.532  31.598  31.964  1.00  0.00     0.074 A 
ATOM     57  C   UNL A   1      41.489  32.396  30.740  1.00  0.00     0.031 C 
ATOM     58  C   UNL A   1      42.526  30.848  32.521  1.00  0.00     0.037 A 
BRANCH  45  59
ATOM     59  C   UNL A   1      45.315  32.088  28.003  1.00  0.00     0.064 A 
ATOM     60  C   UNL A   1      44.317  33.023  27.658  1.00  0.00     0.173 A 
ATOM     61  C   UNL A   1      46.572  32.287  27.396  1.00  0.00     0.173 A 
ATOM     62  F   UNL A   1      43.078  32.917  28.160  1.00  0.00    -0.203 F 
ATOM     63  C   UNL A   1      44.544  34.032  26.718  1.00  0.00     0.198 A 
ATOM     64  C   UNL A   1      46.810  33.328  26.501  1.00  0.00     0.198 A 
ATOM     65  F   UNL A   1      47.580  31.420  27.552  1.00  0.00    -0.203 F 
ATOM     66  F   UNL A   1      43.531  34.818  26.327  1.00  0.00    -0.200 F 
ATOM     67  C   UNL A   1      45.789  34.180  26.136  1.00  0.00     0.200 A 
ATOM     68  F   UNL A   1      48.018  33.444  25.931  1.00  0.00    -0.200 F 
ATOM     69  F   UNL A   1      45.993  35.107  25.191  1.00  0.00    -0.200 F 
ENDBRANCH  45  59
BRANCH  46  70
ATOM     70  C   UNL A   1      37.006  31.632  30.600  1.00  0.00     0.064 A 
ATOM     71  C   UNL A   1      36.103  31.759  31.667  1.00  0.00     0.173 A 
ATOM     72  C   UNL A   1      36.694  32.355  29.430  1.00  0.00     0.173 A 
ATOM     73  F   UNL A   1      36.346  31.142  32.832  1.00  0.00    -0.203 F 
ATOM     74  C   UNL A   1      34.969  32.574  31.577  1.00  0.00     0.198 A 
ATOM     75  C   UNL A   1      35.558  33.160  29.338  1.00  0.00     0.198 A 
ATOM     76  F   UNL A   1      37.534  32.367  28.385  1.00  0.00    -0.203 F 
ATOM     77  F   UNL A   1      34.161  32.716  32.638  1.00  0.00    -0.200 F 
ATOM     78  C   UNL A   1      34.701  33.280  30.416  1.00  0.00     0.200 A 
ATOM     79  F   UNL A   1      35.331  33.865  28.220  1.00  0.00    -0.200 F 
ATOM     80  F   UNL A   1      33.646  34.104  30.348  1.00  0.00    -0.200 F 
ENDBRANCH  46  70
BRANCH  58  81
ATOM     81  C   UNL A   1      42.179  29.968  33.691  1.00  0.00     0.064 A 
ATOM     82  C   UNL A   1      41.737  28.639  33.566  1.00  0.00     0.173 A 
ATOM     83  C   UNL A   1      42.485  30.424  34.980  1.00  0.00     0.173 A 
ATOM     84  F   UNL A   1      41.522  28.094  32.364  1.00  0.00    -0.203 F 
ATOM     85  C   UNL A   1      41.579  27.819  34.679  1.00  0.00     0.198 A 
ATOM     86  C   UNL A   1      42.361  29.590  36.089  1.00  0.00     0.198 A 
ATOM     87  F   UNL A   1      42.966  31.664  35.157  1.00  0.00    -0.203 F 
ATOM     88  F   UNL A   1      41.156  26.554  34.528  1.00  0.00    -0.200 F 
ATOM     89  C   UNL A   1      41.902  28.291  35.940  1.00  0.00     0.200 A 
ATOM     90  F   UNL A   1      42.725  30.035  37.299  1.00  0.00    -0.200 F 
ATOM     91  F   UNL A   1      41.801  27.486  37.006  1.00  0.00    -0.200 F 
ENDBRANCH  58  81
ENDBRANCH  32  33
ENDBRANCH  24  27
ENDBRANCH  22  23
ENDBRANCH   1  22
TORSDOF 12
ENDMDL
MODEL 2
REMARK VINA RESULT:     -13.0      4.683     10.399
REMARK SMILES Cc1cccc2nc(C(=O)NCC(=O)NCCCNC(=O)c3ccc(-c4c5nc(c(-c6c(F)c(F)c(F)c(F)c6F)c6ccc([nH]6)c(-c6c(F)c(F)c(F)c(F)c6F)c6nc(c(-c7c(F)c(F)c(F)c(F)c7F)c7ccc4[nH]7)C=C6)C=C5)cc3)cn12
REMARK SMILES IDX 17 1 16 2 15 3 13 4 14 5 12 7 11 8 9 9 10 10 8 12 1 13 2 14
REMARK SMILES IDX 3 15 86 16 4 17 6 18 85 19 5 20 7 21 18 22 19 23 20 24 21 26
REMARK SMILES IDX 22 27 23 28 84 29 24 30 83 31 25 32 26 33 27 34 77 35 28 36
REMARK SMILES IDX 82 37 76 38 78 39 29 40 81 41 75 42 74 43 30 45 62 46 42 47
REMARK SMILES IDX 61 48 43 49 46 50 60 51 79 52 44 53 45 54 59 56 80 57 47 58
REMARK SMILES IDX 31 59 32 60 40 61 33 62 34 63 38 64 41 65 35 66 36 67 39 68
REMARK SMILES IDX 37 69 63 70 64 71 72 72 65 73 66 74 70 75 73 76 67 77 68 78
REMARK SMILES IDX 71 79 69 80 48 81 49 82 57 83 50 84 51 85 55 86 58 87 52 88
REMARK SMILES IDX 53 89 56 90 54 91
REMARK H PARENT 15 6 11 11 19 25 78 44 46 55
REMARK Flexibility Score: inf
ROOT
ATOM      1  C   UNL A   1      34.661  35.068  28.349  1.00  0.00     0.042 C 
ENDROOT
BRANCH   1   2
ATOM      2  C   UNL A   1      33.464  34.917  29.289  1.00  0.00     0.117 C 
BRANCH   2   3
ATOM      3  N   UNL A   1      32.982  36.189  29.788  1.00  0.00    -0.355 N 
ATOM      4  C   UNL A   1      33.202  36.773  31.002  1.00  0.00     0.239 C 
ATOM      5  O   UNL A   1      32.813  37.933  31.155  1.00  0.00    -0.273 OA
ATOM      6  H   UNL A   1      32.418  36.703  29.167  1.00  0.00     0.163 HD
BRANCH   4   7
ATOM      7  C   UNL A   1      34.003  36.056  32.099  1.00  0.00     0.216 C 
BRANCH   7   8
ATOM      8  N   UNL A   1      33.346  34.866  32.624  1.00  0.00    -0.342 N 
ATOM      9  C   UNL A   1      33.835  33.641  33.002  1.00  0.00     0.271 C 
ATOM     10  O   UNL A   1      33.020  32.806  33.399  1.00  0.00    -0.267 OA
ATOM     11  H   UNL A   1      32.371  34.959  32.728  1.00  0.00     0.164 HD
BRANCH   9  12
ATOM     12  C   UNL A   1      35.261  33.315  32.875  1.00  0.00     0.147 A 
ATOM     13  C   UNL A   1      38.708  34.598  30.458  1.00  0.00     0.065 C 
ATOM     14  C   UNL A   1      38.620  33.660  31.623  1.00  0.00     0.021 A 
ATOM     15  C   UNL A   1      39.709  33.026  32.109  1.00  0.00     0.022 A 
ATOM     16  N   UNL A   1      37.380  33.402  32.233  1.00  0.00    -0.304 N 
ATOM     17  C   UNL A   1      39.578  32.129  33.246  1.00  0.00     0.006 A 
ATOM     18  C   UNL A   1      37.221  32.521  33.300  1.00  0.00     0.137 A 
ATOM     19  C   UNL A   1      36.129  33.907  31.973  1.00  0.00     0.127 A 
ATOM     20  C   UNL A   1      38.383  31.885  33.813  1.00  0.00     0.048 A 
ATOM     21  N   UNL A   1      35.964  32.440  33.677  1.00  0.00    -0.223 NA
ENDBRANCH   9  12
ENDBRANCH   7   8
ENDBRANCH   4   7
ENDBRANCH   2   3
ENDBRANCH   1   2
BRANCH   1  22
ATOM     22  C   UNL A   1      35.397  33.748  28.171  1.00  0.00     0.118 C 
BRANCH  22  23
ATOM     23  N   UNL A   1      34.478  32.612  28.162  1.00  0.00    -0.352 N 
ATOM     24  C   UNL A   1      34.757  31.270  28.028  1.00  0.00     0.251 C 
ATOM     25  H   UNL A   1      33.524  32.837  28.267  1.00  0.00     0.163 HD
ATOM     26  O   UNL A   1      33.880  30.476  27.732  1.00  0.00    -0.269 OA
BRANCH  24  27
ATOM     27  C   UNL A   1      36.136  30.803  28.246  1.00  0.00     0.039 A 
ATOM     28  C   UNL A   1      37.054  31.615  28.923  1.00  0.00     0.014 A 
ATOM     29  C   UNL A   1      36.513  29.556  27.750  1.00  0.00     0.014 A 
ATOM     30  C   UNL A   1      38.340  31.136  29.151  1.00  0.00     0.010 A 
ATOM     31  C   UNL A   1      37.742  29.038  28.072  1.00  0.00     0.010 A 
ATOM     32  C   UNL A   1      38.671  29.843  28.730  1.00  0.00    -0.014 A 
BRANCH  32  33
ATOM     33  C   UNL A   1      39.973  29.271  29.037  1.00  0.00     0.031 A 
ATOM     34  C   UNL A   1      40.244  29.024  30.481  1.00  0.00     0.074 A 
ATOM     35  C   UNL A   1      40.757  28.765  28.062  1.00  0.00     0.049 A 
ATOM     36  N   UNL A   1      41.231  29.463  31.191  1.00  0.00    -0.248 NA
ATOM     37  C   UNL A   1      39.252  28.258  31.256  1.00  0.00     0.031 C 
ATOM     38  C   UNL A   1      40.466  28.667  26.627  1.00  0.00     0.029 A 
ATOM     39  N   UNL A   1      41.939  28.105  28.173  1.00  0.00    -0.354 N 
ATOM     40  C   UNL A   1      41.078  28.911  32.461  1.00  0.00     0.074 A 
ATOM     41  C   UNL A   1      39.778  28.293  32.482  1.00  0.00     0.031 C 
ATOM     42  C   UNL A   1      41.321  27.793  26.053  1.00  0.00     0.029 A 
ATOM     43  C   UNL A   1      42.302  27.386  27.042  1.00  0.00     0.049 A 
ATOM     44  H   UNL A   1      42.492  28.134  28.986  1.00  0.00     0.167 HD
ATOM     45  C   UNL A   1      42.120  28.836  33.336  1.00  0.00     0.037 A 
ATOM     46  C   UNL A   1      43.313  26.488  26.942  1.00  0.00     0.037 A 
ATOM     47  C   UNL A   1      43.199  29.701  32.940  1.00  0.00     0.049 A 
ATOM     48  C   UNL A   1      44.234  26.734  28.080  1.00  0.00     0.074 A 
ATOM     49  C   UNL A   1      43.321  31.066  32.762  1.00  0.00     0.029 A 
ATOM     50  N   UNL A   1      44.273  29.143  32.294  1.00  0.00    -0.354 N 
ATOM     51  N   UNL A   1      44.975  27.802  28.190  1.00  0.00    -0.248 NA
ATOM     52  C   UNL A   1      43.979  26.019  29.324  1.00  0.00     0.031 C 
ATOM     53  C   UNL A   1      44.153  31.212  31.616  1.00  0.00     0.029 A 
ATOM     54  C   UNL A   1      44.544  29.936  31.208  1.00  0.00     0.049 A 
ATOM     55  H   UNL A   1      44.758  28.328  32.560  1.00  0.00     0.167 HD
ATOM     56  C   UNL A   1      44.915  28.133  29.537  1.00  0.00     0.074 A 
ATOM     57  C   UNL A   1      44.368  26.951  30.199  1.00  0.00     0.031 C 
ATOM     58  C   UNL A   1      45.032  29.429  29.948  1.00  0.00     0.037 A 
BRANCH  45  59
ATOM     59  C   UNL A   1      42.310  27.751  34.365  1.00  0.00     0.064 A 
ATOM     60  C   UNL A   1      42.890  26.524  33.979  1.00  0.00     0.173 A 
ATOM     61  C   UNL A   1      41.681  27.757  35.626  1.00  0.00     0.173 A 
ATOM     62  F   UNL A   1      43.496  26.399  32.789  1.00  0.00    -0.203 F 
ATOM     63  C   UNL A   1      42.778  25.375  34.766  1.00  0.00     0.198 A 
ATOM     64  C   UNL A   1      41.620  26.623  36.434  1.00  0.00     0.198 A 
ATOM     65  F   UNL A   1      41.003  28.821  36.076  1.00  0.00    -0.203 F 
ATOM     66  F   UNL A   1      43.233  24.203  34.302  1.00  0.00    -0.200 F 
ATOM     67  C   UNL A   1      42.138  25.424  35.990  1.00  0.00     0.200 A 
ATOM     68  F   UNL A   1      40.978  26.685  37.609  1.00  0.00    -0.200 F 
ATOM     69  F   UNL A   1      41.976  24.312  36.720  1.00  0.00    -0.200 F 
ENDBRANCH  45  59
BRANCH  46  70
ATOM     70  C   UNL A   1      43.405  25.291  26.073  1.00  0.00     0.064 A 
ATOM     71  C   UNL A   1      44.511  25.083  25.233  1.00  0.00     0.173 A 
ATOM     72  C   UNL A   1      42.529  24.198  26.234  1.00  0.00     0.173 A 
ATOM     73  F   UNL A   1      45.419  26.054  25.060  1.00  0.00    -0.203 F 
ATOM     74  C   UNL A   1      44.734  23.852  24.606  1.00  0.00     0.198 A 
ATOM     75  C   UNL A   1      42.748  22.975  25.600  1.00  0.00     0.198 A 
ATOM     76  F   UNL A   1      41.491  24.268  27.079  1.00  0.00    -0.203 F 
ATOM     77  F   UNL A   1      45.832  23.673  23.856  1.00  0.00    -0.200 F 
ATOM     78  C   UNL A   1      43.858  22.796  24.796  1.00  0.00     0.200 A 
ATOM     79  F   UNL A   1      41.910  21.951  25.822  1.00  0.00    -0.200 F 
ATOM     80  F   UNL A   1      44.102  21.601  24.241  1.00  0.00    -0.200 F 
ENDBRANCH  46  70
BRANCH  58  81
ATOM     81  C   UNL A   1      45.453  30.459  28.936  1.00  0.00     0.064 A 
ATOM     82  C   UNL A   1      44.552  31.164  28.118  1.00  0.00     0.173 A 
ATOM     83  C   UNL A   1      46.790  30.879  28.929  1.00  0.00     0.173 A 
ATOM     84  F   UNL A   1      43.243  30.896  28.141  1.00  0.00    -0.203 F 
ATOM     85  C   UNL A   1      44.976  32.216  27.310  1.00  0.00     0.198 A 
ATOM     86  C   UNL A   1      47.204  31.954  28.147  1.00  0.00     0.198 A 
ATOM     87  F   UNL A   1      47.684  30.282  29.732  1.00  0.00    -0.203 F 
ATOM     88  F   UNL A   1      44.093  32.870  26.540  1.00  0.00    -0.200 F 
ATOM     89  C   UNL A   1      46.300  32.618  27.334  1.00  0.00     0.200 A 
ATOM     90  F   UNL A   1      48.475  32.373  28.214  1.00  0.00    -0.200 F 
ATOM     91  F   UNL A   1      46.699  33.664  26.597  1.00  0.00    -0.200 F 
ENDBRANCH  58  81
ENDBRANCH  32  33
ENDBRANCH  24  27
ENDBRANCH  22  23
ENDBRANCH   1  22
TORSDOF 12
ENDMDL
MODEL 3
REMARK VINA RESULT:     -12.7      3.392      8.777
REMARK SMILES Cc1cccc2nc(C(=O)NCC(=O)NCCCNC(=O)c3ccc(-c4c5nc(c(-c6c(F)c(F)c(F)c(F)c6F)c6ccc([nH]6)c(-c6c(F)c(F)c(F)c(F)c6F)c6nc(c(-c7c(F)c(F)c(F)c(F)c7F)c7ccc4[nH]7)C=C6)C=C5)cc3)cn12
REMARK SMILES IDX 17 1 16 2 15 3 13 4 14 5 12 7 11 8 9 9 10 10 8 12 1 13 2 14
REMARK SMILES IDX 3 15 86 16 4 17 6 18 85 19 5 20 7 21 18 22 19 23 20 24 21 26
REMARK SMILES IDX 22 27 23 28 84 29 24 30 83 31 25 32 26 33 27 34 77 35 28 36
REMARK SMILES IDX 82 37 76 38 78 39 29 40 81 41 75 42 74 43 30 45 62 46 42 47
REMARK SMILES IDX 61 48 43 49 46 50 60 51 79 52 44 53 45 54 59 56 80 57 47 58
REMARK SMILES IDX 31 59 32 60 40 61 33 62 34 63 38 64 41 65 35 66 36 67 39 68
REMARK SMILES IDX 37 69 63 70 64 71 72 72 65 73 66 74 70 75 73 76 67 77 68 78
REMARK SMILES IDX 71 79 69 80 48 81 49 82 57 83 50 84 51 85 55 86 58 87 52 88
REMARK SMILES IDX 53 89 56 90 54 91
REMARK H PARENT 15 6 11 11 19 25 78 44 46 55
REMARK Flexibility Score: inf
ROOT
ATOM      1  C   UNL A   1      32.344  28.984  27.135  1.00  0.00     0.042 C 
ENDROOT
BRANCH   1   2
ATOM      2  C   UNL A   1      32.110  27.972  26.012  1.00  0.00     0.117 C 
BRANCH   2   3
ATOM      3  N   UNL A   1      31.251  28.488  24.966  1.00  0.00    -0.355 N 
ATOM      4  C   UNL A   1      31.570  28.820  23.680  1.00  0.00     0.239 C 
ATOM      5  O   UNL A   1      30.643  29.101  22.917  1.00  0.00    -0.273 OA
ATOM      6  H   UNL A   1      30.308  28.617  25.214  1.00  0.00     0.163 HD
BRANCH   4   7
ATOM      7  C   UNL A   1      33.016  28.739  23.170  1.00  0.00     0.216 C 
BRANCH   7   8
ATOM      8  N   UNL A   1      33.189  27.849  22.029  1.00  0.00    -0.342 N 
ATOM      9  C   UNL A   1      33.128  26.482  21.916  1.00  0.00     0.271 C 
ATOM     10  O   UNL A   1      33.341  25.998  20.803  1.00  0.00    -0.267 OA
ATOM     11  H   UNL A   1      33.384  28.313  21.183  1.00  0.00     0.164 HD
BRANCH   9  12
ATOM     12  C   UNL A   1      32.889  25.629  23.086  1.00  0.00     0.147 A 
ATOM     13  C   UNL A   1      35.256  23.498  26.123  1.00  0.00     0.065 C 
ATOM     14  C   UNL A   1      33.777  23.701  25.996  1.00  0.00     0.021 A 
ATOM     15  C   UNL A   1      32.909  23.188  26.894  1.00  0.00     0.022 A 
ATOM     16  N   UNL A   1      33.252  24.427  24.912  1.00  0.00    -0.304 N 
ATOM     17  C   UNL A   1      31.482  23.415  26.734  1.00  0.00     0.006 A 
ATOM     18  C   UNL A   1      31.889  24.630  24.716  1.00  0.00     0.137 A 
ATOM     19  C   UNL A   1      33.882  25.070  23.874  1.00  0.00     0.127 A 
ATOM     20  C   UNL A   1      30.994  24.104  25.687  1.00  0.00     0.048 A 
ATOM     21  N   UNL A   1      31.655  25.321  23.623  1.00  0.00    -0.223 NA
ENDBRANCH   9  12
ENDBRANCH   7   8
ENDBRANCH   4   7
ENDBRANCH   2   3
ENDBRANCH   1   2
BRANCH   1  22
ATOM     22  C   UNL A   1      33.816  29.350  27.253  1.00  0.00     0.118 C 
BRANCH  22  23
ATOM     23  N   UNL A   1      34.028  30.791  27.131  1.00  0.00    -0.352 N 
ATOM     24  C   UNL A   1      35.066  31.560  27.609  1.00  0.00     0.251 C 
ATOM     25  H   UNL A   1      33.330  31.282  26.638  1.00  0.00     0.163 HD
ATOM     26  O   UNL A   1      34.956  32.771  27.699  1.00  0.00    -0.269 OA
BRANCH  24  27
ATOM     27  C   UNL A   1      36.317  30.898  28.012  1.00  0.00     0.039 A 
ATOM     28  C   UNL A   1      36.562  29.571  27.640  1.00  0.00     0.014 A 
ATOM     29  C   UNL A   1      37.236  31.604  28.787  1.00  0.00     0.014 A 
ATOM     30  C   UNL A   1      37.767  28.979  28.000  1.00  0.00     0.010 A 
ATOM     31  C   UNL A   1      38.469  31.062  29.045  1.00  0.00     0.010 A 
ATOM     32  C   UNL A   1      38.718  29.736  28.694  1.00  0.00    -0.014 A 
BRANCH  32  33
ATOM     33  C   UNL A   1      40.029  29.184  29.002  1.00  0.00     0.031 A 
ATOM     34  C   UNL A   1      40.299  28.934  30.446  1.00  0.00     0.074 A 
ATOM     35  C   UNL A   1      40.824  28.696  28.027  1.00  0.00     0.049 A 
ATOM     36  N   UNL A   1      41.277  29.386  31.161  1.00  0.00    -0.248 NA
ATOM     37  C   UNL A   1      39.318  28.148  31.214  1.00  0.00     0.031 C 
ATOM     38  C   UNL A   1      40.539  28.601  26.591  1.00  0.00     0.029 A 
ATOM     39  N   UNL A   1      42.016  28.055  28.138  1.00  0.00    -0.354 N 
ATOM     40  C   UNL A   1      41.129  28.825  32.428  1.00  0.00     0.074 A 
ATOM     41  C   UNL A   1      39.839  28.186  32.442  1.00  0.00     0.031 C 
ATOM     42  C   UNL A   1      41.409  27.743  26.015  1.00  0.00     0.029 A 
ATOM     43  C   UNL A   1      42.395  27.348  27.005  1.00  0.00     0.049 A 
ATOM     44  H   UNL A   1      42.567  28.089  28.954  1.00  0.00     0.167 HD
ATOM     45  C   UNL A   1      42.170  28.763  33.306  1.00  0.00     0.037 A 
ATOM     46  C   UNL A   1      43.420  26.467  26.904  1.00  0.00     0.037 A 
ATOM     47  C   UNL A   1      43.235  29.648  32.917  1.00  0.00     0.049 A 
ATOM     48  C   UNL A   1      44.333  26.722  28.046  1.00  0.00     0.074 A 
ATOM     49  C   UNL A   1      43.336  31.016  32.747  1.00  0.00     0.029 A 
ATOM     50  N   UNL A   1      44.321  29.111  32.271  1.00  0.00    -0.354 N 
ATOM     51  N   UNL A   1      45.057  27.802  28.164  1.00  0.00    -0.248 NA
ATOM     52  C   UNL A   1      44.087  25.997  29.285  1.00  0.00     0.031 C 
ATOM     53  C   UNL A   1      44.169  31.181  31.604  1.00  0.00     0.029 A 
ATOM     54  C   UNL A   1      44.582  29.913  31.190  1.00  0.00     0.049 A 
ATOM     55  H   UNL A   1      44.818  28.303  32.535  1.00  0.00     0.167 HD
ATOM     56  C   UNL A   1      44.987  28.126  29.511  1.00  0.00     0.074 A 
ATOM     57  C   UNL A   1      44.458  26.931  30.166  1.00  0.00     0.031 C 
ATOM     58  C   UNL A   1      45.082  29.421  29.929  1.00  0.00     0.037 A 
BRANCH  45  59
ATOM     59  C   UNL A   1      42.375  27.677  34.330  1.00  0.00     0.064 A 
ATOM     60  C   UNL A   1      42.964  26.456  33.936  1.00  0.00     0.173 A 
ATOM     61  C   UNL A   1      41.752  27.673  35.594  1.00  0.00     0.173 A 
ATOM     62  F   UNL A   1      43.565  26.340  32.743  1.00  0.00    -0.203 F 
ATOM     63  C   UNL A   1      42.866  25.303  34.720  1.00  0.00     0.198 A 
ATOM     64  C   UNL A   1      41.705  26.536  36.398  1.00  0.00     0.198 A 
ATOM     65  F   UNL A   1      41.067  28.729  36.051  1.00  0.00    -0.203 F 
ATOM     66  F   UNL A   1      43.329  24.137  34.250  1.00  0.00    -0.200 F 
ATOM     67  C   UNL A   1      42.232  25.343  35.948  1.00  0.00     0.200 A 
ATOM     68  F   UNL A   1      41.068  26.587  37.576  1.00  0.00    -0.200 F 
ATOM     69  F   UNL A   1      42.083  24.226  36.674  1.00  0.00    -0.200 F 
ENDBRANCH  45  59
BRANCH  46  70
ATOM     70  C   UNL A   1      43.535  25.276  26.029  1.00  0.00     0.064 A 
ATOM     71  C   UNL A   1      44.681  25.050  25.250  1.00  0.00     0.173 A 
ATOM     72  C   UNL A   1      42.626  24.202  26.129  1.00  0.00     0.173 A 
ATOM     73  F   UNL A   1      45.619  26.002  25.139  1.00  0.00    -0.203 F 
ATOM     74  C   UNL A   1      44.912  23.820  24.624  1.00  0.00     0.198 A 
ATOM     75  C   UNL A   1      42.854  22.980  25.496  1.00  0.00     0.198 A 
ATOM     76  F   UNL A   1      41.544  24.288  26.916  1.00  0.00    -0.203 F 
ATOM     77  F   UNL A   1      46.046  23.623  23.936  1.00  0.00    -0.200 F 
ATOM     78  C   UNL A   1      44.003  22.783  24.754  1.00  0.00     0.200 A 
ATOM     79  F   UNL A   1      41.982  21.974  25.660  1.00  0.00    -0.200 F 
ATOM     80  F   UNL A   1      44.251  21.588  24.202  1.00  0.00    -0.200 F 
ENDBRANCH  46  70
BRANCH  58  81
ATOM     81  C   UNL A   1      45.489  30.463  28.923  1.00  0.00     0.064 A 
ATOM     82  C   UNL A   1      44.578  31.164  28.113  1.00  0.00     0.173 A 
ATOM     83  C   UNL A   1      46.821  30.897  28.916  1.00  0.00     0.173 A 
ATOM     84  F   UNL A   1      43.272  30.881  28.138  1.00  0.00    -0.203 F 
ATOM     85  C   UNL A   1      44.988  32.226  27.311  1.00  0.00     0.198 A 
ATOM     86  C   UNL A   1      47.222  31.983  28.141  1.00  0.00     0.198 A 
ATOM     87  F   UNL A   1      47.724  30.304  29.712  1.00  0.00    -0.203 F 
ATOM     88  F   UNL A   1      44.096  32.876  26.549  1.00  0.00    -0.200 F 
ATOM     89  C   UNL A   1      46.308  32.642  27.335  1.00  0.00     0.200 A 
ATOM     90  F   UNL A   1      48.488  32.415  28.207  1.00  0.00    -0.200 F 
ATOM     91  F   UNL A   1      46.693  33.698  26.604  1.00  0.00    -0.200 F 
ENDBRANCH  58  81
ENDBRANCH  32  33
ENDBRANCH  24  27
ENDBRANCH  22  23
ENDBRANCH   1  22
TORSDOF 12
ENDMDL
