MODEL 1
REMARK VINA RESULT:     -14.2      0.000      0.000
REMARK SMILES Cc1cccc(-c2cccc(O)c2)c1C(=O)NCCCNC(=O)c1ccc(-c2c3nc(c(-c4c(F)c(F)c(F)c(F)c4F)c4ccc([nH]4)c(-c4c(F)c(F)c(F)c(F)c4F)c4nc(c(-c5c(F)c(F)c(F)c(F)c5F)c5ccc2[nH]5)C=C4)C=C3)cc1
REMARK SMILES IDX 19 1 18 2 17 3 15 4 16 5 14 7 1 8 2 9 3 10 4 11 6 12 5 13
REMARK SMILES IDX 7 14 8 15 13 16 9 17 11 18 10 19 12 20 20 22 21 23 22 24
REMARK SMILES IDX 23 26 24 27 25 28 86 29 26 30 85 31 27 32 28 33 29 34 79 35
REMARK SMILES IDX 30 36 84 37 78 38 80 39 31 40 83 41 77 42 76 43 32 45 64 46
REMARK SMILES IDX 44 47 63 48 45 49 48 50 62 51 81 52 46 53 47 54 61 56 82 57
REMARK SMILES IDX 49 58 33 59 34 60 42 61 35 62 36 63 40 64 43 65 37 66 38 67
REMARK SMILES IDX 41 68 39 69 65 70 66 71 74 72 67 73 68 74 72 75 75 76 69 77
REMARK SMILES IDX 70 78 73 79 71 80 50 81 51 82 59 83 52 84 53 85 57 86 60 87
REMARK SMILES IDX 54 88 55 89 58 90 56 91
REMARK H PARENT 17 6 12 21 21 25 80 44 48 55
REMARK Flexibility Score: inf
ROOT
ATOM      1  C   UNL A   1      32.950  30.954  27.193  1.00  0.00     0.042 C 
ENDROOT
BRANCH   1   2
ATOM      2  C   UNL A   1      32.373  30.151  26.018  1.00  0.00     0.118 C 
BRANCH   2   3
ATOM      3  N   UNL A   1      31.778  28.912  26.489  1.00  0.00    -0.352 N 
ATOM      4  C   UNL A   1      31.427  27.683  25.983  1.00  0.00     0.252 C 
ATOM      5  O   UNL A   1      30.780  27.035  26.810  1.00  0.00    -0.269 OA
ATOM      6  H   UNL A   1      31.563  28.970  27.447  1.00  0.00     0.163 HD
BRANCH   4   7
ATOM      7  C   UNL A   1      31.763  27.076  24.625  1.00  0.00     0.050 A 
ATOM      8  C   UNL A   1      34.060  26.031  25.262  1.00  0.00     0.045 C 
ATOM      9  C   UNL A   1      32.890  26.247  24.357  1.00  0.00    -0.038 A 
ATOM     10  C   UNL A   1      33.059  25.631  23.093  1.00  0.00     0.004 A 
ATOM     11  C   UNL A   1      32.222  25.915  22.037  1.00  0.00     0.001 A 
ATOM     12  C   UNL A   1      30.937  27.420  23.496  1.00  0.00    -0.005 A 
ATOM     13  C   UNL A   1      31.202  26.825  22.231  1.00  0.00     0.009 A 
BRANCH  12  14
ATOM     14  C   UNL A   1      29.831  28.415  23.455  1.00  0.00    -0.014 A 
ATOM     15  C   UNL A   1      30.081  29.789  23.286  1.00  0.00     0.009 A 
ATOM     16  C   UNL A   1      28.491  27.991  23.385  1.00  0.00     0.055 A 
ATOM     17  C   UNL A   1      29.039  30.708  23.120  1.00  0.00     0.004 A 
ATOM     18  C   UNL A   1      27.461  28.904  23.166  1.00  0.00     0.116 A 
ATOM     19  C   UNL A   1      27.722  30.263  23.051  1.00  0.00     0.046 A 
BRANCH  18  20
ATOM     20  O   UNL A   1      26.195  28.413  23.040  1.00  0.00    -0.508 OA
ATOM     21  H   UNL A   1      25.903  28.077  22.215  1.00  0.00     0.293 HD
ENDBRANCH  18  20
ENDBRANCH  12  14
ENDBRANCH   4   7
ENDBRANCH   2   3
ENDBRANCH   1   2
BRANCH   1  22
ATOM     22  C   UNL A   1      34.050  30.276  27.994  1.00  0.00     0.118 C 
BRANCH  22  23
ATOM     23  N   UNL A   1      34.831  31.210  28.809  1.00  0.00    -0.352 N 
ATOM     24  C   UNL A   1      36.093  31.024  29.354  1.00  0.00     0.251 C 
ATOM     25  H   UNL A   1      34.407  32.079  28.993  1.00  0.00     0.163 HD
ATOM     26  O   UNL A   1      36.668  31.904  29.963  1.00  0.00    -0.269 OA
BRANCH  24  27
ATOM     27  C   UNL A   1      36.765  29.740  29.055  1.00  0.00     0.039 A 
ATOM     28  C   UNL A   1      37.238  29.006  30.144  1.00  0.00     0.014 A 
ATOM     29  C   UNL A   1      37.235  29.511  27.766  1.00  0.00     0.014 A 
ATOM     30  C   UNL A   1      38.384  28.236  29.983  1.00  0.00     0.010 A 
ATOM     31  C   UNL A   1      38.424  28.819  27.625  1.00  0.00     0.010 A 
ATOM     32  C   UNL A   1      39.039  28.251  28.749  1.00  0.00    -0.014 A 
BRANCH  32  33
ATOM     33  C   UNL A   1      40.407  27.770  28.586  1.00  0.00     0.031 A 
ATOM     34  C   UNL A   1      40.654  26.351  28.265  1.00  0.00     0.074 A 
ATOM     35  C   UNL A   1      41.466  28.599  28.732  1.00  0.00     0.049 A 
ATOM     36  N   UNL A   1      41.715  25.708  28.616  1.00  0.00    -0.248 NA
ATOM     37  C   UNL A   1      39.688  25.532  27.548  1.00  0.00     0.031 C 
ATOM     38  C   UNL A   1      42.863  28.298  28.424  1.00  0.00     0.029 A 
ATOM     39  N   UNL A   1      41.519  29.835  29.398  1.00  0.00    -0.354 N 
ATOM     40  C   UNL A   1      41.702  24.495  27.970  1.00  0.00     0.074 A 
ATOM     41  C   UNL A   1      40.391  24.412  27.364  1.00  0.00     0.031 C 
ATOM     42  C   UNL A   1      43.649  29.099  29.156  1.00  0.00     0.029 A 
ATOM     43  C   UNL A   1      42.790  29.873  30.030  1.00  0.00     0.049 A 
ATOM     44  H   UNL A   1      40.821  30.529  29.422  1.00  0.00     0.167 HD
ATOM     45  C   UNL A   1      42.842  23.747  27.920  1.00  0.00     0.037 A 
ATOM     46  C   UNL A   1      42.908  29.975  31.384  1.00  0.00     0.037 A 
ATOM     47  C   UNL A   1      43.944  24.376  28.648  1.00  0.00     0.049 A 
ATOM     48  C   UNL A   1      43.587  28.798  32.048  1.00  0.00     0.074 A 
ATOM     49  C   UNL A   1      45.046  25.128  28.273  1.00  0.00     0.029 A 
ATOM     50  N   UNL A   1      43.849  24.508  30.023  1.00  0.00    -0.354 N 
ATOM     51  N   UNL A   1      44.069  27.766  31.414  1.00  0.00    -0.248 NA
ATOM     52  C   UNL A   1      43.659  28.643  33.502  1.00  0.00     0.031 C 
ATOM     53  C   UNL A   1      45.623  25.693  29.445  1.00  0.00     0.029 A 
ATOM     54  C   UNL A   1      44.870  25.288  30.531  1.00  0.00     0.049 A 
ATOM     55  H   UNL A   1      43.140  24.098  30.570  1.00  0.00     0.167 HD
ATOM     56  C   UNL A   1      44.434  26.808  32.324  1.00  0.00     0.074 A 
ATOM     57  C   UNL A   1      44.156  27.401  33.617  1.00  0.00     0.031 C 
ATOM     58  C   UNL A   1      44.891  25.575  31.955  1.00  0.00     0.037 A 
BRANCH  45  59
ATOM     59  C   UNL A   1      43.018  22.566  26.994  1.00  0.00     0.064 A 
ATOM     60  C   UNL A   1      42.315  21.362  27.211  1.00  0.00     0.173 A 
ATOM     61  C   UNL A   1      43.903  22.539  25.901  1.00  0.00     0.173 A 
ATOM     62  F   UNL A   1      41.343  21.273  28.127  1.00  0.00    -0.203 F 
ATOM     63  C   UNL A   1      42.586  20.195  26.492  1.00  0.00     0.198 A 
ATOM     64  C   UNL A   1      44.225  21.358  25.225  1.00  0.00     0.198 A 
ATOM     65  F   UNL A   1      44.442  23.667  25.417  1.00  0.00    -0.203 F 
ATOM     66  F   UNL A   1      41.891  19.079  26.751  1.00  0.00    -0.200 F 
ATOM     67  C   UNL A   1      43.576  20.181  25.533  1.00  0.00     0.200 A 
ATOM     68  F   UNL A   1      45.169  21.373  24.273  1.00  0.00    -0.200 F 
ATOM     69  F   UNL A   1      43.882  19.047  24.886  1.00  0.00    -0.200 F 
ENDBRANCH  45  59
BRANCH  46  70
ATOM     70  C   UNL A   1      41.814  30.787  31.977  1.00  0.00     0.064 A 
ATOM     71  C   UNL A   1      40.756  30.096  32.600  1.00  0.00     0.173 A 
ATOM     72  C   UNL A   1      42.011  32.127  32.321  1.00  0.00     0.173 A 
ATOM     73  F   UNL A   1      40.515  28.813  32.285  1.00  0.00    -0.203 F 
ATOM     74  C   UNL A   1      40.057  30.664  33.659  1.00  0.00     0.198 A 
ATOM     75  C   UNL A   1      41.277  32.705  33.355  1.00  0.00     0.198 A 
ATOM     76  F   UNL A   1      42.999  32.837  31.757  1.00  0.00    -0.203 F 
ATOM     77  F   UNL A   1      39.176  29.926  34.352  1.00  0.00    -0.200 F 
ATOM     78  C   UNL A   1      40.345  31.957  34.060  1.00  0.00     0.200 A 
ATOM     79  F   UNL A   1      41.549  33.961  33.737  1.00  0.00    -0.200 F 
ATOM     80  F   UNL A   1      39.762  32.463  35.156  1.00  0.00    -0.200 F 
ENDBRANCH  46  70
BRANCH  58  81
ATOM     81  C   UNL A   1      45.363  24.536  32.937  1.00  0.00     0.064 A 
ATOM     82  C   UNL A   1      44.561  23.450  33.330  1.00  0.00     0.173 A 
ATOM     83  C   UNL A   1      46.606  24.648  33.597  1.00  0.00     0.173 A 
ATOM     84  F   UNL A   1      43.315  23.306  32.856  1.00  0.00    -0.203 F 
ATOM     85  C   UNL A   1      45.010  22.493  34.243  1.00  0.00     0.198 A 
ATOM     86  C   UNL A   1      47.029  23.721  34.549  1.00  0.00     0.198 A 
ATOM     87  F   UNL A   1      47.458  25.645  33.325  1.00  0.00    -0.203 F 
ATOM     88  F   UNL A   1      44.238  21.435  34.529  1.00  0.00    -0.200 F 
ATOM     89  C   UNL A   1      46.242  22.630  34.855  1.00  0.00     0.200 A 
ATOM     90  F   UNL A   1      48.210  23.891  35.161  1.00  0.00    -0.200 F 
ATOM     91  F   UNL A   1      46.666  21.718  35.739  1.00  0.00    -0.200 F 
ENDBRANCH  58  81
ENDBRANCH  32  33
ENDBRANCH  24  27
ENDBRANCH  22  23
ENDBRANCH   1  22
TORSDOF 12
ENDMDL
MODEL 2
REMARK VINA RESULT:     -14.2      4.657     10.581
REMARK SMILES Cc1cccc(-c2cccc(O)c2)c1C(=O)NCCCNC(=O)c1ccc(-c2c3nc(c(-c4c(F)c(F)c(F)c(F)c4F)c4ccc([nH]4)c(-c4c(F)c(F)c(F)c(F)c4F)c4nc(c(-c5c(F)c(F)c(F)c(F)c5F)c5ccc2[nH]5)C=C4)C=C3)cc1
REMARK SMILES IDX 19 1 18 2 17 3 15 4 16 5 14 7 1 8 2 9 3 10 4 11 6 12 5 13
REMARK SMILES IDX 7 14 8 15 13 16 9 17 11 18 10 19 12 20 20 22 21 23 22 24
REMARK SMILES IDX 23 26 24 27 25 28 86 29 26 30 85 31 27 32 28 33 29 34 79 35
REMARK SMILES IDX 30 36 84 37 78 38 80 39 31 40 83 41 77 42 76 43 32 45 64 46
REMARK SMILES IDX 44 47 63 48 45 49 48 50 62 51 81 52 46 53 47 54 61 56 82 57
REMARK SMILES IDX 49 58 33 59 34 60 42 61 35 62 36 63 40 64 43 65 37 66 38 67
REMARK SMILES IDX 41 68 39 69 65 70 66 71 74 72 67 73 68 74 72 75 75 76 69 77
REMARK SMILES IDX 70 78 73 79 71 80 50 81 51 82 59 83 52 84 53 85 57 86 60 87
REMARK SMILES IDX 54 88 55 89 58 90 56 91
REMARK H PARENT 17 6 12 21 21 25 80 44 48 55
REMARK Flexibility Score: inf
ROOT
ATOM      1  C   UNL A   1      38.402  21.621  25.515  1.00  0.00     0.042 C 
ENDROOT
BRANCH   1   2
ATOM      2  C   UNL A   1      36.896  21.345  25.397  1.00  0.00     0.118 C 
BRANCH   2   3
ATOM      3  N   UNL A   1      36.336  22.051  24.256  1.00  0.00    -0.352 N 
ATOM      4  C   UNL A   1      35.113  22.512  23.832  1.00  0.00     0.252 C 
ATOM      5  O   UNL A   1      35.172  22.908  22.666  1.00  0.00    -0.269 OA
ATOM      6  H   UNL A   1      37.036  22.257  23.595  1.00  0.00     0.163 HD
BRANCH   4   7
ATOM      7  C   UNL A   1      33.805  22.609  24.610  1.00  0.00     0.050 A 
ATOM      8  C   UNL A   1      34.238  24.910  25.746  1.00  0.00     0.045 C 
ATOM      9  C   UNL A   1      33.387  23.740  25.369  1.00  0.00    -0.038 A 
ATOM     10  C   UNL A   1      32.103  23.787  25.963  1.00  0.00     0.004 A 
ATOM     11  C   UNL A   1      31.263  22.695  25.949  1.00  0.00     0.001 A 
ATOM     12  C   UNL A   1      32.950  21.451  24.663  1.00  0.00    -0.005 A 
ATOM     13  C   UNL A   1      31.702  21.535  25.340  1.00  0.00     0.009 A 
BRANCH  12  14
ATOM     14  C   UNL A   1      33.240  20.089  24.136  1.00  0.00    -0.014 A 
ATOM     15  C   UNL A   1      34.180  19.244  24.754  1.00  0.00     0.009 A 
ATOM     16  C   UNL A   1      32.438  19.530  23.124  1.00  0.00     0.055 A 
ATOM     17  C   UNL A   1      34.360  17.921  24.338  1.00  0.00     0.004 A 
ATOM     18  C   UNL A   1      32.586  18.195  22.750  1.00  0.00     0.116 A 
ATOM     19  C   UNL A   1      33.553  17.390  23.336  1.00  0.00     0.046 A 
BRANCH  18  20
ATOM     20  O   UNL A   1      31.728  17.702  21.810  1.00  0.00    -0.508 OA
ATOM     21  H   UNL A   1      30.943  18.169  21.601  1.00  0.00     0.293 HD
ENDBRANCH  18  20
ENDBRANCH  12  14
ENDBRANCH   4   7
ENDBRANCH   2   3
ENDBRANCH   1   2
BRANCH   1  22
ATOM     22  C   UNL A   1      38.796  23.005  26.005  1.00  0.00     0.118 C 
BRANCH  22  23
ATOM     23  N   UNL A   1      40.224  23.128  26.305  1.00  0.00    -0.352 N 
ATOM     24  C   UNL A   1      40.914  24.248  26.745  1.00  0.00     0.251 C 
ATOM     25  H   UNL A   1      40.762  22.313  26.179  1.00  0.00     0.163 HD
ATOM     26  O   UNL A   1      42.097  24.209  27.022  1.00  0.00    -0.269 OA
BRANCH  24  27
ATOM     27  C   UNL A   1      40.118  25.472  26.980  1.00  0.00     0.039 A 
ATOM     28  C   UNL A   1      40.616  26.662  26.447  1.00  0.00     0.014 A 
ATOM     29  C   UNL A   1      39.172  25.474  28.000  1.00  0.00     0.014 A 
ATOM     30  C   UNL A   1      40.374  27.851  27.127  1.00  0.00     0.010 A 
ATOM     31  C   UNL A   1      39.006  26.639  28.726  1.00  0.00     0.010 A 
ATOM     32  C   UNL A   1      39.673  27.807  28.334  1.00  0.00    -0.014 A 
BRANCH  32  33
ATOM     33  C   UNL A   1      39.672  28.920  29.277  1.00  0.00     0.031 A 
ATOM     34  C   UNL A   1      38.654  29.982  29.161  1.00  0.00     0.074 A 
ATOM     35  C   UNL A   1      40.597  29.010  30.260  1.00  0.00     0.049 A 
ATOM     36  N   UNL A   1      38.844  31.205  29.523  1.00  0.00    -0.248 NA
ATOM     37  C   UNL A   1      37.341  29.745  28.580  1.00  0.00     0.031 C 
ATOM     38  C   UNL A   1      40.607  29.962  31.369  1.00  0.00     0.029 A 
ATOM     39  N   UNL A   1      41.851  28.380  30.336  1.00  0.00    -0.354 N 
ATOM     40  C   UNL A   1      37.632  31.849  29.473  1.00  0.00     0.074 A 
ATOM     41  C   UNL A   1      36.740  30.912  28.824  1.00  0.00     0.031 C 
ATOM     42  C   UNL A   1      41.868  30.109  31.802  1.00  0.00     0.029 A 
ATOM     43  C   UNL A   1      42.722  29.334  30.924  1.00  0.00     0.049 A 
ATOM     44  H   UNL A   1      42.078  27.468  30.042  1.00  0.00     0.167 HD
ATOM     45  C   UNL A   1      37.485  33.058  30.091  1.00  0.00     0.037 A 
ATOM     46  C   UNL A   1      43.821  29.797  30.263  1.00  0.00     0.037 A 
ATOM     47  C   UNL A   1      38.733  33.517  30.700  1.00  0.00     0.049 A 
ATOM     48  C   UNL A   1      43.806  31.283  29.979  1.00  0.00     0.074 A 
ATOM     49  C   UNL A   1      39.239  33.508  31.990  1.00  0.00     0.029 A 
ATOM     50  N   UNL A   1      39.800  33.837  29.879  1.00  0.00    -0.354 N 
ATOM     51  N   UNL A   1      42.859  32.099  30.350  1.00  0.00    -0.248 NA
ATOM     52  C   UNL A   1      44.808  31.938  29.138  1.00  0.00     0.031 C 
ATOM     53  C   UNL A   1      40.620  33.851  31.932  1.00  0.00     0.029 A 
ATOM     54  C   UNL A   1      40.953  34.064  30.607  1.00  0.00     0.049 A 
ATOM     55  H   UNL A   1      39.746  33.895  28.897  1.00  0.00     0.167 HD
ATOM     56  C   UNL A   1      43.064  33.322  29.767  1.00  0.00     0.074 A 
ATOM     57  C   UNL A   1      44.294  33.172  29.015  1.00  0.00     0.031 C 
ATOM     58  C   UNL A   1      42.185  34.360  29.897  1.00  0.00     0.037 A 
BRANCH  45  59
ATOM     59  C   UNL A   1      36.141  33.696  30.352  1.00  0.00     0.064 A 
ATOM     60  C   UNL A   1      35.349  34.184  29.291  1.00  0.00     0.173 A 
ATOM     61  C   UNL A   1      35.598  33.904  31.634  1.00  0.00     0.173 A 
ATOM     62  F   UNL A   1      35.666  33.944  28.013  1.00  0.00    -0.203 F 
ATOM     63  C   UNL A   1      34.194  34.940  29.504  1.00  0.00     0.198 A 
ATOM     64  C   UNL A   1      34.481  34.717  31.852  1.00  0.00     0.198 A 
ATOM     65  F   UNL A   1      36.098  33.280  32.709  1.00  0.00    -0.203 F 
ATOM     66  F   UNL A   1      33.488  35.383  28.454  1.00  0.00    -0.200 F 
ATOM     67  C   UNL A   1      33.788  35.249  30.785  1.00  0.00     0.200 A 
ATOM     68  F   UNL A   1      34.083  34.979  33.105  1.00  0.00    -0.200 F 
ATOM     69  F   UNL A   1      32.717  36.028  30.990  1.00  0.00    -0.200 F 
ENDBRANCH  45  59
BRANCH  46  70
ATOM     70  C   UNL A   1      44.420  28.758  29.387  1.00  0.00     0.064 A 
ATOM     71  C   UNL A   1      45.167  27.737  30.007  1.00  0.00     0.173 A 
ATOM     72  C   UNL A   1      43.918  28.515  28.105  1.00  0.00     0.173 A 
ATOM     73  F   UNL A   1      45.687  27.934  31.228  1.00  0.00    -0.203 F 
ATOM     74  C   UNL A   1      45.240  26.466  29.449  1.00  0.00     0.198 A 
ATOM     75  C   UNL A   1      44.031  27.249  27.532  1.00  0.00     0.198 A 
ATOM     76  F   UNL A   1      43.204  29.450  27.463  1.00  0.00    -0.203 F 
ATOM     77  F   UNL A   1      45.805  25.463  30.139  1.00  0.00    -0.200 F 
ATOM     78  C   UNL A   1      44.638  26.213  28.228  1.00  0.00     0.200 A 
ATOM     79  F   UNL A   1      43.457  27.007  26.345  1.00  0.00    -0.200 F 
ATOM     80  F   UNL A   1      44.599  24.963  27.747  1.00  0.00    -0.200 F 
ENDBRANCH  46  70
BRANCH  58  81
ATOM     81  C   UNL A   1      42.426  35.730  29.323  1.00  0.00     0.064 A 
ATOM     82  C   UNL A   1      41.861  36.148  28.106  1.00  0.00     0.173 A 
ATOM     83  C   UNL A   1      43.318  36.642  29.928  1.00  0.00     0.173 A 
ATOM     84  F   UNL A   1      41.089  35.323  27.384  1.00  0.00    -0.203 F 
ATOM     85  C   UNL A   1      42.093  37.423  27.583  1.00  0.00     0.198 A 
ATOM     86  C   UNL A   1      43.591  37.893  29.375  1.00  0.00     0.198 A 
ATOM     87  F   UNL A   1      43.936  36.360  31.083  1.00  0.00    -0.203 F 
ATOM     88  F   UNL A   1      41.471  37.803  26.458  1.00  0.00    -0.200 F 
ATOM     89  C   UNL A   1      42.960  38.293  28.215  1.00  0.00     0.200 A 
ATOM     90  F   UNL A   1      44.465  38.710  29.982  1.00  0.00    -0.200 F 
ATOM     91  F   UNL A   1      43.192  39.511  27.707  1.00  0.00    -0.200 F 
ENDBRANCH  58  81
ENDBRANCH  32  33
ENDBRANCH  24  27
ENDBRANCH  22  23
ENDBRANCH   1  22
TORSDOF 12
ENDMDL
MODEL 3
REMARK VINA RESULT:     -14.2      0.880      1.496
REMARK SMILES Cc1cccc(-c2cccc(O)c2)c1C(=O)NCCCNC(=O)c1ccc(-c2c3nc(c(-c4c(F)c(F)c(F)c(F)c4F)c4ccc([nH]4)c(-c4c(F)c(F)c(F)c(F)c4F)c4nc(c(-c5c(F)c(F)c(F)c(F)c5F)c5ccc2[nH]5)C=C4)C=C3)cc1
REMARK SMILES IDX 19 1 18 2 17 3 15 4 16 5 14 7 1 8 2 9 3 10 4 11 6 12 5 13
REMARK SMILES IDX 7 14 8 15 13 16 9 17 11 18 10 19 12 20 20 22 21 23 22 24
REMARK SMILES IDX 23 26 24 27 25 28 86 29 26 30 85 31 27 32 28 33 29 34 79 35
REMARK SMILES IDX 30 36 84 37 78 38 80 39 31 40 83 41 77 42 76 43 32 45 64 46
REMARK SMILES IDX 44 47 63 48 45 49 48 50 62 51 81 52 46 53 47 54 61 56 82 57
REMARK SMILES IDX 49 58 33 59 34 60 42 61 35 62 36 63 40 64 43 65 37 66 38 67
REMARK SMILES IDX 41 68 39 69 65 70 66 71 74 72 67 73 68 74 72 75 75 76 69 77
REMARK SMILES IDX 70 78 73 79 71 80 50 81 51 82 59 83 52 84 53 85 57 86 60 87
REMARK SMILES IDX 54 88 55 89 58 90 56 91
REMARK H PARENT 17 6 12 21 21 25 80 44 48 55
REMARK Flexibility Score: inf
ROOT
ATOM      1  C   UNL A   1      32.799  30.672  27.211  1.00  0.00     0.042 C 
ENDROOT
BRANCH   1   2
ATOM      2  C   UNL A   1      32.205  29.951  25.992  1.00  0.00     0.118 C 
BRANCH   2   3
ATOM      3  N   UNL A   1      31.643  28.669  26.381  1.00  0.00    -0.352 N 
ATOM      4  C   UNL A   1      31.346  27.458  25.802  1.00  0.00     0.252 C 
ATOM      5  O   UNL A   1      30.703  26.746  26.577  1.00  0.00    -0.269 OA
ATOM      6  H   UNL A   1      31.404  28.668  27.336  1.00  0.00     0.163 HD
BRANCH   4   7
ATOM      7  C   UNL A   1      31.735  26.937  24.423  1.00  0.00     0.050 A 
ATOM      8  C   UNL A   1      34.030  25.896  25.070  1.00  0.00     0.045 C 
ATOM      9  C   UNL A   1      32.885  26.144  24.142  1.00  0.00    -0.038 A 
ATOM     10  C   UNL A   1      33.103  25.606  22.852  1.00  0.00     0.004 A 
ATOM     11  C   UNL A   1      32.294  25.936  21.787  1.00  0.00     0.001 A 
ATOM     12  C   UNL A   1      30.938  27.333  23.290  1.00  0.00    -0.005 A 
ATOM     13  C   UNL A   1      31.251  26.817  22.002  1.00  0.00     0.009 A 
BRANCH  12  14
ATOM     14  C   UNL A   1      29.815  28.309  23.272  1.00  0.00    -0.014 A 
ATOM     15  C   UNL A   1      30.028  29.673  23.004  1.00  0.00     0.009 A 
ATOM     16  C   UNL A   1      28.480  27.865  23.325  1.00  0.00     0.055 A 
ATOM     17  C   UNL A   1      28.962  30.568  22.861  1.00  0.00     0.004 A 
ATOM     18  C   UNL A   1      27.423  28.751  23.128  1.00  0.00     0.116 A 
ATOM     19  C   UNL A   1      27.652  30.104  22.915  1.00  0.00     0.046 A 
BRANCH  18  20
ATOM     20  O   UNL A   1      26.158  28.238  23.124  1.00  0.00    -0.508 OA
ATOM     21  H   UNL A   1      25.961  27.474  23.631  1.00  0.00     0.293 HD
ENDBRANCH  18  20
ENDBRANCH  12  14
ENDBRANCH   4   7
ENDBRANCH   2   3
ENDBRANCH   1   2
BRANCH   1  22
ATOM     22  C   UNL A   1      34.167  30.196  27.673  1.00  0.00     0.118 C 
BRANCH  22  23
ATOM     23  N   UNL A   1      34.800  31.101  28.636  1.00  0.00    -0.352 N 
ATOM     24  C   UNL A   1      36.037  30.970  29.249  1.00  0.00     0.251 C 
ATOM     25  H   UNL A   1      34.282  31.903  28.876  1.00  0.00     0.163 HD
ATOM     26  O   UNL A   1      36.484  31.826  29.987  1.00  0.00    -0.269 OA
BRANCH  24  27
ATOM     27  C   UNL A   1      36.848  29.792  28.870  1.00  0.00     0.039 A 
ATOM     28  C   UNL A   1      37.266  28.954  29.905  1.00  0.00     0.014 A 
ATOM     29  C   UNL A   1      37.471  29.777  27.626  1.00  0.00     0.014 A 
ATOM     30  C   UNL A   1      38.487  28.299  29.782  1.00  0.00     0.010 A 
ATOM     31  C   UNL A   1      38.725  29.201  27.538  1.00  0.00     0.010 A 
ATOM     32  C   UNL A   1      39.265  28.532  28.645  1.00  0.00    -0.014 A 
BRANCH  32  33
ATOM     33  C   UNL A   1      40.680  28.180  28.583  1.00  0.00     0.031 A 
ATOM     34  C   UNL A   1      41.085  26.849  28.092  1.00  0.00     0.074 A 
ATOM     35  C   UNL A   1      41.638  29.049  28.977  1.00  0.00     0.049 A 
ATOM     36  N   UNL A   1      42.154  26.235  28.474  1.00  0.00    -0.248 NA
ATOM     37  C   UNL A   1      40.281  26.084  27.151  1.00  0.00     0.031 C 
ATOM     38  C   UNL A   1      43.082  28.898  28.803  1.00  0.00     0.029 A 
ATOM     39  N   UNL A   1      41.507  30.167  29.817  1.00  0.00    -0.354 N 
ATOM     40  C   UNL A   1      42.321  25.140  27.662  1.00  0.00     0.074 A 
ATOM     41  C   UNL A   1      41.097  25.058  26.894  1.00  0.00     0.031 C 
ATOM     42  C   UNL A   1      43.708  29.631  29.736  1.00  0.00     0.029 A 
ATOM     43  C   UNL A   1      42.692  30.197  30.600  1.00  0.00     0.049 A 
ATOM     44  H   UNL A   1      40.752  30.798  29.857  1.00  0.00     0.167 HD
ATOM     45  C   UNL A   1      43.521  24.490  27.644  1.00  0.00     0.037 A 
ATOM     46  C   UNL A   1      42.649  30.097  31.959  1.00  0.00     0.037 A 
ATOM     47  C   UNL A   1      44.475  25.076  28.586  1.00  0.00     0.049 A 
ATOM     48  C   UNL A   1      43.353  28.882  32.523  1.00  0.00     0.074 A 
ATOM     49  C   UNL A   1      45.540  25.953  28.463  1.00  0.00     0.029 A 
ATOM     50  N   UNL A   1      44.216  24.986  29.943  1.00  0.00    -0.354 N 
ATOM     51  N   UNL A   1      43.991  27.997  31.809  1.00  0.00    -0.248 NA
ATOM     52  C   UNL A   1      43.276  28.509  33.936  1.00  0.00     0.031 C 
ATOM     53  C   UNL A   1      45.932  26.369  29.767  1.00  0.00     0.029 A 
ATOM     54  C   UNL A   1      45.102  25.749  30.682  1.00  0.00     0.049 A 
ATOM     55  H   UNL A   1      43.490  24.447  30.334  1.00  0.00     0.167 HD
ATOM     56  C   UNL A   1      44.337  26.938  32.608  1.00  0.00     0.074 A 
ATOM     57  C   UNL A   1      43.865  27.303  33.930  1.00  0.00     0.031 C 
ATOM     58  C   UNL A   1      44.939  25.812  32.124  1.00  0.00     0.037 A 
BRANCH  45  59
ATOM     59  C   UNL A   1      43.902  23.482  26.585  1.00  0.00     0.064 A 
ATOM     60  C   UNL A   1      43.365  22.178  26.597  1.00  0.00     0.173 A 
ATOM     61  C   UNL A   1      44.832  23.725  25.557  1.00  0.00     0.173 A 
ATOM     62  F   UNL A   1      42.373  21.836  27.429  1.00  0.00    -0.203 F 
ATOM     63  C   UNL A   1      43.828  21.168  25.751  1.00  0.00     0.198 A 
ATOM     64  C   UNL A   1      45.346  22.701  24.755  1.00  0.00     0.198 A 
ATOM     65  F   UNL A   1      45.229  24.970  25.261  1.00  0.00    -0.203 F 
ATOM     66  F   UNL A   1      43.284  19.945  25.816  1.00  0.00    -0.200 F 
ATOM     67  C   UNL A   1      44.854  21.417  24.864  1.00  0.00     0.200 A 
ATOM     68  F   UNL A   1      46.322  22.972  23.876  1.00  0.00    -0.200 F 
ATOM     69  F   UNL A   1      45.344  20.435  24.096  1.00  0.00    -0.200 F 
ENDBRANCH  45  59
BRANCH  46  70
ATOM     70  C   UNL A   1      41.429  30.727  32.524  1.00  0.00     0.064 A 
ATOM     71  C   UNL A   1      41.376  32.134  32.549  1.00  0.00     0.173 A 
ATOM     72  C   UNL A   1      40.222  30.026  32.601  1.00  0.00     0.173 A 
ATOM     73  F   UNL A   1      42.511  32.849  32.500  1.00  0.00    -0.203 F 
ATOM     74  C   UNL A   1      40.162  32.806  32.458  1.00  0.00     0.198 A 
ATOM     75  C   UNL A   1      39.006  30.707  32.552  1.00  0.00     0.198 A 
ATOM     76  F   UNL A   1      40.210  28.685  32.586  1.00  0.00    -0.203 F 
ATOM     77  F   UNL A   1      40.144  34.138  32.306  1.00  0.00    -0.200 F 
ATOM     78  C   UNL A   1      38.979  32.088  32.421  1.00  0.00     0.200 A 
ATOM     79  F   UNL A   1      37.860  30.012  32.526  1.00  0.00    -0.200 F 
ATOM     80  F   UNL A   1      37.818  32.723  32.209  1.00  0.00    -0.200 F 
ENDBRANCH  46  70
BRANCH  58  81
ATOM     81  C   UNL A   1      45.390  24.670  32.994  1.00  0.00     0.064 A 
ATOM     82  C   UNL A   1      44.543  23.600  33.333  1.00  0.00     0.173 A 
ATOM     83  C   UNL A   1      46.662  24.658  33.605  1.00  0.00     0.173 A 
ATOM     84  F   UNL A   1      43.273  23.564  32.905  1.00  0.00    -0.203 F 
ATOM     85  C   UNL A   1      44.972  22.546  34.143  1.00  0.00     0.198 A 
ATOM     86  C   UNL A   1      47.070  23.633  34.457  1.00  0.00     0.198 A 
ATOM     87  F   UNL A   1      47.560  25.628  33.378  1.00  0.00    -0.203 F 
ATOM     88  F   UNL A   1      44.153  21.512  34.376  1.00  0.00    -0.200 F 
ATOM     89  C   UNL A   1      46.233  22.564  34.708  1.00  0.00     0.200 A 
ATOM     90  F   UNL A   1      48.282  23.686  35.027  1.00  0.00    -0.200 F 
ATOM     91  F   UNL A   1      46.640  21.559  35.494  1.00  0.00    -0.200 F 
ENDBRANCH  58  81
ENDBRANCH  32  33
ENDBRANCH  24  27
ENDBRANCH  22  23
ENDBRANCH   1  22
TORSDOF 12
ENDMDL
