MODEL 1
REMARK VINA RESULT:     -14.3      0.000      0.000
REMARK SMILES C[C@H]1CCc2sc3ncn4nc(/C=C\C(=O)NCCCNC(=O)c5ccc(-c6c7nc(c(-c8c(F)c(F)c(F)c(F)c8F)c8ccc([nH]8)c(-c8c(F)c(F)c(F)c(F)c8F)c8nc(c(-c9c(F)c(F)c(F)c(F)c9F)c9ccc6[nH]9)C=C8)C=C7)cc5)nc4c3c2C1
REMARK SMILES IDX 19 1 18 2 17 3 15 4 16 5 14 7 13 8 12 9 1 10 2 11 3 12 91 13
REMARK SMILES IDX 4 14 90 15 5 16 89 17 6 18 7 19 88 20 8 21 10 22 87 23 9 24
REMARK SMILES IDX 11 25 20 26 21 27 22 28 23 30 24 31 25 32 86 33 26 34 85 35
REMARK SMILES IDX 27 36 28 37 29 38 79 39 30 40 84 41 78 42 80 43 31 44 83 45
REMARK SMILES IDX 77 46 76 47 32 49 64 50 44 51 63 52 45 53 48 54 62 55 81 56
REMARK SMILES IDX 46 57 47 58 61 60 82 61 49 62 33 63 34 64 42 65 35 66 36 67
REMARK SMILES IDX 40 68 43 69 37 70 38 71 41 72 39 73 65 74 66 75 74 76 67 77
REMARK SMILES IDX 68 78 72 79 75 80 69 81 70 82 73 83 71 84 50 85 51 86 59 87
REMARK SMILES IDX 52 88 53 89 57 90 60 91 54 92 55 93 58 94 56 95
REMARK H PARENT 17 6 21 29 80 48 48 59
REMARK Flexibility Score: inf
ROOT
ATOM      1  C   UNL A   1      40.928  20.595  26.072  1.00  0.00     0.042 C 
ENDROOT
BRANCH   1   2
ATOM      2  C   UNL A   1      40.041  21.529  26.872  1.00  0.00     0.118 C 
BRANCH   2   3
ATOM      3  N   UNL A   1      39.263  22.510  26.147  1.00  0.00    -0.352 N 
ATOM      4  C   UNL A   1      38.041  22.384  25.555  1.00  0.00     0.244 C 
ATOM      5  O   UNL A   1      37.453  23.399  25.179  1.00  0.00    -0.270 OA
ATOM      6  H   UNL A   1      39.675  23.399  26.071  1.00  0.00     0.163 HD
BRANCH   4   7
ATOM      7  C   UNL A   1      37.485  21.064  25.167  1.00  0.00     0.075 C 
ATOM      8  C   UNL A   1      36.228  20.602  25.071  1.00  0.00     0.057 C 
BRANCH   8   9
ATOM      9  C   UNL A   1      34.993  21.249  25.375  1.00  0.00     0.175 A 
ATOM     10  C   UNL A   1      32.291  25.879  21.047  1.00  0.00     0.008 C 
ATOM     11  C   UNL A   1      33.371  26.342  22.015  1.00  0.00    -0.009 C 
ATOM     12  C   UNL A   1      32.916  27.629  22.726  1.00  0.00     0.009 C 
ATOM     13  C   UNL A   1      33.786  25.215  22.989  1.00  0.00     0.041 C 
ATOM     14  C   UNL A   1      31.867  27.437  23.830  1.00  0.00     0.047 C 
ATOM     15  C   UNL A   1      32.895  25.113  24.189  1.00  0.00    -0.020 A 
ATOM     16  C   UNL A   1      32.048  26.143  24.559  1.00  0.00     0.011 A 
ATOM     17  C   UNL A   1      32.847  24.081  25.165  1.00  0.00     0.060 A 
ATOM     18  S   UNL A   1      31.178  25.813  25.993  1.00  0.00    -0.120 S 
ATOM     19  C   UNL A   1      32.048  24.367  26.264  1.00  0.00     0.129 A 
ATOM     20  C   UNL A   1      33.600  22.817  25.304  1.00  0.00     0.168 A 
ATOM     21  N   UNL A   1      31.950  23.669  27.447  1.00  0.00    -0.225 NA
ATOM     22  N   UNL A   1      33.508  22.167  26.501  1.00  0.00    -0.201 N 
ATOM     23  N   UNL A   1      34.491  22.231  24.542  1.00  0.00    -0.207 NA
ATOM     24  C   UNL A   1      32.715  22.612  27.557  1.00  0.00     0.227 A 
ATOM     25  N   UNL A   1      34.384  21.149  26.572  1.00  0.00    -0.145 NA
ENDBRANCH   8   9
ENDBRANCH   4   7
ENDBRANCH   2   3
ENDBRANCH   1   2
BRANCH   1  26
ATOM     26  C   UNL A   1      42.135  20.095  26.866  1.00  0.00     0.118 C 
BRANCH  26  27
ATOM     27  N   UNL A   1      43.266  19.646  26.044  1.00  0.00    -0.352 N 
ATOM     28  C   UNL A   1      44.028  20.381  25.160  1.00  0.00     0.251 C 
ATOM     29  H   UNL A   1      43.513  18.697  26.136  1.00  0.00     0.163 HD
ATOM     30  O   UNL A   1      44.503  19.817  24.161  1.00  0.00    -0.269 OA
BRANCH  28  31
ATOM     31  C   UNL A   1      44.256  21.822  25.367  1.00  0.00     0.039 A 
ATOM     32  C   UNL A   1      43.484  22.781  24.705  1.00  0.00     0.014 A 
ATOM     33  C   UNL A   1      45.236  22.230  26.270  1.00  0.00     0.014 A 
ATOM     34  C   UNL A   1      43.593  24.115  25.087  1.00  0.00     0.010 A 
ATOM     35  C   UNL A   1      45.261  23.519  26.749  1.00  0.00     0.010 A 
ATOM     36  C   UNL A   1      44.421  24.459  26.176  1.00  0.00    -0.014 A 
BRANCH  36  37
ATOM     37  C   UNL A   1      44.065  25.613  26.999  1.00  0.00     0.031 A 
ATOM     38  C   UNL A   1      44.977  26.750  26.680  1.00  0.00     0.074 A 
ATOM     39  C   UNL A   1      42.921  25.787  27.690  1.00  0.00     0.049 A 
ATOM     40  N   UNL A   1      45.965  27.168  27.397  1.00  0.00    -0.248 NA
ATOM     41  C   UNL A   1      44.975  27.294  25.307  1.00  0.00     0.031 C 
ATOM     42  C   UNL A   1      41.764  24.893  27.762  1.00  0.00     0.029 A 
ATOM     43  N   UNL A   1      42.510  26.868  28.416  1.00  0.00    -0.354 N 
ATOM     44  C   UNL A   1      46.536  28.207  26.669  1.00  0.00     0.074 A 
ATOM     45  C   UNL A   1      46.078  28.047  25.318  1.00  0.00     0.031 C 
ATOM     46  C   UNL A   1      40.713  25.551  28.308  1.00  0.00     0.029 A 
ATOM     47  C   UNL A   1      41.162  26.853  28.770  1.00  0.00     0.049 A 
ATOM     48  H   UNL A   1      43.118  27.601  28.670  1.00  0.00     0.167 HD
ATOM     49  C   UNL A   1      47.019  29.298  27.324  1.00  0.00     0.037 A 
ATOM     50  C   UNL A   1      40.483  27.851  29.394  1.00  0.00     0.037 A 
ATOM     51  C   UNL A   1      47.108  29.016  28.736  1.00  0.00     0.049 A 
ATOM     52  C   UNL A   1      41.496  28.698  30.066  1.00  0.00     0.074 A 
ATOM     53  C   UNL A   1      47.915  28.255  29.553  1.00  0.00     0.029 A 
ATOM     54  N   UNL A   1      45.926  29.224  29.400  1.00  0.00    -0.354 N 
ATOM     55  N   UNL A   1      42.217  28.289  31.072  1.00  0.00    -0.248 NA
ATOM     56  C   UNL A   1      41.973  29.905  29.398  1.00  0.00     0.031 C 
ATOM     57  C   UNL A   1      47.110  27.887  30.673  1.00  0.00     0.029 A 
ATOM     58  C   UNL A   1      45.856  28.482  30.546  1.00  0.00     0.049 A 
ATOM     59  H   UNL A   1      45.218  29.832  29.090  1.00  0.00     0.167 HD
ATOM     60  C   UNL A   1      43.435  28.909  30.886  1.00  0.00     0.074 A 
ATOM     61  C   UNL A   1      43.175  30.014  29.970  1.00  0.00     0.031 C 
ATOM     62  C   UNL A   1      44.591  28.265  31.209  1.00  0.00     0.037 A 
BRANCH  49  63
ATOM     63  C   UNL A   1      46.897  30.731  26.838  1.00  0.00     0.064 A 
ATOM     64  C   UNL A   1      48.033  31.566  26.919  1.00  0.00     0.173 A 
ATOM     65  C   UNL A   1      45.678  31.401  26.596  1.00  0.00     0.173 A 
ATOM     66  F   UNL A   1      49.245  31.050  27.171  1.00  0.00    -0.203 F 
ATOM     67  C   UNL A   1      47.938  32.959  26.835  1.00  0.00     0.198 A 
ATOM     68  C   UNL A   1      45.596  32.787  26.463  1.00  0.00     0.198 A 
ATOM     69  F   UNL A   1      44.498  30.776  26.593  1.00  0.00    -0.203 F 
ATOM     70  F   UNL A   1      49.027  33.714  27.039  1.00  0.00    -0.200 F 
ATOM     71  C   UNL A   1      46.720  33.568  26.609  1.00  0.00     0.200 A 
ATOM     72  F   UNL A   1      44.397  33.357  26.273  1.00  0.00    -0.200 F 
ATOM     73  F   UNL A   1      46.616  34.903  26.581  1.00  0.00    -0.200 F 
ENDBRANCH  49  63
BRANCH  50  74
ATOM     74  C   UNL A   1      39.063  28.276  29.319  1.00  0.00     0.064 A 
ATOM     75  C   UNL A   1      38.290  28.412  30.489  1.00  0.00     0.173 A 
ATOM     76  C   UNL A   1      38.543  28.872  28.157  1.00  0.00     0.173 A 
ATOM     77  F   UNL A   1      38.721  27.893  31.648  1.00  0.00    -0.203 F 
ATOM     78  C   UNL A   1      37.108  29.160  30.511  1.00  0.00     0.198 A 
ATOM     79  C   UNL A   1      37.359  29.616  28.179  1.00  0.00     0.198 A 
ATOM     80  F   UNL A   1      39.226  28.834  27.004  1.00  0.00    -0.203 F 
ATOM     81  F   UNL A   1      36.451  29.341  31.665  1.00  0.00    -0.200 F 
ATOM     82  C   UNL A   1      36.655  29.780  29.360  1.00  0.00     0.200 A 
ATOM     83  F   UNL A   1      36.945  30.239  27.066  1.00  0.00    -0.200 F 
ATOM     84  F   UNL A   1      35.572  30.568  29.396  1.00  0.00    -0.200 F 
ENDBRANCH  50  74
BRANCH  62  85
ATOM     85  C   UNL A   1      44.516  27.153  32.207  1.00  0.00     0.064 A 
ATOM     86  C   UNL A   1      44.424  25.790  31.884  1.00  0.00     0.173 A 
ATOM     87  C   UNL A   1      44.683  27.493  33.556  1.00  0.00     0.173 A 
ATOM     88  F   UNL A   1      44.322  25.386  30.612  1.00  0.00    -0.203 F 
ATOM     89  C   UNL A   1      44.493  24.813  32.876  1.00  0.00     0.198 A 
ATOM     90  C   UNL A   1      44.787  26.515  34.538  1.00  0.00     0.198 A 
ATOM     91  F   UNL A   1      44.804  28.781  33.912  1.00  0.00    -0.203 F 
ATOM     92  F   UNL A   1      44.408  23.515  32.548  1.00  0.00    -0.200 F 
ATOM     93  C   UNL A   1      44.690  25.176  34.199  1.00  0.00     0.200 A 
ATOM     94  F   UNL A   1      45.019  26.874  35.808  1.00  0.00    -0.200 F 
ATOM     95  F   UNL A   1      44.813  24.235  35.145  1.00  0.00    -0.200 F 
ENDBRANCH  62  85
ENDBRANCH  36  37
ENDBRANCH  28  31
ENDBRANCH  26  27
ENDBRANCH   1  26
TORSDOF 11
ENDMDL
MODEL 2
REMARK VINA RESULT:     -13.6      4.189      9.631
REMARK SMILES C[C@H]1CCc2sc3ncn4nc(/C=C\C(=O)NCCCNC(=O)c5ccc(-c6c7nc(c(-c8c(F)c(F)c(F)c(F)c8F)c8ccc([nH]8)c(-c8c(F)c(F)c(F)c(F)c8F)c8nc(c(-c9c(F)c(F)c(F)c(F)c9F)c9ccc6[nH]9)C=C8)C=C7)cc5)nc4c3c2C1
REMARK SMILES IDX 19 1 18 2 17 3 15 4 16 5 14 7 13 8 12 9 1 10 2 11 3 12 91 13
REMARK SMILES IDX 4 14 90 15 5 16 89 17 6 18 7 19 88 20 8 21 10 22 87 23 9 24
REMARK SMILES IDX 11 25 20 26 21 27 22 28 23 30 24 31 25 32 86 33 26 34 85 35
REMARK SMILES IDX 27 36 28 37 29 38 79 39 30 40 84 41 78 42 80 43 31 44 83 45
REMARK SMILES IDX 77 46 76 47 32 49 64 50 44 51 63 52 45 53 48 54 62 55 81 56
REMARK SMILES IDX 46 57 47 58 61 60 82 61 49 62 33 63 34 64 42 65 35 66 36 67
REMARK SMILES IDX 40 68 43 69 37 70 38 71 41 72 39 73 65 74 66 75 74 76 67 77
REMARK SMILES IDX 68 78 72 79 75 80 69 81 70 82 73 83 71 84 50 85 51 86 59 87
REMARK SMILES IDX 52 88 53 89 57 90 60 91 54 92 55 93 58 94 56 95
REMARK H PARENT 17 6 21 29 80 48 48 59
REMARK Flexibility Score: inf
ROOT
ATOM      1  C   UNL A   1      33.722  33.272  28.641  1.00  0.00     0.042 C 
ENDROOT
BRANCH   1   2
ATOM      2  C   UNL A   1      34.693  32.461  27.804  1.00  0.00     0.118 C 
BRANCH   2   3
ATOM      3  N   UNL A   1      34.602  31.020  27.870  1.00  0.00    -0.352 N 
ATOM      4  C   UNL A   1      33.739  30.174  27.240  1.00  0.00     0.244 C 
ATOM      5  O   UNL A   1      33.970  28.964  27.258  1.00  0.00    -0.270 OA
ATOM      6  H   UNL A   1      35.262  30.585  28.456  1.00  0.00     0.163 HD
BRANCH   4   7
ATOM      7  C   UNL A   1      32.433  30.633  26.706  1.00  0.00     0.075 C 
ATOM      8  C   UNL A   1      31.653  30.187  25.707  1.00  0.00     0.057 C 
BRANCH   8   9
ATOM      9  C   UNL A   1      31.875  29.123  24.783  1.00  0.00     0.175 A 
ATOM     10  C   UNL A   1      30.405  22.613  26.495  1.00  0.00     0.008 C 
ATOM     11  C   UNL A   1      31.738  23.194  26.947  1.00  0.00    -0.009 C 
ATOM     12  C   UNL A   1      32.875  22.216  26.604  1.00  0.00     0.009 C 
ATOM     13  C   UNL A   1      31.961  24.617  26.385  1.00  0.00     0.041 C 
ATOM     14  C   UNL A   1      33.282  22.169  25.125  1.00  0.00     0.047 C 
ATOM     15  C   UNL A   1      32.540  24.623  25.004  1.00  0.00    -0.020 A 
ATOM     16  C   UNL A   1      33.151  23.505  24.465  1.00  0.00     0.011 A 
ATOM     17  C   UNL A   1      32.677  25.721  24.111  1.00  0.00     0.060 A 
ATOM     18  S   UNL A   1      33.785  23.778  22.900  1.00  0.00    -0.120 S 
ATOM     19  C   UNL A   1      33.431  25.448  22.978  1.00  0.00     0.129 A 
ATOM     20  C   UNL A   1      32.291  27.142  24.227  1.00  0.00     0.168 A 
ATOM     21  N   UNL A   1      33.901  26.337  22.036  1.00  0.00    -0.225 NA
ATOM     22  N   UNL A   1      32.800  28.002  23.298  1.00  0.00    -0.201 N 
ATOM     23  N   UNL A   1      31.650  27.811  25.155  1.00  0.00    -0.207 NA
ATOM     24  C   UNL A   1      33.614  27.597  22.242  1.00  0.00     0.227 A 
ATOM     25  N   UNL A   1      32.541  29.282  23.623  1.00  0.00    -0.145 NA
ENDBRANCH   8   9
ENDBRANCH   4   7
ENDBRANCH   2   3
ENDBRANCH   1   2
BRANCH   1  26
ATOM     26  C   UNL A   1      34.197  34.706  28.880  1.00  0.00     0.118 C 
BRANCH  26  27
ATOM     27  N   UNL A   1      33.606  35.358  30.055  1.00  0.00    -0.352 N 
ATOM     28  C   UNL A   1      33.646  34.952  31.372  1.00  0.00     0.251 C 
ATOM     29  H   UNL A   1      33.116  36.195  29.881  1.00  0.00     0.163 HD
ATOM     30  O   UNL A   1      32.686  35.216  32.115  1.00  0.00    -0.269 OA
BRANCH  28  31
ATOM     31  C   UNL A   1      34.790  34.185  31.898  1.00  0.00     0.039 A 
ATOM     32  C   UNL A   1      34.710  32.804  32.092  1.00  0.00     0.014 A 
ATOM     33  C   UNL A   1      35.984  34.851  32.168  1.00  0.00     0.014 A 
ATOM     34  C   UNL A   1      35.872  32.096  32.388  1.00  0.00     0.010 A 
ATOM     35  C   UNL A   1      37.160  34.154  32.329  1.00  0.00     0.010 A 
ATOM     36  C   UNL A   1      37.108  32.773  32.414  1.00  0.00    -0.014 A 
BRANCH  36  37
ATOM     37  C   UNL A   1      38.321  32.045  32.047  1.00  0.00     0.031 A 
ATOM     38  C   UNL A   1      39.088  31.703  33.280  1.00  0.00     0.074 A 
ATOM     39  C   UNL A   1      38.583  31.464  30.859  1.00  0.00     0.049 A 
ATOM     40  N   UNL A   1      40.158  32.283  33.706  1.00  0.00    -0.248 NA
ATOM     41  C   UNL A   1      38.453  30.828  34.287  1.00  0.00     0.031 C 
ATOM     42  C   UNL A   1      37.721  31.395  29.677  1.00  0.00     0.029 A 
ATOM     43  N   UNL A   1      39.664  30.718  30.486  1.00  0.00    -0.354 N 
ATOM     44  C   UNL A   1      40.469  31.651  34.906  1.00  0.00     0.074 A 
ATOM     45  C   UNL A   1      39.269  30.991  35.332  1.00  0.00     0.031 C 
ATOM     46  C   UNL A   1      38.215  30.482  28.806  1.00  0.00     0.029 A 
ATOM     47  C   UNL A   1      39.505  30.021  29.289  1.00  0.00     0.049 A 
ATOM     48  H   UNL A   1      40.491  30.676  31.019  1.00  0.00     0.167 HD
ATOM     49  C   UNL A   1      41.773  31.427  35.227  1.00  0.00     0.037 A 
ATOM     50  C   UNL A   1      40.380  29.130  28.756  1.00  0.00     0.037 A 
ATOM     51  C   UNL A   1      42.627  32.189  34.348  1.00  0.00     0.049 A 
ATOM     52  C   UNL A   1      41.700  29.410  29.369  1.00  0.00     0.074 A 
ATOM     53  C   UNL A   1      42.967  33.514  34.187  1.00  0.00     0.029 A 
ATOM     54  N   UNL A   1      42.880  31.551  33.161  1.00  0.00    -0.354 N 
ATOM     55  N   UNL A   1      42.372  30.506  29.151  1.00  0.00    -0.248 NA
ATOM     56  C   UNL A   1      42.132  28.624  30.521  1.00  0.00     0.031 C 
ATOM     57  C   UNL A   1      43.291  33.675  32.807  1.00  0.00     0.029 A 
ATOM     58  C   UNL A   1      43.205  32.438  32.173  1.00  0.00     0.049 A 
ATOM     59  H   UNL A   1      42.834  30.576  33.036  1.00  0.00     0.167 HD
ATOM     60  C   UNL A   1      42.996  30.761  30.354  1.00  0.00     0.074 A 
ATOM     61  C   UNL A   1      42.967  29.499  31.086  1.00  0.00     0.031 C 
ATOM     62  C   UNL A   1      43.163  32.043  30.783  1.00  0.00     0.037 A 
BRANCH  49  63
ATOM     63  C   UNL A   1      42.300  30.178  35.910  1.00  0.00     0.064 A 
ATOM     64  C   UNL A   1      43.308  30.322  36.888  1.00  0.00     0.173 A 
ATOM     65  C   UNL A   1      42.100  28.859  35.447  1.00  0.00     0.173 A 
ATOM     66  F   UNL A   1      43.609  31.531  37.387  1.00  0.00    -0.203 F 
ATOM     67  C   UNL A   1      44.093  29.244  37.311  1.00  0.00     0.198 A 
ATOM     68  C   UNL A   1      42.852  27.779  35.909  1.00  0.00     0.198 A 
ATOM     69  F   UNL A   1      41.261  28.562  34.451  1.00  0.00    -0.203 F 
ATOM     70  F   UNL A   1      45.115  29.455  38.151  1.00  0.00    -0.200 F 
ATOM     71  C   UNL A   1      43.865  27.974  36.819  1.00  0.00     0.200 A 
ATOM     72  F   UNL A   1      42.632  26.560  35.394  1.00  0.00    -0.200 F 
ATOM     73  F   UNL A   1      44.649  26.950  37.181  1.00  0.00    -0.200 F 
ENDBRANCH  49  63
BRANCH  50  74
ATOM     74  C   UNL A   1      40.173  27.926  27.913  1.00  0.00     0.064 A 
ATOM     75  C   UNL A   1      40.890  27.757  26.711  1.00  0.00     0.173 A 
ATOM     76  C   UNL A   1      39.537  26.782  28.422  1.00  0.00     0.173 A 
ATOM     77  F   UNL A   1      41.545  28.791  26.164  1.00  0.00    -0.203 F 
ATOM     78  C   UNL A   1      41.021  26.507  26.099  1.00  0.00     0.198 A 
ATOM     79  C   UNL A   1      39.665  25.532  27.807  1.00  0.00     0.198 A 
ATOM     80  F   UNL A   1      38.867  26.832  29.583  1.00  0.00    -0.203 F 
ATOM     81  F   UNL A   1      41.787  26.372  25.006  1.00  0.00    -0.200 F 
ATOM     82  C   UNL A   1      40.426  25.391  26.660  1.00  0.00     0.200 A 
ATOM     83  F   UNL A   1      39.112  24.451  28.376  1.00  0.00    -0.200 F 
ATOM     84  F   UNL A   1      40.623  24.177  26.125  1.00  0.00    -0.200 F 
ENDBRANCH  50  74
BRANCH  62  85
ATOM     85  C   UNL A   1      43.146  33.132  29.757  1.00  0.00     0.064 A 
ATOM     86  C   UNL A   1      42.054  33.976  29.501  1.00  0.00     0.173 A 
ATOM     87  C   UNL A   1      44.351  33.409  29.099  1.00  0.00     0.173 A 
ATOM     88  F   UNL A   1      40.887  33.809  30.135  1.00  0.00    -0.203 F 
ATOM     89  C   UNL A   1      42.171  35.050  28.620  1.00  0.00     0.198 A 
ATOM     90  C   UNL A   1      44.474  34.501  28.250  1.00  0.00     0.198 A 
ATOM     91  F   UNL A   1      45.432  32.647  29.333  1.00  0.00    -0.203 F 
ATOM     92  F   UNL A   1      41.118  35.849  28.391  1.00  0.00    -0.200 F 
ATOM     93  C   UNL A   1      43.384  35.320  28.007  1.00  0.00     0.200 A 
ATOM     94  F   UNL A   1      45.662  34.778  27.694  1.00  0.00    -0.200 F 
ATOM     95  F   UNL A   1      43.511  36.385  27.203  1.00  0.00    -0.200 F 
ENDBRANCH  62  85
ENDBRANCH  36  37
ENDBRANCH  28  31
ENDBRANCH  26  27
ENDBRANCH   1  26
TORSDOF 11
ENDMDL
MODEL 3
REMARK VINA RESULT:     -13.6      3.058      7.730
REMARK SMILES C[C@H]1CCc2sc3ncn4nc(/C=C\C(=O)NCCCNC(=O)c5ccc(-c6c7nc(c(-c8c(F)c(F)c(F)c(F)c8F)c8ccc([nH]8)c(-c8c(F)c(F)c(F)c(F)c8F)c8nc(c(-c9c(F)c(F)c(F)c(F)c9F)c9ccc6[nH]9)C=C8)C=C7)cc5)nc4c3c2C1
REMARK SMILES IDX 19 1 18 2 17 3 15 4 16 5 14 7 13 8 12 9 1 10 2 11 3 12 91 13
REMARK SMILES IDX 4 14 90 15 5 16 89 17 6 18 7 19 88 20 8 21 10 22 87 23 9 24
REMARK SMILES IDX 11 25 20 26 21 27 22 28 23 30 24 31 25 32 86 33 26 34 85 35
REMARK SMILES IDX 27 36 28 37 29 38 79 39 30 40 84 41 78 42 80 43 31 44 83 45
REMARK SMILES IDX 77 46 76 47 32 49 64 50 44 51 63 52 45 53 48 54 62 55 81 56
REMARK SMILES IDX 46 57 47 58 61 60 82 61 49 62 33 63 34 64 42 65 35 66 36 67
REMARK SMILES IDX 40 68 43 69 37 70 38 71 41 72 39 73 65 74 66 75 74 76 67 77
REMARK SMILES IDX 68 78 72 79 75 80 69 81 70 82 73 83 71 84 50 85 51 86 59 87
REMARK SMILES IDX 52 88 53 89 57 90 60 91 54 92 55 93 58 94 56 95
REMARK H PARENT 17 6 21 29 80 48 48 59
REMARK Flexibility Score: inf
ROOT
ATOM      1  C   UNL A   1      33.709  30.750  27.227  1.00  0.00     0.042 C 
ENDROOT
BRANCH   1   2
ATOM      2  C   UNL A   1      32.962  29.869  26.244  1.00  0.00     0.118 C 
BRANCH   2   3
ATOM      3  N   UNL A   1      33.702  29.321  25.129  1.00  0.00    -0.352 N 
ATOM      4  C   UNL A   1      33.259  28.934  23.899  1.00  0.00     0.244 C 
ATOM      5  O   UNL A   1      34.084  28.700  23.015  1.00  0.00    -0.270 OA
ATOM      6  H   UNL A   1      34.668  29.213  25.279  1.00  0.00     0.163 HD
BRANCH   4   7
ATOM      7  C   UNL A   1      31.838  28.592  23.643  1.00  0.00     0.075 C 
ATOM      8  C   UNL A   1      31.025  27.653  24.153  1.00  0.00     0.057 C 
BRANCH   8   9
ATOM      9  C   UNL A   1      31.304  26.621  25.097  1.00  0.00     0.175 A 
ATOM     10  C   UNL A   1      37.674  24.077  25.746  1.00  0.00     0.008 C 
ATOM     11  C   UNL A   1      36.791  23.534  24.631  1.00  0.00    -0.009 C 
ATOM     12  C   UNL A   1      36.820  21.996  24.646  1.00  0.00     0.009 C 
ATOM     13  C   UNL A   1      35.363  24.122  24.695  1.00  0.00     0.041 C 
ATOM     14  C   UNL A   1      35.998  21.331  25.758  1.00  0.00     0.047 C 
ATOM     15  C   UNL A   1      34.460  23.382  25.634  1.00  0.00    -0.020 A 
ATOM     16  C   UNL A   1      34.763  22.110  26.085  1.00  0.00     0.011 A 
ATOM     17  C   UNL A   1      33.170  23.760  26.098  1.00  0.00     0.060 A 
ATOM     18  S   UNL A   1      33.552  21.453  27.098  1.00  0.00    -0.120 S 
ATOM     19  C   UNL A   1      32.504  22.771  26.808  1.00  0.00     0.129 A 
ATOM     20  C   UNL A   1      32.343  24.957  25.846  1.00  0.00     0.168 A 
ATOM     21  N   UNL A   1      31.188  22.759  27.213  1.00  0.00    -0.225 NA
ATOM     22  N   UNL A   1      31.034  24.900  26.229  1.00  0.00    -0.201 N 
ATOM     23  N   UNL A   1      32.565  26.061  25.173  1.00  0.00    -0.207 NA
ATOM     24  C   UNL A   1      30.472  23.801  26.876  1.00  0.00     0.227 A 
ATOM     25  N   UNL A   1      30.344  25.960  25.772  1.00  0.00    -0.145 NA
ENDBRANCH   8   9
ENDBRANCH   4   7
ENDBRANCH   2   3
ENDBRANCH   1   2
BRANCH   1  26
ATOM     26  C   UNL A   1      35.032  30.138  27.687  1.00  0.00     0.118 C 
BRANCH  26  27
ATOM     27  N   UNL A   1      35.557  30.688  28.943  1.00  0.00    -0.352 N 
ATOM     28  C   UNL A   1      36.529  30.163  29.768  1.00  0.00     0.251 C 
ATOM     29  H   UNL A   1      35.164  31.542  29.235  1.00  0.00     0.163 HD
ATOM     30  O   UNL A   1      36.458  30.370  30.991  1.00  0.00    -0.269 OA
BRANCH  28  31
ATOM     31  C   UNL A   1      37.625  29.339  29.226  1.00  0.00     0.039 A 
ATOM     32  C   UNL A   1      38.293  29.702  28.053  1.00  0.00     0.014 A 
ATOM     33  C   UNL A   1      38.024  28.200  29.922  1.00  0.00     0.014 A 
ATOM     34  C   UNL A   1      39.450  29.016  27.696  1.00  0.00     0.010 A 
ATOM     35  C   UNL A   1      39.233  27.599  29.657  1.00  0.00     0.010 A 
ATOM     36  C   UNL A   1      39.961  28.023  28.558  1.00  0.00    -0.014 A 
BRANCH  36  37
ATOM     37  C   UNL A   1      41.403  27.791  28.594  1.00  0.00     0.031 A 
ATOM     38  C   UNL A   1      41.723  26.536  27.852  1.00  0.00     0.074 A 
ATOM     39  C   UNL A   1      42.355  28.686  28.928  1.00  0.00     0.049 A 
ATOM     40  N   UNL A   1      42.025  25.394  28.368  1.00  0.00    -0.248 NA
ATOM     41  C   UNL A   1      41.399  26.464  26.413  1.00  0.00     0.031 C 
ATOM     42  C   UNL A   1      42.182  30.091  29.301  1.00  0.00     0.029 A 
ATOM     43  N   UNL A   1      43.713  28.543  28.913  1.00  0.00    -0.354 N 
ATOM     44  C   UNL A   1      42.189  24.532  27.288  1.00  0.00     0.074 A 
ATOM     45  C   UNL A   1      41.531  25.156  26.176  1.00  0.00     0.031 C 
ATOM     46  C   UNL A   1      43.381  30.720  29.271  1.00  0.00     0.029 A 
ATOM     47  C   UNL A   1      44.424  29.736  29.036  1.00  0.00     0.049 A 
ATOM     48  H   UNL A   1      44.155  27.668  28.824  1.00  0.00     0.167 HD
ATOM     49  C   UNL A   1      43.162  23.582  27.331  1.00  0.00     0.037 A 
ATOM     50  C   UNL A   1      45.771  29.881  28.942  1.00  0.00     0.037 A 
ATOM     51  C   UNL A   1      43.667  23.464  28.677  1.00  0.00     0.049 A 
ATOM     52  C   UNL A   1      46.362  28.547  29.199  1.00  0.00     0.074 A 
ATOM     53  C   UNL A   1      43.214  22.953  29.873  1.00  0.00     0.029 A 
ATOM     54  N   UNL A   1      44.645  24.382  28.965  1.00  0.00    -0.354 N 
ATOM     55  N   UNL A   1      46.305  27.950  30.357  1.00  0.00    -0.248 NA
ATOM     56  C   UNL A   1      46.720  27.696  28.069  1.00  0.00     0.031 C 
ATOM     57  C   UNL A   1      43.853  23.713  30.897  1.00  0.00     0.029 A 
ATOM     58  C   UNL A   1      44.727  24.624  30.307  1.00  0.00     0.049 A 
ATOM     59  H   UNL A   1      45.216  24.812  28.289  1.00  0.00     0.167 HD
ATOM     60  C   UNL A   1      46.188  26.613  30.040  1.00  0.00     0.074 A 
ATOM     61  C   UNL A   1      46.630  26.500  28.654  1.00  0.00     0.031 C 
ATOM     62  C   UNL A   1      45.420  25.790  30.807  1.00  0.00     0.037 A 
BRANCH  49  63
ATOM     63  C   UNL A   1      44.024  23.164  26.152  1.00  0.00     0.064 A 
ATOM     64  C   UNL A   1      44.044  21.800  25.786  1.00  0.00     0.173 A 
ATOM     65  C   UNL A   1      45.044  23.953  25.578  1.00  0.00     0.173 A 
ATOM     66  F   UNL A   1      43.141  20.944  26.287  1.00  0.00    -0.203 F 
ATOM     67  C   UNL A   1      45.045  21.265  24.969  1.00  0.00     0.198 A 
ATOM     68  C   UNL A   1      46.011  23.424  24.723  1.00  0.00     0.198 A 
ATOM     69  F   UNL A   1      45.232  25.236  25.898  1.00  0.00    -0.203 F 
ATOM     70  F   UNL A   1      45.089  19.944  24.749  1.00  0.00    -0.200 F 
ATOM     71  C   UNL A   1      46.029  22.077  24.440  1.00  0.00     0.200 A 
ATOM     72  F   UNL A   1      46.973  24.227  24.246  1.00  0.00    -0.200 F 
ATOM     73  F   UNL A   1      47.020  21.561  23.702  1.00  0.00    -0.200 F 
ENDBRANCH  49  63
BRANCH  50  74
ATOM     74  C   UNL A   1      46.612  31.007  28.463  1.00  0.00     0.064 A 
ATOM     75  C   UNL A   1      46.352  31.620  27.221  1.00  0.00     0.173 A 
ATOM     76  C   UNL A   1      47.455  31.710  29.339  1.00  0.00     0.173 A 
ATOM     77  F   UNL A   1      45.542  31.029  26.331  1.00  0.00    -0.203 F 
ATOM     78  C   UNL A   1      46.845  32.891  26.908  1.00  0.00     0.198 A 
ATOM     79  C   UNL A   1      47.951  32.979  29.024  1.00  0.00     0.198 A 
ATOM     80  F   UNL A   1      47.726  31.229  30.561  1.00  0.00    -0.203 F 
ATOM     81  F   UNL A   1      46.499  33.478  25.752  1.00  0.00    -0.200 F 
ATOM     82  C   UNL A   1      47.627  33.579  27.819  1.00  0.00     0.200 A 
ATOM     83  F   UNL A   1      48.680  33.651  29.925  1.00  0.00    -0.200 F 
ATOM     84  F   UNL A   1      48.028  34.831  27.559  1.00  0.00    -0.200 F 
ENDBRANCH  50  74
BRANCH  62  85
ATOM     85  C   UNL A   1      45.149  26.202  32.219  1.00  0.00     0.064 A 
ATOM     86  C   UNL A   1      43.988  26.859  32.655  1.00  0.00     0.173 A 
ATOM     87  C   UNL A   1      46.064  25.782  33.194  1.00  0.00     0.173 A 
ATOM     88  F   UNL A   1      43.041  27.238  31.787  1.00  0.00    -0.203 F 
ATOM     89  C   UNL A   1      43.759  27.086  34.010  1.00  0.00     0.198 A 
ATOM     90  C   UNL A   1      45.816  25.978  34.546  1.00  0.00     0.198 A 
ATOM     91  F   UNL A   1      47.176  25.124  32.829  1.00  0.00    -0.203 F 
ATOM     92  F   UNL A   1      42.641  27.712  34.408  1.00  0.00    -0.200 F 
ATOM     93  C   UNL A   1      44.666  26.632  34.956  1.00  0.00     0.200 A 
ATOM     94  F   UNL A   1      46.677  25.499  35.454  1.00  0.00    -0.200 F 
ATOM     95  F   UNL A   1      44.420  26.801  36.262  1.00  0.00    -0.200 F 
ENDBRANCH  62  85
ENDBRANCH  36  37
ENDBRANCH  28  31
ENDBRANCH  26  27
ENDBRANCH   1  26
TORSDOF 11
ENDMDL
