MODEL 1
REMARK VINA RESULT:     -10.3      0.000      0.000
REMARK SMILES C[C@@H](OCC(F)(F)F)C(=O)NCCCNC(=O)c1ccc(-c2c3nc(c(-c4c(F)c(F)c(F)c(F)c4F)c4ccc([nH]4)c(-c4c(F)c(F)c(F)c(F)c4F)c4nc(c(-c5c(F)c(F)c(F)c(F)c5F)c5ccc2[nH]5)C=C4)C=C3)cc1
REMARK SMILES IDX 12 1 11 2 9 3 10 4 2 6 1 7 3 8 4 9 5 10 6 11 7 12 8 13 13 14
REMARK SMILES IDX 14 15 15 16 16 17 17 19 18 20 19 21 80 22 20 23 79 24 21 25
REMARK SMILES IDX 22 26 23 27 73 28 24 29 78 30 72 31 74 32 25 33 77 34 71 35
REMARK SMILES IDX 70 36 26 38 58 39 38 40 57 41 39 42 42 43 56 44 75 45 40 46
REMARK SMILES IDX 41 47 55 49 76 50 43 51 27 52 28 53 36 54 29 55 30 56 34 57
REMARK SMILES IDX 37 58 31 59 32 60 35 61 33 62 59 63 60 64 68 65 61 66 62 67
REMARK SMILES IDX 66 68 69 69 63 70 64 71 67 72 65 73 44 74 45 75 53 76 46 77
REMARK SMILES IDX 47 78 51 79 54 80 48 81 49 82 52 83 50 84
REMARK H PARENT 11 5 15 18 74 37 42 48
REMARK Flexibility Score: inf
ROOT
ATOM      1  C   UNL A   1      33.483  34.965  30.265  1.00  0.00     0.117 C 
ENDROOT
BRANCH   1   2
ATOM      2  N   UNL A   1      32.502  35.582  31.140  1.00  0.00    -0.354 N 
ATOM      3  C   UNL A   1      32.673  36.469  32.164  1.00  0.00     0.248 C 
ATOM      4  O   UNL A   1      31.669  36.824  32.786  1.00  0.00    -0.272 OA
ATOM      5  H   UNL A   1      31.570  35.320  30.969  1.00  0.00     0.163 HD
BRANCH   3   6
ATOM      6  C   UNL A   1      34.076  36.968  32.566  1.00  0.00     0.204 C 
ATOM      7  C   UNL A   1      34.024  38.461  32.877  1.00  0.00     0.049 C 
BRANCH   6   8
ATOM      8  O   UNL A   1      34.587  36.182  33.643  1.00  0.00    -0.359 OA
BRANCH   8   9
ATOM      9  C   UNL A   1      35.483  35.118  33.294  1.00  0.00     0.276 C 
BRANCH   9  10
ATOM     10  C   UNL A   1      34.935  33.695  33.396  1.00  0.00     0.411 C 
ATOM     11  F   UNL A   1      33.603  33.694  33.624  1.00  0.00    -0.168 F 
ATOM     12  F   UNL A   1      35.142  33.030  32.236  1.00  0.00    -0.168 F 
ATOM     13  F   UNL A   1      35.532  32.995  34.382  1.00  0.00    -0.168 F 
ENDBRANCH   9  10
ENDBRANCH   8   9
ENDBRANCH   6   8
ENDBRANCH   3   6
ENDBRANCH   1   2
BRANCH   1  14
ATOM     14  C   UNL A   1      32.951  34.794  28.846  1.00  0.00     0.042 C 
BRANCH  14  15
ATOM     15  C   UNL A   1      33.857  33.973  27.934  1.00  0.00     0.118 C 
BRANCH  15  16
ATOM     16  N   UNL A   1      33.171  32.838  27.332  1.00  0.00    -0.352 N 
ATOM     17  C   UNL A   1      33.568  31.533  27.206  1.00  0.00     0.251 C 
ATOM     18  H   UNL A   1      32.284  33.041  26.957  1.00  0.00     0.163 HD
ATOM     19  O   UNL A   1      32.909  30.761  26.507  1.00  0.00    -0.269 OA
BRANCH  17  20
ATOM     20  C   UNL A   1      34.788  31.041  27.879  1.00  0.00     0.039 A 
ATOM     21  C   UNL A   1      35.884  31.902  28.001  1.00  0.00     0.014 A 
ATOM     22  C   UNL A   1      34.877  29.732  28.359  1.00  0.00     0.014 A 
ATOM     23  C   UNL A   1      37.041  31.473  28.656  1.00  0.00     0.010 A 
ATOM     24  C   UNL A   1      36.001  29.328  29.077  1.00  0.00     0.010 A 
ATOM     25  C   UNL A   1      37.096  30.193  29.227  1.00  0.00    -0.014 A 
BRANCH  25  26
ATOM     26  C   UNL A   1      38.292  29.731  29.977  1.00  0.00     0.031 A 
ATOM     27  C   UNL A   1      38.558  30.247  31.363  1.00  0.00     0.074 A 
ATOM     28  C   UNL A   1      39.175  28.905  29.383  1.00  0.00     0.049 A 
ATOM     29  N   UNL A   1      39.594  30.047  32.138  1.00  0.00    -0.248 NA
ATOM     30  C   UNL A   1      37.534  31.129  31.946  1.00  0.00     0.031 C 
ATOM     31  C   UNL A   1      39.050  28.365  28.028  1.00  0.00     0.029 A 
ATOM     32  N   UNL A   1      40.362  28.386  29.840  1.00  0.00    -0.354 N 
ATOM     33  C   UNL A   1      39.356  30.793  33.285  1.00  0.00     0.074 A 
ATOM     34  C   UNL A   1      38.102  31.485  33.088  1.00  0.00     0.031 C 
ATOM     35  C   UNL A   1      40.109  27.582  27.769  1.00  0.00     0.029 A 
ATOM     36  C   UNL A   1      41.005  27.593  28.922  1.00  0.00     0.049 A 
ATOM     37  H   UNL A   1      40.717  28.567  30.739  1.00  0.00     0.167 HD
ATOM     38  C   UNL A   1      40.107  30.876  34.410  1.00  0.00     0.037 A 
ATOM     39  C   UNL A   1      42.188  26.957  28.998  1.00  0.00     0.037 A 
ATOM     40  C   UNL A   1      41.338  30.160  34.617  1.00  0.00     0.049 A 
ATOM     41  C   UNL A   1      43.003  27.064  30.259  1.00  0.00     0.074 A 
ATOM     42  C   UNL A   1      42.141  30.129  35.745  1.00  0.00     0.029 A 
ATOM     43  N   UNL A   1      41.945  29.345  33.673  1.00  0.00    -0.354 N 
ATOM     44  N   UNL A   1      42.741  27.726  31.358  1.00  0.00    -0.248 NA
ATOM     45  C   UNL A   1      44.276  26.331  30.289  1.00  0.00     0.031 C 
ATOM     46  C   UNL A   1      43.253  29.328  35.468  1.00  0.00     0.029 A 
ATOM     47  C   UNL A   1      43.122  28.822  34.185  1.00  0.00     0.049 A 
ATOM     48  H   UNL A   1      41.593  29.165  32.771  1.00  0.00     0.167 HD
ATOM     49  C   UNL A   1      43.798  27.469  32.220  1.00  0.00     0.074 A 
ATOM     50  C   UNL A   1      44.700  26.580  31.520  1.00  0.00     0.031 C 
ATOM     51  C   UNL A   1      44.003  27.929  33.479  1.00  0.00     0.037 A 
BRANCH  38  52
ATOM     52  C   UNL A   1      39.615  31.773  35.508  1.00  0.00     0.064 A 
ATOM     53  C   UNL A   1      40.085  33.089  35.648  1.00  0.00     0.173 A 
ATOM     54  C   UNL A   1      38.639  31.326  36.410  1.00  0.00     0.173 A 
ATOM     55  F   UNL A   1      41.027  33.561  34.819  1.00  0.00    -0.203 F 
ATOM     56  C   UNL A   1      39.618  33.911  36.669  1.00  0.00     0.198 A 
ATOM     57  C   UNL A   1      38.152  32.162  37.412  1.00  0.00     0.198 A 
ATOM     58  F   UNL A   1      38.152  30.079  36.316  1.00  0.00    -0.203 F 
ATOM     59  F   UNL A   1      40.116  35.146  36.814  1.00  0.00    -0.200 F 
ATOM     60  C   UNL A   1      38.646  33.449  37.545  1.00  0.00     0.200 A 
ATOM     61  F   UNL A   1      37.205  31.719  38.250  1.00  0.00    -0.200 F 
ATOM     62  F   UNL A   1      38.192  34.245  38.523  1.00  0.00    -0.200 F 
ENDBRANCH  38  52
BRANCH  39  63
ATOM     63  C   UNL A   1      42.667  26.142  27.851  1.00  0.00     0.064 A 
ATOM     64  C   UNL A   1      43.531  26.690  26.893  1.00  0.00     0.173 A 
ATOM     65  C   UNL A   1      42.274  24.806  27.689  1.00  0.00     0.173 A 
ATOM     66  F   UNL A   1      43.917  27.971  26.996  1.00  0.00    -0.203 F 
ATOM     67  C   UNL A   1      43.968  25.940  25.805  1.00  0.00     0.198 A 
ATOM     68  C   UNL A   1      42.734  24.048  26.613  1.00  0.00     0.198 A 
ATOM     69  F   UNL A   1      41.454  24.233  28.581  1.00  0.00    -0.203 F 
ATOM     70  F   UNL A   1      44.758  26.502  24.879  1.00  0.00    -0.200 F 
ATOM     71  C   UNL A   1      43.573  24.618  25.668  1.00  0.00     0.200 A 
ATOM     72  F   UNL A   1      42.361  22.767  26.492  1.00  0.00    -0.200 F 
ATOM     73  F   UNL A   1      43.997  23.893  24.622  1.00  0.00    -0.200 F 
ENDBRANCH  39  63
BRANCH  51  74
ATOM     74  C   UNL A   1      45.233  27.451  34.194  1.00  0.00     0.064 A 
ATOM     75  C   UNL A   1      46.434  28.174  34.156  1.00  0.00     0.173 A 
ATOM     76  C   UNL A   1      45.196  26.275  34.958  1.00  0.00     0.173 A 
ATOM     77  F   UNL A   1      46.523  29.296  33.425  1.00  0.00    -0.203 F 
ATOM     78  C   UNL A   1      47.561  27.725  34.839  1.00  0.00     0.198 A 
ATOM     79  C   UNL A   1      46.316  25.845  35.664  1.00  0.00     0.198 A 
ATOM     80  F   UNL A   1      44.069  25.551  35.031  1.00  0.00    -0.203 F 
ATOM     81  F   UNL A   1      48.710  28.408  34.754  1.00  0.00    -0.200 F 
ATOM     82  C   UNL A   1      47.498  26.565  35.599  1.00  0.00     0.200 A 
ATOM     83  F   UNL A   1      46.251  24.731  36.405  1.00  0.00    -0.200 F 
ATOM     84  F   UNL A   1      48.582  26.139  36.261  1.00  0.00    -0.200 F 
ENDBRANCH  51  74
ENDBRANCH  25  26
ENDBRANCH  17  20
ENDBRANCH  15  16
ENDBRANCH  14  15
ENDBRANCH   1  14
TORSDOF 13
ENDMDL
MODEL 2
REMARK VINA RESULT:     -10.3      2.868      9.348
REMARK SMILES C[C@@H](OCC(F)(F)F)C(=O)NCCCNC(=O)c1ccc(-c2c3nc(c(-c4c(F)c(F)c(F)c(F)c4F)c4ccc([nH]4)c(-c4c(F)c(F)c(F)c(F)c4F)c4nc(c(-c5c(F)c(F)c(F)c(F)c5F)c5ccc2[nH]5)C=C4)C=C3)cc1
REMARK SMILES IDX 12 1 11 2 9 3 10 4 2 6 1 7 3 8 4 9 5 10 6 11 7 12 8 13 13 14
REMARK SMILES IDX 14 15 15 16 16 17 17 19 18 20 19 21 80 22 20 23 79 24 21 25
REMARK SMILES IDX 22 26 23 27 73 28 24 29 78 30 72 31 74 32 25 33 77 34 71 35
REMARK SMILES IDX 70 36 26 38 58 39 38 40 57 41 39 42 42 43 56 44 75 45 40 46
REMARK SMILES IDX 41 47 55 49 76 50 43 51 27 52 28 53 36 54 29 55 30 56 34 57
REMARK SMILES IDX 37 58 31 59 32 60 35 61 33 62 59 63 60 64 68 65 61 66 62 67
REMARK SMILES IDX 66 68 69 69 63 70 64 71 67 72 65 73 44 74 45 75 53 76 46 77
REMARK SMILES IDX 47 78 51 79 54 80 48 81 49 82 52 83 50 84
REMARK H PARENT 11 5 15 18 74 37 42 48
REMARK Flexibility Score: inf
ROOT
ATOM      1  C   UNL A   1      31.579  30.665  25.929  1.00  0.00     0.117 C 
ENDROOT
BRANCH   1   2
ATOM      2  N   UNL A   1      30.889  30.464  24.667  1.00  0.00    -0.354 N 
ATOM      3  C   UNL A   1      30.673  29.319  23.957  1.00  0.00     0.248 C 
ATOM      4  O   UNL A   1      30.078  29.417  22.881  1.00  0.00    -0.272 OA
ATOM      5  H   UNL A   1      30.520  31.281  24.261  1.00  0.00     0.163 HD
BRANCH   3   6
ATOM      6  C   UNL A   1      31.199  27.957  24.454  1.00  0.00     0.204 C 
ATOM      7  C   UNL A   1      30.272  26.840  23.980  1.00  0.00     0.049 C 
BRANCH   6   8
ATOM      8  O   UNL A   1      32.556  27.776  24.048  1.00  0.00    -0.359 OA
BRANCH   8   9
ATOM      9  C   UNL A   1      33.090  26.451  24.162  1.00  0.00     0.276 C 
BRANCH   9  10
ATOM     10  C   UNL A   1      33.679  26.058  25.516  1.00  0.00     0.411 C 
ATOM     11  F   UNL A   1      34.690  25.172  25.376  1.00  0.00    -0.168 F 
ATOM     12  F   UNL A   1      34.186  27.147  26.140  1.00  0.00    -0.168 F 
ATOM     13  F   UNL A   1      32.752  25.514  26.330  1.00  0.00    -0.168 F 
ENDBRANCH   9  10
ENDBRANCH   8   9
ENDBRANCH   6   8
ENDBRANCH   3   6
ENDBRANCH   1   2
BRANCH   1  14
ATOM     14  C   UNL A   1      31.363  32.072  26.477  1.00  0.00     0.042 C 
BRANCH  14  15
ATOM     15  C   UNL A   1      32.561  32.638  27.233  1.00  0.00     0.118 C 
BRANCH  15  16
ATOM     16  N   UNL A   1      32.384  34.034  27.608  1.00  0.00    -0.352 N 
ATOM     17  C   UNL A   1      33.023  34.779  28.563  1.00  0.00     0.251 C 
ATOM     18  H   UNL A   1      31.697  34.517  27.093  1.00  0.00     0.163 HD
ATOM     19  O   UNL A   1      32.604  35.904  28.838  1.00  0.00    -0.269 OA
BRANCH  17  20
ATOM     20  C   UNL A   1      34.198  34.244  29.284  1.00  0.00     0.039 A 
ATOM     21  C   UNL A   1      33.989  33.457  30.421  1.00  0.00     0.014 A 
ATOM     22  C   UNL A   1      35.500  34.538  28.872  1.00  0.00     0.014 A 
ATOM     23  C   UNL A   1      35.080  32.917  31.106  1.00  0.00     0.010 A 
ATOM     24  C   UNL A   1      36.584  33.940  29.510  1.00  0.00     0.010 A 
ATOM     25  C   UNL A   1      36.385  33.128  30.637  1.00  0.00    -0.014 A 
BRANCH  25  26
ATOM     26  C   UNL A   1      37.559  32.520  31.314  1.00  0.00     0.031 A 
ATOM     27  C   UNL A   1      38.307  31.393  30.658  1.00  0.00     0.074 A 
ATOM     28  C   UNL A   1      37.907  32.932  32.549  1.00  0.00     0.049 A 
ATOM     29  N   UNL A   1      39.287  30.664  31.128  1.00  0.00    -0.248 NA
ATOM     30  C   UNL A   1      37.875  31.017  29.302  1.00  0.00     0.031 C 
ATOM     31  C   UNL A   1      37.236  33.989  33.307  1.00  0.00     0.029 A 
ATOM     32  N   UNL A   1      38.903  32.499  33.389  1.00  0.00    -0.354 N 
ATOM     33  C   UNL A   1      39.574  29.734  30.137  1.00  0.00     0.074 A 
ATOM     34  C   UNL A   1      38.635  29.960  29.060  1.00  0.00     0.031 C 
ATOM     35  C   UNL A   1      37.848  34.132  34.494  1.00  0.00     0.029 A 
ATOM     36  C   UNL A   1      38.927  33.154  34.595  1.00  0.00     0.049 A 
ATOM     37  H   UNL A   1      39.537  31.787  33.149  1.00  0.00     0.167 HD
ATOM     38  C   UNL A   1      40.546  28.790  30.119  1.00  0.00     0.037 A 
ATOM     39  C   UNL A   1      39.723  32.977  35.666  1.00  0.00     0.037 A 
ATOM     40  C   UNL A   1      41.500  28.589  31.178  1.00  0.00     0.049 A 
ATOM     41  C   UNL A   1      40.796  31.923  35.621  1.00  0.00     0.074 A 
ATOM     42  C   UNL A   1      42.560  27.702  31.228  1.00  0.00     0.029 A 
ATOM     43  N   UNL A   1      41.509  29.290  32.375  1.00  0.00    -0.354 N 
ATOM     44  N   UNL A   1      41.093  31.088  34.657  1.00  0.00    -0.248 NA
ATOM     45  C   UNL A   1      41.645  31.791  36.813  1.00  0.00     0.031 C 
ATOM     46  C   UNL A   1      43.187  27.838  32.472  1.00  0.00     0.029 A 
ATOM     47  C   UNL A   1      42.545  28.842  33.178  1.00  0.00     0.049 A 
ATOM     48  H   UNL A   1      40.873  30.001  32.619  1.00  0.00     0.167 HD
ATOM     49  C   UNL A   1      42.179  30.352  35.111  1.00  0.00     0.074 A 
ATOM     50  C   UNL A   1      42.496  30.847  36.434  1.00  0.00     0.031 C 
ATOM     51  C   UNL A   1      42.853  29.354  34.489  1.00  0.00     0.037 A 
BRANCH  38  52
ATOM     52  C   UNL A   1      40.628  27.902  28.912  1.00  0.00     0.064 A 
ATOM     53  C   UNL A   1      39.868  26.725  28.812  1.00  0.00     0.173 A 
ATOM     54  C   UNL A   1      41.450  28.245  27.830  1.00  0.00     0.173 A 
ATOM     55  F   UNL A   1      39.076  26.346  29.825  1.00  0.00    -0.203 F 
ATOM     56  C   UNL A   1      39.952  25.913  27.686  1.00  0.00     0.198 A 
ATOM     57  C   UNL A   1      41.508  27.445  26.691  1.00  0.00     0.198 A 
ATOM     58  F   UNL A   1      42.192  29.362  27.871  1.00  0.00    -0.203 F 
ATOM     59  F   UNL A   1      39.255  24.769  27.632  1.00  0.00    -0.200 F 
ATOM     60  C   UNL A   1      40.766  26.277  26.623  1.00  0.00     0.200 A 
ATOM     61  F   UNL A   1      42.286  27.804  25.661  1.00  0.00    -0.200 F 
ATOM     62  F   UNL A   1      40.840  25.497  25.536  1.00  0.00    -0.200 F 
ENDBRANCH  38  52
BRANCH  39  63
ATOM     63  C   UNL A   1      39.550  33.833  36.869  1.00  0.00     0.064 A 
ATOM     64  C   UNL A   1      38.759  33.407  37.945  1.00  0.00     0.173 A 
ATOM     65  C   UNL A   1      40.165  35.089  36.967  1.00  0.00     0.173 A 
ATOM     66  F   UNL A   1      38.132  32.221  37.886  1.00  0.00    -0.203 F 
ATOM     67  C   UNL A   1      38.575  34.212  39.066  1.00  0.00     0.198 A 
ATOM     68  C   UNL A   1      40.001  35.882  38.102  1.00  0.00     0.198 A 
ATOM     69  F   UNL A   1      40.936  35.540  35.968  1.00  0.00    -0.203 F 
ATOM     70  F   UNL A   1      37.778  33.799  40.062  1.00  0.00    -0.200 F 
ATOM     71  C   UNL A   1      39.200  35.446  39.146  1.00  0.00     0.200 A 
ATOM     72  F   UNL A   1      40.619  37.068  38.181  1.00  0.00    -0.200 F 
ATOM     73  F   UNL A   1      39.027  36.220  40.227  1.00  0.00    -0.200 F 
ENDBRANCH  39  63
BRANCH  51  74
ATOM     74  C   UNL A   1      44.022  28.755  35.215  1.00  0.00     0.064 A 
ATOM     75  C   UNL A   1      43.875  27.642  36.055  1.00  0.00     0.173 A 
ATOM     76  C   UNL A   1      45.311  29.280  35.036  1.00  0.00     0.173 A 
ATOM     77  F   UNL A   1      42.659  27.116  36.270  1.00  0.00    -0.203 F 
ATOM     78  C   UNL A   1      44.973  27.089  36.708  1.00  0.00     0.198 A 
ATOM     79  C   UNL A   1      46.411  28.706  35.668  1.00  0.00     0.198 A 
ATOM     80  F   UNL A   1      45.505  30.341  34.239  1.00  0.00    -0.203 F 
ATOM     81  F   UNL A   1      44.803  26.052  37.540  1.00  0.00    -0.200 F 
ATOM     82  C   UNL A   1      46.240  27.616  36.507  1.00  0.00     0.200 A 
ATOM     83  F   UNL A   1      47.636  29.210  35.464  1.00  0.00    -0.200 F 
ATOM     84  F   UNL A   1      47.297  27.077  37.132  1.00  0.00    -0.200 F 
ENDBRANCH  51  74
ENDBRANCH  25  26
ENDBRANCH  17  20
ENDBRANCH  15  16
ENDBRANCH  14  15
ENDBRANCH   1  14
TORSDOF 13
ENDMDL
MODEL 3
REMARK VINA RESULT:     -10.2      6.105     10.197
REMARK SMILES C[C@@H](OCC(F)(F)F)C(=O)NCCCNC(=O)c1ccc(-c2c3nc(c(-c4c(F)c(F)c(F)c(F)c4F)c4ccc([nH]4)c(-c4c(F)c(F)c(F)c(F)c4F)c4nc(c(-c5c(F)c(F)c(F)c(F)c5F)c5ccc2[nH]5)C=C4)C=C3)cc1
REMARK SMILES IDX 12 1 11 2 9 3 10 4 2 6 1 7 3 8 4 9 5 10 6 11 7 12 8 13 13 14
REMARK SMILES IDX 14 15 15 16 16 17 17 19 18 20 19 21 80 22 20 23 79 24 21 25
REMARK SMILES IDX 22 26 23 27 73 28 24 29 78 30 72 31 74 32 25 33 77 34 71 35
REMARK SMILES IDX 70 36 26 38 58 39 38 40 57 41 39 42 42 43 56 44 75 45 40 46
REMARK SMILES IDX 41 47 55 49 76 50 43 51 27 52 28 53 36 54 29 55 30 56 34 57
REMARK SMILES IDX 37 58 31 59 32 60 35 61 33 62 59 63 60 64 68 65 61 66 62 67
REMARK SMILES IDX 66 68 69 69 63 70 64 71 67 72 65 73 44 74 45 75 53 76 46 77
REMARK SMILES IDX 47 78 51 79 54 80 48 81 49 82 52 83 50 84
REMARK H PARENT 11 5 15 18 74 37 42 48
REMARK Flexibility Score: inf
ROOT
ATOM      1  C   UNL A   1      36.679  20.543  24.975  1.00  0.00     0.117 C 
ENDROOT
BRANCH   1   2
ATOM      2  N   UNL A   1      35.419  19.832  25.103  1.00  0.00    -0.354 N 
ATOM      3  C   UNL A   1      34.139  20.282  24.960  1.00  0.00     0.248 C 
ATOM      4  O   UNL A   1      33.225  19.476  25.153  1.00  0.00    -0.272 OA
ATOM      5  H   UNL A   1      35.502  18.878  25.326  1.00  0.00     0.163 HD
BRANCH   3   6
ATOM      6  C   UNL A   1      33.840  21.756  24.621  1.00  0.00     0.204 C 
ATOM      7  C   UNL A   1      32.785  21.832  23.521  1.00  0.00     0.049 C 
BRANCH   6   8
ATOM      8  O   UNL A   1      33.476  22.468  25.805  1.00  0.00    -0.359 OA
BRANCH   8   9
ATOM      9  C   UNL A   1      33.291  23.883  25.673  1.00  0.00     0.276 C 
BRANCH   9  10
ATOM     10  C   UNL A   1      34.529  24.711  25.329  1.00  0.00     0.411 C 
ATOM     11  F   UNL A   1      34.403  25.988  25.754  1.00  0.00    -0.168 F 
ATOM     12  F   UNL A   1      35.622  24.194  25.937  1.00  0.00    -0.168 F 
ATOM     13  F   UNL A   1      34.770  24.730  24.003  1.00  0.00    -0.168 F 
ENDBRANCH   9  10
ENDBRANCH   8   9
ENDBRANCH   6   8
ENDBRANCH   3   6
ENDBRANCH   1   2
BRANCH   1  14
ATOM     14  C   UNL A   1      37.873  19.595  25.003  1.00  0.00     0.042 C 
BRANCH  14  15
ATOM     15  C   UNL A   1      39.086  20.140  25.751  1.00  0.00     0.118 C 
BRANCH  15  16
ATOM     16  N   UNL A   1      40.145  19.153  25.902  1.00  0.00    -0.352 N 
ATOM     17  C   UNL A   1      41.486  19.325  26.126  1.00  0.00     0.251 C 
ATOM     18  H   UNL A   1      39.852  18.216  25.833  1.00  0.00     0.163 HD
ATOM     19  O   UNL A   1      42.244  18.357  26.053  1.00  0.00    -0.269 OA
BRANCH  17  20
ATOM     20  C   UNL A   1      42.040  20.661  26.434  1.00  0.00     0.039 A 
ATOM     21  C   UNL A   1      42.362  21.516  25.376  1.00  0.00     0.014 A 
ATOM     22  C   UNL A   1      42.276  21.063  27.751  1.00  0.00     0.014 A 
ATOM     23  C   UNL A   1      42.862  22.794  25.639  1.00  0.00     0.010 A 
ATOM     24  C   UNL A   1      42.704  22.363  28.015  1.00  0.00     0.010 A 
ATOM     25  C   UNL A   1      43.007  23.239  26.961  1.00  0.00    -0.014 A 
BRANCH  25  26
ATOM     26  C   UNL A   1      43.484  24.612  27.268  1.00  0.00     0.031 A 
ATOM     27  C   UNL A   1      42.532  25.632  27.827  1.00  0.00     0.074 A 
ATOM     28  C   UNL A   1      44.752  24.960  26.978  1.00  0.00     0.049 A 
ATOM     29  N   UNL A   1      42.726  26.905  28.064  1.00  0.00    -0.248 NA
ATOM     30  C   UNL A   1      41.171  25.165  28.135  1.00  0.00     0.031 C 
ATOM     31  C   UNL A   1      45.761  24.072  26.397  1.00  0.00     0.029 A 
ATOM     32  N   UNL A   1      45.405  26.159  27.118  1.00  0.00    -0.354 N 
ATOM     33  C   UNL A   1      41.510  27.392  28.526  1.00  0.00     0.074 A 
ATOM     34  C   UNL A   1      40.573  26.291  28.493  1.00  0.00     0.031 C 
ATOM     35  C   UNL A   1      46.908  24.753  26.244  1.00  0.00     0.029 A 
ATOM     36  C   UNL A   1      46.706  26.132  26.678  1.00  0.00     0.049 A 
ATOM     37  H   UNL A   1      44.981  26.962  27.495  1.00  0.00     0.167 HD
ATOM     38  C   UNL A   1      41.210  28.641  28.957  1.00  0.00     0.037 A 
ATOM     39  C   UNL A   1      47.627  27.111  26.622  1.00  0.00     0.037 A 
ATOM     40  C   UNL A   1      42.152  29.726  29.020  1.00  0.00     0.049 A 
ATOM     41  C   UNL A   1      47.268  28.489  27.109  1.00  0.00     0.074 A 
ATOM     42  C   UNL A   1      41.961  31.010  29.500  1.00  0.00     0.029 A 
ATOM     43  N   UNL A   1      43.469  29.653  28.590  1.00  0.00    -0.354 N 
ATOM     44  N   UNL A   1      46.132  28.924  27.596  1.00  0.00    -0.248 NA
ATOM     45  C   UNL A   1      48.322  29.511  27.041  1.00  0.00     0.031 C 
ATOM     46  C   UNL A   1      43.150  31.725  29.323  1.00  0.00     0.029 A 
ATOM     47  C   UNL A   1      44.097  30.874  28.776  1.00  0.00     0.049 A 
ATOM     48  H   UNL A   1      43.896  28.851  28.209  1.00  0.00     0.167 HD
ATOM     49  C   UNL A   1      46.341  30.258  27.919  1.00  0.00     0.074 A 
ATOM     50  C   UNL A   1      47.716  30.558  27.583  1.00  0.00     0.031 C 
ATOM     51  C   UNL A   1      45.470  31.154  28.446  1.00  0.00     0.037 A 
BRANCH  38  52
ATOM     52  C   UNL A   1      39.799  28.900  29.400  1.00  0.00     0.064 A 
ATOM     53  C   UNL A   1      39.391  28.679  30.725  1.00  0.00     0.173 A 
ATOM     54  C   UNL A   1      38.852  29.408  28.499  1.00  0.00     0.173 A 
ATOM     55  F   UNL A   1      40.256  28.183  31.622  1.00  0.00    -0.203 F 
ATOM     56  C   UNL A   1      38.081  28.928  31.122  1.00  0.00     0.198 A 
ATOM     57  C   UNL A   1      37.549  29.683  28.907  1.00  0.00     0.198 A 
ATOM     58  F   UNL A   1      39.191  29.643  27.222  1.00  0.00    -0.203 F 
ATOM     59  F   UNL A   1      37.702  28.662  32.380  1.00  0.00    -0.200 F 
ATOM     60  C   UNL A   1      37.163  29.436  30.215  1.00  0.00     0.200 A 
ATOM     61  F   UNL A   1      36.666  30.186  28.033  1.00  0.00    -0.200 F 
ATOM     62  F   UNL A   1      35.903  29.682  30.601  1.00  0.00    -0.200 F 
ENDBRANCH  38  52
BRANCH  39  63
ATOM     63  C   UNL A   1      48.989  26.820  26.103  1.00  0.00     0.064 A 
ATOM     64  C   UNL A   1      49.297  27.018  24.750  1.00  0.00     0.173 A 
ATOM     65  C   UNL A   1      50.004  26.340  26.941  1.00  0.00     0.173 A 
ATOM     66  F   UNL A   1      48.351  27.456  23.905  1.00  0.00    -0.203 F 
ATOM     67  C   UNL A   1      50.564  26.728  24.251  1.00  0.00     0.198 A 
ATOM     68  C   UNL A   1      51.280  26.076  26.446  1.00  0.00     0.198 A 
ATOM     69  F   UNL A   1      49.761  26.140  28.245  1.00  0.00    -0.203 F 
ATOM     70  F   UNL A   1      50.821  26.884  22.944  1.00  0.00    -0.200 F 
ATOM     71  C   UNL A   1      51.557  26.262  25.100  1.00  0.00     0.200 A 
ATOM     72  F   UNL A   1      52.239  25.639  27.273  1.00  0.00    -0.200 F 
ATOM     73  F   UNL A   1      52.778  25.987  24.622  1.00  0.00    -0.200 F 
ENDBRANCH  39  63
BRANCH  51  74
ATOM     74  C   UNL A   1      45.988  32.534  28.724  1.00  0.00     0.064 A 
ATOM     75  C   UNL A   1      46.612  32.855  29.938  1.00  0.00     0.173 A 
ATOM     76  C   UNL A   1      45.893  33.537  27.747  1.00  0.00     0.173 A 
ATOM     77  F   UNL A   1      46.711  31.934  30.909  1.00  0.00    -0.203 F 
ATOM     78  C   UNL A   1      47.102  34.136  30.174  1.00  0.00     0.198 A 
ATOM     79  C   UNL A   1      46.411  34.809  27.975  1.00  0.00     0.198 A 
ATOM     80  F   UNL A   1      45.311  33.278  26.567  1.00  0.00    -0.203 F 
ATOM     81  F   UNL A   1      47.655  34.433  31.357  1.00  0.00    -0.200 F 
ATOM     82  C   UNL A   1      47.008  35.110  29.189  1.00  0.00     0.200 A 
ATOM     83  F   UNL A   1      46.329  35.744  27.018  1.00  0.00    -0.200 F 
ATOM     84  F   UNL A   1      47.487  36.340  29.415  1.00  0.00    -0.200 F 
ENDBRANCH  51  74
ENDBRANCH  25  26
ENDBRANCH  17  20
ENDBRANCH  15  16
ENDBRANCH  14  15
ENDBRANCH   1  14
TORSDOF 13
ENDMDL
