MODEL 1
REMARK VINA RESULT:     -11.0      0.000      0.000
REMARK SMILES CCCC[C@@](CC)(C[C@H]1CCOC1)C(=O)NCCCNC(=O)c1ccc(-c2c3nc(c(-c4c(F)c(F)c(F)c(F)c4F)c4ccc([nH]4)c(-c4c(F)c(F)c(F)c(F)c4F)c4nc(c(-c5c(F)c(F)c(F)c(F)c5F)c5ccc2[nH]5)C=C4)C=C3)cc1
REMARK SMILES IDX 17 1 16 2 14 3 15 4 5 6 4 7 3 8 2 9 1 10 6 11 7 12 8 13 9 14
REMARK SMILES IDX 10 15 13 16 11 17 12 18 18 19 19 20 20 21 21 22 22 24 23 25
REMARK SMILES IDX 24 26 85 27 25 28 84 29 26 30 27 31 28 32 78 33 29 34 83 35
REMARK SMILES IDX 77 36 79 37 30 38 82 39 76 40 75 41 31 43 63 44 43 45 62 46
REMARK SMILES IDX 44 47 47 48 61 49 80 50 45 51 46 52 60 54 81 55 48 56 32 57
REMARK SMILES IDX 33 58 41 59 34 60 35 61 39 62 42 63 36 64 37 65 40 66 38 67
REMARK SMILES IDX 64 68 65 69 73 70 66 71 67 72 71 73 74 74 68 75 69 76 72 77
REMARK SMILES IDX 70 78 49 79 50 80 58 81 51 82 52 83 56 84 59 85 53 86 54 87
REMARK SMILES IDX 57 88 55 89
REMARK H PARENT 16 5 20 23 79 42 47 53
REMARK Flexibility Score: inf
ROOT
ATOM      1  C   UNL A   1      31.699  30.627  26.129  1.00  0.00     0.117 C 
ENDROOT
BRANCH   1   2
ATOM      2  N   UNL A   1      31.041  30.276  24.877  1.00  0.00    -0.356 N 
ATOM      3  C   UNL A   1      31.037  29.191  24.059  1.00  0.00     0.226 C 
ATOM      4  O   UNL A   1      30.428  29.366  23.002  1.00  0.00    -0.274 OA
ATOM      5  H   UNL A   1      30.461  30.998  24.545  1.00  0.00     0.163 HD
BRANCH   3   6
ATOM      6  C   UNL A   1      31.773  27.871  24.382  1.00  0.00     0.049 C 
BRANCH   6   7
ATOM      7  C   UNL A   1      31.422  27.265  25.789  1.00  0.00     0.017 C 
BRANCH   7   8
ATOM      8  C   UNL A   1      30.791  25.864  25.924  1.00  0.00     0.001 C 
BRANCH   8   9
ATOM      9  C   UNL A   1      31.633  24.757  26.565  1.00  0.00    -0.003 C 
ATOM     10  C   UNL A   1      33.121  24.826  26.243  1.00  0.00     0.004 C 
ENDBRANCH   8   9
ENDBRANCH   7   8
ENDBRANCH   6   7
BRANCH   6  11
ATOM     11  C   UNL A   1      33.311  28.185  24.366  1.00  0.00     0.013 C 
ATOM     12  C   UNL A   1      33.859  28.909  23.143  1.00  0.00     0.005 C 
ENDBRANCH   6  11
BRANCH   6  13
ATOM     13  C   UNL A   1      31.339  26.822  23.294  1.00  0.00     0.023 C 
BRANCH  13  14
ATOM     14  C   UNL A   1      32.341  25.758  22.747  1.00  0.00     0.018 C 
ATOM     15  C   UNL A   1      32.087  24.264  22.839  1.00  0.00     0.034 C 
ATOM     16  C   UNL A   1      32.557  25.889  21.240  1.00  0.00     0.163 C 
ATOM     17  C   UNL A   1      33.028  23.688  21.800  1.00  0.00     0.160 C 
ATOM     18  O   UNL A   1      33.212  24.693  20.799  1.00  0.00    -0.381 OA
ENDBRANCH  13  14
ENDBRANCH   6  13
ENDBRANCH   3   6
ENDBRANCH   1   2
BRANCH   1  19
ATOM     19  C   UNL A   1      31.498  32.088  26.506  1.00  0.00     0.042 C 
BRANCH  19  20
ATOM     20  C   UNL A   1      32.655  32.703  27.277  1.00  0.00     0.118 C 
BRANCH  20  21
ATOM     21  N   UNL A   1      32.416  34.100  27.609  1.00  0.00    -0.352 N 
ATOM     22  C   UNL A   1      32.974  34.867  28.599  1.00  0.00     0.251 C 
ATOM     23  H   UNL A   1      31.758  34.561  27.039  1.00  0.00     0.163 HD
ATOM     24  O   UNL A   1      32.487  35.963  28.878  1.00  0.00    -0.269 OA
BRANCH  22  25
ATOM     25  C   UNL A   1      34.144  34.369  29.350  1.00  0.00     0.039 A 
ATOM     26  C   UNL A   1      33.945  33.745  30.584  1.00  0.00     0.014 A 
ATOM     27  C   UNL A   1      35.435  34.518  28.839  1.00  0.00     0.014 A 
ATOM     28  C   UNL A   1      35.036  33.209  31.272  1.00  0.00     0.010 A 
ATOM     29  C   UNL A   1      36.506  33.902  29.477  1.00  0.00     0.010 A 
ATOM     30  C   UNL A   1      36.320  33.250  30.705  1.00  0.00    -0.014 A 
BRANCH  30  31
ATOM     31  C   UNL A   1      37.487  32.630  31.382  1.00  0.00     0.031 A 
ATOM     32  C   UNL A   1      38.202  31.474  30.740  1.00  0.00     0.074 A 
ATOM     33  C   UNL A   1      37.854  33.057  32.605  1.00  0.00     0.049 A 
ATOM     34  N   UNL A   1      39.182  30.741  31.207  1.00  0.00    -0.248 NA
ATOM     35  C   UNL A   1      37.734  31.066  29.406  1.00  0.00     0.031 C 
ATOM     36  C   UNL A   1      37.205  34.133  33.356  1.00  0.00     0.029 A 
ATOM     37  N   UNL A   1      38.852  32.623  33.444  1.00  0.00    -0.354 N 
ATOM     38  C   UNL A   1      39.429  29.779  30.237  1.00  0.00     0.074 A 
ATOM     39  C   UNL A   1      38.461  29.983  29.181  1.00  0.00     0.031 C 
ATOM     40  C   UNL A   1      37.830  34.286  34.534  1.00  0.00     0.029 A 
ATOM     41  C   UNL A   1      38.895  33.294  34.641  1.00  0.00     0.049 A 
ATOM     42  H   UNL A   1      39.477  31.900  33.207  1.00  0.00     0.167 HD
ATOM     43  C   UNL A   1      40.393  28.827  30.215  1.00  0.00     0.037 A 
ATOM     44  C   UNL A   1      39.695  33.119  35.710  1.00  0.00     0.037 A 
ATOM     45  C   UNL A   1      41.368  28.644  31.258  1.00  0.00     0.049 A 
ATOM     46  C   UNL A   1      40.756  32.053  35.666  1.00  0.00     0.074 A 
ATOM     47  C   UNL A   1      42.427  27.756  31.302  1.00  0.00     0.029 A 
ATOM     48  N   UNL A   1      41.397  29.362  32.445  1.00  0.00    -0.354 N 
ATOM     49  N   UNL A   1      41.032  31.200  34.708  1.00  0.00    -0.248 NA
ATOM     50  C   UNL A   1      41.621  31.928  36.846  1.00  0.00     0.031 C 
ATOM     51  C   UNL A   1      43.065  27.898  32.538  1.00  0.00     0.029 A 
ATOM     52  C   UNL A   1      42.441  28.917  33.241  1.00  0.00     0.049 A 
ATOM     53  H   UNL A   1      40.770  30.082  32.686  1.00  0.00     0.167 HD
ATOM     54  C   UNL A   1      42.117  30.459  35.158  1.00  0.00     0.074 A 
ATOM     55  C   UNL A   1      42.458  30.972  36.469  1.00  0.00     0.031 C 
ATOM     56  C   UNL A   1      42.771  29.444  34.541  1.00  0.00     0.037 A 
BRANCH  43  57
ATOM     57  C   UNL A   1      40.437  27.911  29.025  1.00  0.00     0.064 A 
ATOM     58  C   UNL A   1      41.233  28.196  27.905  1.00  0.00     0.173 A 
ATOM     59  C   UNL A   1      39.694  26.722  29.015  1.00  0.00     0.173 A 
ATOM     60  F   UNL A   1      41.955  29.326  27.858  1.00  0.00    -0.203 F 
ATOM     61  C   UNL A   1      41.252  27.344  26.803  1.00  0.00     0.198 A 
ATOM     62  C   UNL A   1      39.743  25.854  27.926  1.00  0.00     0.198 A 
ATOM     63  F   UNL A   1      38.922  26.396  30.063  1.00  0.00    -0.203 F 
ATOM     64  F   UNL A   1      41.973  27.668  25.721  1.00  0.00    -0.200 F 
ATOM     65  C   UNL A   1      40.513  26.171  26.817  1.00  0.00     0.200 A 
ATOM     66  F   UNL A   1      39.040  24.713  27.948  1.00  0.00    -0.200 F 
ATOM     67  F   UNL A   1      40.537  25.348  25.760  1.00  0.00    -0.200 F 
ENDBRANCH  43  57
BRANCH  44  68
ATOM     68  C   UNL A   1      39.531  33.986  36.907  1.00  0.00     0.064 A 
ATOM     69  C   UNL A   1      38.774  33.560  38.007  1.00  0.00     0.173 A 
ATOM     70  C   UNL A   1      40.127  35.254  36.976  1.00  0.00     0.173 A 
ATOM     71  F   UNL A   1      38.168  32.364  37.981  1.00  0.00    -0.203 F 
ATOM     72  C   UNL A   1      38.605  34.377  39.124  1.00  0.00     0.198 A 
ATOM     73  C   UNL A   1      39.983  36.056  38.105  1.00  0.00     0.198 A 
ATOM     74  F   UNL A   1      40.867  35.705  35.953  1.00  0.00    -0.203 F 
ATOM     75  F   UNL A   1      37.841  33.963  40.144  1.00  0.00    -0.200 F 
ATOM     76  C   UNL A   1      39.216  35.621  39.175  1.00  0.00     0.200 A 
ATOM     77  F   UNL A   1      40.588  37.250  38.158  1.00  0.00    -0.200 F 
ATOM     78  F   UNL A   1      39.059  36.403  40.253  1.00  0.00    -0.200 F 
ENDBRANCH  44  68
BRANCH  56  79
ATOM     79  C   UNL A   1      43.945  28.843  35.258  1.00  0.00     0.064 A 
ATOM     80  C   UNL A   1      45.247  29.333  35.083  1.00  0.00     0.173 A 
ATOM     81  C   UNL A   1      43.755  27.793  36.171  1.00  0.00     0.173 A 
ATOM     82  F   UNL A   1      45.484  30.324  34.210  1.00  0.00    -0.203 F 
ATOM     83  C   UNL A   1      46.320  28.779  35.777  1.00  0.00     0.198 A 
ATOM     84  C   UNL A   1      44.824  27.264  36.887  1.00  0.00     0.198 A 
ATOM     85  F   UNL A   1      42.528  27.293  36.380  1.00  0.00    -0.203 F 
ATOM     86  F   UNL A   1      47.562  29.232  35.560  1.00  0.00    -0.200 F 
ATOM     87  C   UNL A   1      46.106  27.753  36.686  1.00  0.00     0.200 A 
ATOM     88  F   UNL A   1      44.614  26.282  37.775  1.00  0.00    -0.200 F 
ATOM     89  F   UNL A   1      47.138  27.228  37.361  1.00  0.00    -0.200 F 
ENDBRANCH  56  79
ENDBRANCH  30  31
ENDBRANCH  22  25
ENDBRANCH  20  21
ENDBRANCH  19  20
ENDBRANCH   1  19
TORSDOF 16
ENDMDL
MODEL 2
REMARK VINA RESULT:     -11.0      1.055      2.591
REMARK SMILES CCCC[C@@](CC)(C[C@H]1CCOC1)C(=O)NCCCNC(=O)c1ccc(-c2c3nc(c(-c4c(F)c(F)c(F)c(F)c4F)c4ccc([nH]4)c(-c4c(F)c(F)c(F)c(F)c4F)c4nc(c(-c5c(F)c(F)c(F)c(F)c5F)c5ccc2[nH]5)C=C4)C=C3)cc1
REMARK SMILES IDX 17 1 16 2 14 3 15 4 5 6 4 7 3 8 2 9 1 10 6 11 7 12 8 13 9 14
REMARK SMILES IDX 10 15 13 16 11 17 12 18 18 19 19 20 20 21 21 22 22 24 23 25
REMARK SMILES IDX 24 26 85 27 25 28 84 29 26 30 27 31 28 32 78 33 29 34 83 35
REMARK SMILES IDX 77 36 79 37 30 38 82 39 76 40 75 41 31 43 63 44 43 45 62 46
REMARK SMILES IDX 44 47 47 48 61 49 80 50 45 51 46 52 60 54 81 55 48 56 32 57
REMARK SMILES IDX 33 58 41 59 34 60 35 61 39 62 42 63 36 64 37 65 40 66 38 67
REMARK SMILES IDX 64 68 65 69 73 70 66 71 67 72 71 73 74 74 68 75 69 76 72 77
REMARK SMILES IDX 70 78 49 79 50 80 58 81 51 82 52 83 56 84 59 85 53 86 54 87
REMARK SMILES IDX 57 88 55 89
REMARK H PARENT 16 5 20 23 79 42 47 53
REMARK Flexibility Score: inf
ROOT
ATOM      1  C   UNL A   1      31.612  30.246  26.073  1.00  0.00     0.117 C 
ENDROOT
BRANCH   1   2
ATOM      2  N   UNL A   1      32.639  29.984  25.073  1.00  0.00    -0.356 N 
ATOM      3  C   UNL A   1      32.775  29.123  24.031  1.00  0.00     0.226 C 
ATOM      4  O   UNL A   1      33.891  29.144  23.509  1.00  0.00    -0.274 OA
ATOM      5  H   UNL A   1      33.421  30.572  25.177  1.00  0.00     0.163 HD
BRANCH   3   6
ATOM      6  C   UNL A   1      31.662  28.155  23.567  1.00  0.00     0.049 C 
BRANCH   6   7
ATOM      7  C   UNL A   1      30.867  27.477  24.741  1.00  0.00     0.017 C 
BRANCH   7   8
ATOM      8  C   UNL A   1      31.576  26.579  25.775  1.00  0.00     0.001 C 
BRANCH   8   9
ATOM      9  C   UNL A   1      30.962  25.209  26.075  1.00  0.00    -0.003 C 
ATOM     10  C   UNL A   1      30.726  24.338  24.846  1.00  0.00     0.004 C 
ENDBRANCH   8   9
ENDBRANCH   7   8
ENDBRANCH   6   7
BRANCH   6  11
ATOM     11  C   UNL A   1      32.357  27.016  22.739  1.00  0.00     0.013 C 
ATOM     12  C   UNL A   1      31.490  26.248  21.750  1.00  0.00     0.005 C 
ENDBRANCH   6  11
BRANCH   6  13
ATOM     13  C   UNL A   1      30.636  28.999  22.726  1.00  0.00     0.023 C 
BRANCH  13  14
ATOM     14  C   UNL A   1      29.354  29.602  23.379  1.00  0.00     0.018 C 
ATOM     15  C   UNL A   1      29.066  31.092  23.406  1.00  0.00     0.034 C 
ATOM     16  C   UNL A   1      28.075  29.107  22.704  1.00  0.00     0.163 C 
ATOM     17  C   UNL A   1      27.576  31.154  23.675  1.00  0.00     0.160 C 
ATOM     18  O   UNL A   1      27.006  29.953  23.147  1.00  0.00    -0.381 OA
ENDBRANCH  13  14
ENDBRANCH   6  13
ENDBRANCH   3   6
ENDBRANCH   1   2
BRANCH   1  19
ATOM     19  C   UNL A   1      31.449  31.730  26.367  1.00  0.00     0.042 C 
BRANCH  19  20
ATOM     20  C   UNL A   1      32.575  32.336  27.189  1.00  0.00     0.118 C 
BRANCH  20  21
ATOM     21  N   UNL A   1      32.370  33.754  27.446  1.00  0.00    -0.352 N 
ATOM     22  C   UNL A   1      32.970  34.566  28.373  1.00  0.00     0.251 C 
ATOM     23  H   UNL A   1      31.703  34.194  26.870  1.00  0.00     0.163 HD
ATOM     24  O   UNL A   1      32.511  35.685  28.601  1.00  0.00    -0.269 OA
BRANCH  22  25
ATOM     25  C   UNL A   1      34.155  34.091  29.116  1.00  0.00     0.039 A 
ATOM     26  C   UNL A   1      33.973  33.279  30.238  1.00  0.00     0.014 A 
ATOM     27  C   UNL A   1      35.442  34.446  28.709  1.00  0.00     0.014 A 
ATOM     28  C   UNL A   1      35.086  32.767  30.909  1.00  0.00     0.010 A 
ATOM     29  C   UNL A   1      36.547  33.861  29.318  1.00  0.00     0.010 A 
ATOM     30  C   UNL A   1      36.381  33.023  30.431  1.00  0.00    -0.014 A 
BRANCH  30  31
ATOM     31  C   UNL A   1      37.579  32.438  31.084  1.00  0.00     0.031 A 
ATOM     32  C   UNL A   1      38.337  31.329  30.411  1.00  0.00     0.074 A 
ATOM     33  C   UNL A   1      37.938  32.853  32.314  1.00  0.00     0.049 A 
ATOM     34  N   UNL A   1      39.350  30.627  30.853  1.00  0.00    -0.248 NA
ATOM     35  C   UNL A   1      37.873  30.931  29.072  1.00  0.00     0.031 C 
ATOM     36  C   UNL A   1      37.251  33.884  33.094  1.00  0.00     0.029 A 
ATOM     37  N   UNL A   1      38.962  32.443  33.134  1.00  0.00    -0.354 N 
ATOM     38  C   UNL A   1      39.629  29.699  29.859  1.00  0.00     0.074 A 
ATOM     39  C   UNL A   1      38.643  29.885  28.816  1.00  0.00     0.031 C 
ATOM     40  C   UNL A   1      37.880  34.037  34.271  1.00  0.00     0.029 A 
ATOM     41  C   UNL A   1      38.987  33.088  34.346  1.00  0.00     0.049 A 
ATOM     42  H   UNL A   1      39.614  31.753  32.877  1.00  0.00     0.167 HD
ATOM     43  C   UNL A   1      40.632  28.789  29.808  1.00  0.00     0.037 A 
ATOM     44  C   UNL A   1      39.803  32.923  35.405  1.00  0.00     0.037 A 
ATOM     45  C   UNL A   1      41.623  28.624  30.839  1.00  0.00     0.049 A 
ATOM     46  C   UNL A   1      40.907  31.904  35.328  1.00  0.00     0.074 A 
ATOM     47  C   UNL A   1      42.719  27.780  30.854  1.00  0.00     0.029 A 
ATOM     48  N   UNL A   1      41.632  29.316  32.041  1.00  0.00    -0.354 N 
ATOM     49  N   UNL A   1      41.211  31.085  34.349  1.00  0.00    -0.248 NA
ATOM     50  C   UNL A   1      41.788  31.790  36.498  1.00  0.00     0.031 C 
ATOM     51  C   UNL A   1      43.361  27.922  32.088  1.00  0.00     0.029 A 
ATOM     52  C   UNL A   1      42.701  28.898  32.819  1.00  0.00     0.049 A 
ATOM     53  H   UNL A   1      40.977  30.003  32.304  1.00  0.00     0.167 HD
ATOM     54  C   UNL A   1      42.329  30.381  34.773  1.00  0.00     0.074 A 
ATOM     55  C   UNL A   1      42.660  30.879  36.092  1.00  0.00     0.031 C 
ATOM     56  C   UNL A   1      43.021  29.409  34.127  1.00  0.00     0.037 A 
BRANCH  43  57
ATOM     57  C   UNL A   1      40.704  27.903  28.597  1.00  0.00     0.064 A 
ATOM     58  C   UNL A   1      40.037  26.668  28.547  1.00  0.00     0.173 A 
ATOM     59  C   UNL A   1      41.426  28.303  27.464  1.00  0.00     0.173 A 
ATOM     60  F   UNL A   1      39.341  26.232  29.608  1.00  0.00    -0.203 F 
ATOM     61  C   UNL A   1      40.124  25.851  27.423  1.00  0.00     0.198 A 
ATOM     62  C   UNL A   1      41.483  27.499  26.328  1.00  0.00     0.198 A 
ATOM     63  F   UNL A   1      42.076  29.476  27.455  1.00  0.00    -0.203 F 
ATOM     64  F   UNL A   1      39.529  24.650  27.422  1.00  0.00    -0.200 F 
ATOM     65  C   UNL A   1      40.841  26.269  26.312  1.00  0.00     0.200 A 
ATOM     66  F   UNL A   1      42.162  27.912  25.250  1.00  0.00    -0.200 F 
ATOM     67  F   UNL A   1      40.919  25.485  25.228  1.00  0.00    -0.200 F 
ENDBRANCH  43  57
BRANCH  44  68
ATOM     68  C   UNL A   1      39.613  33.756  36.622  1.00  0.00     0.064 A 
ATOM     69  C   UNL A   1      38.850  33.290  37.702  1.00  0.00     0.173 A 
ATOM     70  C   UNL A   1      40.191  35.029  36.733  1.00  0.00     0.173 A 
ATOM     71  F   UNL A   1      38.260  32.087  37.636  1.00  0.00    -0.203 F 
ATOM     72  C   UNL A   1      38.657  34.074  38.838  1.00  0.00     0.198 A 
ATOM     73  C   UNL A   1      40.023  35.798  37.881  1.00  0.00     0.198 A 
ATOM     74  F   UNL A   1      40.937  35.517  35.730  1.00  0.00    -0.203 F 
ATOM     75  F   UNL A   1      37.887  33.623  39.837  1.00  0.00    -0.200 F 
ATOM     76  C   UNL A   1      39.249  35.324  38.929  1.00  0.00     0.200 A 
ATOM     77  F   UNL A   1      40.611  36.999  37.973  1.00  0.00    -0.200 F 
ATOM     78  F   UNL A   1      39.069  36.075  40.025  1.00  0.00    -0.200 F 
ENDBRANCH  44  68
BRANCH  56  79
ATOM     79  C   UNL A   1      44.225  28.842  34.821  1.00  0.00     0.064 A 
ATOM     80  C   UNL A   1      44.139  27.703  35.636  1.00  0.00     0.173 A 
ATOM     81  C   UNL A   1      45.491  29.418  34.628  1.00  0.00     0.173 A 
ATOM     82  F   UNL A   1      42.950  27.124  35.865  1.00  0.00    -0.203 F 
ATOM     83  C   UNL A   1      45.272  27.176  36.250  1.00  0.00     0.198 A 
ATOM     84  C   UNL A   1      46.625  28.869  35.218  1.00  0.00     0.198 A 
ATOM     85  F   UNL A   1      45.628  30.503  33.853  1.00  0.00    -0.203 F 
ATOM     86  F   UNL A   1      45.160  26.115  37.061  1.00  0.00    -0.200 F 
ATOM     87  C   UNL A   1      46.515  27.752  36.033  1.00  0.00     0.200 A 
ATOM     88  F   UNL A   1      47.827  29.419  34.995  1.00  0.00    -0.200 F 
ATOM     89  F   UNL A   1      47.605  27.237  36.617  1.00  0.00    -0.200 F 
ENDBRANCH  56  79
ENDBRANCH  30  31
ENDBRANCH  22  25
ENDBRANCH  20  21
ENDBRANCH  19  20
ENDBRANCH   1  19
TORSDOF 16
ENDMDL
MODEL 3
REMARK VINA RESULT:     -10.7      5.519     10.192
REMARK SMILES CCCC[C@@](CC)(C[C@H]1CCOC1)C(=O)NCCCNC(=O)c1ccc(-c2c3nc(c(-c4c(F)c(F)c(F)c(F)c4F)c4ccc([nH]4)c(-c4c(F)c(F)c(F)c(F)c4F)c4nc(c(-c5c(F)c(F)c(F)c(F)c5F)c5ccc2[nH]5)C=C4)C=C3)cc1
REMARK SMILES IDX 17 1 16 2 14 3 15 4 5 6 4 7 3 8 2 9 1 10 6 11 7 12 8 13 9 14
REMARK SMILES IDX 10 15 13 16 11 17 12 18 18 19 19 20 20 21 21 22 22 24 23 25
REMARK SMILES IDX 24 26 85 27 25 28 84 29 26 30 27 31 28 32 78 33 29 34 83 35
REMARK SMILES IDX 77 36 79 37 30 38 82 39 76 40 75 41 31 43 63 44 43 45 62 46
REMARK SMILES IDX 44 47 47 48 61 49 80 50 45 51 46 52 60 54 81 55 48 56 32 57
REMARK SMILES IDX 33 58 41 59 34 60 35 61 39 62 42 63 36 64 37 65 40 66 38 67
REMARK SMILES IDX 64 68 65 69 73 70 66 71 67 72 71 73 74 74 68 75 69 76 72 77
REMARK SMILES IDX 70 78 49 79 50 80 58 81 51 82 52 83 56 84 59 85 53 86 54 87
REMARK SMILES IDX 57 88 55 89
REMARK H PARENT 16 5 20 23 79 42 47 53
REMARK Flexibility Score: inf
ROOT
ATOM      1  C   UNL A   1      42.737  21.623  25.914  1.00  0.00     0.117 C 
ENDROOT
BRANCH   1   2
ATOM      2  N   UNL A   1      44.162  21.336  25.822  1.00  0.00    -0.356 N 
ATOM      3  C   UNL A   1      45.293  22.083  25.718  1.00  0.00     0.226 C 
ATOM      4  O   UNL A   1      46.313  21.418  25.527  1.00  0.00    -0.274 OA
ATOM      5  H   UNL A   1      44.351  20.371  25.840  1.00  0.00     0.163 HD
BRANCH   3   6
ATOM      6  C   UNL A   1      45.309  23.627  25.772  1.00  0.00     0.049 C 
BRANCH   6   7
ATOM      7  C   UNL A   1      44.807  24.230  27.133  1.00  0.00     0.017 C 
BRANCH   7   8
ATOM      8  C   UNL A   1      45.211  23.605  28.484  1.00  0.00     0.001 C 
BRANCH   8   9
ATOM      9  C   UNL A   1      44.095  23.121  29.414  1.00  0.00    -0.003 C 
ATOM     10  C   UNL A   1      44.156  23.692  30.826  1.00  0.00     0.004 C 
ENDBRANCH   8   9
ENDBRANCH   7   8
ENDBRANCH   6   7
BRANCH   6  11
ATOM     11  C   UNL A   1      44.349  24.138  24.638  1.00  0.00     0.013 C 
ATOM     12  C   UNL A   1      43.373  25.248  25.003  1.00  0.00     0.005 C 
ENDBRANCH   6  11
BRANCH   6  13
ATOM     13  C   UNL A   1      46.801  24.081  25.576  1.00  0.00     0.023 C 
BRANCH  13  14
ATOM     14  C   UNL A   1      47.154  25.503  25.040  1.00  0.00     0.018 C 
ATOM     15  C   UNL A   1      46.622  26.776  25.674  1.00  0.00     0.034 C 
ATOM     16  C   UNL A   1      48.653  25.791  25.107  1.00  0.00     0.163 C 
ATOM     17  C   UNL A   1      47.571  27.842  25.161  1.00  0.00     0.160 C 
ATOM     18  O   UNL A   1      48.824  27.200  24.912  1.00  0.00    -0.381 OA
ENDBRANCH  13  14
ENDBRANCH   6  13
ENDBRANCH   3   6
ENDBRANCH   1   2
BRANCH   1  19
ATOM     19  C   UNL A   1      42.067  20.891  27.068  1.00  0.00     0.042 C 
BRANCH  19  20
ATOM     20  C   UNL A   1      40.859  21.608  27.651  1.00  0.00     0.118 C 
BRANCH  20  21
ATOM     21  N   UNL A   1      39.758  21.694  26.703  1.00  0.00    -0.352 N 
ATOM     22  C   UNL A   1      38.943  22.757  26.410  1.00  0.00     0.251 C 
ATOM     23  H   UNL A   1      39.572  20.869  26.198  1.00  0.00     0.163 HD
ATOM     24  O   UNL A   1      37.920  22.585  25.747  1.00  0.00    -0.269 OA
BRANCH  22  25
ATOM     25  C   UNL A   1      39.279  24.106  26.909  1.00  0.00     0.039 A 
ATOM     26  C   UNL A   1      38.912  24.460  28.210  1.00  0.00     0.014 A 
ATOM     27  C   UNL A   1      39.952  25.020  26.096  1.00  0.00     0.014 A 
ATOM     28  C   UNL A   1      39.284  25.708  28.717  1.00  0.00     0.010 A 
ATOM     29  C   UNL A   1      40.402  26.221  26.632  1.00  0.00     0.010 A 
ATOM     30  C   UNL A   1      40.065  26.582  27.945  1.00  0.00    -0.014 A 
BRANCH  30  31
ATOM     31  C   UNL A   1      40.530  27.886  28.482  1.00  0.00     0.031 A 
ATOM     32  C   UNL A   1      41.975  28.075  28.850  1.00  0.00     0.074 A 
ATOM     33  C   UNL A   1      39.640  28.871  28.708  1.00  0.00     0.049 A 
ATOM     34  N   UNL A   1      42.561  29.102  29.414  1.00  0.00    -0.248 NA
ATOM     35  C   UNL A   1      42.879  26.947  28.577  1.00  0.00     0.031 C 
ATOM     36  C   UNL A   1      38.203  28.791  28.443  1.00  0.00     0.029 A 
ATOM     37  N   UNL A   1      39.811  30.130  29.232  1.00  0.00    -0.354 N 
ATOM     38  C   UNL A   1      43.890  28.734  29.580  1.00  0.00     0.074 A 
ATOM     39  C   UNL A   1      44.013  27.371  29.112  1.00  0.00     0.031 C 
ATOM     40  C   UNL A   1      37.626  29.952  28.790  1.00  0.00     0.029 A 
ATOM     41  C   UNL A   1      38.642  30.843  29.340  1.00  0.00     0.049 A 
ATOM     42  H   UNL A   1      40.687  30.486  29.503  1.00  0.00     0.167 HD
ATOM     43  C   UNL A   1      44.919  29.475  30.056  1.00  0.00     0.037 A 
ATOM     44  C   UNL A   1      38.416  32.073  29.840  1.00  0.00     0.037 A 
ATOM     45  C   UNL A   1      44.794  30.838  30.499  1.00  0.00     0.049 A 
ATOM     46  C   UNL A   1      39.574  32.876  30.367  1.00  0.00     0.074 A 
ATOM     47  C   UNL A   1      45.785  31.699  30.934  1.00  0.00     0.029 A 
ATOM     48  N   UNL A   1      43.597  31.538  30.568  1.00  0.00    -0.354 N 
ATOM     49  N   UNL A   1      40.841  32.548  30.445  1.00  0.00    -0.248 NA
ATOM     50  C   UNL A   1      39.273  34.224  30.869  1.00  0.00     0.031 C 
ATOM     51  C   UNL A   1      45.183  32.901  31.318  1.00  0.00     0.029 A 
ATOM     52  C   UNL A   1      43.823  32.812  31.065  1.00  0.00     0.049 A 
ATOM     53  H   UNL A   1      42.718  31.182  30.303  1.00  0.00     0.167 HD
ATOM     54  C   UNL A   1      41.490  33.653  30.977  1.00  0.00     0.074 A 
ATOM     55  C   UNL A   1      40.479  34.668  31.189  1.00  0.00     0.031 C 
ATOM     56  C   UNL A   1      42.806  33.813  31.264  1.00  0.00     0.037 A 
BRANCH  43  57
ATOM     57  C   UNL A   1      46.271  28.822  30.122  1.00  0.00     0.064 A 
ATOM     58  C   UNL A   1      47.166  28.870  29.042  1.00  0.00     0.173 A 
ATOM     59  C   UNL A   1      46.686  28.162  31.287  1.00  0.00     0.173 A 
ATOM     60  F   UNL A   1      46.815  29.480  27.900  1.00  0.00    -0.203 F 
ATOM     61  C   UNL A   1      48.411  28.249  29.113  1.00  0.00     0.198 A 
ATOM     62  C   UNL A   1      47.945  27.571  31.368  1.00  0.00     0.198 A 
ATOM     63  F   UNL A   1      45.873  28.091  32.352  1.00  0.00    -0.203 F 
ATOM     64  F   UNL A   1      49.224  28.258  28.048  1.00  0.00    -0.200 F 
ATOM     65  C   UNL A   1      48.802  27.606  30.278  1.00  0.00     0.200 A 
ATOM     66  F   UNL A   1      48.327  26.963  32.499  1.00  0.00    -0.200 F 
ATOM     67  F   UNL A   1      50.002  27.013  30.347  1.00  0.00    -0.200 F 
ENDBRANCH  43  57
BRANCH  44  68
ATOM     68  C   UNL A   1      37.034  32.624  29.849  1.00  0.00     0.064 A 
ATOM     69  C   UNL A   1      36.213  32.490  30.977  1.00  0.00     0.173 A 
ATOM     70  C   UNL A   1      36.509  33.297  28.736  1.00  0.00     0.173 A 
ATOM     71  F   UNL A   1      36.662  31.838  32.059  1.00  0.00    -0.203 F 
ATOM     72  C   UNL A   1      34.912  32.991  30.984  1.00  0.00     0.198 A 
ATOM     73  C   UNL A   1      35.221  33.824  28.755  1.00  0.00     0.198 A 
ATOM     74  F   UNL A   1      37.258  33.459  27.634  1.00  0.00    -0.203 F 
ATOM     75  F   UNL A   1      34.133  32.811  32.059  1.00  0.00    -0.200 F 
ATOM     76  C   UNL A   1      34.420  33.664  29.875  1.00  0.00     0.200 A 
ATOM     77  F   UNL A   1      34.754  34.488  27.689  1.00  0.00    -0.200 F 
ATOM     78  F   UNL A   1      33.172  34.153  29.886  1.00  0.00    -0.200 F 
ENDBRANCH  44  68
BRANCH  56  79
ATOM     79  C   UNL A   1      43.237  35.145  31.806  1.00  0.00     0.064 A 
ATOM     80  C   UNL A   1      43.726  36.159  30.970  1.00  0.00     0.173 A 
ATOM     81  C   UNL A   1      43.111  35.426  33.176  1.00  0.00     0.173 A 
ATOM     82  F   UNL A   1      43.881  35.936  29.656  1.00  0.00    -0.203 F 
ATOM     83  C   UNL A   1      44.096  37.397  31.488  1.00  0.00     0.198 A 
ATOM     84  C   UNL A   1      43.451  36.676  33.685  1.00  0.00     0.198 A 
ATOM     85  F   UNL A   1      42.642  34.493  34.017  1.00  0.00    -0.203 F 
ATOM     86  F   UNL A   1      44.605  38.337  30.678  1.00  0.00    -0.200 F 
ATOM     87  C   UNL A   1      43.949  37.658  32.843  1.00  0.00     0.200 A 
ATOM     88  F   UNL A   1      43.295  36.930  34.992  1.00  0.00    -0.200 F 
ATOM     89  F   UNL A   1      44.295  38.854  33.338  1.00  0.00    -0.200 F 
ENDBRANCH  56  79
ENDBRANCH  30  31
ENDBRANCH  22  25
ENDBRANCH  20  21
ENDBRANCH  19  20
ENDBRANCH   1  19
TORSDOF 16
ENDMDL
