MODEL 1
REMARK VINA RESULT:     -11.2      0.000      0.000
REMARK SMILES O=C(NCCCNC(=O)C1CCN(c2nc(-c3ccc(F)cc3)cc(C(F)F)n2)CC1)c1ccc(-c2c3nc(c(-c4c(F)c(F)c(F)c(F)c4F)c4ccc([nH]4)c(-c4c(F)c(F)c(F)c(F)c4F)c4nc(c(-c5c(F)c(F)c(F)c(F)c5F)c5ccc2[nH]5)C=C4)C=C3)cc1
REMARK SMILES IDX 5 1 4 2 3 3 1 4 2 5 32 7 33 8 94 9 34 10 93 11 35 12 36 13
REMARK SMILES IDX 37 14 87 15 38 16 92 17 86 18 88 19 39 20 91 21 85 22 84 23
REMARK SMILES IDX 40 25 72 26 52 27 71 28 53 29 56 30 70 31 89 32 54 33 55 34
REMARK SMILES IDX 69 36 90 37 57 38 41 39 42 40 50 41 43 42 44 43 48 44 51 45
REMARK SMILES IDX 45 46 46 47 49 48 47 49 73 50 74 51 82 52 75 53 76 54 80 55
REMARK SMILES IDX 83 56 77 57 78 58 81 59 79 60 58 61 59 62 67 63 60 64 61 65
REMARK SMILES IDX 65 66 68 67 62 68 63 69 66 70 64 71 6 72 7 73 8 74 9 76
REMARK SMILES IDX 10 77 11 78 31 79 12 80 30 81 13 82 14 83 15 84 29 85 16 86
REMARK SMILES IDX 25 87 24 88 17 89 18 90 23 91 19 92 22 93 20 94 21 95 26 96
REMARK SMILES IDX 27 97 28 98
REMARK H PARENT 3 6 88 24 56 35 7 75
REMARK Flexibility Score: inf
ROOT
ATOM      1  C   UNL A   1      33.280  33.800  28.022  1.00  0.00     0.042 C 
ENDROOT
BRANCH   1   2
ATOM      2  C   UNL A   1      34.291  32.665  28.024  1.00  0.00     0.118 C 
BRANCH   2   3
ATOM      3  N   UNL A   1      33.669  31.352  27.923  1.00  0.00    -0.352 N 
ATOM      4  O   UNL A   1      33.552  29.121  27.627  1.00  0.00    -0.269 OA
ATOM      5  C   UNL A   1      34.239  30.102  27.899  1.00  0.00     0.251 C 
ATOM      6  H   UNL A   1      32.687  31.361  27.860  1.00  0.00     0.163 HD
BRANCH   5   7
ATOM      7  C   UNL A   1      35.681  29.936  28.177  1.00  0.00     0.039 A 
ATOM      8  C   UNL A   1      36.627  30.125  27.170  1.00  0.00     0.014 A 
ATOM      9  C   UNL A   1      36.095  29.608  29.472  1.00  0.00     0.014 A 
ATOM     10  C   UNL A   1      37.959  29.819  27.407  1.00  0.00     0.010 A 
ATOM     11  C   UNL A   1      37.454  29.411  29.738  1.00  0.00     0.010 A 
ATOM     12  C   UNL A   1      38.394  29.486  28.700  1.00  0.00    -0.014 A 
BRANCH  12  13
ATOM     13  C   UNL A   1      39.847  29.312  28.945  1.00  0.00     0.031 A 
ATOM     14  C   UNL A   1      40.643  30.340  29.694  1.00  0.00     0.074 A 
ATOM     15  C   UNL A   1      40.434  28.178  28.511  1.00  0.00     0.049 A 
ATOM     16  N   UNL A   1      41.917  30.326  30.003  1.00  0.00    -0.248 NA
ATOM     17  C   UNL A   1      39.929  31.540  30.157  1.00  0.00     0.031 C 
ATOM     18  C   UNL A   1      39.756  27.115  27.765  1.00  0.00     0.029 A 
ATOM     19  N   UNL A   1      41.717  27.716  28.651  1.00  0.00    -0.354 N 
ATOM     20  C   UNL A   1      42.159  31.515  30.677  1.00  0.00     0.074 A 
ATOM     21  C   UNL A   1      40.908  32.241  30.718  1.00  0.00     0.031 C 
ATOM     22  C   UNL A   1      40.609  26.102  27.566  1.00  0.00     0.029 A 
ATOM     23  C   UNL A   1      41.913  26.473  28.100  1.00  0.00     0.049 A 
ATOM     24  H   UNL A   1      42.429  28.226  29.103  1.00  0.00     0.167 HD
ATOM     25  C   UNL A   1      43.323  31.950  31.216  1.00  0.00     0.037 A 
ATOM     26  C   UNL A   1      43.025  25.720  28.015  1.00  0.00     0.037 A 
ATOM     27  C   UNL A   1      44.557  31.207  31.192  1.00  0.00     0.049 A 
ATOM     28  C   UNL A   1      44.303  26.244  28.601  1.00  0.00     0.074 A 
ATOM     29  C   UNL A   1      45.779  31.552  31.744  1.00  0.00     0.029 A 
ATOM     30  N   UNL A   1      44.727  29.971  30.586  1.00  0.00    -0.354 N 
ATOM     31  N   UNL A   1      44.513  27.362  29.249  1.00  0.00    -0.248 NA
ATOM     32  C   UNL A   1      45.500  25.408  28.434  1.00  0.00     0.031 C 
ATOM     33  C   UNL A   1      46.699  30.548  31.434  1.00  0.00     0.029 A 
ATOM     34  C   UNL A   1      46.040  29.552  30.731  1.00  0.00     0.049 A 
ATOM     35  H   UNL A   1      44.020  29.467  30.123  1.00  0.00     0.167 HD
ATOM     36  C   UNL A   1      45.860  27.364  29.576  1.00  0.00     0.074 A 
ATOM     37  C   UNL A   1      46.415  26.123  29.074  1.00  0.00     0.031 C 
ATOM     38  C   UNL A   1      46.574  28.315  30.225  1.00  0.00     0.037 A 
BRANCH  25  39
ATOM     39  C   UNL A   1      43.339  33.292  31.886  1.00  0.00     0.064 A 
ATOM     40  C   UNL A   1      43.167  33.392  33.276  1.00  0.00     0.173 A 
ATOM     41  C   UNL A   1      43.406  34.480  31.144  1.00  0.00     0.173 A 
ATOM     42  F   UNL A   1      43.090  32.285  34.029  1.00  0.00    -0.203 F 
ATOM     43  C   UNL A   1      43.038  34.632  33.895  1.00  0.00     0.198 A 
ATOM     44  C   UNL A   1      43.299  35.721  31.771  1.00  0.00     0.198 A 
ATOM     45  F   UNL A   1      43.578  34.438  29.815  1.00  0.00    -0.203 F 
ATOM     46  F   UNL A   1      42.834  34.703  35.218  1.00  0.00    -0.200 F 
ATOM     47  C   UNL A   1      43.103  35.796  33.141  1.00  0.00     0.200 A 
ATOM     48  F   UNL A   1      43.378  36.844  31.044  1.00  0.00    -0.200 F 
ATOM     49  F   UNL A   1      42.973  36.989  33.737  1.00  0.00    -0.200 F 
ENDBRANCH  25  39
BRANCH  26  50
ATOM     50  C   UNL A   1      42.965  24.400  27.338  1.00  0.00     0.064 A 
ATOM     51  C   UNL A   1      42.625  23.236  28.044  1.00  0.00     0.173 A 
ATOM     52  C   UNL A   1      43.283  24.269  25.980  1.00  0.00     0.173 A 
ATOM     53  F   UNL A   1      42.319  23.307  29.348  1.00  0.00    -0.203 F 
ATOM     54  C   UNL A   1      42.630  21.990  27.423  1.00  0.00     0.198 A 
ATOM     55  C   UNL A   1      43.257  23.026  25.352  1.00  0.00     0.198 A 
ATOM     56  F   UNL A   1      43.597  25.356  25.259  1.00  0.00    -0.203 F 
ATOM     57  F   UNL A   1      42.344  20.889  28.132  1.00  0.00    -0.200 F 
ATOM     58  C   UNL A   1      42.941  21.886  26.077  1.00  0.00     0.200 A 
ATOM     59  F   UNL A   1      43.536  22.933  24.045  1.00  0.00    -0.200 F 
ATOM     60  F   UNL A   1      42.934  20.689  25.476  1.00  0.00    -0.200 F 
ENDBRANCH  26  50
BRANCH  38  61
ATOM     61  C   UNL A   1      48.033  28.050  30.443  1.00  0.00     0.064 A 
ATOM     62  C   UNL A   1      48.978  28.435  29.480  1.00  0.00     0.173 A 
ATOM     63  C   UNL A   1      48.487  27.354  31.573  1.00  0.00     0.173 A 
ATOM     64  F   UNL A   1      48.591  29.096  28.379  1.00  0.00    -0.203 F 
ATOM     65  C   UNL A   1      50.325  28.119  29.635  1.00  0.00     0.198 A 
ATOM     66  C   UNL A   1      49.838  27.064  31.738  1.00  0.00     0.198 A 
ATOM     67  F   UNL A   1      47.622  26.980  32.527  1.00  0.00    -0.203 F 
ATOM     68  F   UNL A   1      51.206  28.468  28.688  1.00  0.00    -0.200 F 
ATOM     69  C   UNL A   1      50.754  27.438  30.764  1.00  0.00     0.200 A 
ATOM     70  F   UNL A   1      50.255  26.427  32.840  1.00  0.00    -0.200 F 
ATOM     71  F   UNL A   1      52.052  27.143  30.917  1.00  0.00    -0.200 F 
ENDBRANCH  38  61
ENDBRANCH  12  13
ENDBRANCH   5   7
ENDBRANCH   2   3
ENDBRANCH   1   2
BRANCH   1  72
ATOM     72  C   UNL A   1      33.680  34.973  28.900  1.00  0.00     0.117 C 
BRANCH  72  73
ATOM     73  N   UNL A   1      33.160  34.847  30.251  1.00  0.00    -0.356 N 
ATOM     74  C   UNL A   1      33.820  34.593  31.417  1.00  0.00     0.223 C 
ATOM     75  H   UNL A   1      32.187  34.962  30.337  1.00  0.00     0.163 HD
ATOM     76  O   UNL A   1      33.147  34.422  32.433  1.00  0.00    -0.275 OA
BRANCH  74  77
ATOM     77  C   UNL A   1      35.340  34.545  31.405  1.00  0.00     0.082 C 
ATOM     78  C   UNL A   1      35.864  33.137  31.057  1.00  0.00     0.035 C 
ATOM     79  C   UNL A   1      35.907  35.019  32.756  1.00  0.00     0.035 C 
ATOM     80  C   UNL A   1      35.744  32.143  32.214  1.00  0.00     0.120 C 
ATOM     81  C   UNL A   1      35.634  34.004  33.864  1.00  0.00     0.120 C 
ATOM     82  N   UNL A   1      36.213  32.757  33.438  1.00  0.00    -0.341 N 
BRANCH  82  83
ATOM     83  C   UNL A   1      37.106  32.121  34.248  1.00  0.00     0.226 A 
ATOM     84  N   UNL A   1      37.948  31.242  33.696  1.00  0.00    -0.213 NA
ATOM     85  N   UNL A   1      37.151  32.466  35.542  1.00  0.00    -0.212 NA
ATOM     86  C   UNL A   1      38.887  30.693  34.487  1.00  0.00     0.076 A 
ATOM     87  C   UNL A   1      38.055  31.859  36.342  1.00  0.00     0.112 A 
ATOM     88  C   UNL A   1      38.967  30.956  35.839  1.00  0.00     0.059 A 
BRANCH  86  89
ATOM     89  C   UNL A   1      39.869  29.843  33.809  1.00  0.00     0.001 A 
ATOM     90  C   UNL A   1      39.469  28.864  32.884  1.00  0.00     0.013 A 
ATOM     91  C   UNL A   1      41.241  29.976  34.096  1.00  0.00     0.013 A 
ATOM     92  C   UNL A   1      40.411  28.031  32.276  1.00  0.00     0.040 A 
ATOM     93  C   UNL A   1      42.183  29.137  33.496  1.00  0.00     0.040 A 
ATOM     94  C   UNL A   1      41.757  28.171  32.594  1.00  0.00     0.123 A 
ATOM     95  F   UNL A   1      42.657  27.361  32.020  1.00  0.00    -0.207 F 
ENDBRANCH  86  89
BRANCH  87  96
ATOM     96  C   UNL A   1      38.038  32.202  37.813  1.00  0.00     0.391 C 
ATOM     97  F   UNL A   1      37.706  33.501  38.060  1.00  0.00    -0.203 F 
ATOM     98  F   UNL A   1      37.159  31.443  38.529  1.00  0.00    -0.203 F 
ENDBRANCH  87  96
ENDBRANCH  82  83
ENDBRANCH  74  77
ENDBRANCH  72  73
ENDBRANCH   1  72
TORSDOF 13
ENDMDL
MODEL 2
REMARK VINA RESULT:     -11.0      0.382      7.145
REMARK SMILES O=C(NCCCNC(=O)C1CCN(c2nc(-c3ccc(F)cc3)cc(C(F)F)n2)CC1)c1ccc(-c2c3nc(c(-c4c(F)c(F)c(F)c(F)c4F)c4ccc([nH]4)c(-c4c(F)c(F)c(F)c(F)c4F)c4nc(c(-c5c(F)c(F)c(F)c(F)c5F)c5ccc2[nH]5)C=C4)C=C3)cc1
REMARK SMILES IDX 5 1 4 2 3 3 1 4 2 5 32 7 33 8 94 9 34 10 93 11 35 12 36 13
REMARK SMILES IDX 37 14 87 15 38 16 92 17 86 18 88 19 39 20 91 21 85 22 84 23
REMARK SMILES IDX 40 25 72 26 52 27 71 28 53 29 56 30 70 31 89 32 54 33 55 34
REMARK SMILES IDX 69 36 90 37 57 38 41 39 42 40 50 41 43 42 44 43 48 44 51 45
REMARK SMILES IDX 45 46 46 47 49 48 47 49 73 50 74 51 82 52 75 53 76 54 80 55
REMARK SMILES IDX 83 56 77 57 78 58 81 59 79 60 58 61 59 62 67 63 60 64 61 65
REMARK SMILES IDX 65 66 68 67 62 68 63 69 66 70 64 71 6 72 7 73 8 74 9 76
REMARK SMILES IDX 10 77 11 78 31 79 12 80 30 81 13 82 14 83 15 84 29 85 16 86
REMARK SMILES IDX 25 87 24 88 17 89 18 90 23 91 19 92 22 93 20 94 21 95 26 96
REMARK SMILES IDX 27 97 28 98
REMARK H PARENT 3 6 88 24 56 35 7 75
REMARK Flexibility Score: inf
ROOT
ATOM      1  C   UNL A   1      33.304  33.831  27.988  1.00  0.00     0.042 C 
ENDROOT
BRANCH   1   2
ATOM      2  C   UNL A   1      34.297  32.683  28.049  1.00  0.00     0.118 C 
BRANCH   2   3
ATOM      3  N   UNL A   1      33.665  31.377  27.920  1.00  0.00    -0.352 N 
ATOM      4  O   UNL A   1      33.529  29.153  27.585  1.00  0.00    -0.269 OA
ATOM      5  C   UNL A   1      34.223  30.122  27.879  1.00  0.00     0.251 C 
ATOM      6  H   UNL A   1      32.683  31.397  27.850  1.00  0.00     0.163 HD
BRANCH   5   7
ATOM      7  C   UNL A   1      35.661  29.938  28.165  1.00  0.00     0.039 A 
ATOM      8  C   UNL A   1      36.620  30.190  27.185  1.00  0.00     0.014 A 
ATOM      9  C   UNL A   1      36.059  29.529  29.441  1.00  0.00     0.014 A 
ATOM     10  C   UNL A   1      37.950  29.869  27.419  1.00  0.00     0.010 A 
ATOM     11  C   UNL A   1      37.414  29.314  29.712  1.00  0.00     0.010 A 
ATOM     12  C   UNL A   1      38.367  29.454  28.693  1.00  0.00    -0.014 A 
BRANCH  12  13
ATOM     13  C   UNL A   1      39.817  29.264  28.945  1.00  0.00     0.031 A 
ATOM     14  C   UNL A   1      40.544  28.046  28.458  1.00  0.00     0.074 A 
ATOM     15  C   UNL A   1      40.483  30.242  29.594  1.00  0.00     0.049 A 
ATOM     16  N   UNL A   1      41.812  27.741  28.586  1.00  0.00    -0.248 NA
ATOM     17  C   UNL A   1      39.756  27.033  27.739  1.00  0.00     0.031 C 
ATOM     18  C   UNL A   1      39.873  31.466  30.118  1.00  0.00     0.029 A 
ATOM     19  N   UNL A   1      41.812  30.377  29.901  1.00  0.00    -0.354 N 
ATOM     20  C   UNL A   1      41.970  26.502  27.981  1.00  0.00     0.074 A 
ATOM     21  C   UNL A   1      40.666  26.095  27.502  1.00  0.00     0.031 C 
ATOM     22  C   UNL A   1      40.831  32.253  30.627  1.00  0.00     0.029 A 
ATOM     23  C   UNL A   1      42.109  31.558  30.536  1.00  0.00     0.049 A 
ATOM     24  H   UNL A   1      42.488  29.693  29.688  1.00  0.00     0.167 HD
ATOM     25  C   UNL A   1      43.106  25.778  27.836  1.00  0.00     0.037 A 
ATOM     26  C   UNL A   1      43.277  32.026  31.012  1.00  0.00     0.037 A 
ATOM     27  C   UNL A   1      44.404  26.204  28.295  1.00  0.00     0.049 A 
ATOM     28  C   UNL A   1      44.511  31.188  30.857  1.00  0.00     0.074 A 
ATOM     29  C   UNL A   1      45.618  25.554  28.160  1.00  0.00     0.029 A 
ATOM     30  N   UNL A   1      44.657  27.387  28.972  1.00  0.00    -0.354 N 
ATOM     31  N   UNL A   1      44.648  30.026  30.269  1.00  0.00    -0.248 NA
ATOM     32  C   UNL A   1      45.751  31.718  31.441  1.00  0.00     0.031 C 
ATOM     33  C   UNL A   1      46.598  26.320  28.796  1.00  0.00     0.029 A 
ATOM     34  C   UNL A   1      46.005  27.473  29.284  1.00  0.00     0.049 A 
ATOM     35  H   UNL A   1      43.980  28.065  29.198  1.00  0.00     0.167 HD
ATOM     36  C   UNL A   1      45.986  29.687  30.403  1.00  0.00     0.074 A 
ATOM     37  C   UNL A   1      46.625  30.779  31.108  1.00  0.00     0.031 C 
ATOM     38  C   UNL A   1      46.623  28.567  29.986  1.00  0.00     0.037 A 
BRANCH  25  39
ATOM     39  C   UNL A   1      43.018  24.444  27.155  1.00  0.00     0.064 A 
ATOM     40  C   UNL A   1      42.677  23.296  27.888  1.00  0.00     0.173 A 
ATOM     41  C   UNL A   1      43.383  24.282  25.811  1.00  0.00     0.173 A 
ATOM     42  F   UNL A   1      42.327  23.398  29.179  1.00  0.00    -0.203 F 
ATOM     43  C   UNL A   1      42.728  22.033  27.306  1.00  0.00     0.198 A 
ATOM     44  C   UNL A   1      43.411  23.018  25.226  1.00  0.00     0.198 A 
ATOM     45  F   UNL A   1      43.709  25.349  25.066  1.00  0.00    -0.203 F 
ATOM     46  F   UNL A   1      42.438  20.947  28.036  1.00  0.00    -0.200 F 
ATOM     47  C   UNL A   1      43.096  21.895  25.976  1.00  0.00     0.200 A 
ATOM     48  F   UNL A   1      43.751  22.887  23.936  1.00  0.00    -0.200 F 
ATOM     49  F   UNL A   1      43.150  20.677  25.417  1.00  0.00    -0.200 F 
ENDBRANCH  25  39
BRANCH  26  50
ATOM     50  C   UNL A   1      43.316  33.349  31.684  1.00  0.00     0.064 A 
ATOM     51  C   UNL A   1      43.252  33.456  33.082  1.00  0.00     0.173 A 
ATOM     52  C   UNL A   1      43.380  34.535  30.942  1.00  0.00     0.173 A 
ATOM     53  F   UNL A   1      43.183  32.351  33.837  1.00  0.00    -0.203 F 
ATOM     54  C   UNL A   1      43.226  34.700  33.708  1.00  0.00     0.198 A 
ATOM     55  C   UNL A   1      43.385  35.778  31.572  1.00  0.00     0.198 A 
ATOM     56  F   UNL A   1      43.460  34.484  29.604  1.00  0.00    -0.203 F 
ATOM     57  F   UNL A   1      43.121  34.773  35.043  1.00  0.00    -0.200 F 
ATOM     58  C   UNL A   1      43.298  35.859  32.954  1.00  0.00     0.200 A 
ATOM     59  F   UNL A   1      43.478  36.897  30.840  1.00  0.00    -0.200 F 
ATOM     60  F   UNL A   1      43.286  37.055  33.556  1.00  0.00    -0.200 F 
ENDBRANCH  26  50
BRANCH  38  61
ATOM     61  C   UNL A   1      48.091  28.465  30.270  1.00  0.00     0.064 A 
ATOM     62  C   UNL A   1      48.546  27.926  31.483  1.00  0.00     0.173 A 
ATOM     63  C   UNL A   1      49.044  28.965  29.371  1.00  0.00     0.173 A 
ATOM     64  F   UNL A   1      47.672  27.442  32.378  1.00  0.00    -0.203 F 
ATOM     65  C   UNL A   1      49.903  27.904  31.790  1.00  0.00     0.198 A 
ATOM     66  C   UNL A   1      50.402  28.916  29.670  1.00  0.00     0.198 A 
ATOM     67  F   UNL A   1      48.656  29.476  28.193  1.00  0.00    -0.203 F 
ATOM     68  F   UNL A   1      50.314  27.414  32.967  1.00  0.00    -0.200 F 
ATOM     69  C   UNL A   1      50.830  28.395  30.883  1.00  0.00     0.200 A 
ATOM     70  F   UNL A   1      51.298  29.369  28.782  1.00  0.00    -0.200 F 
ATOM     71  F   UNL A   1      52.137  28.365  31.175  1.00  0.00    -0.200 F 
ENDBRANCH  38  61
ENDBRANCH  12  13
ENDBRANCH   5   7
ENDBRANCH   2   3
ENDBRANCH   1   2
BRANCH   1  72
ATOM     72  C   UNL A   1      33.677  35.007  28.873  1.00  0.00     0.117 C 
BRANCH  72  73
ATOM     73  N   UNL A   1      33.202  34.838  30.236  1.00  0.00    -0.356 N 
ATOM     74  C   UNL A   1      33.889  34.481  31.358  1.00  0.00     0.223 C 
ATOM     75  H   UNL A   1      32.242  35.006  30.368  1.00  0.00     0.163 HD
ATOM     76  O   UNL A   1      33.247  34.295  32.391  1.00  0.00    -0.275 OA
BRANCH  74  77
ATOM     77  C   UNL A   1      35.403  34.343  31.281  1.00  0.00     0.082 C 
ATOM     78  C   UNL A   1      35.831  32.884  31.030  1.00  0.00     0.035 C 
ATOM     79  C   UNL A   1      36.062  34.894  32.558  1.00  0.00     0.035 C 
ATOM     80  C   UNL A   1      35.715  31.997  32.272  1.00  0.00     0.120 C 
ATOM     81  C   UNL A   1      35.791  33.991  33.760  1.00  0.00     0.120 C 
ATOM     82  N   UNL A   1      36.279  32.682  33.416  1.00  0.00    -0.341 N 
BRANCH  82  83
ATOM     83  C   UNL A   1      37.176  32.063  34.236  1.00  0.00     0.226 A 
ATOM     84  N   UNL A   1      38.025  31.183  33.696  1.00  0.00    -0.213 NA
ATOM     85  N   UNL A   1      37.217  32.426  35.524  1.00  0.00    -0.212 NA
ATOM     86  C   UNL A   1      38.967  30.652  34.495  1.00  0.00     0.076 A 
ATOM     87  C   UNL A   1      38.125  31.838  36.333  1.00  0.00     0.112 A 
ATOM     88  C   UNL A   1      39.044  30.934  35.844  1.00  0.00     0.059 A 
BRANCH  86  89
ATOM     89  C   UNL A   1      39.955  29.800  33.830  1.00  0.00     0.001 A 
ATOM     90  C   UNL A   1      41.331  29.955  34.072  1.00  0.00     0.013 A 
ATOM     91  C   UNL A   1      39.541  28.820  32.908  1.00  0.00     0.013 A 
ATOM     92  C   UNL A   1      42.265  29.164  33.399  1.00  0.00     0.040 A 
ATOM     93  C   UNL A   1      40.476  28.035  32.228  1.00  0.00     0.040 A 
ATOM     94  C   UNL A   1      41.830  28.218  32.479  1.00  0.00     0.123 A 
ATOM     95  F   UNL A   1      42.729  27.471  31.825  1.00  0.00    -0.207 F 
ENDBRANCH  86  89
BRANCH  87  96
ATOM     96  C   UNL A   1      38.105  32.201  37.799  1.00  0.00     0.391 C 
ATOM     97  F   UNL A   1      39.213  32.887  38.201  1.00  0.00    -0.203 F 
ATOM     98  F   UNL A   1      37.034  32.972  38.145  1.00  0.00    -0.203 F 
ENDBRANCH  87  96
ENDBRANCH  82  83
ENDBRANCH  74  77
ENDBRANCH  72  73
ENDBRANCH   1  72
TORSDOF 13
ENDMDL
MODEL 3
REMARK VINA RESULT:     -11.0      4.739     10.715
REMARK SMILES O=C(NCCCNC(=O)C1CCN(c2nc(-c3ccc(F)cc3)cc(C(F)F)n2)CC1)c1ccc(-c2c3nc(c(-c4c(F)c(F)c(F)c(F)c4F)c4ccc([nH]4)c(-c4c(F)c(F)c(F)c(F)c4F)c4nc(c(-c5c(F)c(F)c(F)c(F)c5F)c5ccc2[nH]5)C=C4)C=C3)cc1
REMARK SMILES IDX 5 1 4 2 3 3 1 4 2 5 32 7 33 8 94 9 34 10 93 11 35 12 36 13
REMARK SMILES IDX 37 14 87 15 38 16 92 17 86 18 88 19 39 20 91 21 85 22 84 23
REMARK SMILES IDX 40 25 72 26 52 27 71 28 53 29 56 30 70 31 89 32 54 33 55 34
REMARK SMILES IDX 69 36 90 37 57 38 41 39 42 40 50 41 43 42 44 43 48 44 51 45
REMARK SMILES IDX 45 46 46 47 49 48 47 49 73 50 74 51 82 52 75 53 76 54 80 55
REMARK SMILES IDX 83 56 77 57 78 58 81 59 79 60 58 61 59 62 67 63 60 64 61 65
REMARK SMILES IDX 65 66 68 67 62 68 63 69 66 70 64 71 6 72 7 73 8 74 9 76
REMARK SMILES IDX 10 77 11 78 31 79 12 80 30 81 13 82 14 83 15 84 29 85 16 86
REMARK SMILES IDX 25 87 24 88 17 89 18 90 23 91 19 92 22 93 20 94 21 95 26 96
REMARK SMILES IDX 27 97 28 98
REMARK H PARENT 3 6 88 24 56 35 7 75
REMARK Flexibility Score: inf
ROOT
ATOM      1  C   UNL A   1      33.386  29.065  23.750  1.00  0.00     0.042 C 
ENDROOT
BRANCH   1   2
ATOM      2  C   UNL A   1      33.380  29.160  25.266  1.00  0.00     0.118 C 
BRANCH   2   3
ATOM      3  N   UNL A   1      32.867  30.433  25.754  1.00  0.00    -0.352 N 
ATOM      4  O   UNL A   1      32.573  32.150  27.183  1.00  0.00    -0.269 OA
ATOM      5  C   UNL A   1      33.253  31.189  26.834  1.00  0.00     0.251 C 
ATOM      6  H   UNL A   1      32.126  30.810  25.227  1.00  0.00     0.163 HD
BRANCH   5   7
ATOM      7  C   UNL A   1      34.472  30.835  27.591  1.00  0.00     0.039 A 
ATOM      8  C   UNL A   1      34.569  29.614  28.256  1.00  0.00     0.014 A 
ATOM      9  C   UNL A   1      35.545  31.732  27.618  1.00  0.00     0.014 A 
ATOM     10  C   UNL A   1      35.653  29.361  29.085  1.00  0.00     0.010 A 
ATOM     11  C   UNL A   1      36.688  31.425  28.364  1.00  0.00     0.010 A 
ATOM     12  C   UNL A   1      36.738  30.250  29.127  1.00  0.00    -0.014 A 
BRANCH  12  13
ATOM     13  C   UNL A   1      37.943  29.873  29.907  1.00  0.00     0.031 A 
ATOM     14  C   UNL A   1      38.993  28.965  29.338  1.00  0.00     0.074 A 
ATOM     15  C   UNL A   1      38.095  30.405  31.137  1.00  0.00     0.049 A 
ATOM     16  N   UNL A   1      40.109  28.556  29.888  1.00  0.00    -0.248 NA
ATOM     17  C   UNL A   1      38.769  28.443  27.981  1.00  0.00     0.031 C 
ATOM     18  C   UNL A   1      37.132  31.294  31.792  1.00  0.00     0.029 A 
ATOM     19  N   UNL A   1      39.117  30.300  32.044  1.00  0.00    -0.354 N 
ATOM     20  C   UNL A   1      40.709  27.718  28.958  1.00  0.00     0.074 A 
ATOM     21  C   UNL A   1      39.827  27.658  27.811  1.00  0.00     0.031 C 
ATOM     22  C   UNL A   1      37.634  31.701  32.965  1.00  0.00     0.029 A 
ATOM     23  C   UNL A   1      38.916  31.043  33.183  1.00  0.00     0.049 A 
ATOM     24  H   UNL A   1      39.918  29.746  31.895  1.00  0.00     0.167 HD
ATOM     25  C   UNL A   1      41.893  27.069  29.055  1.00  0.00     0.037 A 
ATOM     26  C   UNL A   1      39.669  31.168  34.290  1.00  0.00     0.037 A 
ATOM     27  C   UNL A   1      42.776  27.156  30.191  1.00  0.00     0.049 A 
ATOM     28  C   UNL A   1      40.964  30.414  34.376  1.00  0.00     0.074 A 
ATOM     29  C   UNL A   1      44.014  26.561  30.364  1.00  0.00     0.029 A 
ATOM     30  N   UNL A   1      42.517  27.883  31.342  1.00  0.00    -0.354 N 
ATOM     31  N   UNL A   1      41.526  29.639  33.482  1.00  0.00    -0.248 NA
ATOM     32  C   UNL A   1      41.723  30.540  35.627  1.00  0.00     0.031 C 
ATOM     33  C   UNL A   1      44.483  26.891  31.638  1.00  0.00     0.029 A 
ATOM     34  C   UNL A   1      43.562  27.732  32.241  1.00  0.00     0.049 A 
ATOM     35  H   UNL A   1      41.711  28.427  31.499  1.00  0.00     0.167 HD
ATOM     36  C   UNL A   1      42.706  29.192  34.054  1.00  0.00     0.074 A 
ATOM     37  C   UNL A   1      42.792  29.801  35.366  1.00  0.00     0.031 C 
ATOM     38  C   UNL A   1      43.630  28.345  33.541  1.00  0.00     0.037 A 
BRANCH  25  39
ATOM     39  C   UNL A   1      42.324  26.198  27.912  1.00  0.00     0.064 A 
ATOM     40  C   UNL A   1      43.196  26.698  26.931  1.00  0.00     0.173 A 
ATOM     41  C   UNL A   1      41.787  24.917  27.723  1.00  0.00     0.173 A 
ATOM     42  F   UNL A   1      43.731  27.921  27.062  1.00  0.00    -0.203 F 
ATOM     43  C   UNL A   1      43.494  25.956  25.792  1.00  0.00     0.198 A 
ATOM     44  C   UNL A   1      42.106  24.168  26.592  1.00  0.00     0.198 A 
ATOM     45  F   UNL A   1      40.956  24.392  28.636  1.00  0.00    -0.203 F 
ATOM     46  F   UNL A   1      44.296  26.469  24.849  1.00  0.00    -0.200 F 
ATOM     47  C   UNL A   1      42.947  24.692  25.623  1.00  0.00     0.200 A 
ATOM     48  F   UNL A   1      41.590  22.941  26.438  1.00  0.00    -0.200 F 
ATOM     49  F   UNL A   1      43.231  23.980  24.523  1.00  0.00    -0.200 F 
ENDBRANCH  25  39
BRANCH  26  50
ATOM     50  C   UNL A   1      39.201  32.035  35.400  1.00  0.00     0.064 A 
ATOM     51  C   UNL A   1      39.539  33.396  35.451  1.00  0.00     0.173 A 
ATOM     52  C   UNL A   1      38.439  31.513  36.453  1.00  0.00     0.173 A 
ATOM     53  F   UNL A   1      40.273  33.942  34.470  1.00  0.00    -0.203 F 
ATOM     54  C   UNL A   1      39.153  34.195  36.524  1.00  0.00     0.198 A 
ATOM     55  C   UNL A   1      38.027  32.320  37.511  1.00  0.00     0.198 A 
ATOM     56  F   UNL A   1      38.076  30.221  36.440  1.00  0.00    -0.203 F 
ATOM     57  F   UNL A   1      39.526  35.481  36.568  1.00  0.00    -0.200 F 
ATOM     58  C   UNL A   1      38.392  33.658  37.550  1.00  0.00     0.200 A 
ATOM     59  F   UNL A   1      37.272  31.803  38.490  1.00  0.00    -0.200 F 
ATOM     60  F   UNL A   1      38.010  34.428  38.577  1.00  0.00    -0.200 F 
ENDBRANCH  26  50
BRANCH  38  61
ATOM     61  C   UNL A   1      44.823  28.031  34.392  1.00  0.00     0.064 A 
ATOM     62  C   UNL A   1      45.986  28.811  34.304  1.00  0.00     0.173 A 
ATOM     63  C   UNL A   1      44.838  26.917  35.244  1.00  0.00     0.173 A 
ATOM     64  F   UNL A   1      46.022  29.882  33.498  1.00  0.00    -0.203 F 
ATOM     65  C   UNL A   1      47.126  28.478  35.028  1.00  0.00     0.198 A 
ATOM     66  C   UNL A   1      45.971  26.602  35.987  1.00  0.00     0.198 A 
ATOM     67  F   UNL A   1      43.744  26.151  35.372  1.00  0.00    -0.203 F 
ATOM     68  F   UNL A   1      48.237  29.217  34.906  1.00  0.00    -0.200 F 
ATOM     69  C   UNL A   1      47.117  27.377  35.872  1.00  0.00     0.200 A 
ATOM     70  F   UNL A   1      45.954  25.552  36.820  1.00  0.00    -0.200 F 
ATOM     71  F   UNL A   1      48.213  27.061  36.576  1.00  0.00    -0.200 F 
ENDBRANCH  38  61
ENDBRANCH  12  13
ENDBRANCH   5   7
ENDBRANCH   2   3
ENDBRANCH   1   2
BRANCH   1  72
ATOM     72  C   UNL A   1      32.075  28.571  23.164  1.00  0.00     0.117 C 
BRANCH  72  73
ATOM     73  N   UNL A   1      31.330  27.754  24.107  1.00  0.00    -0.356 N 
ATOM     74  C   UNL A   1      31.166  26.401  24.145  1.00  0.00     0.223 C 
ATOM     75  H   UNL A   1      30.877  28.251  24.825  1.00  0.00     0.163 HD
ATOM     76  O   UNL A   1      30.395  25.938  24.984  1.00  0.00    -0.275 OA
BRANCH  74  77
ATOM     77  C   UNL A   1      31.947  25.538  23.164  1.00  0.00     0.082 C 
ATOM     78  C   UNL A   1      31.471  24.072  23.190  1.00  0.00     0.035 C 
ATOM     79  C   UNL A   1      33.457  25.627  23.449  1.00  0.00     0.035 C 
ATOM     80  C   UNL A   1      31.962  23.297  24.414  1.00  0.00     0.120 C 
ATOM     81  C   UNL A   1      33.823  24.916  24.750  1.00  0.00     0.120 C 
ATOM     82  N   UNL A   1      33.371  23.556  24.624  1.00  0.00    -0.341 N 
BRANCH  82  83
ATOM     83  C   UNL A   1      34.254  22.535  24.817  1.00  0.00     0.226 A 
ATOM     84  N   UNL A   1      33.779  21.286  24.861  1.00  0.00    -0.213 NA
ATOM     85  N   UNL A   1      35.560  22.825  24.874  1.00  0.00    -0.212 NA
ATOM     86  C   UNL A   1      34.669  20.282  24.955  1.00  0.00     0.076 A 
ATOM     87  C   UNL A   1      36.441  21.814  25.036  1.00  0.00     0.112 A 
ATOM     88  C   UNL A   1      36.026  20.499  25.071  1.00  0.00     0.059 A 
BRANCH  86  89
ATOM     89  C   UNL A   1      34.111  18.931  24.862  1.00  0.00     0.001 A 
ATOM     90  C   UNL A   1      32.867  18.616  25.434  1.00  0.00     0.013 A 
ATOM     91  C   UNL A   1      34.831  17.909  24.214  1.00  0.00     0.013 A 
ATOM     92  C   UNL A   1      32.366  17.313  25.375  1.00  0.00     0.040 A 
ATOM     93  C   UNL A   1      34.335  16.604  24.163  1.00  0.00     0.040 A 
ATOM     94  C   UNL A   1      33.107  16.319  24.747  1.00  0.00     0.123 A 
ATOM     95  F   UNL A   1      32.631  15.069  24.705  1.00  0.00    -0.207 F 
ENDBRANCH  86  89
BRANCH  87  96
ATOM     96  C   UNL A   1      37.903  22.166  25.177  1.00  0.00     0.391 C 
ATOM     97  F   UNL A   1      38.110  23.429  25.648  1.00  0.00    -0.203 F 
ATOM     98  F   UNL A   1      38.575  21.332  26.022  1.00  0.00    -0.203 F 
ENDBRANCH  87  96
ENDBRANCH  82  83
ENDBRANCH  74  77
ENDBRANCH  72  73
ENDBRANCH   1  72
TORSDOF 13
ENDMDL
