MODEL 1
REMARK VINA RESULT:     -13.7      0.000      0.000
REMARK SMILES O=C(NCCCNC(=O)[C@@H](CO)NC(=O)c1ccc2noc(-c3ccccc3)c2c1)c1ccc(-c2c3nc(c(-c4c(F)c(F)c(F)c(F)c4F)c4ccc([nH]4)c(-c4c(F)c(F)c(F)c(F)c4F)c4nc(c(-c5c(F)c(F)c(F)c(F)c5F)c5ccc2[nH]5)C=C4)C=C3)cc1
REMARK SMILES IDX 5 1 4 2 3 3 1 4 2 5 31 7 32 8 93 9 33 10 92 11 34 12 35 13
REMARK SMILES IDX 36 14 86 15 37 16 91 17 85 18 87 19 38 20 90 21 84 22 83 23
REMARK SMILES IDX 39 25 71 26 51 27 70 28 52 29 55 30 69 31 88 32 53 33 54 34
REMARK SMILES IDX 68 36 89 37 56 38 40 39 41 40 49 41 42 42 43 43 47 44 50 45
REMARK SMILES IDX 44 46 45 47 48 48 46 49 72 50 73 51 81 52 74 53 75 54 79 55
REMARK SMILES IDX 82 56 76 57 77 58 80 59 78 60 57 61 58 62 66 63 59 64 60 65
REMARK SMILES IDX 64 66 67 67 61 68 62 69 65 70 63 71 6 72 7 73 8 74 9 76
REMARK SMILES IDX 10 77 11 78 12 79 13 81 14 82 15 84 16 85 17 86 30 87 18 88
REMARK SMILES IDX 29 89 19 90 22 91 20 92 21 93 23 94 24 95 28 96 25 97 27 98
REMARK SMILES IDX 26 99
REMARK H PARENT 3 6 87 24 55 35 7 75 12 80 13 83
REMARK Flexibility Score: inf
ROOT
ATOM      1  C   UNL A   1      37.670  21.987  25.118  1.00  0.00     0.042 C 
ENDROOT
BRANCH   1   2
ATOM      2  C   UNL A   1      38.587  22.587  26.155  1.00  0.00     0.118 C 
BRANCH   2   3
ATOM      3  N   UNL A   1      39.981  22.145  26.065  1.00  0.00    -0.352 N 
ATOM      4  O   UNL A   1      42.210  22.598  25.855  1.00  0.00    -0.269 OA
ATOM      5  C   UNL A   1      41.120  22.922  26.278  1.00  0.00     0.251 C 
ATOM      6  H   UNL A   1      40.130  21.202  25.828  1.00  0.00     0.163 HD
BRANCH   5   7
ATOM      7  C   UNL A   1      40.941  24.167  27.051  1.00  0.00     0.039 A 
ATOM      8  C   UNL A   1      41.573  24.413  28.268  1.00  0.00     0.014 A 
ATOM      9  C   UNL A   1      40.196  25.153  26.427  1.00  0.00     0.014 A 
ATOM     10  C   UNL A   1      41.486  25.702  28.796  1.00  0.00     0.010 A 
ATOM     11  C   UNL A   1      40.431  26.451  26.754  1.00  0.00     0.010 A 
ATOM     12  C   UNL A   1      40.922  26.726  28.012  1.00  0.00    -0.014 A 
BRANCH  12  13
ATOM     13  C   UNL A   1      40.826  28.107  28.462  1.00  0.00     0.031 A 
ATOM     14  C   UNL A   1      41.910  28.980  27.968  1.00  0.00     0.074 A 
ATOM     15  C   UNL A   1      39.777  28.590  29.169  1.00  0.00     0.049 A 
ATOM     16  N   UNL A   1      42.915  29.414  28.650  1.00  0.00    -0.248 NA
ATOM     17  C   UNL A   1      41.989  29.263  26.529  1.00  0.00     0.031 C 
ATOM     18  C   UNL A   1      38.497  27.944  29.504  1.00  0.00     0.029 A 
ATOM     19  N   UNL A   1      39.615  29.832  29.702  1.00  0.00    -0.354 N 
ATOM     20  C   UNL A   1      43.650  30.204  27.778  1.00  0.00     0.074 A 
ATOM     21  C   UNL A   1      43.148  29.923  26.458  1.00  0.00     0.031 C 
ATOM     22  C   UNL A   1      37.622  28.860  29.971  1.00  0.00     0.029 A 
ATOM     23  C   UNL A   1      38.333  30.103  30.166  1.00  0.00     0.049 A 
ATOM     24  H   UNL A   1      40.349  30.487  29.753  1.00  0.00     0.167 HD
ATOM     25  C   UNL A   1      44.428  31.210  28.260  1.00  0.00     0.037 A 
ATOM     26  C   UNL A   1      37.893  31.268  30.698  1.00  0.00     0.037 A 
ATOM     27  C   UNL A   1      44.655  31.050  29.678  1.00  0.00     0.049 A 
ATOM     28  C   UNL A   1      39.093  31.994  31.175  1.00  0.00     0.074 A 
ATOM     29  C   UNL A   1      45.257  30.086  30.463  1.00  0.00     0.029 A 
ATOM     30  N   UNL A   1      43.862  31.784  30.525  1.00  0.00    -0.354 N 
ATOM     31  N   UNL A   1      39.832  31.597  32.172  1.00  0.00    -0.248 NA
ATOM     32  C   UNL A   1      39.726  32.928  30.258  1.00  0.00     0.031 C 
ATOM     33  C   UNL A   1      44.453  30.006  31.640  1.00  0.00     0.029 A 
ATOM     34  C   UNL A   1      43.446  30.969  31.546  1.00  0.00     0.049 A 
ATOM     35  H   UNL A   1      43.632  32.735  30.417  1.00  0.00     0.167 HD
ATOM     36  C   UNL A   1      41.132  31.874  31.777  1.00  0.00     0.074 A 
ATOM     37  C   UNL A   1      40.996  32.792  30.648  1.00  0.00     0.031 C 
ATOM     38  C   UNL A   1      42.173  31.109  32.219  1.00  0.00     0.037 A 
BRANCH  25  39
ATOM     39  C   UNL A   1      44.636  32.528  27.558  1.00  0.00     0.064 A 
ATOM     40  C   UNL A   1      45.812  32.725  26.808  1.00  0.00     0.173 A 
ATOM     41  C   UNL A   1      43.888  33.694  27.833  1.00  0.00     0.173 A 
ATOM     42  F   UNL A   1      46.615  31.691  26.512  1.00  0.00    -0.203 F 
ATOM     43  C   UNL A   1      46.240  33.999  26.429  1.00  0.00     0.198 A 
ATOM     44  C   UNL A   1      44.290  34.956  27.405  1.00  0.00     0.198 A 
ATOM     45  F   UNL A   1      42.808  33.682  28.622  1.00  0.00    -0.203 F 
ATOM     46  F   UNL A   1      47.429  34.150  25.830  1.00  0.00    -0.200 F 
ATOM     47  C   UNL A   1      45.481  35.114  26.731  1.00  0.00     0.200 A 
ATOM     48  F   UNL A   1      43.551  36.027  27.730  1.00  0.00    -0.200 F 
ATOM     49  F   UNL A   1      45.918  36.342  26.422  1.00  0.00    -0.200 F 
ENDBRANCH  25  39
BRANCH  26  50
ATOM     50  C   UNL A   1      36.575  31.927  30.542  1.00  0.00     0.064 A 
ATOM     51  C   UNL A   1      35.758  32.159  31.661  1.00  0.00     0.173 A 
ATOM     52  C   UNL A   1      36.238  32.621  29.366  1.00  0.00     0.173 A 
ATOM     53  F   UNL A   1      36.028  31.558  32.830  1.00  0.00    -0.203 F 
ATOM     54  C   UNL A   1      34.704  33.077  31.624  1.00  0.00     0.198 A 
ATOM     55  C   UNL A   1      35.181  33.534  29.327  1.00  0.00     0.198 A 
ATOM     56  F   UNL A   1      36.989  32.509  28.260  1.00  0.00    -0.203 F 
ATOM     57  F   UNL A   1      34.002  33.335  32.736  1.00  0.00    -0.200 F 
ATOM     58  C   UNL A   1      34.429  33.778  30.461  1.00  0.00     0.200 A 
ATOM     59  F   UNL A   1      34.947  34.233  28.207  1.00  0.00    -0.200 F 
ATOM     60  F   UNL A   1      33.473  34.717  30.447  1.00  0.00    -0.200 F 
ENDBRANCH  26  50
BRANCH  38  61
ATOM     61  C   UNL A   1      41.912  30.179  33.375  1.00  0.00     0.064 A 
ATOM     62  C   UNL A   1      41.547  28.827  33.242  1.00  0.00     0.173 A 
ATOM     63  C   UNL A   1      42.181  30.647  34.668  1.00  0.00     0.173 A 
ATOM     64  F   UNL A   1      41.353  28.277  32.038  1.00  0.00    -0.203 F 
ATOM     65  C   UNL A   1      41.428  27.996  34.357  1.00  0.00     0.198 A 
ATOM     66  C   UNL A   1      42.097  29.808  35.775  1.00  0.00     0.198 A 
ATOM     67  F   UNL A   1      42.576  31.916  34.852  1.00  0.00    -0.203 F 
ATOM     68  F   UNL A   1      41.070  26.712  34.207  1.00  0.00    -0.200 F 
ATOM     69  C   UNL A   1      41.713  28.485  35.622  1.00  0.00     0.200 A 
ATOM     70  F   UNL A   1      42.417  30.274  36.990  1.00  0.00    -0.200 F 
ATOM     71  F   UNL A   1      41.643  27.677  36.689  1.00  0.00    -0.200 F 
ENDBRANCH  38  61
ENDBRANCH  12  13
ENDBRANCH   5   7
ENDBRANCH   2   3
ENDBRANCH   1   2
BRANCH   1  72
ATOM     72  C   UNL A   1      36.206  22.402  25.286  1.00  0.00     0.117 C 
BRANCH  72  73
ATOM     73  N   UNL A   1      35.586  21.941  26.525  1.00  0.00    -0.354 N 
ATOM     74  C   UNL A   1      34.291  21.693  26.876  1.00  0.00     0.244 C 
ATOM     75  H   UNL A   1      36.230  21.774  27.251  1.00  0.00     0.163 HD
ATOM     76  O   UNL A   1      34.082  21.472  28.075  1.00  0.00    -0.273 OA
BRANCH  74  77
ATOM     77  C   UNL A   1      33.099  21.828  25.910  1.00  0.00     0.197 C 
BRANCH  77  78
ATOM     78  C   UNL A   1      33.023  20.603  24.985  1.00  0.00     0.191 C 
BRANCH  78  79
ATOM     79  O   UNL A   1      33.907  19.559  25.369  1.00  0.00    -0.394 OA
ATOM     80  H   UNL A   1      34.047  19.590  26.327  1.00  0.00     0.210 HD
ENDBRANCH  78  79
ENDBRANCH  77  78
BRANCH  77  81
ATOM     81  N   UNL A   1      31.828  22.165  26.563  1.00  0.00    -0.338 N 
ATOM     82  C   UNL A   1      31.062  23.292  26.466  1.00  0.00     0.252 C 
ATOM     83  H   UNL A   1      31.473  21.471  27.164  1.00  0.00     0.164 HD
ATOM     84  O   UNL A   1      30.184  23.506  27.297  1.00  0.00    -0.269 OA
BRANCH  82  85
ATOM     85  C   UNL A   1      31.304  24.269  25.386  1.00  0.00     0.040 A 
ATOM     86  C   UNL A   1      30.941  23.939  24.038  1.00  0.00     0.016 A 
ATOM     87  C   UNL A   1      31.859  25.506  25.772  1.00  0.00     0.028 A 
ATOM     88  C   UNL A   1      31.188  24.780  22.932  1.00  0.00     0.033 A 
ATOM     89  C   UNL A   1      32.064  26.318  24.662  1.00  0.00     0.050 A 
ATOM     90  C   UNL A   1      31.765  26.010  23.286  1.00  0.00     0.114 A 
ATOM     91  C   UNL A   1      32.531  27.602  24.670  1.00  0.00     0.174 A 
ATOM     92  N   UNL A   1      32.104  27.059  22.519  1.00  0.00    -0.079 NA
ATOM     93  O   UNL A   1      32.560  28.046  23.379  1.00  0.00    -0.355 OA
BRANCH  91  94
ATOM     94  C   UNL A   1      32.943  28.551  25.683  1.00  0.00     0.021 A 
ATOM     95  C   UNL A   1      34.180  28.401  26.321  1.00  0.00     0.012 A 
ATOM     96  C   UNL A   1      32.138  29.653  26.001  1.00  0.00     0.012 A 
ATOM     97  C   UNL A   1      34.611  29.342  27.256  1.00  0.00     0.001 A 
ATOM     98  C   UNL A   1      32.568  30.590  26.942  1.00  0.00     0.001 A 
ATOM     99  C   UNL A   1      33.804  30.435  27.567  1.00  0.00     0.000 A 
ENDBRANCH  91  94
ENDBRANCH  82  85
ENDBRANCH  77  81
ENDBRANCH  74  77
ENDBRANCH  72  73
ENDBRANCH   1  72
TORSDOF 15
ENDMDL
MODEL 2
REMARK VINA RESULT:     -13.4      3.137      9.011
REMARK SMILES O=C(NCCCNC(=O)[C@@H](CO)NC(=O)c1ccc2noc(-c3ccccc3)c2c1)c1ccc(-c2c3nc(c(-c4c(F)c(F)c(F)c(F)c4F)c4ccc([nH]4)c(-c4c(F)c(F)c(F)c(F)c4F)c4nc(c(-c5c(F)c(F)c(F)c(F)c5F)c5ccc2[nH]5)C=C4)C=C3)cc1
REMARK SMILES IDX 5 1 4 2 3 3 1 4 2 5 31 7 32 8 93 9 33 10 92 11 34 12 35 13
REMARK SMILES IDX 36 14 86 15 37 16 91 17 85 18 87 19 38 20 90 21 84 22 83 23
REMARK SMILES IDX 39 25 71 26 51 27 70 28 52 29 55 30 69 31 88 32 53 33 54 34
REMARK SMILES IDX 68 36 89 37 56 38 40 39 41 40 49 41 42 42 43 43 47 44 50 45
REMARK SMILES IDX 44 46 45 47 48 48 46 49 72 50 73 51 81 52 74 53 75 54 79 55
REMARK SMILES IDX 82 56 76 57 77 58 80 59 78 60 57 61 58 62 66 63 59 64 60 65
REMARK SMILES IDX 64 66 67 67 61 68 62 69 65 70 63 71 6 72 7 73 8 74 9 76
REMARK SMILES IDX 10 77 11 78 12 79 13 81 14 82 15 84 16 85 17 86 30 87 18 88
REMARK SMILES IDX 29 89 19 90 22 91 20 92 21 93 23 94 24 95 28 96 25 97 27 98
REMARK SMILES IDX 26 99
REMARK H PARENT 3 6 87 24 55 35 7 75 12 80 13 83
REMARK Flexibility Score: inf
ROOT
ATOM      1  C   UNL A   1      33.226  30.057  26.976  1.00  0.00     0.042 C 
ENDROOT
BRANCH   1   2
ATOM      2  C   UNL A   1      34.666  30.388  27.277  1.00  0.00     0.118 C 
BRANCH   2   3
ATOM      3  N   UNL A   1      34.892  31.758  27.745  1.00  0.00    -0.352 N 
ATOM      4  O   UNL A   1      35.539  33.235  29.362  1.00  0.00    -0.269 OA
ATOM      5  C   UNL A   1      35.674  32.153  28.830  1.00  0.00     0.251 C 
ATOM      6  H   UNL A   1      34.445  32.475  27.241  1.00  0.00     0.163 HD
BRANCH   5   7
ATOM      7  C   UNL A   1      36.684  31.189  29.308  1.00  0.00     0.039 A 
ATOM      8  C   UNL A   1      36.371  29.914  29.774  1.00  0.00     0.014 A 
ATOM      9  C   UNL A   1      38.003  31.579  29.145  1.00  0.00     0.014 A 
ATOM     10  C   UNL A   1      37.424  29.029  30.001  1.00  0.00     0.010 A 
ATOM     11  C   UNL A   1      38.955  30.618  29.015  1.00  0.00     0.010 A 
ATOM     12  C   UNL A   1      38.722  29.390  29.597  1.00  0.00    -0.014 A 
BRANCH  12  13
ATOM     13  C   UNL A   1      39.876  28.516  29.755  1.00  0.00     0.031 A 
ATOM     14  C   UNL A   1      40.327  28.359  31.152  1.00  0.00     0.074 A 
ATOM     15  C   UNL A   1      40.420  27.808  28.737  1.00  0.00     0.049 A 
ATOM     16  N   UNL A   1      41.367  28.901  31.687  1.00  0.00    -0.248 NA
ATOM     17  C   UNL A   1      39.446  27.671  32.106  1.00  0.00     0.031 C 
ATOM     18  C   UNL A   1      39.938  27.628  27.358  1.00  0.00     0.029 A 
ATOM     19  N   UNL A   1      41.533  27.024  28.752  1.00  0.00    -0.354 N 
ATOM     20  C   UNL A   1      41.393  28.456  33.001  1.00  0.00     0.074 A 
ATOM     21  C   UNL A   1      40.103  27.866  33.253  1.00  0.00     0.031 C 
ATOM     22  C   UNL A   1      40.613  26.627  26.755  1.00  0.00     0.029 A 
ATOM     23  C   UNL A   1      41.706  26.238  27.618  1.00  0.00     0.049 A 
ATOM     24  H   UNL A   1      42.166  27.015  29.507  1.00  0.00     0.167 HD
ATOM     25  C   UNL A   1      42.573  28.382  33.673  1.00  0.00     0.037 A 
ATOM     26  C   UNL A   1      42.697  25.343  27.396  1.00  0.00     0.037 A 
ATOM     27  C   UNL A   1      43.594  29.156  33.005  1.00  0.00     0.049 A 
ATOM     28  C   UNL A   1      43.814  25.719  28.293  1.00  0.00     0.074 A 
ATOM     29  C   UNL A   1      43.751  30.492  32.693  1.00  0.00     0.029 A 
ATOM     30  N   UNL A   1      44.464  28.474  32.192  1.00  0.00    -0.354 N 
ATOM     31  N   UNL A   1      44.513  26.812  28.164  1.00  0.00    -0.248 NA
ATOM     32  C   UNL A   1      43.868  25.092  29.604  1.00  0.00     0.031 C 
ATOM     33  C   UNL A   1      44.368  30.505  31.405  1.00  0.00     0.029 A 
ATOM     34  C   UNL A   1      44.619  29.183  31.029  1.00  0.00     0.049 A 
ATOM     35  H   UNL A   1      44.904  27.619  32.407  1.00  0.00     0.167 HD
ATOM     36  C   UNL A   1      44.731  27.244  29.463  1.00  0.00     0.074 A 
ATOM     37  C   UNL A   1      44.412  26.092  30.303  1.00  0.00     0.031 C 
ATOM     38  C   UNL A   1      44.869  28.574  29.742  1.00  0.00     0.037 A 
BRANCH  25  39
ATOM     39  C   UNL A   1      42.908  27.308  34.677  1.00  0.00     0.064 A 
ATOM     40  C   UNL A   1      43.072  27.663  36.029  1.00  0.00     0.173 A 
ATOM     41  C   UNL A   1      43.366  26.018  34.327  1.00  0.00     0.173 A 
ATOM     42  F   UNL A   1      42.699  28.876  36.467  1.00  0.00    -0.203 F 
ATOM     43  C   UNL A   1      43.712  26.820  36.942  1.00  0.00     0.198 A 
ATOM     44  C   UNL A   1      43.953  25.159  35.252  1.00  0.00     0.198 A 
ATOM     45  F   UNL A   1      43.375  25.580  33.063  1.00  0.00    -0.203 F 
ATOM     46  F   UNL A   1      43.961  27.253  38.185  1.00  0.00    -0.200 F 
ATOM     47  C   UNL A   1      44.156  25.571  36.551  1.00  0.00     0.200 A 
ATOM     48  F   UNL A   1      44.398  23.960  34.846  1.00  0.00    -0.200 F 
ATOM     49  F   UNL A   1      44.822  24.785  37.407  1.00  0.00    -0.200 F 
ENDBRANCH  25  39
BRANCH  26  50
ATOM     50  C   UNL A   1      42.634  24.030  26.712  1.00  0.00     0.064 A 
ATOM     51  C   UNL A   1      43.411  23.784  25.568  1.00  0.00     0.173 A 
ATOM     52  C   UNL A   1      42.070  22.904  27.340  1.00  0.00     0.173 A 
ATOM     53  F   UNL A   1      44.008  24.801  24.927  1.00  0.00    -0.203 F 
ATOM     54  C   UNL A   1      43.661  22.486  25.115  1.00  0.00     0.198 A 
ATOM     55  C   UNL A   1      42.315  21.607  26.884  1.00  0.00     0.198 A 
ATOM     56  F   UNL A   1      41.358  23.030  28.470  1.00  0.00    -0.203 F 
ATOM     57  F   UNL A   1      44.478  22.287  24.071  1.00  0.00    -0.200 F 
ATOM     58  C   UNL A   1      43.128  21.397  25.784  1.00  0.00     0.200 A 
ATOM     59  F   UNL A   1      41.824  20.560  27.561  1.00  0.00    -0.200 F 
ATOM     60  F   UNL A   1      43.433  20.150  25.400  1.00  0.00    -0.200 F 
ENDBRANCH  26  50
BRANCH  38  61
ATOM     61  C   UNL A   1      45.095  29.508  28.581  1.00  0.00     0.064 A 
ATOM     62  C   UNL A   1      44.070  30.154  27.868  1.00  0.00     0.173 A 
ATOM     63  C   UNL A   1      46.415  29.868  28.276  1.00  0.00     0.173 A 
ATOM     64  F   UNL A   1      42.782  29.931  28.153  1.00  0.00    -0.203 F 
ATOM     65  C   UNL A   1      44.358  31.091  26.875  1.00  0.00     0.198 A 
ATOM     66  C   UNL A   1      46.699  30.830  27.311  1.00  0.00     0.198 A 
ATOM     67  F   UNL A   1      47.433  29.318  28.955  1.00  0.00    -0.203 F 
ATOM     68  F   UNL A   1      43.363  31.688  26.202  1.00  0.00    -0.200 F 
ATOM     69  C   UNL A   1      45.672  31.436  26.605  1.00  0.00     0.200 A 
ATOM     70  F   UNL A   1      47.970  31.192  27.086  1.00  0.00    -0.200 F 
ATOM     71  F   UNL A   1      45.950  32.369  25.683  1.00  0.00    -0.200 F 
ENDBRANCH  38  61
ENDBRANCH  12  13
ENDBRANCH   5   7
ENDBRANCH   2   3
ENDBRANCH   1   2
BRANCH   1  72
ATOM     72  C   UNL A   1      33.060  28.914  25.970  1.00  0.00     0.117 C 
BRANCH  72  73
ATOM     73  N   UNL A   1      33.876  29.046  24.766  1.00  0.00    -0.354 N 
ATOM     74  C   UNL A   1      33.676  28.680  23.468  1.00  0.00     0.244 C 
ATOM     75  H   UNL A   1      34.742  29.488  24.922  1.00  0.00     0.163 HD
ATOM     76  O   UNL A   1      34.651  28.784  22.713  1.00  0.00    -0.273 OA
BRANCH  74  77
ATOM     77  C   UNL A   1      32.385  28.017  22.952  1.00  0.00     0.197 C 
BRANCH  77  78
ATOM     78  C   UNL A   1      31.251  29.050  22.875  1.00  0.00     0.191 C 
BRANCH  78  79
ATOM     79  O   UNL A   1      31.304  29.852  21.703  1.00  0.00    -0.394 OA
ATOM     80  H   UNL A   1      30.403  30.061  21.413  1.00  0.00     0.210 HD
ENDBRANCH  78  79
ENDBRANCH  77  78
BRANCH  77  81
ATOM     81  N   UNL A   1      32.560  27.228  21.726  1.00  0.00    -0.338 N 
ATOM     82  C   UNL A   1      32.764  25.887  21.566  1.00  0.00     0.252 C 
ATOM     83  H   UNL A   1      32.525  27.746  20.890  1.00  0.00     0.164 HD
ATOM     84  O   UNL A   1      33.166  25.455  20.490  1.00  0.00    -0.269 OA
BRANCH  82  85
ATOM     85  C   UNL A   1      32.534  24.957  22.690  1.00  0.00     0.040 A 
ATOM     86  C   UNL A   1      31.194  24.569  23.025  1.00  0.00     0.016 A 
ATOM     87  C   UNL A   1      33.682  24.475  23.351  1.00  0.00     0.028 A 
ATOM     88  C   UNL A   1      30.870  23.737  24.117  1.00  0.00     0.033 A 
ATOM     89  C   UNL A   1      33.326  23.638  24.403  1.00  0.00     0.050 A 
ATOM     90  C   UNL A   1      31.996  23.263  24.810  1.00  0.00     0.114 A 
ATOM     91  C   UNL A   1      34.180  22.952  25.219  1.00  0.00     0.174 A 
ATOM     92  N   UNL A   1      32.078  22.434  25.863  1.00  0.00    -0.079 NA
ATOM     93  O   UNL A   1      33.429  22.230  26.101  1.00  0.00    -0.355 OA
BRANCH  91  94
ATOM     94  C   UNL A   1      35.616  22.799  25.327  1.00  0.00     0.021 A 
ATOM     95  C   UNL A   1      36.392  23.839  25.853  1.00  0.00     0.012 A 
ATOM     96  C   UNL A   1      36.239  21.600  24.957  1.00  0.00     0.012 A 
ATOM     97  C   UNL A   1      37.769  23.680  26.015  1.00  0.00     0.001 A 
ATOM     98  C   UNL A   1      37.617  21.445  25.113  1.00  0.00     0.001 A 
ATOM     99  C   UNL A   1      38.380  22.484  25.644  1.00  0.00     0.000 A 
ENDBRANCH  91  94
ENDBRANCH  82  85
ENDBRANCH  77  81
ENDBRANCH  74  77
ENDBRANCH  72  73
ENDBRANCH   1  72
TORSDOF 15
ENDMDL
MODEL 3
REMARK VINA RESULT:     -13.1      2.660      4.012
REMARK SMILES O=C(NCCCNC(=O)[C@@H](CO)NC(=O)c1ccc2noc(-c3ccccc3)c2c1)c1ccc(-c2c3nc(c(-c4c(F)c(F)c(F)c(F)c4F)c4ccc([nH]4)c(-c4c(F)c(F)c(F)c(F)c4F)c4nc(c(-c5c(F)c(F)c(F)c(F)c5F)c5ccc2[nH]5)C=C4)C=C3)cc1
REMARK SMILES IDX 5 1 4 2 3 3 1 4 2 5 31 7 32 8 93 9 33 10 92 11 34 12 35 13
REMARK SMILES IDX 36 14 86 15 37 16 91 17 85 18 87 19 38 20 90 21 84 22 83 23
REMARK SMILES IDX 39 25 71 26 51 27 70 28 52 29 55 30 69 31 88 32 53 33 54 34
REMARK SMILES IDX 68 36 89 37 56 38 40 39 41 40 49 41 42 42 43 43 47 44 50 45
REMARK SMILES IDX 44 46 45 47 48 48 46 49 72 50 73 51 81 52 74 53 75 54 79 55
REMARK SMILES IDX 82 56 76 57 77 58 80 59 78 60 57 61 58 62 66 63 59 64 60 65
REMARK SMILES IDX 64 66 67 67 61 68 62 69 65 70 63 71 6 72 7 73 8 74 9 76
REMARK SMILES IDX 10 77 11 78 12 79 13 81 14 82 15 84 16 85 17 86 30 87 18 88
REMARK SMILES IDX 29 89 19 90 22 91 20 92 21 93 23 94 24 95 28 96 25 97 27 98
REMARK SMILES IDX 26 99
REMARK H PARENT 3 6 87 24 55 35 7 75 12 80 13 83
REMARK Flexibility Score: inf
ROOT
ATOM      1  C   UNL A   1      41.402  19.279  26.065  1.00  0.00     0.042 C 
ENDROOT
BRANCH   1   2
ATOM      2  C   UNL A   1      42.664  19.835  26.673  1.00  0.00     0.118 C 
BRANCH   2   3
ATOM      3  N   UNL A   1      43.877  19.596  25.887  1.00  0.00    -0.352 N 
ATOM      4  O   UNL A   1      45.332  20.189  24.229  1.00  0.00    -0.269 OA
ATOM      5  C   UNL A   1      44.566  20.525  25.107  1.00  0.00     0.251 C 
ATOM      6  H   UNL A   1      44.245  18.683  25.910  1.00  0.00     0.163 HD
BRANCH   5   7
ATOM      7  C   UNL A   1      44.321  21.951  25.401  1.00  0.00     0.039 A 
ATOM      8  C   UNL A   1      43.382  22.726  24.722  1.00  0.00     0.014 A 
ATOM      9  C   UNL A   1      44.998  22.458  26.497  1.00  0.00     0.014 A 
ATOM     10  C   UNL A   1      43.101  23.995  25.227  1.00  0.00     0.010 A 
ATOM     11  C   UNL A   1      44.456  23.508  27.169  1.00  0.00     0.010 A 
ATOM     12  C   UNL A   1      43.636  24.371  26.474  1.00  0.00    -0.014 A 
BRANCH  12  13
ATOM     13  C   UNL A   1      43.365  25.657  27.099  1.00  0.00     0.031 A 
ATOM     14  C   UNL A   1      44.330  26.717  26.743  1.00  0.00     0.074 A 
ATOM     15  C   UNL A   1      42.262  25.906  27.845  1.00  0.00     0.049 A 
ATOM     16  N   UNL A   1      45.270  27.180  27.494  1.00  0.00    -0.248 NA
ATOM     17  C   UNL A   1      44.373  27.196  25.355  1.00  0.00     0.031 C 
ATOM     18  C   UNL A   1      41.075  25.065  28.070  1.00  0.00     0.029 A 
ATOM     19  N   UNL A   1      41.944  27.036  28.533  1.00  0.00    -0.354 N 
ATOM     20  C   UNL A   1      45.900  28.164  26.746  1.00  0.00     0.074 A 
ATOM     21  C   UNL A   1      45.438  28.001  25.392  1.00  0.00     0.031 C 
ATOM     22  C   UNL A   1      40.090  25.793  28.638  1.00  0.00     0.029 A 
ATOM     23  C   UNL A   1      40.637  27.079  29.007  1.00  0.00     0.049 A 
ATOM     24  H   UNL A   1      42.588  27.765  28.683  1.00  0.00     0.167 HD
ATOM     25  C   UNL A   1      46.543  29.188  27.370  1.00  0.00     0.037 A 
ATOM     26  C   UNL A   1      40.052  28.099  29.679  1.00  0.00     0.037 A 
ATOM     27  C   UNL A   1      46.788  28.871  28.758  1.00  0.00     0.049 A 
ATOM     28  C   UNL A   1      41.150  28.901  30.268  1.00  0.00     0.074 A 
ATOM     29  C   UNL A   1      47.507  27.896  29.420  1.00  0.00     0.029 A 
ATOM     30  N   UNL A   1      45.908  29.381  29.680  1.00  0.00    -0.354 N 
ATOM     31  N   UNL A   1      41.933  28.471  31.218  1.00  0.00    -0.248 NA
ATOM     32  C   UNL A   1      41.659  30.020  29.494  1.00  0.00     0.031 C 
ATOM     33  C   UNL A   1      46.719  27.560  30.562  1.00  0.00     0.029 A 
ATOM     34  C   UNL A   1      45.597  28.392  30.578  1.00  0.00     0.049 A 
ATOM     35  H   UNL A   1      45.558  30.301  29.694  1.00  0.00     0.167 HD
ATOM     36  C   UNL A   1      43.187  28.960  30.885  1.00  0.00     0.074 A 
ATOM     37  C   UNL A   1      42.936  29.994  29.885  1.00  0.00     0.031 C 
ATOM     38  C   UNL A   1      44.317  28.280  31.240  1.00  0.00     0.037 A 
BRANCH  25  39
ATOM     39  C   UNL A   1      46.582  30.603  26.850  1.00  0.00     0.064 A 
ATOM     40  C   UNL A   1      47.805  31.301  26.859  1.00  0.00     0.173 A 
ATOM     41  C   UNL A   1      45.433  31.394  26.631  1.00  0.00     0.173 A 
ATOM     42  F   UNL A   1      48.960  30.654  27.087  1.00  0.00    -0.203 F 
ATOM     43  C   UNL A   1      47.863  32.691  26.732  1.00  0.00     0.198 A 
ATOM     44  C   UNL A   1      45.500  32.773  26.449  1.00  0.00     0.198 A 
ATOM     45  F   UNL A   1      44.195  30.892  26.701  1.00  0.00    -0.203 F 
ATOM     46  F   UNL A   1      49.035  33.323  26.876  1.00  0.00    -0.200 F 
ATOM     47  C   UNL A   1      46.710  33.426  26.531  1.00  0.00     0.200 A 
ATOM     48  F   UNL A   1      44.366  33.469  26.280  1.00  0.00    -0.200 F 
ATOM     49  F   UNL A   1      46.755  34.763  26.469  1.00  0.00    -0.200 F 
ENDBRANCH  25  39
BRANCH  26  50
ATOM     50  C   UNL A   1      38.661  28.601  29.588  1.00  0.00     0.064 A 
ATOM     51  C   UNL A   1      37.917  28.854  30.753  1.00  0.00     0.173 A 
ATOM     52  C   UNL A   1      38.155  29.142  28.392  1.00  0.00     0.173 A 
ATOM     53  F   UNL A   1      38.347  28.398  31.939  1.00  0.00    -0.203 F 
ATOM     54  C   UNL A   1      36.769  29.651  30.733  1.00  0.00     0.198 A 
ATOM     55  C   UNL A   1      37.004  29.934  28.371  1.00  0.00     0.198 A 
ATOM     56  F   UNL A   1      38.821  29.003  27.237  1.00  0.00    -0.203 F 
ATOM     57  F   UNL A   1      36.136  29.940  31.878  1.00  0.00    -0.200 F 
ATOM     58  C   UNL A   1      36.324  30.206  29.545  1.00  0.00     0.200 A 
ATOM     59  F   UNL A   1      36.604  30.495  27.222  1.00  0.00    -0.200 F 
ATOM     60  F   UNL A   1      35.273  31.036  29.537  1.00  0.00    -0.200 F 
ENDBRANCH  26  50
BRANCH  38  61
ATOM     61  C   UNL A   1      44.175  27.179  32.260  1.00  0.00     0.064 A 
ATOM     62  C   UNL A   1      44.111  25.809  31.948  1.00  0.00     0.173 A 
ATOM     63  C   UNL A   1      44.249  27.527  33.615  1.00  0.00     0.173 A 
ATOM     64  F   UNL A   1      44.121  25.387  30.679  1.00  0.00    -0.203 F 
ATOM     65  C   UNL A   1      44.090  24.839  32.951  1.00  0.00     0.198 A 
ATOM     66  C   UNL A   1      44.265  26.556  34.613  1.00  0.00     0.198 A 
ATOM     67  F   UNL A   1      44.357  28.816  33.971  1.00  0.00    -0.203 F 
ATOM     68  F   UNL A   1      44.020  23.539  32.630  1.00  0.00    -0.200 F 
ATOM     69  C   UNL A   1      44.178  25.213  34.282  1.00  0.00     0.200 A 
ATOM     70  F   UNL A   1      44.395  26.921  35.895  1.00  0.00    -0.200 F 
ATOM     71  F   UNL A   1      44.203  24.281  35.245  1.00  0.00    -0.200 F 
ENDBRANCH  38  61
ENDBRANCH  12  13
ENDBRANCH   5   7
ENDBRANCH   2   3
ENDBRANCH   1   2
BRANCH   1  72
ATOM     72  C   UNL A   1      40.250  20.287  26.022  1.00  0.00     0.117 C 
BRANCH  72  73
ATOM     73  N   UNL A   1      39.005  19.758  25.472  1.00  0.00    -0.354 N 
ATOM     74  C   UNL A   1      37.806  20.335  25.174  1.00  0.00     0.244 C 
ATOM     75  H   UNL A   1      39.038  18.794  25.275  1.00  0.00     0.163 HD
ATOM     76  O   UNL A   1      36.885  19.563  24.875  1.00  0.00    -0.273 OA
BRANCH  74  77
ATOM     77  C   UNL A   1      37.511  21.838  25.342  1.00  0.00     0.197 C 
BRANCH  77  78
ATOM     78  C   UNL A   1      38.659  22.523  26.099  1.00  0.00     0.191 C 
BRANCH  78  79
ATOM     79  O   UNL A   1      38.816  23.893  25.755  1.00  0.00    -0.394 OA
ATOM     80  H   UNL A   1      39.668  24.019  25.312  1.00  0.00     0.210 HD
ENDBRANCH  78  79
ENDBRANCH  77  78
BRANCH  77  81
ATOM     81  N   UNL A   1      37.122  22.519  24.101  1.00  0.00    -0.338 N 
ATOM     82  C   UNL A   1      35.888  22.904  23.659  1.00  0.00     0.252 C 
ATOM     83  H   UNL A   1      37.866  22.732  23.492  1.00  0.00     0.164 HD
ATOM     84  O   UNL A   1      35.728  23.204  22.480  1.00  0.00    -0.269 OA
BRANCH  82  85
ATOM     85  C   UNL A   1      34.738  22.929  24.586  1.00  0.00     0.040 A 
ATOM     86  C   UNL A   1      34.174  21.693  25.048  1.00  0.00     0.016 A 
ATOM     87  C   UNL A   1      34.285  24.201  24.989  1.00  0.00     0.028 A 
ATOM     88  C   UNL A   1      33.040  21.615  25.884  1.00  0.00     0.033 A 
ATOM     89  C   UNL A   1      33.185  24.085  25.831  1.00  0.00     0.050 A 
ATOM     90  C   UNL A   1      32.552  22.870  26.280  1.00  0.00     0.114 A 
ATOM     91  C   UNL A   1      32.528  25.108  26.455  1.00  0.00     0.174 A 
ATOM     92  N   UNL A   1      31.527  23.184  27.089  1.00  0.00    -0.079 NA
ATOM     93  O   UNL A   1      31.526  24.566  27.208  1.00  0.00    -0.355 OA
BRANCH  91  94
ATOM     94  C   UNL A   1      32.670  26.547  26.520  1.00  0.00     0.021 A 
ATOM     95  C   UNL A   1      31.613  27.333  26.994  1.00  0.00     0.012 A 
ATOM     96  C   UNL A   1      33.874  27.165  26.160  1.00  0.00     0.012 A 
ATOM     97  C   UNL A   1      31.760  28.716  27.115  1.00  0.00     0.001 A 
ATOM     98  C   UNL A   1      34.018  28.549  26.275  1.00  0.00     0.001 A 
ATOM     99  C   UNL A   1      32.962  29.322  26.755  1.00  0.00     0.000 A 
ENDBRANCH  91  94
ENDBRANCH  82  85
ENDBRANCH  77  81
ENDBRANCH  74  77
ENDBRANCH  72  73
ENDBRANCH   1  72
TORSDOF 15
ENDMDL
