MODEL 1
REMARK VINA RESULT:     -13.8      0.000      0.000
REMARK SMILES C[N@@H+]1CC2(CC[NH+](Cc3cccc(O)c3)CC2)C[C@H]1C(=O)NCCCNC(=O)c1ccc(-c2c3nc(c(-c4c(F)c(F)c(F)c(F)c4F)c4ccc([nH]4)c(-c4c(F)c(F)c(F)c(F)c4F)c4nc(c(-c5c(F)c(F)c(F)c(F)c5F)c5ccc2[nH]5)C=C4)C=C3)cc1
REMARK SMILES IDX 23 1 22 2 20 3 21 4 19 6 1 7 2 8 3 9 4 11 18 12 5 13 17 14
REMARK SMILES IDX 6 15 16 16 7 17 8 19 9 20 10 21 15 22 11 23 13 24 12 25
REMARK SMILES IDX 14 26 24 28 25 29 26 30 27 31 28 33 29 34 30 35 91 36 31 37
REMARK SMILES IDX 90 38 32 39 33 40 34 41 84 42 35 43 89 44 83 45 85 46 36 47
REMARK SMILES IDX 88 48 82 49 81 50 37 52 69 53 49 54 68 55 50 56 53 57 67 58
REMARK SMILES IDX 86 59 51 60 52 61 66 63 87 64 54 65 38 66 39 67 47 68 40 69
REMARK SMILES IDX 41 70 45 71 48 72 42 73 43 74 46 75 44 76 70 77 71 78 79 79
REMARK SMILES IDX 72 80 73 81 77 82 80 83 74 84 75 85 78 86 76 87 55 88 56 89
REMARK SMILES IDX 64 90 57 91 58 92 62 93 65 94 59 95 60 96 63 97 61 98
REMARK H PARENT 22 5 2 10 7 18 14 27 26 32 85 51 53 62
REMARK Flexibility Score: inf
ROOT
ATOM      1  C   UNL A   1      31.749  30.701  26.048  1.00  0.00     0.118 C 
ENDROOT
BRANCH   1   2
ATOM      2  N   UNL A   1      31.581  29.706  27.073  1.00  0.00    -0.351 N 
ATOM      3  C   UNL A   1      31.777  28.361  27.044  1.00  0.00     0.278 C 
ATOM      4  O   UNL A   1      31.710  27.793  28.144  1.00  0.00    -0.268 OA
ATOM      5  H   UNL A   1      31.273  30.057  27.940  1.00  0.00     0.163 HD
BRANCH   3   6
ATOM      6  C   UNL A   1      32.046  27.521  25.764  1.00  0.00     0.274 C 
ATOM      7  C   UNL A   1      33.594  28.044  23.999  1.00  0.00     0.333 C 
ATOM      8  N   UNL A   1      33.477  27.557  25.376  1.00  0.00    -0.327 N 
ATOM      9  C   UNL A   1      34.019  26.198  25.534  1.00  0.00     0.270 C 
ATOM     10  H   UNL A   1      34.012  28.194  25.968  1.00  0.00     0.348 HD
ATOM     11  C   UNL A   1      32.862  25.188  25.448  1.00  0.00     0.036 C 
ATOM     12  C   UNL A   1      31.599  26.068  25.695  1.00  0.00     0.089 C 
ATOM     13  C   UNL A   1      32.943  24.086  26.537  1.00  0.00     0.075 C 
ATOM     14  C   UNL A   1      32.840  24.562  24.030  1.00  0.00     0.075 C 
ATOM     15  C   UNL A   1      33.803  22.872  26.226  1.00  0.00     0.263 C 
ATOM     16  C   UNL A   1      33.695  23.296  23.866  1.00  0.00     0.263 C 
ATOM     17  N   UNL A   1      33.564  22.298  24.918  1.00  0.00    -0.331 N 
ATOM     18  H   UNL A   1      34.329  21.646  24.741  1.00  0.00     0.348 HD
BRANCH  17  19
ATOM     19  C   UNL A   1      32.463  21.328  24.821  1.00  0.00     0.299 C 
BRANCH  19  20
ATOM     20  C   UNL A   1      32.795  19.930  24.350  1.00  0.00     0.010 A 
ATOM     21  C   UNL A   1      33.880  19.235  24.902  1.00  0.00     0.010 A 
ATOM     22  C   UNL A   1      32.075  19.326  23.309  1.00  0.00     0.055 A 
ATOM     23  C   UNL A   1      34.329  18.041  24.330  1.00  0.00     0.004 A 
ATOM     24  C   UNL A   1      32.525  18.133  22.748  1.00  0.00     0.116 A 
ATOM     25  C   UNL A   1      33.662  17.498  23.234  1.00  0.00     0.046 A 
BRANCH  24  26
ATOM     26  O   UNL A   1      31.840  17.636  21.678  1.00  0.00    -0.508 OA
ATOM     27  H   UNL A   1      31.885  16.722  21.477  1.00  0.00     0.293 HD
ENDBRANCH  24  26
ENDBRANCH  19  20
ENDBRANCH  17  19
ENDBRANCH   3   6
ENDBRANCH   1   2
BRANCH   1  28
ATOM     28  C   UNL A   1      31.453  32.116  26.525  1.00  0.00     0.042 C 
BRANCH  28  29
ATOM     29  C   UNL A   1      32.617  32.738  27.271  1.00  0.00     0.118 C 
BRANCH  29  30
ATOM     30  N   UNL A   1      32.366  34.135  27.621  1.00  0.00    -0.352 N 
ATOM     31  C   UNL A   1      32.951  34.927  28.580  1.00  0.00     0.251 C 
ATOM     32  H   UNL A   1      31.668  34.578  27.085  1.00  0.00     0.163 HD
ATOM     33  O   UNL A   1      32.486  36.038  28.820  1.00  0.00    -0.269 OA
BRANCH  31  34
ATOM     34  C   UNL A   1      34.114  34.433  29.350  1.00  0.00     0.039 A 
ATOM     35  C   UNL A   1      33.897  33.748  30.550  1.00  0.00     0.014 A 
ATOM     36  C   UNL A   1      35.415  34.628  28.888  1.00  0.00     0.014 A 
ATOM     37  C   UNL A   1      34.980  33.198  31.240  1.00  0.00     0.010 A 
ATOM     38  C   UNL A   1      36.474  33.978  29.506  1.00  0.00     0.010 A 
ATOM     39  C   UNL A   1      36.273  33.270  30.698  1.00  0.00    -0.014 A 
BRANCH  39  40
ATOM     40  C   UNL A   1      37.443  32.647  31.367  1.00  0.00     0.031 A 
ATOM     41  C   UNL A   1      38.175  31.522  30.688  1.00  0.00     0.074 A 
ATOM     42  C   UNL A   1      37.783  33.028  32.613  1.00  0.00     0.049 A 
ATOM     43  N   UNL A   1      39.143  30.767  31.144  1.00  0.00    -0.248 NA
ATOM     44  C   UNL A   1      37.729  31.165  29.331  1.00  0.00     0.031 C 
ATOM     45  C   UNL A   1      37.110  34.063  33.398  1.00  0.00     0.029 A 
ATOM     46  N   UNL A   1      38.777  32.576  33.445  1.00  0.00    -0.354 N 
ATOM     47  C   UNL A   1      39.391  29.832  30.147  1.00  0.00     0.074 A 
ATOM     48  C   UNL A   1      38.434  30.071  29.091  1.00  0.00     0.031 C 
ATOM     49  C   UNL A   1      37.731  34.192  34.581  1.00  0.00     0.029 A 
ATOM     50  C   UNL A   1      38.817  33.222  34.656  1.00  0.00     0.049 A 
ATOM     51  H   UNL A   1      39.402  31.857  33.196  1.00  0.00     0.167 HD
ATOM     52  C   UNL A   1      40.351  28.878  30.102  1.00  0.00     0.037 A 
ATOM     53  C   UNL A   1      39.638  33.045  35.709  1.00  0.00     0.037 A 
ATOM     54  C   UNL A   1      41.333  28.682  31.135  1.00  0.00     0.049 A 
ATOM     55  C   UNL A   1      40.713  31.994  35.626  1.00  0.00     0.074 A 
ATOM     56  C   UNL A   1      42.404  27.807  31.153  1.00  0.00     0.029 A 
ATOM     57  N   UNL A   1      41.362  29.379  32.335  1.00  0.00    -0.354 N 
ATOM     58  N   UNL A   1      40.990  31.168  34.646  1.00  0.00    -0.248 NA
ATOM     59  C   UNL A   1      41.592  31.855  36.794  1.00  0.00     0.031 C 
ATOM     60  C   UNL A   1      43.054  27.941  32.383  1.00  0.00     0.029 A 
ATOM     61  C   UNL A   1      42.420  28.937  33.110  1.00  0.00     0.049 A 
ATOM     62  H   UNL A   1      40.725  30.083  32.595  1.00  0.00     0.167 HD
ATOM     63  C   UNL A   1      42.091  30.434  35.065  1.00  0.00     0.074 A 
ATOM     64  C   UNL A   1      42.439  30.923  36.383  1.00  0.00     0.031 C 
ATOM     65  C   UNL A   1      42.755  29.445  34.417  1.00  0.00     0.037 A 
BRANCH  52  66
ATOM     66  C   UNL A   1      40.386  27.982  28.897  1.00  0.00     0.064 A 
ATOM     67  C   UNL A   1      39.691  26.763  28.860  1.00  0.00     0.173 A 
ATOM     68  C   UNL A   1      41.114  28.354  27.756  1.00  0.00     0.173 A 
ATOM     69  F   UNL A   1      38.991  26.352  29.928  1.00  0.00    -0.203 F 
ATOM     70  C   UNL A   1      39.755  25.933  27.744  1.00  0.00     0.198 A 
ATOM     71  C   UNL A   1      41.146  27.538  26.628  1.00  0.00     0.198 A 
ATOM     72  F   UNL A   1      41.793  29.511  27.734  1.00  0.00    -0.203 F 
ATOM     73  F   UNL A   1      39.133  24.746  27.758  1.00  0.00    -0.200 F 
ATOM     74  C   UNL A   1      40.476  26.324  26.627  1.00  0.00     0.200 A 
ATOM     75  F   UNL A   1      41.834  27.923  25.544  1.00  0.00    -0.200 F 
ATOM     76  F   UNL A   1      40.533  25.527  25.551  1.00  0.00    -0.200 F 
ENDBRANCH  52  66
BRANCH  53  77
ATOM     77  C   UNL A   1      39.506  33.911  36.909  1.00  0.00     0.064 A 
ATOM     78  C   UNL A   1      38.775  33.479  38.025  1.00  0.00     0.173 A 
ATOM     79  C   UNL A   1      40.106  35.176  36.973  1.00  0.00     0.173 A 
ATOM     80  F   UNL A   1      38.167  32.283  38.004  1.00  0.00    -0.203 F 
ATOM     81  C   UNL A   1      38.632  34.288  39.150  1.00  0.00     0.198 A 
ATOM     82  C   UNL A   1      39.986  35.973  38.110  1.00  0.00     0.198 A 
ATOM     83  F   UNL A   1      40.822  35.634  35.935  1.00  0.00    -0.203 F 
ATOM     84  F   UNL A   1      37.891  33.867  40.184  1.00  0.00    -0.200 F 
ATOM     85  C   UNL A   1      39.243  35.531  39.195  1.00  0.00     0.200 A 
ATOM     86  F   UNL A   1      40.590  37.168  38.156  1.00  0.00    -0.200 F 
ATOM     87  F   UNL A   1      39.110  36.306  40.279  1.00  0.00    -0.200 F 
ENDBRANCH  53  77
BRANCH  65  88
ATOM     88  C   UNL A   1      43.948  28.852  35.108  1.00  0.00     0.064 A 
ATOM     89  C   UNL A   1      45.232  29.392  34.954  1.00  0.00     0.173 A 
ATOM     90  C   UNL A   1      43.793  27.756  35.970  1.00  0.00     0.173 A 
ATOM     91  F   UNL A   1      45.434  30.431  34.129  1.00  0.00    -0.203 F 
ATOM     92  C   UNL A   1      46.323  28.841  35.619  1.00  0.00     0.198 A 
ATOM     93  C   UNL A   1      44.880  27.227  36.657  1.00  0.00     0.198 A 
ATOM     94  F   UNL A   1      42.583  27.207  36.156  1.00  0.00    -0.203 F 
ATOM     95  F   UNL A   1      47.550  29.342  35.421  1.00  0.00    -0.200 F 
ATOM     96  C   UNL A   1      46.146  27.765  36.476  1.00  0.00     0.200 A 
ATOM     97  F   UNL A   1      44.703  26.198  37.497  1.00  0.00    -0.200 F 
ATOM     98  F   UNL A   1      47.196  27.241  37.123  1.00  0.00    -0.200 F 
ENDBRANCH  65  88
ENDBRANCH  39  40
ENDBRANCH  31  34
ENDBRANCH  29  30
ENDBRANCH  28  29
ENDBRANCH   1  28
TORSDOF 13
ENDMDL
MODEL 2
REMARK VINA RESULT:     -13.8      0.631      1.707
REMARK SMILES C[N@@H+]1CC2(CC[NH+](Cc3cccc(O)c3)CC2)C[C@H]1C(=O)NCCCNC(=O)c1ccc(-c2c3nc(c(-c4c(F)c(F)c(F)c(F)c4F)c4ccc([nH]4)c(-c4c(F)c(F)c(F)c(F)c4F)c4nc(c(-c5c(F)c(F)c(F)c(F)c5F)c5ccc2[nH]5)C=C4)C=C3)cc1
REMARK SMILES IDX 23 1 22 2 20 3 21 4 19 6 1 7 2 8 3 9 4 11 18 12 5 13 17 14
REMARK SMILES IDX 6 15 16 16 7 17 8 19 9 20 10 21 15 22 11 23 13 24 12 25
REMARK SMILES IDX 14 26 24 28 25 29 26 30 27 31 28 33 29 34 30 35 91 36 31 37
REMARK SMILES IDX 90 38 32 39 33 40 34 41 84 42 35 43 89 44 83 45 85 46 36 47
REMARK SMILES IDX 88 48 82 49 81 50 37 52 69 53 49 54 68 55 50 56 53 57 67 58
REMARK SMILES IDX 86 59 51 60 52 61 66 63 87 64 54 65 38 66 39 67 47 68 40 69
REMARK SMILES IDX 41 70 45 71 48 72 42 73 43 74 46 75 44 76 70 77 71 78 79 79
REMARK SMILES IDX 72 80 73 81 77 82 80 83 74 84 75 85 78 86 76 87 55 88 56 89
REMARK SMILES IDX 64 90 57 91 58 92 62 93 65 94 59 95 60 96 63 97 61 98
REMARK H PARENT 22 5 2 10 7 18 14 27 26 32 85 51 53 62
REMARK Flexibility Score: inf
ROOT
ATOM      1  C   UNL A   1      31.742  30.631  25.974  1.00  0.00     0.118 C 
ENDROOT
BRANCH   1   2
ATOM      2  N   UNL A   1      32.825  29.888  26.562  1.00  0.00    -0.351 N 
ATOM      3  C   UNL A   1      33.263  28.623  26.325  1.00  0.00     0.278 C 
ATOM      4  O   UNL A   1      34.334  28.324  26.874  1.00  0.00    -0.268 OA
ATOM      5  H   UNL A   1      33.332  30.376  27.250  1.00  0.00     0.163 HD
BRANCH   3   6
ATOM      6  C   UNL A   1      32.525  27.564  25.461  1.00  0.00     0.274 C 
ATOM      7  C   UNL A   1      31.761  27.833  23.196  1.00  0.00     0.333 C 
ATOM      8  N   UNL A   1      32.942  27.628  24.040  1.00  0.00    -0.327 N 
ATOM      9  C   UNL A   1      33.642  26.374  23.721  1.00  0.00     0.270 C 
ATOM     10  H   UNL A   1      33.575  28.410  23.868  1.00  0.00     0.348 HD
ATOM     11  C   UNL A   1      33.183  25.284  24.704  1.00  0.00     0.036 C 
ATOM     12  C   UNL A   1      32.542  26.097  25.869  1.00  0.00     0.089 C 
ATOM     13  C   UNL A   1      34.359  24.435  25.254  1.00  0.00     0.075 C 
ATOM     14  C   UNL A   1      32.133  24.383  24.005  1.00  0.00     0.075 C 
ATOM     15  C   UNL A   1      34.808  23.252  24.412  1.00  0.00     0.263 C 
ATOM     16  C   UNL A   1      32.710  23.178  23.247  1.00  0.00     0.263 C 
ATOM     17  N   UNL A   1      33.724  22.407  23.954  1.00  0.00    -0.331 N 
ATOM     18  H   UNL A   1      34.114  21.793  23.240  1.00  0.00     0.348 HD
BRANCH  17  19
ATOM     19  C   UNL A   1      33.275  21.358  24.882  1.00  0.00     0.299 C 
BRANCH  19  20
ATOM     20  C   UNL A   1      33.372  19.921  24.420  1.00  0.00     0.010 A 
ATOM     21  C   UNL A   1      34.439  19.113  24.836  1.00  0.00     0.010 A 
ATOM     22  C   UNL A   1      32.442  19.386  23.516  1.00  0.00     0.055 A 
ATOM     23  C   UNL A   1      34.659  17.863  24.251  1.00  0.00     0.004 A 
ATOM     24  C   UNL A   1      32.665  18.137  22.942  1.00  0.00     0.116 A 
ATOM     25  C   UNL A   1      33.781  17.382  23.282  1.00  0.00     0.046 A 
BRANCH  24  26
ATOM     26  O   UNL A   1      31.778  17.703  22.001  1.00  0.00    -0.508 OA
ATOM     27  H   UNL A   1      31.908  17.920  21.099  1.00  0.00     0.293 HD
ENDBRANCH  24  26
ENDBRANCH  19  20
ENDBRANCH  17  19
ENDBRANCH   3   6
ENDBRANCH   1   2
BRANCH   1  28
ATOM     28  C   UNL A   1      31.419  31.919  26.718  1.00  0.00     0.042 C 
BRANCH  28  29
ATOM     29  C   UNL A   1      32.657  32.611  27.256  1.00  0.00     0.118 C 
BRANCH  29  30
ATOM     30  N   UNL A   1      32.407  34.014  27.583  1.00  0.00    -0.352 N 
ATOM     31  C   UNL A   1      32.991  34.820  28.531  1.00  0.00     0.251 C 
ATOM     32  H   UNL A   1      31.712  34.450  27.038  1.00  0.00     0.163 HD
ATOM     33  O   UNL A   1      32.528  35.936  28.751  1.00  0.00    -0.269 OA
BRANCH  31  34
ATOM     34  C   UNL A   1      34.151  34.336  29.311  1.00  0.00     0.039 A 
ATOM     35  C   UNL A   1      33.932  33.721  30.548  1.00  0.00     0.014 A 
ATOM     36  C   UNL A   1      35.451  34.473  28.825  1.00  0.00     0.014 A 
ATOM     37  C   UNL A   1      35.010  33.179  31.253  1.00  0.00     0.010 A 
ATOM     38  C   UNL A   1      36.501  33.828  29.463  1.00  0.00     0.010 A 
ATOM     39  C   UNL A   1      36.296  33.189  30.693  1.00  0.00    -0.014 A 
BRANCH  39  40
ATOM     40  C   UNL A   1      37.459  32.570  31.379  1.00  0.00     0.031 A 
ATOM     41  C   UNL A   1      38.186  31.426  30.727  1.00  0.00     0.074 A 
ATOM     42  C   UNL A   1      37.796  32.974  32.619  1.00  0.00     0.049 A 
ATOM     43  N   UNL A   1      39.146  30.673  31.202  1.00  0.00    -0.248 NA
ATOM     44  C   UNL A   1      37.743  31.046  29.375  1.00  0.00     0.031 C 
ATOM     45  C   UNL A   1      37.128  34.029  33.380  1.00  0.00     0.029 A 
ATOM     46  N   UNL A   1      38.784  32.531  33.465  1.00  0.00    -0.354 N 
ATOM     47  C   UNL A   1      39.392  29.717  30.225  1.00  0.00     0.074 A 
ATOM     48  C   UNL A   1      38.440  29.942  29.160  1.00  0.00     0.031 C 
ATOM     49  C   UNL A   1      37.744  34.178  34.563  1.00  0.00     0.029 A 
ATOM     50  C   UNL A   1      38.823  33.201  34.663  1.00  0.00     0.049 A 
ATOM     51  H   UNL A   1      39.404  31.803  33.233  1.00  0.00     0.167 HD
ATOM     52  C   UNL A   1      40.344  28.755  30.205  1.00  0.00     0.037 A 
ATOM     53  C   UNL A   1      39.638  33.040  35.722  1.00  0.00     0.037 A 
ATOM     54  C   UNL A   1      41.320  28.572  31.245  1.00  0.00     0.049 A 
ATOM     55  C   UNL A   1      40.705  31.979  35.666  1.00  0.00     0.074 A 
ATOM     56  C   UNL A   1      42.384  27.690  31.286  1.00  0.00     0.029 A 
ATOM     57  N   UNL A   1      41.350  29.293  32.431  1.00  0.00    -0.354 N 
ATOM     58  N   UNL A   1      40.981  31.132  34.704  1.00  0.00    -0.248 NA
ATOM     59  C   UNL A   1      41.578  31.858  36.841  1.00  0.00     0.031 C 
ATOM     60  C   UNL A   1      43.030  27.844  32.516  1.00  0.00     0.029 A 
ATOM     61  C   UNL A   1      42.401  28.859  33.220  1.00  0.00     0.049 A 
ATOM     62  H   UNL A   1      40.716  30.007  32.675  1.00  0.00     0.167 HD
ATOM     63  C   UNL A   1      42.074  30.398  35.142  1.00  0.00     0.074 A 
ATOM     64  C   UNL A   1      42.420  30.911  36.453  1.00  0.00     0.031 C 
ATOM     65  C   UNL A   1      42.734  29.392  34.517  1.00  0.00     0.037 A 
BRANCH  52  66
ATOM     66  C   UNL A   1      40.378  27.834  29.018  1.00  0.00     0.064 A 
ATOM     67  C   UNL A   1      41.143  28.126  27.878  1.00  0.00     0.173 A 
ATOM     68  C   UNL A   1      39.648  26.637  29.026  1.00  0.00     0.173 A 
ATOM     69  F   UNL A   1      41.850  29.264  27.810  1.00  0.00    -0.203 F 
ATOM     70  C   UNL A   1      41.144  27.273  26.776  1.00  0.00     0.198 A 
ATOM     71  C   UNL A   1      39.679  25.769  27.938  1.00  0.00     0.198 A 
ATOM     72  F   UNL A   1      38.903  26.305  30.092  1.00  0.00    -0.203 F 
ATOM     73  F   UNL A   1      41.832  27.605  25.675  1.00  0.00    -0.200 F 
ATOM     74  C   UNL A   1      40.418  26.093  26.810  1.00  0.00     0.200 A 
ATOM     75  F   UNL A   1      38.987  24.622  27.976  1.00  0.00    -0.200 F 
ATOM     76  F   UNL A   1      40.423  25.272  25.751  1.00  0.00    -0.200 F 
ENDBRANCH  52  66
BRANCH  53  77
ATOM     77  C   UNL A   1      39.507  33.931  36.904  1.00  0.00     0.064 A 
ATOM     78  C   UNL A   1      38.753  33.535  38.018  1.00  0.00     0.173 A 
ATOM     79  C   UNL A   1      40.131  35.185  36.953  1.00  0.00     0.173 A 
ATOM     80  F   UNL A   1      38.121  32.351  38.011  1.00  0.00    -0.203 F 
ATOM     81  C   UNL A   1      38.611  34.367  39.126  1.00  0.00     0.198 A 
ATOM     82  C   UNL A   1      40.012  36.005  38.073  1.00  0.00     0.198 A 
ATOM     83  F   UNL A   1      40.870  35.609  35.917  1.00  0.00    -0.203 F 
ATOM     84  F   UNL A   1      37.848  33.981  40.157  1.00  0.00    -0.200 F 
ATOM     85  C   UNL A   1      39.246  35.599  39.156  1.00  0.00     0.200 A 
ATOM     86  F   UNL A   1      40.639  37.189  38.105  1.00  0.00    -0.200 F 
ATOM     87  F   UNL A   1      39.114  36.397  40.223  1.00  0.00    -0.200 F 
ENDBRANCH  53  77
BRANCH  65  88
ATOM     88  C   UNL A   1      43.919  28.804  35.226  1.00  0.00     0.064 A 
ATOM     89  C   UNL A   1      43.792  27.705  36.087  1.00  0.00     0.173 A 
ATOM     90  C   UNL A   1      45.204  29.320  35.002  1.00  0.00     0.173 A 
ATOM     91  F   UNL A   1      42.582  27.186  36.345  1.00  0.00    -0.203 F 
ATOM     92  C   UNL A   1      44.906  27.160  36.719  1.00  0.00     0.198 A 
ATOM     93  C   UNL A   1      46.319  28.753  35.610  1.00  0.00     0.198 A 
ATOM     94  F   UNL A   1      45.380  30.366  34.180  1.00  0.00    -0.203 F 
ATOM     95  F   UNL A   1      44.756  26.141  37.576  1.00  0.00    -0.200 F 
ATOM     96  C   UNL A   1      46.168  27.679  36.474  1.00  0.00     0.200 A 
ATOM     97  F   UNL A   1      47.540  29.245  35.359  1.00  0.00    -0.200 F 
ATOM     98  F   UNL A   1      47.241  27.146  37.076  1.00  0.00    -0.200 F 
ENDBRANCH  65  88
ENDBRANCH  39  40
ENDBRANCH  31  34
ENDBRANCH  29  30
ENDBRANCH  28  29
ENDBRANCH   1  28
TORSDOF 13
ENDMDL
MODEL 3
REMARK VINA RESULT:     -13.7      5.660     11.424
REMARK SMILES C[N@@H+]1CC2(CC[NH+](Cc3cccc(O)c3)CC2)C[C@H]1C(=O)NCCCNC(=O)c1ccc(-c2c3nc(c(-c4c(F)c(F)c(F)c(F)c4F)c4ccc([nH]4)c(-c4c(F)c(F)c(F)c(F)c4F)c4nc(c(-c5c(F)c(F)c(F)c(F)c5F)c5ccc2[nH]5)C=C4)C=C3)cc1
REMARK SMILES IDX 23 1 22 2 20 3 21 4 19 6 1 7 2 8 3 9 4 11 18 12 5 13 17 14
REMARK SMILES IDX 6 15 16 16 7 17 8 19 9 20 10 21 15 22 11 23 13 24 12 25
REMARK SMILES IDX 14 26 24 28 25 29 26 30 27 31 28 33 29 34 30 35 91 36 31 37
REMARK SMILES IDX 90 38 32 39 33 40 34 41 84 42 35 43 89 44 83 45 85 46 36 47
REMARK SMILES IDX 88 48 82 49 81 50 37 52 69 53 49 54 68 55 50 56 53 57 67 58
REMARK SMILES IDX 86 59 51 60 52 61 66 63 87 64 54 65 38 66 39 67 47 68 40 69
REMARK SMILES IDX 41 70 45 71 48 72 42 73 43 74 46 75 44 76 70 77 71 78 79 79
REMARK SMILES IDX 72 80 73 81 77 82 80 83 74 84 75 85 78 86 76 87 55 88 56 89
REMARK SMILES IDX 64 90 57 91 58 92 62 93 65 94 59 95 60 96 63 97 61 98
REMARK H PARENT 22 5 2 10 7 18 14 27 26 32 85 51 53 62
REMARK Flexibility Score: inf
ROOT
ATOM      1  C   UNL A   1      36.987  20.832  24.800  1.00  0.00     0.118 C 
ENDROOT
BRANCH   1   2
ATOM      2  N   UNL A   1      36.199  21.097  25.974  1.00  0.00    -0.351 N 
ATOM      3  C   UNL A   1      34.897  21.468  26.104  1.00  0.00     0.278 C 
ATOM      4  O   UNL A   1      34.457  21.454  27.262  1.00  0.00    -0.268 OA
ATOM      5  H   UNL A   1      36.682  20.994  26.825  1.00  0.00     0.163 HD
BRANCH   3   6
ATOM      6  C   UNL A   1      33.970  21.911  24.938  1.00  0.00     0.274 C 
ATOM      7  C   UNL A   1      32.381  20.541  23.762  1.00  0.00     0.333 C 
ATOM      8  N   UNL A   1      32.642  21.257  25.014  1.00  0.00    -0.327 N 
ATOM      9  C   UNL A   1      31.641  22.302  25.276  1.00  0.00     0.270 C 
ATOM     10  H   UNL A   1      32.603  20.569  25.767  1.00  0.00     0.348 HD
ATOM     11  C   UNL A   1      32.195  23.654  24.795  1.00  0.00     0.036 C 
ATOM     12  C   UNL A   1      33.727  23.391  24.674  1.00  0.00     0.089 C 
ATOM     13  C   UNL A   1      31.949  24.801  25.809  1.00  0.00     0.075 C 
ATOM     14  C   UNL A   1      31.575  23.994  23.416  1.00  0.00     0.075 C 
ATOM     15  C   UNL A   1      30.608  25.514  25.731  1.00  0.00     0.263 C 
ATOM     16  C   UNL A   1      30.256  24.780  23.473  1.00  0.00     0.263 C 
ATOM     17  N   UNL A   1      30.227  25.910  24.391  1.00  0.00    -0.331 N 
ATOM     18  H   UNL A   1      29.243  26.173  24.433  1.00  0.00     0.348 HD
BRANCH  17  19
ATOM     19  C   UNL A   1      30.748  27.202  23.918  1.00  0.00     0.299 C 
BRANCH  19  20
ATOM     20  C   UNL A   1      29.745  28.265  23.529  1.00  0.00     0.010 A 
ATOM     21  C   UNL A   1      30.125  29.614  23.483  1.00  0.00     0.010 A 
ATOM     22  C   UNL A   1      28.406  27.939  23.274  1.00  0.00     0.055 A 
ATOM     23  C   UNL A   1      29.167  30.621  23.339  1.00  0.00     0.004 A 
ATOM     24  C   UNL A   1      27.457  28.949  23.125  1.00  0.00     0.116 A 
ATOM     25  C   UNL A   1      27.823  30.288  23.182  1.00  0.00     0.046 A 
BRANCH  24  26
ATOM     26  O   UNL A   1      26.153  28.578  22.971  1.00  0.00    -0.508 OA
ATOM     27  H   UNL A   1      25.553  28.666  23.684  1.00  0.00     0.293 HD
ENDBRANCH  24  26
ENDBRANCH  19  20
ENDBRANCH  17  19
ENDBRANCH   3   6
ENDBRANCH   1   2
BRANCH   1  28
ATOM     28  C   UNL A   1      38.020  19.733  25.001  1.00  0.00     0.042 C 
BRANCH  28  29
ATOM     29  C   UNL A   1      39.235  20.206  25.777  1.00  0.00     0.118 C 
BRANCH  29  30
ATOM     30  N   UNL A   1      40.244  19.158  25.914  1.00  0.00    -0.352 N 
ATOM     31  C   UNL A   1      41.599  19.256  26.126  1.00  0.00     0.251 C 
ATOM     32  H   UNL A   1      39.900  18.238  25.844  1.00  0.00     0.163 HD
ATOM     33  O   UNL A   1      42.301  18.250  26.057  1.00  0.00    -0.269 OA
BRANCH  31  34
ATOM     34  C   UNL A   1      42.220  20.570  26.400  1.00  0.00     0.039 A 
ATOM     35  C   UNL A   1      42.711  21.328  25.333  1.00  0.00     0.014 A 
ATOM     36  C   UNL A   1      42.308  21.065  27.701  1.00  0.00     0.014 A 
ATOM     37  C   UNL A   1      43.218  22.609  25.567  1.00  0.00     0.010 A 
ATOM     38  C   UNL A   1      42.695  22.379  27.918  1.00  0.00     0.010 A 
ATOM     39  C   UNL A   1      43.171  23.162  26.857  1.00  0.00    -0.014 A 
BRANCH  39  40
ATOM     40  C   UNL A   1      43.641  24.541  27.140  1.00  0.00     0.031 A 
ATOM     41  C   UNL A   1      42.674  25.562  27.676  1.00  0.00     0.074 A 
ATOM     42  C   UNL A   1      44.902  24.895  26.828  1.00  0.00     0.049 A 
ATOM     43  N   UNL A   1      42.848  26.843  27.881  1.00  0.00    -0.248 NA
ATOM     44  C   UNL A   1      41.313  25.088  27.979  1.00  0.00     0.031 C 
ATOM     45  C   UNL A   1      45.913  24.012  26.246  1.00  0.00     0.029 A 
ATOM     46  N   UNL A   1      45.547  26.102  26.948  1.00  0.00    -0.354 N 
ATOM     47  C   UNL A   1      41.615  27.327  28.299  1.00  0.00     0.074 A 
ATOM     48  C   UNL A   1      40.687  26.220  28.258  1.00  0.00     0.031 C 
ATOM     49  C   UNL A   1      47.059  24.695  26.092  1.00  0.00     0.029 A 
ATOM     50  C   UNL A   1      46.853  26.072  26.524  1.00  0.00     0.049 A 
ATOM     51  H   UNL A   1      45.113  26.910  27.304  1.00  0.00     0.167 HD
ATOM     52  C   UNL A   1      41.293  28.577  28.709  1.00  0.00     0.037 A 
ATOM     53  C   UNL A   1      47.776  27.052  26.487  1.00  0.00     0.037 A 
ATOM     54  C   UNL A   1      42.236  29.659  28.797  1.00  0.00     0.049 A 
ATOM     55  C   UNL A   1      47.400  28.427  26.971  1.00  0.00     0.074 A 
ATOM     56  C   UNL A   1      42.039  30.938  29.283  1.00  0.00     0.029 A 
ATOM     57  N   UNL A   1      43.560  29.582  28.389  1.00  0.00    -0.354 N 
ATOM     58  N   UNL A   1      46.254  28.855  27.439  1.00  0.00    -0.248 NA
ATOM     59  C   UNL A   1      48.451  29.452  26.925  1.00  0.00     0.031 C 
ATOM     60  C   UNL A   1      43.232  31.651  29.127  1.00  0.00     0.029 A 
ATOM     61  C   UNL A   1      44.187  30.800  28.592  1.00  0.00     0.049 A 
ATOM     62  H   UNL A   1      43.991  28.781  28.012  1.00  0.00     0.167 HD
ATOM     63  C   UNL A   1      46.450  30.188  27.773  1.00  0.00     0.074 A 
ATOM     64  C   UNL A   1      47.833  30.493  27.464  1.00  0.00     0.031 C 
ATOM     65  C   UNL A   1      45.568  31.079  28.288  1.00  0.00     0.037 A 
BRANCH  52  66
ATOM     66  C   UNL A   1      39.864  28.834  29.099  1.00  0.00     0.064 A 
ATOM     67  C   UNL A   1      39.412  28.651  30.414  1.00  0.00     0.173 A 
ATOM     68  C   UNL A   1      38.939  29.286  28.146  1.00  0.00     0.173 A 
ATOM     69  F   UNL A   1      40.252  28.208  31.362  1.00  0.00    -0.203 F 
ATOM     70  C   UNL A   1      38.079  28.871  30.753  1.00  0.00     0.198 A 
ATOM     71  C   UNL A   1      37.615  29.539  28.495  1.00  0.00     0.198 A 
ATOM     72  F   UNL A   1      39.317  29.483  26.874  1.00  0.00    -0.203 F 
ATOM     73  F   UNL A   1      37.659  28.628  32.002  1.00  0.00    -0.200 F 
ATOM     74  C   UNL A   1      37.184  29.321  29.796  1.00  0.00     0.200 A 
ATOM     75  F   UNL A   1      36.752  29.986  27.572  1.00  0.00    -0.200 F 
ATOM     76  F   UNL A   1      35.903  29.537  30.124  1.00  0.00    -0.200 F 
ENDBRANCH  52  66
BRANCH  53  77
ATOM     77  C   UNL A   1      49.155  26.756  26.017  1.00  0.00     0.064 A 
ATOM     78  C   UNL A   1      49.521  26.988  24.684  1.00  0.00     0.173 A 
ATOM     79  C   UNL A   1      50.133  26.245  26.882  1.00  0.00     0.173 A 
ATOM     80  F   UNL A   1      48.614  27.458  23.814  1.00  0.00    -0.203 F 
ATOM     81  C   UNL A   1      50.806  26.702  24.229  1.00  0.00     0.198 A 
ATOM     82  C   UNL A   1      51.427  25.986  26.432  1.00  0.00     0.198 A 
ATOM     83  F   UNL A   1      49.837  26.012  28.169  1.00  0.00    -0.203 F 
ATOM     84  F   UNL A   1      51.114  26.893  22.938  1.00  0.00    -0.200 F 
ATOM     85  C   UNL A   1      51.760  26.208  25.104  1.00  0.00     0.200 A 
ATOM     86  F   UNL A   1      52.350  25.522  27.285  1.00  0.00    -0.200 F 
ATOM     87  F   UNL A   1      52.997  25.937  24.668  1.00  0.00    -0.200 F 
ENDBRANCH  53  77
BRANCH  65  88
ATOM     88  C   UNL A   1      46.079  32.458  28.586  1.00  0.00     0.064 A 
ATOM     89  C   UNL A   1      46.666  32.775  29.819  1.00  0.00     0.173 A 
ATOM     90  C   UNL A   1      46.021  33.461  27.607  1.00  0.00     0.173 A 
ATOM     91  F   UNL A   1      46.731  31.854  30.793  1.00  0.00    -0.203 F 
ATOM     92  C   UNL A   1      47.153  34.054  30.070  1.00  0.00     0.198 A 
ATOM     93  C   UNL A   1      46.538  34.729  27.850  1.00  0.00     0.198 A 
ATOM     94  F   UNL A   1      45.476  33.206  26.408  1.00  0.00    -0.203 F 
ATOM     95  F   UNL A   1      47.667  34.350  31.272  1.00  0.00    -0.200 F 
ATOM     96  C   UNL A   1      47.096  35.027  29.083  1.00  0.00     0.200 A 
ATOM     97  F   UNL A   1      46.496  35.663  26.889  1.00  0.00    -0.200 F 
ATOM     98  F   UNL A   1      47.575  36.256  29.323  1.00  0.00    -0.200 F 
ENDBRANCH  65  88
ENDBRANCH  39  40
ENDBRANCH  31  34
ENDBRANCH  29  30
ENDBRANCH  28  29
ENDBRANCH   1  28
TORSDOF 13
ENDMDL
