MODEL 1
REMARK VINA RESULT:     -13.3      0.000      0.000
REMARK SMILES CS(=O)(=O)c1ccc(N2N=C(C(=O)NCCCNC(=O)c3ccc(-c4c5nc(c(-c6c(F)c(F)c(F)c(F)c6F)c6ccc([nH]6)c(-c6c(F)c(F)c(F)c(F)c6F)c6nc(c(-c7c(F)c(F)c(F)c(F)c7F)c7ccc4[nH]7)C=C6)C=C5)cc3)C[C@H]2c2cccs2)cc1
REMARK SMILES IDX 16 1 15 2 14 3 12 4 13 5 11 7 9 8 10 9 85 10 84 11 8 12 5 13
REMARK SMILES IDX 6 14 92 15 7 16 91 17 2 18 1 19 3 20 4 21 86 22 87 23 90 24
REMARK SMILES IDX 88 25 89 26 17 27 18 28 19 29 20 31 21 32 22 33 83 34 23 35
REMARK SMILES IDX 82 36 24 37 25 38 26 39 76 40 27 41 81 42 75 43 77 44 28 45
REMARK SMILES IDX 80 46 74 47 73 48 29 50 61 51 41 52 60 53 42 54 45 55 59 56
REMARK SMILES IDX 78 57 43 58 44 59 58 61 79 62 46 63 30 64 31 65 39 66 32 67
REMARK SMILES IDX 33 68 37 69 40 70 34 71 35 72 38 73 36 74 62 75 63 76 71 77
REMARK SMILES IDX 64 78 65 79 69 80 72 81 66 82 67 83 70 84 68 85 47 86 48 87
REMARK SMILES IDX 56 88 49 89 50 90 54 91 57 92 51 93 52 94 55 95 53 96
REMARK H PARENT 14 6 18 30 77 49 45 60
REMARK Flexibility Score: inf
ROOT
ATOM      1  C   UNL A   1      31.839  28.283  25.940  1.00  0.00     0.042 C 
ENDROOT
BRANCH   1   2
ATOM      2  C   UNL A   1      32.343  27.024  26.629  1.00  0.00     0.118 C 
BRANCH   2   3
ATOM      3  N   UNL A   1      31.280  26.054  26.788  1.00  0.00    -0.351 N 
ATOM      4  C   UNL A   1      31.059  24.779  26.338  1.00  0.00     0.267 C 
ATOM      5  O   UNL A   1      29.960  24.286  26.578  1.00  0.00    -0.268 OA
ATOM      6  H   UNL A   1      30.544  26.389  27.350  1.00  0.00     0.163 HD
BRANCH   4   7
ATOM      7  C   UNL A   1      32.095  23.933  25.617  1.00  0.00     0.128 C 
ATOM      8  N   UNL A   1      33.182  22.181  25.092  1.00  0.00    -0.256 N 
ATOM      9  N   UNL A   1      32.095  22.641  25.756  1.00  0.00    -0.171 NA
ATOM     10  C   UNL A   1      33.964  23.213  24.417  1.00  0.00     0.154 C 
ATOM     11  C   UNL A   1      33.129  24.471  24.682  1.00  0.00     0.097 C 
BRANCH   8  12
ATOM     12  C   UNL A   1      33.360  20.825  24.882  1.00  0.00     0.060 A 
ATOM     13  C   UNL A   1      33.665  18.060  24.495  1.00  0.00     0.067 A 
ATOM     14  C   UNL A   1      34.790  18.863  24.705  1.00  0.00     0.022 A 
ATOM     15  C   UNL A   1      32.393  18.626  24.457  1.00  0.00     0.022 A 
ATOM     16  C   UNL A   1      34.634  20.242  24.882  1.00  0.00     0.029 A 
ATOM     17  C   UNL A   1      32.253  20.000  24.648  1.00  0.00     0.029 A 
BRANCH  13  18
ATOM     18  S   UNL A   1      33.898  16.313  24.291  1.00  0.00     0.175 S 
ATOM     19  C   UNL A   1      35.309  15.873  25.269  1.00  0.00     0.163 C 
ATOM     20  O   UNL A   1      34.269  16.104  22.902  1.00  0.00    -0.224 OA
ATOM     21  O   UNL A   1      32.738  15.667  24.866  1.00  0.00    -0.224 OA
ENDBRANCH  13  18
ENDBRANCH   8  12
BRANCH  10  22
ATOM     22  C   UNL A   1      35.428  23.330  24.828  1.00  0.00     0.030 A 
ATOM     23  C   UNL A   1      35.907  23.728  26.067  1.00  0.00     0.017 A 
ATOM     24  S   UNL A   1      36.737  23.032  23.751  1.00  0.00    -0.147 S 
ATOM     25  C   UNL A   1      37.330  23.753  26.133  1.00  0.00     0.012 A 
ATOM     26  C   UNL A   1      37.904  23.341  24.954  1.00  0.00     0.065 A 
ENDBRANCH  10  22
ENDBRANCH   4   7
ENDBRANCH   2   3
ENDBRANCH   1   2
BRANCH   1  27
ATOM     27  C   UNL A   1      32.965  29.257  25.626  1.00  0.00     0.118 C 
BRANCH  27  28
ATOM     28  N   UNL A   1      32.614  30.627  25.987  1.00  0.00    -0.352 N 
ATOM     29  C   UNL A   1      33.127  31.449  26.958  1.00  0.00     0.251 C 
ATOM     30  H   UNL A   1      31.894  31.025  25.447  1.00  0.00     0.163 HD
ATOM     31  O   UNL A   1      32.518  32.464  27.280  1.00  0.00    -0.269 OA
BRANCH  29  32
ATOM     32  C   UNL A   1      34.400  31.108  27.623  1.00  0.00     0.039 A 
ATOM     33  C   UNL A   1      35.338  32.117  27.853  1.00  0.00     0.014 A 
ATOM     34  C   UNL A   1      34.677  29.792  27.999  1.00  0.00     0.014 A 
ATOM     35  C   UNL A   1      36.524  31.814  28.524  1.00  0.00     0.010 A 
ATOM     36  C   UNL A   1      35.806  29.514  28.758  1.00  0.00     0.010 A 
ATOM     37  C   UNL A   1      36.746  30.519  29.019  1.00  0.00    -0.014 A 
BRANCH  37  38
ATOM     38  C   UNL A   1      37.959  30.189  29.806  1.00  0.00     0.031 A 
ATOM     39  C   UNL A   1      38.974  29.224  29.259  1.00  0.00     0.074 A 
ATOM     40  C   UNL A   1      38.109  30.704  31.042  1.00  0.00     0.049 A 
ATOM     41  N   UNL A   1      40.053  28.746  29.824  1.00  0.00    -0.248 NA
ATOM     42  C   UNL A   1      38.727  28.698  27.906  1.00  0.00     0.031 C 
ATOM     43  C   UNL A   1      37.165  31.610  31.701  1.00  0.00     0.029 A 
ATOM     44  N   UNL A   1      39.103  30.531  31.971  1.00  0.00    -0.354 N 
ATOM     45  C   UNL A   1      40.600  27.859  28.908  1.00  0.00     0.074 A 
ATOM     46  C   UNL A   1      39.705  27.815  27.773  1.00  0.00     0.031 C 
ATOM     47  C   UNL A   1      37.638  31.932  32.915  1.00  0.00     0.029 A 
ATOM     48  C   UNL A   1      38.892  31.221  33.140  1.00  0.00     0.049 A 
ATOM     49  H   UNL A   1      39.894  29.964  31.815  1.00  0.00     0.167 HD
ATOM     50  C   UNL A   1      41.759  27.164  28.993  1.00  0.00     0.037 A 
ATOM     51  C   UNL A   1      39.622  31.263  34.271  1.00  0.00     0.037 A 
ATOM     52  C   UNL A   1      42.656  27.233  30.116  1.00  0.00     0.049 A 
ATOM     53  C   UNL A   1      40.899  30.470  34.343  1.00  0.00     0.074 A 
ATOM     54  C   UNL A   1      43.885  26.617  30.276  1.00  0.00     0.029 A 
ATOM     55  N   UNL A   1      42.418  27.958  31.275  1.00  0.00    -0.354 N 
ATOM     56  N   UNL A   1      41.446  29.694  33.439  1.00  0.00    -0.248 NA
ATOM     57  C   UNL A   1      41.667  30.566  35.593  1.00  0.00     0.031 C 
ATOM     58  C   UNL A   1      44.363  26.922  31.554  1.00  0.00     0.029 A 
ATOM     59  C   UNL A   1      43.465  27.782  32.165  1.00  0.00     0.049 A 
ATOM     60  H   UNL A   1      41.623  28.515  31.440  1.00  0.00     0.167 HD
ATOM     61  C   UNL A   1      42.634  29.238  33.995  1.00  0.00     0.074 A 
ATOM     62  C   UNL A   1      42.737  29.838  35.307  1.00  0.00     0.031 C 
ATOM     63  C   UNL A   1      43.557  28.398  33.465  1.00  0.00     0.037 A 
BRANCH  50  64
ATOM     64  C   UNL A   1      42.127  26.271  27.844  1.00  0.00     0.064 A 
ATOM     65  C   UNL A   1      41.549  25.002  27.680  1.00  0.00     0.173 A 
ATOM     66  C   UNL A   1      43.032  26.708  26.865  1.00  0.00     0.173 A 
ATOM     67  F   UNL A   1      40.686  24.530  28.593  1.00  0.00    -0.203 F 
ATOM     68  C   UNL A   1      41.883  24.196  26.594  1.00  0.00     0.198 A 
ATOM     69  C   UNL A   1      43.339  25.913  25.763  1.00  0.00     0.198 A 
ATOM     70  F   UNL A   1      43.612  27.914  26.970  1.00  0.00    -0.203 F 
ATOM     71  F   UNL A   1      41.355  22.970  26.486  1.00  0.00    -0.200 F 
ATOM     72  C   UNL A   1      42.770  24.656  25.633  1.00  0.00     0.200 A 
ATOM     73  F   UNL A   1      44.183  26.366  24.826  1.00  0.00    -0.200 F 
ATOM     74  F   UNL A   1      43.080  23.885  24.581  1.00  0.00    -0.200 F 
ENDBRANCH  50  64
BRANCH  51  75
ATOM     75  C   UNL A   1      39.172  32.092  35.421  1.00  0.00     0.064 A 
ATOM     76  C   UNL A   1      39.512  33.451  35.507  1.00  0.00     0.173 A 
ATOM     77  C   UNL A   1      38.412  31.545  36.464  1.00  0.00     0.173 A 
ATOM     78  F   UNL A   1      40.251  34.018  34.543  1.00  0.00    -0.203 F 
ATOM     79  C   UNL A   1      39.135  34.219  36.607  1.00  0.00     0.198 A 
ATOM     80  C   UNL A   1      38.007  32.322  37.546  1.00  0.00     0.198 A 
ATOM     81  F   UNL A   1      38.051  30.254  36.427  1.00  0.00    -0.203 F 
ATOM     82  F   UNL A   1      39.523  35.498  36.691  1.00  0.00    -0.200 F 
ATOM     83  C   UNL A   1      38.379  33.655  37.623  1.00  0.00     0.200 A 
ATOM     84  F   UNL A   1      37.258  31.779  38.516  1.00  0.00    -0.200 F 
ATOM     85  F   UNL A   1      38.016  34.396  38.680  1.00  0.00    -0.200 F 
ENDBRANCH  51  75
BRANCH  63  86
ATOM     86  C   UNL A   1      44.782  28.113  34.285  1.00  0.00     0.064 A 
ATOM     87  C   UNL A   1      45.912  28.943  34.242  1.00  0.00     0.173 A 
ATOM     88  C   UNL A   1      44.808  27.015  35.159  1.00  0.00     0.173 A 
ATOM     89  F   UNL A   1      45.945  29.998  33.413  1.00  0.00    -0.203 F 
ATOM     90  C   UNL A   1      47.033  28.667  35.020  1.00  0.00     0.198 A 
ATOM     91  C   UNL A   1      45.916  26.764  35.963  1.00  0.00     0.198 A 
ATOM     92  F   UNL A   1      43.750  26.194  35.245  1.00  0.00    -0.203 F 
ATOM     93  F   UNL A   1      48.122  29.442  34.922  1.00  0.00    -0.200 F 
ATOM     94  C   UNL A   1      47.030  27.583  35.887  1.00  0.00     0.200 A 
ATOM     95  F   UNL A   1      45.904  25.726  36.812  1.00  0.00    -0.200 F 
ATOM     96  F   UNL A   1      48.106  27.325  36.642  1.00  0.00    -0.200 F 
ENDBRANCH  63  86
ENDBRANCH  37  38
ENDBRANCH  29  32
ENDBRANCH  27  28
ENDBRANCH   1  27
TORSDOF 13
ENDMDL
MODEL 2
REMARK VINA RESULT:     -13.3      2.732      7.638
REMARK SMILES CS(=O)(=O)c1ccc(N2N=C(C(=O)NCCCNC(=O)c3ccc(-c4c5nc(c(-c6c(F)c(F)c(F)c(F)c6F)c6ccc([nH]6)c(-c6c(F)c(F)c(F)c(F)c6F)c6nc(c(-c7c(F)c(F)c(F)c(F)c7F)c7ccc4[nH]7)C=C6)C=C5)cc3)C[C@H]2c2cccs2)cc1
REMARK SMILES IDX 16 1 15 2 14 3 12 4 13 5 11 7 9 8 10 9 85 10 84 11 8 12 5 13
REMARK SMILES IDX 6 14 92 15 7 16 91 17 2 18 1 19 3 20 4 21 86 22 87 23 90 24
REMARK SMILES IDX 88 25 89 26 17 27 18 28 19 29 20 31 21 32 22 33 83 34 23 35
REMARK SMILES IDX 82 36 24 37 25 38 26 39 76 40 27 41 81 42 75 43 77 44 28 45
REMARK SMILES IDX 80 46 74 47 73 48 29 50 61 51 41 52 60 53 42 54 45 55 59 56
REMARK SMILES IDX 78 57 43 58 44 59 58 61 79 62 46 63 30 64 31 65 39 66 32 67
REMARK SMILES IDX 33 68 37 69 40 70 34 71 35 72 38 73 36 74 62 75 63 76 71 77
REMARK SMILES IDX 64 78 65 79 69 80 72 81 66 82 67 83 70 84 68 85 47 86 48 87
REMARK SMILES IDX 56 88 49 89 50 90 54 91 57 92 51 93 52 94 55 95 53 96
REMARK H PARENT 14 6 18 30 77 49 45 60
REMARK Flexibility Score: inf
ROOT
ATOM      1  C   UNL A   1      32.269  28.045  27.363  1.00  0.00     0.042 C 
ENDROOT
BRANCH   1   2
ATOM      2  C   UNL A   1      31.972  27.092  26.215  1.00  0.00     0.118 C 
BRANCH   2   3
ATOM      3  N   UNL A   1      31.029  26.069  26.614  1.00  0.00    -0.351 N 
ATOM      4  C   UNL A   1      30.883  24.733  26.350  1.00  0.00     0.267 C 
ATOM      5  O   UNL A   1      29.867  24.189  26.775  1.00  0.00    -0.268 OA
ATOM      6  H   UNL A   1      30.328  26.415  27.213  1.00  0.00     0.163 HD
BRANCH   4   7
ATOM      7  C   UNL A   1      31.912  23.885  25.620  1.00  0.00     0.128 C 
ATOM      8  N   UNL A   1      33.022  22.142  25.118  1.00  0.00    -0.256 N 
ATOM      9  N   UNL A   1      31.950  22.600  25.807  1.00  0.00    -0.171 NA
ATOM     10  C   UNL A   1      33.749  23.166  24.373  1.00  0.00     0.154 C 
ATOM     11  C   UNL A   1      32.893  24.413  24.625  1.00  0.00     0.097 C 
BRANCH   8  12
ATOM     12  C   UNL A   1      33.226  20.783  24.950  1.00  0.00     0.060 A 
ATOM     13  C   UNL A   1      33.697  18.042  24.568  1.00  0.00     0.067 A 
ATOM     14  C   UNL A   1      32.387  18.531  24.566  1.00  0.00     0.022 A 
ATOM     15  C   UNL A   1      34.770  18.903  24.778  1.00  0.00     0.022 A 
ATOM     16  C   UNL A   1      32.157  19.896  24.772  1.00  0.00     0.029 A 
ATOM     17  C   UNL A   1      34.525  20.262  24.969  1.00  0.00     0.029 A 
BRANCH  13  18
ATOM     18  S   UNL A   1      33.953  16.309  24.287  1.00  0.00     0.175 S 
ATOM     19  C   UNL A   1      35.379  15.848  25.234  1.00  0.00     0.163 C 
ATOM     20  O   UNL A   1      34.316  16.165  22.886  1.00  0.00    -0.224 OA
ATOM     21  O   UNL A   1      32.808  15.621  24.842  1.00  0.00    -0.224 OA
ENDBRANCH  13  18
ENDBRANCH   8  12
BRANCH  10  22
ATOM     22  C   UNL A   1      35.225  23.334  24.721  1.00  0.00     0.030 A 
ATOM     23  C   UNL A   1      35.742  23.785  25.927  1.00  0.00     0.017 A 
ATOM     24  S   UNL A   1      36.498  23.036  23.602  1.00  0.00    -0.147 S 
ATOM     25  C   UNL A   1      37.165  23.849  25.934  1.00  0.00     0.012 A 
ATOM     26  C   UNL A   1      37.704  23.414  24.746  1.00  0.00     0.065 A 
ENDBRANCH  10  22
ENDBRANCH   4   7
ENDBRANCH   2   3
ENDBRANCH   1   2
BRANCH   1  27
ATOM     27  C   UNL A   1      33.673  28.625  27.282  1.00  0.00     0.118 C 
BRANCH  27  28
ATOM     28  N   UNL A   1      33.689  30.052  27.588  1.00  0.00    -0.352 N 
ATOM     29  C   UNL A   1      34.619  30.806  28.257  1.00  0.00     0.251 C 
ATOM     30  H   UNL A   1      32.907  30.553  27.263  1.00  0.00     0.163 HD
ATOM     31  O   UNL A   1      34.324  31.933  28.645  1.00  0.00    -0.269 OA
BRANCH  29  32
ATOM     32  C   UNL A   1      35.965  30.263  28.520  1.00  0.00     0.039 A 
ATOM     33  C   UNL A   1      36.965  30.426  27.559  1.00  0.00     0.014 A 
ATOM     34  C   UNL A   1      36.236  29.574  29.705  1.00  0.00     0.014 A 
ATOM     35  C   UNL A   1      38.254  29.958  27.819  1.00  0.00     0.010 A 
ATOM     36  C   UNL A   1      37.540  29.204  30.006  1.00  0.00     0.010 A 
ATOM     37  C   UNL A   1      38.560  29.383  29.063  1.00  0.00    -0.014 A 
BRANCH  37  38
ATOM     38  C   UNL A   1      39.939  28.951  29.397  1.00  0.00     0.031 A 
ATOM     39  C   UNL A   1      40.839  29.853  30.198  1.00  0.00     0.074 A 
ATOM     40  C   UNL A   1      40.403  27.781  28.917  1.00  0.00     0.049 A 
ATOM     41  N   UNL A   1      42.097  29.694  30.521  1.00  0.00    -0.248 NA
ATOM     42  C   UNL A   1      40.256  31.119  30.672  1.00  0.00     0.031 C 
ATOM     43  C   UNL A   1      39.642  26.847  28.085  1.00  0.00     0.029 A 
ATOM     44  N   UNL A   1      41.630  27.182  29.049  1.00  0.00    -0.354 N 
ATOM     45  C   UNL A   1      42.456  30.839  31.218  1.00  0.00     0.074 A 
ATOM     46  C   UNL A   1      41.305  31.714  31.221  1.00  0.00     0.031 C 
ATOM     47  C   UNL A   1      40.410  25.782  27.803  1.00  0.00     0.029 A 
ATOM     48  C   UNL A   1      41.729  25.979  28.392  1.00  0.00     0.049 A 
ATOM     49  H   UNL A   1      42.370  27.577  29.565  1.00  0.00     0.167 HD
ATOM     50  C   UNL A   1      43.632  31.123  31.825  1.00  0.00     0.037 A 
ATOM     51  C   UNL A   1      42.773  25.137  28.269  1.00  0.00     0.037 A 
ATOM     52  C   UNL A   1      44.765  30.236  31.839  1.00  0.00     0.049 A 
ATOM     53  C   UNL A   1      44.073  25.485  28.944  1.00  0.00     0.074 A 
ATOM     54  C   UNL A   1      45.981  30.402  32.478  1.00  0.00     0.029 A 
ATOM     55  N   UNL A   1      44.822  29.017  31.179  1.00  0.00    -0.354 N 
ATOM     56  N   UNL A   1      44.377  26.537  29.666  1.00  0.00    -0.248 NA
ATOM     57  C   UNL A   1      45.174  24.523  28.793  1.00  0.00     0.031 C 
ATOM     58  C   UNL A   1      46.795  29.312  32.155  1.00  0.00     0.029 A 
ATOM     59  C   UNL A   1      46.064  28.433  31.373  1.00  0.00     0.049 A 
ATOM     60  H   UNL A   1      44.089  28.625  30.652  1.00  0.00     0.167 HD
ATOM     61  C   UNL A   1      45.688  26.347  30.083  1.00  0.00     0.074 A 
ATOM     62  C   UNL A   1      46.115  25.073  29.547  1.00  0.00     0.031 C 
ATOM     63  C   UNL A   1      46.468  27.156  30.841  1.00  0.00     0.037 A 
BRANCH  50  64
ATOM     64  C   UNL A   1      43.757  32.445  32.527  1.00  0.00     0.064 A 
ATOM     65  C   UNL A   1      44.217  33.594  31.864  1.00  0.00     0.173 A 
ATOM     66  C   UNL A   1      43.364  32.578  33.868  1.00  0.00     0.173 A 
ATOM     67  F   UNL A   1      44.616  33.520  30.585  1.00  0.00    -0.203 F 
ATOM     68  C   UNL A   1      44.303  34.817  32.523  1.00  0.00     0.198 A 
ATOM     69  C   UNL A   1      43.420  33.810  34.514  1.00  0.00     0.198 A 
ATOM     70  F   UNL A   1      42.913  31.513  34.550  1.00  0.00    -0.203 F 
ATOM     71  F   UNL A   1      44.791  35.887  31.882  1.00  0.00    -0.200 F 
ATOM     72  C   UNL A   1      43.896  34.926  33.844  1.00  0.00     0.200 A 
ATOM     73  F   UNL A   1      43.010  33.917  35.786  1.00  0.00    -0.200 F 
ATOM     74  F   UNL A   1      43.966  36.108  34.473  1.00  0.00    -0.200 F 
ENDBRANCH  50  64
BRANCH  51  75
ATOM     75  C   UNL A   1      42.632  23.880  27.487  1.00  0.00     0.064 A 
ATOM     76  C   UNL A   1      42.154  22.706  28.089  1.00  0.00     0.173 A 
ATOM     77  C   UNL A   1      42.985  23.818  26.131  1.00  0.00     0.173 A 
ATOM     78  F   UNL A   1      41.817  22.708  29.387  1.00  0.00    -0.203 F 
ATOM     79  C   UNL A   1      42.068  21.514  27.374  1.00  0.00     0.198 A 
ATOM     80  C   UNL A   1      42.865  22.634  25.408  1.00  0.00     0.198 A 
ATOM     81  F   UNL A   1      43.438  24.913  25.504  1.00  0.00    -0.203 F 
ATOM     82  F   UNL A   1      41.664  20.394  27.989  1.00  0.00    -0.200 F 
ATOM     83  C   UNL A   1      42.418  21.479  26.033  1.00  0.00     0.200 A 
ATOM     84  F   UNL A   1      43.186  22.610  24.108  1.00  0.00    -0.200 F 
ATOM     85  F   UNL A   1      42.334  20.332  25.345  1.00  0.00    -0.200 F 
ENDBRANCH  51  75
BRANCH  63  86
ATOM     86  C   UNL A   1      47.848  26.667  31.177  1.00  0.00     0.064 A 
ATOM     87  C   UNL A   1      48.964  27.003  30.398  1.00  0.00     0.173 A 
ATOM     88  C   UNL A   1      48.059  25.884  32.323  1.00  0.00     0.173 A 
ATOM     89  F   UNL A   1      48.814  27.737  29.284  1.00  0.00    -0.203 F 
ATOM     90  C   UNL A   1      50.235  26.548  30.735  1.00  0.00     0.198 A 
ATOM     91  C   UNL A   1      49.337  25.463  32.677  1.00  0.00     0.198 A 
ATOM     92  F   UNL A   1      47.027  25.541  33.109  1.00  0.00    -0.203 F 
ATOM     93  F   UNL A   1      51.279  26.835  29.944  1.00  0.00    -0.200 F 
ATOM     94  C   UNL A   1      50.423  25.786  31.879  1.00  0.00     0.200 A 
ATOM     95  F   UNL A   1      49.518  24.742  33.793  1.00  0.00    -0.200 F 
ATOM     96  F   UNL A   1      51.649  25.357  32.207  1.00  0.00    -0.200 F 
ENDBRANCH  63  86
ENDBRANCH  37  38
ENDBRANCH  29  32
ENDBRANCH  27  28
ENDBRANCH   1  27
TORSDOF 13
ENDMDL
MODEL 3
REMARK VINA RESULT:     -13.2      0.221      1.993
REMARK SMILES CS(=O)(=O)c1ccc(N2N=C(C(=O)NCCCNC(=O)c3ccc(-c4c5nc(c(-c6c(F)c(F)c(F)c(F)c6F)c6ccc([nH]6)c(-c6c(F)c(F)c(F)c(F)c6F)c6nc(c(-c7c(F)c(F)c(F)c(F)c7F)c7ccc4[nH]7)C=C6)C=C5)cc3)C[C@H]2c2cccs2)cc1
REMARK SMILES IDX 16 1 15 2 14 3 12 4 13 5 11 7 9 8 10 9 85 10 84 11 8 12 5 13
REMARK SMILES IDX 6 14 92 15 7 16 91 17 2 18 1 19 3 20 4 21 86 22 87 23 90 24
REMARK SMILES IDX 88 25 89 26 17 27 18 28 19 29 20 31 21 32 22 33 83 34 23 35
REMARK SMILES IDX 82 36 24 37 25 38 26 39 76 40 27 41 81 42 75 43 77 44 28 45
REMARK SMILES IDX 80 46 74 47 73 48 29 50 61 51 41 52 60 53 42 54 45 55 59 56
REMARK SMILES IDX 78 57 43 58 44 59 58 61 79 62 46 63 30 64 31 65 39 66 32 67
REMARK SMILES IDX 33 68 37 69 40 70 34 71 35 72 38 73 36 74 62 75 63 76 71 77
REMARK SMILES IDX 64 78 65 79 69 80 72 81 66 82 67 83 70 84 68 85 47 86 48 87
REMARK SMILES IDX 56 88 49 89 50 90 54 91 57 92 51 93 52 94 55 95 53 96
REMARK H PARENT 14 6 18 30 77 49 45 60
REMARK Flexibility Score: inf
ROOT
ATOM      1  C   UNL A   1      32.031  28.217  25.421  1.00  0.00     0.042 C 
ENDROOT
BRANCH   1   2
ATOM      2  C   UNL A   1      32.372  27.194  26.493  1.00  0.00     0.118 C 
BRANCH   2   3
ATOM      3  N   UNL A   1      31.291  26.247  26.675  1.00  0.00    -0.351 N 
ATOM      4  C   UNL A   1      31.047  24.967  26.252  1.00  0.00     0.267 C 
ATOM      5  O   UNL A   1      29.939  24.499  26.504  1.00  0.00    -0.268 OA
ATOM      6  H   UNL A   1      30.563  26.607  27.231  1.00  0.00     0.163 HD
BRANCH   4   7
ATOM      7  C   UNL A   1      32.065  24.088  25.545  1.00  0.00     0.128 C 
ATOM      8  N   UNL A   1      33.119  22.306  25.055  1.00  0.00    -0.256 N 
ATOM      9  N   UNL A   1      32.043  22.799  25.713  1.00  0.00    -0.171 NA
ATOM     10  C   UNL A   1      33.915  23.310  24.353  1.00  0.00     0.154 C 
ATOM     11  C   UNL A   1      33.103  24.588  24.594  1.00  0.00     0.097 C 
BRANCH   8  12
ATOM     12  C   UNL A   1      33.274  20.943  24.874  1.00  0.00     0.060 A 
ATOM     13  C   UNL A   1      33.651  18.189  24.480  1.00  0.00     0.067 A 
ATOM     14  C   UNL A   1      32.418  18.774  24.176  1.00  0.00     0.022 A 
ATOM     15  C   UNL A   1      34.689  18.960  24.995  1.00  0.00     0.022 A 
ATOM     16  C   UNL A   1      32.230  20.144  24.388  1.00  0.00     0.029 A 
ATOM     17  C   UNL A   1      34.490  20.327  25.189  1.00  0.00     0.029 A 
BRANCH  13  18
ATOM     18  S   UNL A   1      33.860  16.453  24.182  1.00  0.00     0.175 S 
ATOM     19  C   UNL A   1      35.301  15.954  25.086  1.00  0.00     0.163 C 
ATOM     20  O   UNL A   1      34.181  16.309  22.771  1.00  0.00    -0.224 OA
ATOM     21  O   UNL A   1      32.715  15.787  24.764  1.00  0.00    -0.224 OA
ENDBRANCH  13  18
ENDBRANCH   8  12
BRANCH  10  22
ATOM     22  C   UNL A   1      35.384  23.411  24.756  1.00  0.00     0.030 A 
ATOM     23  C   UNL A   1      35.877  23.887  25.962  1.00  0.00     0.017 A 
ATOM     24  S   UNL A   1      36.680  22.991  23.706  1.00  0.00    -0.147 S 
ATOM     25  C   UNL A   1      37.300  23.872  26.027  1.00  0.00     0.012 A 
ATOM     26  C   UNL A   1      37.859  23.353  24.883  1.00  0.00     0.065 A 
ENDBRANCH  10  22
ENDBRANCH   4   7
ENDBRANCH   2   3
ENDBRANCH   1   2
BRANCH   1  27
ATOM     27  C   UNL A   1      33.098  29.295  25.294  1.00  0.00     0.118 C 
BRANCH  27  28
ATOM     28  N   UNL A   1      32.641  30.576  25.823  1.00  0.00    -0.352 N 
ATOM     29  C   UNL A   1      33.071  31.292  26.911  1.00  0.00     0.251 C 
ATOM     30  H   UNL A   1      31.905  30.992  25.320  1.00  0.00     0.163 HD
ATOM     31  O   UNL A   1      32.383  32.210  27.347  1.00  0.00    -0.269 OA
BRANCH  29  32
ATOM     32  C   UNL A   1      34.351  30.953  27.563  1.00  0.00     0.039 A 
ATOM     33  C   UNL A   1      35.332  31.939  27.691  1.00  0.00     0.014 A 
ATOM     34  C   UNL A   1      34.593  29.659  28.028  1.00  0.00     0.014 A 
ATOM     35  C   UNL A   1      36.526  31.642  28.348  1.00  0.00     0.010 A 
ATOM     36  C   UNL A   1      35.734  29.394  28.774  1.00  0.00     0.010 A 
ATOM     37  C   UNL A   1      36.717  30.380  28.933  1.00  0.00    -0.014 A 
BRANCH  37  38
ATOM     38  C   UNL A   1      37.941  30.063  29.707  1.00  0.00     0.031 A 
ATOM     39  C   UNL A   1      38.955  29.098  29.156  1.00  0.00     0.074 A 
ATOM     40  C   UNL A   1      38.104  30.590  30.937  1.00  0.00     0.049 A 
ATOM     41  N   UNL A   1      40.043  28.630  29.713  1.00  0.00    -0.248 NA
ATOM     42  C   UNL A   1      38.694  28.559  27.811  1.00  0.00     0.031 C 
ATOM     43  C   UNL A   1      37.163  31.497  31.599  1.00  0.00     0.029 A 
ATOM     44  N   UNL A   1      39.110  30.429  31.855  1.00  0.00    -0.354 N 
ATOM     45  C   UNL A   1      40.583  27.738  28.797  1.00  0.00     0.074 A 
ATOM     46  C   UNL A   1      39.675  27.679  27.673  1.00  0.00     0.031 C 
ATOM     47  C   UNL A   1      37.650  31.832  32.805  1.00  0.00     0.029 A 
ATOM     48  C   UNL A   1      38.910  31.129  33.020  1.00  0.00     0.049 A 
ATOM     49  H   UNL A   1      39.902  29.866  31.694  1.00  0.00     0.167 HD
ATOM     50  C   UNL A   1      41.746  27.050  28.875  1.00  0.00     0.037 A 
ATOM     51  C   UNL A   1      39.654  31.185  34.141  1.00  0.00     0.037 A 
ATOM     52  C   UNL A   1      42.657  27.133  29.986  1.00  0.00     0.049 A 
ATOM     53  C   UNL A   1      40.936  30.399  34.205  1.00  0.00     0.074 A 
ATOM     54  C   UNL A   1      43.890  26.525  30.135  1.00  0.00     0.029 A 
ATOM     55  N   UNL A   1      42.429  27.867  31.141  1.00  0.00    -0.354 N 
ATOM     56  N   UNL A   1      41.475  29.617  33.301  1.00  0.00    -0.248 NA
ATOM     57  C   UNL A   1      41.718  30.510  35.445  1.00  0.00     0.031 C 
ATOM     58  C   UNL A   1      44.383  26.843  31.405  1.00  0.00     0.029 A 
ATOM     59  C   UNL A   1      43.488  27.704  32.019  1.00  0.00     0.049 A 
ATOM     60  H   UNL A   1      41.634  28.421  31.311  1.00  0.00     0.167 HD
ATOM     61  C   UNL A   1      42.672  29.172  33.846  1.00  0.00     0.074 A 
ATOM     62  C   UNL A   1      42.788  29.784  35.152  1.00  0.00     0.031 C 
ATOM     63  C   UNL A   1      43.593  28.332  33.312  1.00  0.00     0.037 A 
BRANCH  50  64
ATOM     64  C   UNL A   1      42.105  26.148  27.729  1.00  0.00     0.064 A 
ATOM     65  C   UNL A   1      43.060  26.517  26.769  1.00  0.00     0.173 A 
ATOM     66  C   UNL A   1      41.522  24.876  27.616  1.00  0.00     0.173 A 
ATOM     67  F   UNL A   1      43.638  27.727  26.823  1.00  0.00    -0.203 F 
ATOM     68  C   UNL A   1      43.399  25.659  25.726  1.00  0.00     0.198 A 
ATOM     69  C   UNL A   1      41.889  24.007  26.591  1.00  0.00     0.198 A 
ATOM     70  F   UNL A   1      40.606  24.469  28.508  1.00  0.00    -0.203 F 
ATOM     71  F   UNL A   1      44.277  26.055  24.795  1.00  0.00    -0.200 F 
ATOM     72  C   UNL A   1      42.820  24.402  25.643  1.00  0.00     0.200 A 
ATOM     73  F   UNL A   1      41.341  22.786  26.523  1.00  0.00    -0.200 F 
ATOM     74  F   UNL A   1      43.158  23.571  24.647  1.00  0.00    -0.200 F 
ENDBRANCH  50  64
BRANCH  51  75
ATOM     75  C   UNL A   1      39.214  32.022  35.290  1.00  0.00     0.064 A 
ATOM     76  C   UNL A   1      38.473  31.468  36.345  1.00  0.00     0.173 A 
ATOM     77  C   UNL A   1      39.507  33.392  35.351  1.00  0.00     0.173 A 
ATOM     78  F   UNL A   1      38.154  30.166  36.327  1.00  0.00    -0.203 F 
ATOM     79  C   UNL A   1      38.016  32.258  37.397  1.00  0.00     0.198 A 
ATOM     80  C   UNL A   1      39.079  34.174  36.420  1.00  0.00     0.198 A 
ATOM     81  F   UNL A   1      40.220  33.971  34.373  1.00  0.00    -0.203 F 
ATOM     82  F   UNL A   1      37.261  31.714  38.361  1.00  0.00    -0.200 F 
ATOM     83  C   UNL A   1      38.324  33.610  37.437  1.00  0.00     0.200 A 
ATOM     84  F   UNL A   1      39.395  35.475  36.465  1.00  0.00    -0.200 F 
ATOM     85  F   UNL A   1      37.884  34.369  38.450  1.00  0.00    -0.200 F 
ENDBRANCH  51  75
BRANCH  63  86
ATOM     86  C   UNL A   1      44.830  28.061  34.120  1.00  0.00     0.064 A 
ATOM     87  C   UNL A   1      44.918  26.972  34.999  1.00  0.00     0.173 A 
ATOM     88  C   UNL A   1      45.959  28.883  33.979  1.00  0.00     0.173 A 
ATOM     89  F   UNL A   1      43.862  26.164  35.182  1.00  0.00    -0.203 F 
ATOM     90  C   UNL A   1      46.078  26.734  35.729  1.00  0.00     0.198 A 
ATOM     91  C   UNL A   1      47.130  28.620  34.683  1.00  0.00     0.198 A 
ATOM     92  F   UNL A   1      45.932  29.934  33.145  1.00  0.00    -0.203 F 
ATOM     93  F   UNL A   1      46.121  25.719  36.605  1.00  0.00    -0.200 F 
ATOM     94  C   UNL A   1      47.187  27.552  35.564  1.00  0.00     0.200 A 
ATOM     95  F   UNL A   1      48.205  29.401  34.508  1.00  0.00    -0.200 F 
ATOM     96  F   UNL A   1      48.306  27.314  36.260  1.00  0.00    -0.200 F 
ENDBRANCH  63  86
ENDBRANCH  37  38
ENDBRANCH  29  32
ENDBRANCH  27  28
ENDBRANCH   1  27
TORSDOF 13
ENDMDL
