MODEL 1
REMARK VINA RESULT:     -11.8      0.000      0.000
REMARK SMILES [NH3+][C@H](C(=O)NCCCNC(=O)c1ccc(-c2c3nc(c(-c4c(F)c(F)c(F)c(F)c4F)c4ccc([nH]4)c(-c4c(F)c(F)c(F)c(F)c4F)c4nc(c(-c5c(F)c(F)c(F)c(F)c5F)c5ccc2[nH]5)C=C4)C=C3)cc1)c1c(F)cc(I)cc1F
REMARK SMILES IDX 7 1 6 2 5 3 3 4 4 5 2 7 1 8 75 12 76 13 82 14 77 15 78 16
REMARK SMILES IDX 81 17 83 18 79 19 80 20 8 21 9 22 10 23 11 25 12 26 13 27
REMARK SMILES IDX 74 28 14 29 73 30 15 31 16 32 17 33 67 34 18 35 72 36 66 37
REMARK SMILES IDX 68 38 19 39 71 40 65 41 64 42 20 44 52 45 32 46 51 47 33 48
REMARK SMILES IDX 36 49 50 50 69 51 34 52 35 53 49 55 70 56 37 57 21 58 22 59
REMARK SMILES IDX 30 60 23 61 24 62 28 63 31 64 25 65 26 66 29 67 27 68 53 69
REMARK SMILES IDX 54 70 62 71 55 72 56 73 60 74 63 75 57 76 58 77 61 78 59 79
REMARK SMILES IDX 38 80 39 81 47 82 40 83 41 84 45 85 48 86 42 87 43 88 46 89
REMARK SMILES IDX 44 90
REMARK H PARENT 5 6 1 9 1 10 1 11 9 24 68 43 36 54
REMARK Flexibility Score: inf
ROOT
ATOM      1  C   UNL A   1      31.910  28.864  26.517  1.00  0.00     0.042 C 
ENDROOT
BRANCH   1   2
ATOM      2  C   UNL A   1      32.353  27.406  26.604  1.00  0.00     0.118 C 
BRANCH   2   3
ATOM      3  N   UNL A   1      31.232  26.520  26.874  1.00  0.00    -0.351 N 
ATOM      4  C   UNL A   1      30.447  25.805  26.014  1.00  0.00     0.283 C 
ATOM      5  O   UNL A   1      29.504  25.174  26.501  1.00  0.00    -0.268 OA
ATOM      6  H   UNL A   1      31.004  26.419  27.827  1.00  0.00     0.163 HD
BRANCH   4   7
ATOM      7  C   UNL A   1      30.763  25.756  24.493  1.00  0.00     0.308 C 
BRANCH   7   8
ATOM      8  N   UNL A   1      30.278  24.466  23.945  1.00  0.00    -0.343 N 
ATOM      9  H   UNL A   1      30.910  24.149  23.209  1.00  0.00     0.345 HD
ATOM     10  H   UNL A   1      29.343  24.591  23.559  1.00  0.00     0.345 HD
ATOM     11  H   UNL A   1      30.248  23.769  24.690  1.00  0.00     0.345 HD
ENDBRANCH   7   8
BRANCH   7  12
ATOM     12  C   UNL A   1      30.174  26.945  23.772  1.00  0.00     0.090 A 
ATOM     13  C   UNL A   1      28.798  27.192  23.712  1.00  0.00     0.136 A 
ATOM     14  C   UNL A   1      31.014  27.894  23.185  1.00  0.00     0.136 A 
ATOM     15  F   UNL A   1      27.931  26.328  24.259  1.00  0.00    -0.206 F 
ATOM     16  C   UNL A   1      28.281  28.332  23.095  1.00  0.00     0.054 A 
ATOM     17  C   UNL A   1      30.524  29.055  22.591  1.00  0.00     0.054 A 
ATOM     18  F   UNL A   1      32.343  27.712  23.209  1.00  0.00    -0.206 F 
ATOM     19  C   UNL A   1      29.151  29.270  22.548  1.00  0.00     0.019 A 
ATOM     20  I   UNL A   1      28.403  31.000  21.679  1.00  0.00    -0.044 I 
ENDBRANCH   7  12
ENDBRANCH   4   7
ENDBRANCH   2   3
ENDBRANCH   1   2
BRANCH   1  21
ATOM     21  C   UNL A   1      32.943  29.786  25.880  1.00  0.00     0.118 C 
BRANCH  21  22
ATOM     22  N   UNL A   1      32.767  31.175  26.277  1.00  0.00    -0.352 N 
ATOM     23  C   UNL A   1      33.397  31.912  27.251  1.00  0.00     0.251 C 
ATOM     24  H   UNL A   1      32.084  31.666  25.764  1.00  0.00     0.163 HD
ATOM     25  O   UNL A   1      32.950  33.017  27.547  1.00  0.00    -0.269 OA
BRANCH  23  26
ATOM     26  C   UNL A   1      34.592  31.397  27.960  1.00  0.00     0.039 A 
ATOM     27  C   UNL A   1      35.688  32.252  28.131  1.00  0.00     0.014 A 
ATOM     28  C   UNL A   1      34.678  30.074  28.402  1.00  0.00     0.014 A 
ATOM     29  C   UNL A   1      36.838  31.799  28.785  1.00  0.00     0.010 A 
ATOM     30  C   UNL A   1      35.794  29.645  29.122  1.00  0.00     0.010 A 
ATOM     31  C   UNL A   1      36.890  30.499  29.312  1.00  0.00    -0.014 A 
BRANCH  31  32
ATOM     32  C   UNL A   1      38.090  30.010  30.043  1.00  0.00     0.031 A 
ATOM     33  C   UNL A   1      38.368  30.479  31.445  1.00  0.00     0.074 A 
ATOM     34  C   UNL A   1      38.960  29.183  29.430  1.00  0.00     0.049 A 
ATOM     35  N   UNL A   1      39.397  30.229  32.216  1.00  0.00    -0.248 NA
ATOM     36  C   UNL A   1      37.365  31.365  32.056  1.00  0.00     0.031 C 
ATOM     37  C   UNL A   1      38.825  28.678  28.064  1.00  0.00     0.029 A 
ATOM     38  N   UNL A   1      40.133  28.627  29.875  1.00  0.00    -0.354 N 
ATOM     39  C   UNL A   1      39.175  30.939  33.388  1.00  0.00     0.074 A 
ATOM     40  C   UNL A   1      37.936  31.667  33.213  1.00  0.00     0.031 C 
ATOM     41  C   UNL A   1      39.860  27.867  27.791  1.00  0.00     0.029 A 
ATOM     42  C   UNL A   1      40.750  27.825  28.948  1.00  0.00     0.049 A 
ATOM     43  H   UNL A   1      40.498  28.789  30.776  1.00  0.00     0.167 HD
ATOM     44  C   UNL A   1      39.923  30.966  34.518  1.00  0.00     0.037 A 
ATOM     45  C   UNL A   1      41.905  27.135  29.019  1.00  0.00     0.037 A 
ATOM     46  C   UNL A   1      41.138  30.218  34.707  1.00  0.00     0.049 A 
ATOM     47  C   UNL A   1      42.720  27.187  30.283  1.00  0.00     0.074 A 
ATOM     48  C   UNL A   1      41.941  30.146  35.833  1.00  0.00     0.029 A 
ATOM     49  N   UNL A   1      41.723  29.408  33.746  1.00  0.00    -0.354 N 
ATOM     50  N   UNL A   1      42.476  27.830  31.398  1.00  0.00    -0.248 NA
ATOM     51  C   UNL A   1      43.969  26.412  30.297  1.00  0.00     0.031 C 
ATOM     52  C   UNL A   1      43.030  29.319  35.542  1.00  0.00     0.029 A 
ATOM     53  C   UNL A   1      42.884  28.842  34.249  1.00  0.00     0.049 A 
ATOM     54  H   UNL A   1      41.368  29.257  32.841  1.00  0.00     0.167 HD
ATOM     55  C   UNL A   1      43.524  27.517  32.254  1.00  0.00     0.074 A 
ATOM     56  C   UNL A   1      44.400  26.616  31.533  1.00  0.00     0.031 C 
ATOM     57  C   UNL A   1      43.739  27.938  33.524  1.00  0.00     0.037 A 
BRANCH  44  58
ATOM     58  C   UNL A   1      39.442  31.831  35.648  1.00  0.00     0.064 A 
ATOM     59  C   UNL A   1      39.871  33.159  35.786  1.00  0.00     0.173 A 
ATOM     60  C   UNL A   1      38.514  31.340  36.577  1.00  0.00     0.173 A 
ATOM     61  F   UNL A   1      40.769  33.671  34.931  1.00  0.00    -0.203 F 
ATOM     62  C   UNL A   1      39.407  33.957  36.829  1.00  0.00     0.198 A 
ATOM     63  C   UNL A   1      38.029  32.149  37.601  1.00  0.00     0.198 A 
ATOM     64  F   UNL A   1      38.066  30.078  36.486  1.00  0.00    -0.203 F 
ATOM     65  F   UNL A   1      39.865  35.209  36.967  1.00  0.00    -0.200 F 
ATOM     66  C   UNL A   1      38.482  33.454  37.731  1.00  0.00     0.200 A 
ATOM     67  F   UNL A   1      37.126  31.666  38.466  1.00  0.00    -0.200 F 
ATOM     68  F   UNL A   1      38.030  34.226  38.730  1.00  0.00    -0.200 F 
ENDBRANCH  44  58
BRANCH  45  69
ATOM     69  C   UNL A   1      42.346  26.308  27.867  1.00  0.00     0.064 A 
ATOM     70  C   UNL A   1      43.278  26.804  26.946  1.00  0.00     0.173 A 
ATOM     71  C   UNL A   1      41.849  25.013  27.662  1.00  0.00     0.173 A 
ATOM     72  F   UNL A   1      43.765  28.045  27.088  1.00  0.00    -0.203 F 
ATOM     73  C   UNL A   1      43.685  26.042  25.853  1.00  0.00     0.198 A 
ATOM     74  C   UNL A   1      42.276  24.243  26.582  1.00  0.00     0.198 A 
ATOM     75  F   UNL A   1      40.957  24.493  28.517  1.00  0.00    -0.203 F 
ATOM     76  F   UNL A   1      44.547  26.556  24.965  1.00  0.00    -0.200 F 
ATOM     77  C   UNL A   1      43.189  24.760  25.675  1.00  0.00     0.200 A 
ATOM     78  F   UNL A   1      41.802  22.999  26.421  1.00  0.00    -0.200 F 
ATOM     79  F   UNL A   1      43.583  24.025  24.626  1.00  0.00    -0.200 F 
ENDBRANCH  45  69
BRANCH  57  80
ATOM     80  C   UNL A   1      44.949  27.403  34.232  1.00  0.00     0.064 A 
ATOM     81  C   UNL A   1      46.177  28.079  34.201  1.00  0.00     0.173 A 
ATOM     82  C   UNL A   1      44.866  26.220  34.982  1.00  0.00     0.173 A 
ATOM     83  F   UNL A   1      46.310  29.205  33.485  1.00  0.00    -0.203 F 
ATOM     84  C   UNL A   1      47.285  27.578  34.879  1.00  0.00     0.198 A 
ATOM     85  C   UNL A   1      45.968  25.736  35.679  1.00  0.00     0.198 A 
ATOM     86  F   UNL A   1      43.711  25.539  35.047  1.00  0.00    -0.203 F 
ATOM     87  F   UNL A   1      48.461  28.218  34.803  1.00  0.00    -0.200 F 
ATOM     88  C   UNL A   1      47.179  26.412  35.623  1.00  0.00     0.200 A 
ATOM     89  F   UNL A   1      45.861  24.616  36.406  1.00  0.00    -0.200 F 
ATOM     90  F   UNL A   1      48.244  25.934  36.280  1.00  0.00    -0.200 F 
ENDBRANCH  57  80
ENDBRANCH  31  32
ENDBRANCH  23  26
ENDBRANCH  21  22
ENDBRANCH   1  21
TORSDOF 12
ENDMDL
MODEL 2
REMARK VINA RESULT:     -11.6      2.310      8.085
REMARK SMILES [NH3+][C@H](C(=O)NCCCNC(=O)c1ccc(-c2c3nc(c(-c4c(F)c(F)c(F)c(F)c4F)c4ccc([nH]4)c(-c4c(F)c(F)c(F)c(F)c4F)c4nc(c(-c5c(F)c(F)c(F)c(F)c5F)c5ccc2[nH]5)C=C4)C=C3)cc1)c1c(F)cc(I)cc1F
REMARK SMILES IDX 7 1 6 2 5 3 3 4 4 5 2 7 1 8 75 12 76 13 82 14 77 15 78 16
REMARK SMILES IDX 81 17 83 18 79 19 80 20 8 21 9 22 10 23 11 25 12 26 13 27
REMARK SMILES IDX 74 28 14 29 73 30 15 31 16 32 17 33 67 34 18 35 72 36 66 37
REMARK SMILES IDX 68 38 19 39 71 40 65 41 64 42 20 44 52 45 32 46 51 47 33 48
REMARK SMILES IDX 36 49 50 50 69 51 34 52 35 53 49 55 70 56 37 57 21 58 22 59
REMARK SMILES IDX 30 60 23 61 24 62 28 63 31 64 25 65 26 66 29 67 27 68 53 69
REMARK SMILES IDX 54 70 62 71 55 72 56 73 60 74 63 75 57 76 58 77 61 78 59 79
REMARK SMILES IDX 38 80 39 81 47 82 40 83 41 84 45 85 48 86 42 87 43 88 46 89
REMARK SMILES IDX 44 90
REMARK H PARENT 5 6 1 9 1 10 1 11 9 24 68 43 36 54
REMARK Flexibility Score: inf
ROOT
ATOM      1  C   UNL A   1      33.313  28.993  23.926  1.00  0.00     0.042 C 
ENDROOT
BRANCH   1   2
ATOM      2  C   UNL A   1      32.156  28.441  23.097  1.00  0.00     0.118 C 
BRANCH   2   3
ATOM      3  N   UNL A   1      32.630  27.613  22.000  1.00  0.00    -0.351 N 
ATOM      4  C   UNL A   1      32.811  26.260  21.933  1.00  0.00     0.283 C 
ATOM      5  O   UNL A   1      33.297  25.805  20.893  1.00  0.00    -0.268 OA
ATOM      6  H   UNL A   1      32.854  28.103  21.176  1.00  0.00     0.163 HD
BRANCH   4   7
ATOM      7  C   UNL A   1      32.379  25.334  23.105  1.00  0.00     0.308 C 
BRANCH   7   8
ATOM      8  N   UNL A   1      31.282  24.452  22.637  1.00  0.00    -0.343 N 
ATOM      9  H   UNL A   1      30.456  24.599  23.217  1.00  0.00     0.345 HD
ATOM     10  H   UNL A   1      31.576  23.478  22.706  1.00  0.00     0.345 HD
ATOM     11  H   UNL A   1      31.058  24.672  21.666  1.00  0.00     0.345 HD
ENDBRANCH   7   8
BRANCH   7  12
ATOM     12  C   UNL A   1      33.553  24.553  23.648  1.00  0.00     0.090 A 
ATOM     13  C   UNL A   1      34.096  23.443  22.993  1.00  0.00     0.136 A 
ATOM     14  C   UNL A   1      34.188  24.971  24.820  1.00  0.00     0.136 A 
ATOM     15  F   UNL A   1      33.543  22.989  21.860  1.00  0.00    -0.206 F 
ATOM     16  C   UNL A   1      35.221  22.777  23.482  1.00  0.00     0.054 A 
ATOM     17  C   UNL A   1      35.329  24.342  25.312  1.00  0.00     0.054 A 
ATOM     18  F   UNL A   1      33.712  26.029  25.494  1.00  0.00    -0.206 F 
ATOM     19  C   UNL A   1      35.844  23.241  24.636  1.00  0.00     0.019 A 
ATOM     20  I   UNL A   1      37.552  22.299  25.346  1.00  0.00    -0.044 I 
ENDBRANCH   7  12
ENDBRANCH   4   7
ENDBRANCH   2   3
ENDBRANCH   1   2
BRANCH   1  21
ATOM     21  C   UNL A   1      33.009  29.097  25.416  1.00  0.00     0.118 C 
BRANCH  21  22
ATOM     22  N   UNL A   1      32.602  30.438  25.807  1.00  0.00    -0.352 N 
ATOM     23  C   UNL A   1      33.066  31.255  26.809  1.00  0.00     0.251 C 
ATOM     24  H   UNL A   1      31.874  30.822  25.264  1.00  0.00     0.163 HD
ATOM     25  O   UNL A   1      32.441  32.275  27.087  1.00  0.00    -0.269 OA
BRANCH  23  26
ATOM     26  C   UNL A   1      34.294  30.925  27.572  1.00  0.00     0.039 A 
ATOM     27  C   UNL A   1      35.249  31.930  27.767  1.00  0.00     0.014 A 
ATOM     28  C   UNL A   1      34.550  29.634  28.040  1.00  0.00     0.014 A 
ATOM     29  C   UNL A   1      36.425  31.654  28.471  1.00  0.00     0.010 A 
ATOM     30  C   UNL A   1      35.687  29.378  28.808  1.00  0.00     0.010 A 
ATOM     31  C   UNL A   1      36.642  30.382  29.023  1.00  0.00    -0.014 A 
BRANCH  31  32
ATOM     32  C   UNL A   1      37.869  30.079  29.806  1.00  0.00     0.031 A 
ATOM     33  C   UNL A   1      38.921  29.161  29.244  1.00  0.00     0.074 A 
ATOM     34  C   UNL A   1      38.018  30.586  31.046  1.00  0.00     0.049 A 
ATOM     35  N   UNL A   1      40.019  28.716  29.802  1.00  0.00    -0.248 NA
ATOM     36  C   UNL A   1      38.699  28.661  27.878  1.00  0.00     0.031 C 
ATOM     37  C   UNL A   1      37.061  31.462  31.720  1.00  0.00     0.029 A 
ATOM     38  N   UNL A   1      39.030  30.432  31.961  1.00  0.00    -0.354 N 
ATOM     39  C   UNL A   1      40.604  27.871  28.868  1.00  0.00     0.074 A 
ATOM     40  C   UNL A   1      39.720  27.830  27.723  1.00  0.00     0.031 C 
ATOM     41  C   UNL A   1      37.542  31.790  32.930  1.00  0.00     0.029 A 
ATOM     42  C   UNL A   1      38.822  31.117  33.133  1.00  0.00     0.049 A 
ATOM     43  H   UNL A   1      39.830  29.883  31.792  1.00  0.00     0.167 HD
ATOM     44  C   UNL A   1      41.784  27.209  28.946  1.00  0.00     0.037 A 
ATOM     45  C   UNL A   1      39.575  31.190  34.247  1.00  0.00     0.037 A 
ATOM     46  C   UNL A   1      42.681  27.273  30.069  1.00  0.00     0.049 A 
ATOM     47  C   UNL A   1      40.877  30.440  34.311  1.00  0.00     0.074 A 
ATOM     48  C   UNL A   1      43.919  26.672  30.221  1.00  0.00     0.029 A 
ATOM     49  N   UNL A   1      42.438  27.987  31.232  1.00  0.00    -0.354 N 
ATOM     50  N   UNL A   1      41.438  29.678  33.403  1.00  0.00    -0.248 NA
ATOM     51  C   UNL A   1      41.652  30.563  35.553  1.00  0.00     0.031 C 
ATOM     52  C   UNL A   1      44.410  26.995  31.490  1.00  0.00     0.029 A 
ATOM     53  C   UNL A   1      43.498  27.831  32.113  1.00  0.00     0.049 A 
ATOM     54  H   UNL A   1      41.632  28.525  31.408  1.00  0.00     0.167 HD
ATOM     55  C   UNL A   1      42.641  29.255  33.952  1.00  0.00     0.074 A 
ATOM     56  C   UNL A   1      42.735  29.853  35.268  1.00  0.00     0.031 C 
ATOM     57  C   UNL A   1      43.582  28.443  33.413  1.00  0.00     0.037 A 
BRANCH  44  58
ATOM     58  C   UNL A   1      42.179  26.355  27.775  1.00  0.00     0.064 A 
ATOM     59  C   UNL A   1      43.090  26.812  26.811  1.00  0.00     0.173 A 
ATOM     60  C   UNL A   1      41.673  25.054  27.638  1.00  0.00     0.173 A 
ATOM     61  F   UNL A   1      43.591  28.053  26.890  1.00  0.00    -0.203 F 
ATOM     62  C   UNL A   1      43.461  26.005  25.738  1.00  0.00     0.198 A 
ATOM     63  C   UNL A   1      42.069  24.240  26.579  1.00  0.00     0.198 A 
ATOM     64  F   UNL A   1      40.803  24.567  28.535  1.00  0.00    -0.203 F 
ATOM     65  F   UNL A   1      44.298  26.479  24.805  1.00  0.00    -0.200 F 
ATOM     66  C   UNL A   1      42.956  24.719  25.627  1.00  0.00     0.200 A 
ATOM     67  F   UNL A   1      41.589  22.992  26.479  1.00  0.00    -0.200 F 
ATOM     68  F   UNL A   1      43.320  23.941  24.597  1.00  0.00    -0.200 F 
ENDBRANCH  44  58
BRANCH  45  69
ATOM     69  C   UNL A   1      39.131  32.035  35.386  1.00  0.00     0.064 A 
ATOM     70  C   UNL A   1      39.472  33.393  35.444  1.00  0.00     0.173 A 
ATOM     71  C   UNL A   1      38.364  31.507  36.434  1.00  0.00     0.173 A 
ATOM     72  F   UNL A   1      40.224  33.936  34.476  1.00  0.00    -0.203 F 
ATOM     73  C   UNL A   1      39.074  34.189  36.516  1.00  0.00     0.198 A 
ATOM     74  C   UNL A   1      37.945  32.310  37.493  1.00  0.00     0.198 A 
ATOM     75  F   UNL A   1      38.009  30.214  36.422  1.00  0.00    -0.203 F 
ATOM     76  F   UNL A   1      39.448  35.474  36.567  1.00  0.00    -0.200 F 
ATOM     77  C   UNL A   1      38.307  33.649  37.536  1.00  0.00     0.200 A 
ATOM     78  F   UNL A   1      37.193  31.787  38.471  1.00  0.00    -0.200 F 
ATOM     79  F   UNL A   1      37.921  34.416  38.566  1.00  0.00    -0.200 F 
ENDBRANCH  45  69
BRANCH  57  80
ATOM     80  C   UNL A   1      44.815  28.182  34.229  1.00  0.00     0.064 A 
ATOM     81  C   UNL A   1      44.902  27.085  35.097  1.00  0.00     0.173 A 
ATOM     82  C   UNL A   1      45.935  29.018  34.107  1.00  0.00     0.173 A 
ATOM     83  F   UNL A   1      43.852  26.267  35.260  1.00  0.00    -0.203 F 
ATOM     84  C   UNL A   1      46.061  26.846  35.832  1.00  0.00     0.198 A 
ATOM     85  C   UNL A   1      47.100  28.761  34.823  1.00  0.00     0.198 A 
ATOM     86  F   UNL A   1      45.903  30.077  33.284  1.00  0.00    -0.203 F 
ATOM     87  F   UNL A   1      46.109  25.816  36.689  1.00  0.00    -0.200 F 
ATOM     88  C   UNL A   1      47.160  27.680  35.689  1.00  0.00     0.200 A 
ATOM     89  F   UNL A   1      48.165  29.560  34.676  1.00  0.00    -0.200 F 
ATOM     90  F   UNL A   1      48.277  27.445  36.392  1.00  0.00    -0.200 F 
ENDBRANCH  57  80
ENDBRANCH  31  32
ENDBRANCH  23  26
ENDBRANCH  21  22
ENDBRANCH   1  21
TORSDOF 12
ENDMDL
MODEL 3
REMARK VINA RESULT:     -11.6      5.026      9.299
REMARK SMILES [NH3+][C@H](C(=O)NCCCNC(=O)c1ccc(-c2c3nc(c(-c4c(F)c(F)c(F)c(F)c4F)c4ccc([nH]4)c(-c4c(F)c(F)c(F)c(F)c4F)c4nc(c(-c5c(F)c(F)c(F)c(F)c5F)c5ccc2[nH]5)C=C4)C=C3)cc1)c1c(F)cc(I)cc1F
REMARK SMILES IDX 7 1 6 2 5 3 3 4 4 5 2 7 1 8 75 12 76 13 82 14 77 15 78 16
REMARK SMILES IDX 81 17 83 18 79 19 80 20 8 21 9 22 10 23 11 25 12 26 13 27
REMARK SMILES IDX 74 28 14 29 73 30 15 31 16 32 17 33 67 34 18 35 72 36 66 37
REMARK SMILES IDX 68 38 19 39 71 40 65 41 64 42 20 44 52 45 32 46 51 47 33 48
REMARK SMILES IDX 36 49 50 50 69 51 34 52 35 53 49 55 70 56 37 57 21 58 22 59
REMARK SMILES IDX 30 60 23 61 24 62 28 63 31 64 25 65 26 66 29 67 27 68 53 69
REMARK SMILES IDX 54 70 62 71 55 72 56 73 60 74 63 75 57 76 58 77 61 78 59 79
REMARK SMILES IDX 38 80 39 81 47 82 40 83 41 84 45 85 48 86 42 87 43 88 46 89
REMARK SMILES IDX 44 90
REMARK H PARENT 5 6 1 9 1 10 1 11 9 24 68 43 36 54
REMARK Flexibility Score: inf
ROOT
ATOM      1  C   UNL A   1      35.555  23.891  25.923  1.00  0.00     0.042 C 
ENDROOT
BRANCH   1   2
ATOM      2  C   UNL A   1      34.330  24.508  25.252  1.00  0.00     0.118 C 
BRANCH   2   3
ATOM      3  N   UNL A   1      34.319  24.254  23.820  1.00  0.00    -0.351 N 
ATOM      4  C   UNL A   1      33.457  23.509  23.065  1.00  0.00     0.283 C 
ATOM      5  O   UNL A   1      33.712  23.397  21.862  1.00  0.00    -0.268 OA
ATOM      6  H   UNL A   1      35.045  24.687  23.316  1.00  0.00     0.163 HD
BRANCH   4   7
ATOM      7  C   UNL A   1      32.186  22.872  23.693  1.00  0.00     0.308 C 
BRANCH   7   8
ATOM      8  N   UNL A   1      31.019  23.184  22.833  1.00  0.00    -0.343 N 
ATOM      9  H   UNL A   1      31.147  22.756  21.916  1.00  0.00     0.345 HD
ATOM     10  H   UNL A   1      30.935  24.194  22.728  1.00  0.00     0.345 HD
ATOM     11  H   UNL A   1      30.170  22.814  23.264  1.00  0.00     0.345 HD
ENDBRANCH   7   8
BRANCH   7  12
ATOM     12  C   UNL A   1      32.365  21.386  23.904  1.00  0.00     0.090 A 
ATOM     13  C   UNL A   1      32.238  20.451  22.870  1.00  0.00     0.136 A 
ATOM     14  C   UNL A   1      32.737  20.898  25.158  1.00  0.00     0.136 A 
ATOM     15  F   UNL A   1      31.890  20.849  21.638  1.00  0.00    -0.206 F 
ATOM     16  C   UNL A   1      32.472  19.091  23.075  1.00  0.00     0.054 A 
ATOM     17  C   UNL A   1      33.005  19.549  25.381  1.00  0.00     0.054 A 
ATOM     18  F   UNL A   1      32.873  21.745  26.189  1.00  0.00    -0.206 F 
ATOM     19  C   UNL A   1      32.870  18.646  24.332  1.00  0.00     0.019 A 
ATOM     20  I   UNL A   1      33.278  16.634  24.642  1.00  0.00    -0.044 I 
ENDBRANCH   7  12
ENDBRANCH   4   7
ENDBRANCH   2   3
ENDBRANCH   1   2
BRANCH   1  21
ATOM     21  C   UNL A   1      36.738  23.691  24.982  1.00  0.00     0.118 C 
BRANCH  21  22
ATOM     22  N   UNL A   1      37.649  22.656  25.448  1.00  0.00    -0.352 N 
ATOM     23  C   UNL A   1      38.833  22.756  26.139  1.00  0.00     0.251 C 
ATOM     24  H   UNL A   1      37.372  21.736  25.234  1.00  0.00     0.163 HD
ATOM     25  O   UNL A   1      39.541  21.759  26.258  1.00  0.00    -0.269 OA
BRANCH  23  26
ATOM     26  C   UNL A   1      39.281  24.040  26.729  1.00  0.00     0.039 A 
ATOM     27  C   UNL A   1      40.032  24.914  25.935  1.00  0.00     0.014 A 
ATOM     28  C   UNL A   1      39.029  24.368  28.064  1.00  0.00     0.014 A 
ATOM     29  C   UNL A   1      40.482  26.130  26.460  1.00  0.00     0.010 A 
ATOM     30  C   UNL A   1      39.413  25.613  28.565  1.00  0.00     0.010 A 
ATOM     31  C   UNL A   1      40.152  26.503  27.772  1.00  0.00    -0.014 A 
BRANCH  31  32
ATOM     32  C   UNL A   1      40.590  27.807  28.337  1.00  0.00     0.031 A 
ATOM     33  C   UNL A   1      42.040  28.044  28.662  1.00  0.00     0.074 A 
ATOM     34  C   UNL A   1      39.679  28.763  28.608  1.00  0.00     0.049 A 
ATOM     35  N   UNL A   1      42.605  29.081  29.230  1.00  0.00    -0.248 NA
ATOM     36  C   UNL A   1      42.978  26.964  28.323  1.00  0.00     0.031 C 
ATOM     37  C   UNL A   1      38.241  28.649  28.369  1.00  0.00     0.029 A 
ATOM     38  N   UNL A   1      39.829  30.016  29.147  1.00  0.00    -0.354 N 
ATOM     39  C   UNL A   1      43.954  28.769  29.333  1.00  0.00     0.074 A 
ATOM     40  C   UNL A   1      44.119  27.430  28.810  1.00  0.00     0.031 C 
ATOM     41  C   UNL A   1      37.643  29.795  28.737  1.00  0.00     0.029 A 
ATOM     42  C   UNL A   1      38.649  30.707  29.271  1.00  0.00     0.049 A 
ATOM     43  H   UNL A   1      40.701  30.384  29.419  1.00  0.00     0.167 HD
ATOM     44  C   UNL A   1      44.968  29.537  29.799  1.00  0.00     0.037 A 
ATOM     45  C   UNL A   1      38.405  31.937  29.763  1.00  0.00     0.037 A 
ATOM     46  C   UNL A   1      44.813  30.882  30.289  1.00  0.00     0.049 A 
ATOM     47  C   UNL A   1      39.548  32.767  30.280  1.00  0.00     0.074 A 
ATOM     48  C   UNL A   1      45.788  31.755  30.740  1.00  0.00     0.029 A 
ATOM     49  N   UNL A   1      43.602  31.549  30.387  1.00  0.00    -0.354 N 
ATOM     50  N   UNL A   1      40.825  32.475  30.333  1.00  0.00    -0.248 NA
ATOM     51  C   UNL A   1      39.215  34.100  30.803  1.00  0.00     0.031 C 
ATOM     52  C   UNL A   1      45.163  32.939  31.143  1.00  0.00     0.029 A 
ATOM     53  C   UNL A   1      43.804  32.820  30.904  1.00  0.00     0.049 A 
ATOM     54  H   UNL A   1      42.728  31.177  30.130  1.00  0.00     0.167 HD
ATOM     55  C   UNL A   1      41.449  33.595  30.867  1.00  0.00     0.074 A 
ATOM     56  C   UNL A   1      40.413  34.577  31.111  1.00  0.00     0.031 C 
ATOM     57  C   UNL A   1      42.764  33.790  31.130  1.00  0.00     0.037 A 
BRANCH  44  58
ATOM     58  C   UNL A   1      46.347  28.943  29.795  1.00  0.00     0.064 A 
ATOM     59  C   UNL A   1      46.838  28.226  30.897  1.00  0.00     0.173 A 
ATOM     60  C   UNL A   1      47.170  29.055  28.664  1.00  0.00     0.173 A 
ATOM     61  F   UNL A   1      46.096  28.102  32.007  1.00  0.00    -0.203 F 
ATOM     62  C   UNL A   1      48.113  27.665  30.875  1.00  0.00     0.198 A 
ATOM     63  C   UNL A   1      48.432  28.468  28.636  1.00  0.00     0.198 A 
ATOM     64  F   UNL A   1      46.746  29.724  27.582  1.00  0.00    -0.203 F 
ATOM     65  F   UNL A   1      48.578  27.024  31.957  1.00  0.00    -0.200 F 
ATOM     66  C   UNL A   1      48.906  27.781  29.744  1.00  0.00     0.200 A 
ATOM     67  F   UNL A   1      49.193  28.570  27.537  1.00  0.00    -0.200 F 
ATOM     68  F   UNL A   1      50.130  27.234  29.723  1.00  0.00    -0.200 F 
ENDBRANCH  44  58
BRANCH  45  69
ATOM     69  C   UNL A   1      37.020  32.474  29.761  1.00  0.00     0.064 A 
ATOM     70  C   UNL A   1      36.540  33.211  28.670  1.00  0.00     0.173 A 
ATOM     71  C   UNL A   1      36.152  32.264  30.842  1.00  0.00     0.173 A 
ATOM     72  F   UNL A   1      37.342  33.455  27.624  1.00  0.00    -0.203 F 
ATOM     73  C   UNL A   1      35.248  33.731  28.666  1.00  0.00     0.198 A 
ATOM     74  C   UNL A   1      34.851  32.764  30.826  1.00  0.00     0.198 A 
ATOM     75  F   UNL A   1      36.563  31.563  31.908  1.00  0.00    -0.203 F 
ATOM     76  F   UNL A   1      34.828  34.467  27.628  1.00  0.00    -0.200 F 
ATOM     77  C   UNL A   1      34.403  33.503  29.741  1.00  0.00     0.200 A 
ATOM     78  F   UNL A   1      34.033  32.531  31.862  1.00  0.00    -0.200 F 
ATOM     79  F   UNL A   1      33.158  34.001  29.736  1.00  0.00    -0.200 F 
ENDBRANCH  45  69
BRANCH  57  80
ATOM     80  C   UNL A   1      43.165  35.128  31.678  1.00  0.00     0.064 A 
ATOM     81  C   UNL A   1      43.198  35.377  33.058  1.00  0.00     0.173 A 
ATOM     82  C   UNL A   1      43.560  36.159  30.813  1.00  0.00     0.173 A 
ATOM     83  F   UNL A   1      42.814  34.428  33.924  1.00  0.00    -0.203 F 
ATOM     84  C   UNL A   1      43.591  36.619  33.551  1.00  0.00     0.198 A 
ATOM     85  C   UNL A   1      43.977  37.390  31.310  1.00  0.00     0.198 A 
ATOM     86  F   UNL A   1      43.551  35.968  29.485  1.00  0.00    -0.203 F 
ATOM     87  F   UNL A   1      43.575  36.850  34.871  1.00  0.00    -0.200 F 
ATOM     88  C   UNL A   1      43.987  37.621  32.677  1.00  0.00     0.200 A 
ATOM     89  F   UNL A   1      44.370  38.354  30.466  1.00  0.00    -0.200 F 
ATOM     90  F   UNL A   1      44.371  38.814  33.153  1.00  0.00    -0.200 F 
ENDBRANCH  57  80
ENDBRANCH  31  32
ENDBRANCH  23  26
ENDBRANCH  21  22
ENDBRANCH   1  21
TORSDOF 12
ENDMDL
