MODEL 1
REMARK VINA RESULT:     -15.4      0.000      0.000
REMARK SMILES Cc1ccccc1C(=O)Nc1ccc(N2CCC(n3c(C)nc4cccnc43)CC2)c(C(=O)NCCCNC(=O)c2ccc(-c3c4nc(c(-c5c(F)c(F)c(F)c(F)c5F)c5ccc([nH]5)c(-c5c(F)c(F)c(F)c(F)c5F)c5nc(c(-c6c(F)c(F)c(F)c(F)c6F)c6ccc3[nH]6)C=C5)C=C4)cc2)c1
REMARK SMILES IDX 36 1 35 2 34 3 32 4 33 5 31 7 11 8 12 9 104 10 13 11 14 12
REMARK SMILES IDX 10 13 8 14 9 15 7 17 1 18 2 19 3 20 4 21 6 22 5 23 15 24
REMARK SMILES IDX 16 25 30 26 17 27 29 28 18 29 19 30 20 31 28 32 21 33 22 34
REMARK SMILES IDX 23 35 27 36 24 37 26 38 25 39 37 40 38 41 39 42 40 44 41 45
REMARK SMILES IDX 42 46 103 47 43 48 102 49 44 50 45 51 46 52 96 53 47 54
REMARK SMILES IDX 101 55 95 56 97 57 48 58 100 59 94 60 93 61 49 63 81 64
REMARK SMILES IDX 61 65 80 66 62 67 65 68 79 69 98 70 63 71 64 72 78 74 99 75
REMARK SMILES IDX 66 76 50 77 51 78 59 79 52 80 53 81 57 82 60 83 54 84 55 85
REMARK SMILES IDX 58 86 56 87 82 88 83 89 91 90 84 91 85 92 89 93 92 94 86 95
REMARK SMILES IDX 87 96 90 97 88 98 67 99 68 100 76 101 69 102 70 103 74 104
REMARK SMILES IDX 77 105 71 106 72 107 75 108 73 109
REMARK H PARENT 34 6 10 16 38 43 97 62 65 73
REMARK Flexibility Score: inf
ROOT
ATOM      1  C   UNL A   1      34.171  30.294  27.305  1.00  0.00     0.042 C 
ENDROOT
BRANCH   1   2
ATOM      2  C   UNL A   1      34.372  28.810  27.108  1.00  0.00     0.118 C 
BRANCH   2   3
ATOM      3  N   UNL A   1      33.191  27.992  27.145  1.00  0.00    -0.352 N 
ATOM      4  C   UNL A   1      32.614  27.314  26.092  1.00  0.00     0.253 C 
ATOM      5  O   UNL A   1      31.660  26.580  26.361  1.00  0.00    -0.269 OA
ATOM      6  H   UNL A   1      32.745  27.904  28.018  1.00  0.00     0.163 HD
BRANCH   4   7
ATOM      7  C   UNL A   1      33.033  27.473  24.652  1.00  0.00     0.065 A 
ATOM      8  C   UNL A   1      32.596  28.843  22.679  1.00  0.00     0.042 A 
ATOM      9  C   UNL A   1      33.492  28.095  21.939  1.00  0.00     0.028 A 
ATOM     10  C   UNL A   1      32.491  28.634  24.053  1.00  0.00     0.042 A 
ATOM     11  C   UNL A   1      34.089  26.981  22.524  1.00  0.00     0.029 A 
ATOM     12  C   UNL A   1      33.765  26.564  23.837  1.00  0.00     0.050 A 
BRANCH   8  13
ATOM     13  N   UNL A   1      31.667  29.702  22.082  1.00  0.00    -0.322 N 
ATOM     14  C   UNL A   1      30.294  29.569  21.976  1.00  0.00     0.255 C 
ATOM     15  O   UNL A   1      29.674  30.394  21.302  1.00  0.00    -0.269 OA
ATOM     16  H   UNL A   1      32.044  30.517  21.679  1.00  0.00     0.170 HD
BRANCH  14  17
ATOM     17  C   UNL A   1      29.507  28.509  22.688  1.00  0.00     0.043 A 
ATOM     18  C   UNL A   1      27.315  29.840  22.964  1.00  0.00     0.045 C 
ATOM     19  C   UNL A   1      28.185  28.636  23.163  1.00  0.00    -0.038 A 
ATOM     20  C   UNL A   1      27.596  27.554  23.850  1.00  0.00     0.004 A 
ATOM     21  C   UNL A   1      28.246  26.326  23.953  1.00  0.00     0.000 A 
ATOM     22  C   UNL A   1      30.131  27.250  22.766  1.00  0.00     0.014 A 
ATOM     23  C   UNL A   1      29.500  26.165  23.379  1.00  0.00     0.001 A 
ENDBRANCH  14  17
ENDBRANCH   8  13
BRANCH  12  24
ATOM     24  N   UNL A   1      34.008  25.211  24.129  1.00  0.00    -0.371 N 
ATOM     25  C   UNL A   1      35.039  24.864  25.107  1.00  0.00     0.118 C 
ATOM     26  C   UNL A   1      33.236  24.238  23.369  1.00  0.00     0.118 C 
ATOM     27  C   UNL A   1      35.476  23.411  25.108  1.00  0.00     0.047 C 
ATOM     28  C   UNL A   1      33.864  22.862  23.323  1.00  0.00     0.047 C 
ATOM     29  C   UNL A   1      34.414  22.397  24.667  1.00  0.00     0.094 C 
BRANCH  29  30
ATOM     30  N   UNL A   1      34.960  21.031  24.702  1.00  0.00    -0.310 N 
ATOM     31  C   UNL A   1      36.250  20.559  24.904  1.00  0.00     0.108 A 
ATOM     32  C   UNL A   1      34.160  19.914  24.524  1.00  0.00     0.160 A 
ATOM     33  C   UNL A   1      37.492  21.363  25.025  1.00  0.00     0.088 C 
ATOM     34  N   UNL A   1      36.272  19.239  24.965  1.00  0.00    -0.232 NA
ATOM     35  C   UNL A   1      34.998  18.827  24.714  1.00  0.00     0.108 A 
ATOM     36  N   UNL A   1      32.839  19.883  24.254  1.00  0.00    -0.237 NA
ATOM     37  C   UNL A   1      34.450  17.544  24.629  1.00  0.00     0.034 A 
ATOM     38  C   UNL A   1      32.365  18.619  24.126  1.00  0.00     0.113 A 
ATOM     39  C   UNL A   1      33.095  17.450  24.312  1.00  0.00     0.022 A 
ENDBRANCH  29  30
ENDBRANCH  12  24
ENDBRANCH   4   7
ENDBRANCH   2   3
ENDBRANCH   1   2
BRANCH   1  40
ATOM     40  C   UNL A   1      35.056  30.883  28.398  1.00  0.00     0.118 C 
BRANCH  40  41
ATOM     41  N   UNL A   1      35.525  29.902  29.392  1.00  0.00    -0.352 N 
ATOM     42  C   UNL A   1      36.808  29.583  29.831  1.00  0.00     0.251 C 
ATOM     43  H   UNL A   1      34.807  29.382  29.821  1.00  0.00     0.163 HD
ATOM     44  O   UNL A   1      37.001  28.974  30.857  1.00  0.00    -0.269 OA
BRANCH  42  45
ATOM     45  C   UNL A   1      37.959  30.132  29.093  1.00  0.00     0.039 A 
ATOM     46  C   UNL A   1      38.198  29.549  27.846  1.00  0.00     0.014 A 
ATOM     47  C   UNL A   1      38.966  30.736  29.829  1.00  0.00     0.014 A 
ATOM     48  C   UNL A   1      39.499  29.197  27.536  1.00  0.00     0.010 A 
ATOM     49  C   UNL A   1      40.247  30.296  29.571  1.00  0.00     0.010 A 
ATOM     50  C   UNL A   1      40.477  29.412  28.501  1.00  0.00    -0.014 A 
BRANCH  50  51
ATOM     51  C   UNL A   1      41.660  28.562  28.606  1.00  0.00     0.031 A 
ATOM     52  C   UNL A   1      41.507  27.095  28.559  1.00  0.00     0.074 A 
ATOM     53  C   UNL A   1      42.904  29.113  28.639  1.00  0.00     0.049 A 
ATOM     54  N   UNL A   1      42.427  26.276  28.937  1.00  0.00    -0.248 NA
ATOM     55  C   UNL A   1      40.276  26.416  28.152  1.00  0.00     0.031 C 
ATOM     56  C   UNL A   1      44.179  28.429  28.418  1.00  0.00     0.029 A 
ATOM     57  N   UNL A   1      43.284  30.397  29.081  1.00  0.00    -0.354 N 
ATOM     58  C   UNL A   1      42.054  25.024  28.526  1.00  0.00     0.074 A 
ATOM     59  C   UNL A   1      40.666  25.138  28.170  1.00  0.00     0.031 C 
ATOM     60  C   UNL A   1      45.162  29.134  28.995  1.00  0.00     0.029 A 
ATOM     61  C   UNL A   1      44.544  30.231  29.712  1.00  0.00     0.049 A 
ATOM     62  H   UNL A   1      42.780  31.236  28.975  1.00  0.00     0.167 HD
ATOM     63  C   UNL A   1      43.015  24.073  28.402  1.00  0.00     0.037 A 
ATOM     64  C   UNL A   1      44.731  30.504  31.035  1.00  0.00     0.037 A 
ATOM     65  C   UNL A   1      44.234  24.460  29.109  1.00  0.00     0.049 A 
ATOM     66  C   UNL A   1      45.154  29.311  31.864  1.00  0.00     0.074 A 
ATOM     67  C   UNL A   1      45.509  24.822  28.718  1.00  0.00     0.029 A 
ATOM     68  N   UNL A   1      44.141  24.755  30.468  1.00  0.00    -0.354 N 
ATOM     69  N   UNL A   1      45.167  28.085  31.420  1.00  0.00    -0.248 NA
ATOM     70  C   UNL A   1      45.534  29.391  33.274  1.00  0.00     0.031 C 
ATOM     71  C   UNL A   1      46.143  25.442  29.834  1.00  0.00     0.029 A 
ATOM     72  C   UNL A   1      45.272  25.407  30.910  1.00  0.00     0.049 A 
ATOM     73  H   UNL A   1      43.370  24.529  31.037  1.00  0.00     0.167 HD
ATOM     74  C   UNL A   1      45.437  27.224  32.450  1.00  0.00     0.074 A 
ATOM     75  C   UNL A   1      45.709  28.094  33.580  1.00  0.00     0.031 C 
ATOM     76  C   UNL A   1      45.360  25.870  32.292  1.00  0.00     0.037 A 
BRANCH  63  77
ATOM     77  C   UNL A   1      42.905  22.863  27.506  1.00  0.00     0.064 A 
ATOM     78  C   UNL A   1      42.022  21.814  27.839  1.00  0.00     0.173 A 
ATOM     79  C   UNL A   1      43.733  22.609  26.389  1.00  0.00     0.173 A 
ATOM     80  F   UNL A   1      41.204  21.912  28.897  1.00  0.00    -0.203 F 
ATOM     81  C   UNL A   1      41.970  20.622  27.109  1.00  0.00     0.198 A 
ATOM     82  C   UNL A   1      43.634  21.444  25.625  1.00  0.00     0.198 A 
ATOM     83  F   UNL A   1      44.718  23.440  26.028  1.00  0.00    -0.203 F 
ATOM     84  F   UNL A   1      41.153  19.635  27.505  1.00  0.00    -0.200 F 
ATOM     85  C   UNL A   1      42.763  20.443  25.992  1.00  0.00     0.200 A 
ATOM     86  F   UNL A   1      44.421  21.290  24.550  1.00  0.00    -0.200 F 
ATOM     87  F   UNL A   1      42.706  19.306  25.287  1.00  0.00    -0.200 F 
ENDBRANCH  63  77
BRANCH  64  88
ATOM     88  C   UNL A   1      43.906  31.642  31.511  1.00  0.00     0.064 A 
ATOM     89  C   UNL A   1      44.223  32.930  31.034  1.00  0.00     0.173 A 
ATOM     90  C   UNL A   1      42.630  31.447  32.051  1.00  0.00     0.173 A 
ATOM     91  F   UNL A   1      45.434  33.168  30.507  1.00  0.00    -0.203 F 
ATOM     92  C   UNL A   1      43.263  33.938  30.978  1.00  0.00     0.198 A 
ATOM     93  C   UNL A   1      41.674  32.465  32.003  1.00  0.00     0.198 A 
ATOM     94  F   UNL A   1      42.264  30.238  32.499  1.00  0.00    -0.203 F 
ATOM     95  F   UNL A   1      43.561  35.112  30.402  1.00  0.00    -0.200 F 
ATOM     96  C   UNL A   1      41.980  33.693  31.433  1.00  0.00     0.200 A 
ATOM     97  F   UNL A   1      40.420  32.217  32.409  1.00  0.00    -0.200 F 
ATOM     98  F   UNL A   1      41.024  34.620  31.281  1.00  0.00    -0.200 F 
ENDBRANCH  64  88
BRANCH  76  99
ATOM     99  C   UNL A   1      45.383  24.847  33.406  1.00  0.00     0.064 A 
ATOM    100  C   UNL A   1      46.552  24.241  33.899  1.00  0.00     0.173 A 
ATOM    101  C   UNL A   1      44.199  24.557  34.125  1.00  0.00     0.173 A 
ATOM    102  F   UNL A   1      47.756  24.525  33.387  1.00  0.00    -0.203 F 
ATOM    103  C   UNL A   1      46.527  23.362  34.988  1.00  0.00     0.198 A 
ATOM    104  C   UNL A   1      44.188  23.729  35.248  1.00  0.00     0.198 A 
ATOM    105  F   UNL A   1      43.021  25.095  33.775  1.00  0.00    -0.203 F 
ATOM    106  F   UNL A   1      47.663  22.778  35.394  1.00  0.00    -0.200 F 
ATOM    107  C   UNL A   1      45.349  23.117  35.669  1.00  0.00     0.200 A 
ATOM    108  F   UNL A   1      43.049  23.546  35.930  1.00  0.00    -0.200 F 
ATOM    109  F   UNL A   1      45.340  22.313  36.741  1.00  0.00    -0.200 F 
ENDBRANCH  76  99
ENDBRANCH  50  51
ENDBRANCH  42  45
ENDBRANCH  40  41
ENDBRANCH   1  40
TORSDOF 14
ENDMDL
MODEL 2
REMARK VINA RESULT:     -15.3      2.154      3.567
REMARK SMILES Cc1ccccc1C(=O)Nc1ccc(N2CCC(n3c(C)nc4cccnc43)CC2)c(C(=O)NCCCNC(=O)c2ccc(-c3c4nc(c(-c5c(F)c(F)c(F)c(F)c5F)c5ccc([nH]5)c(-c5c(F)c(F)c(F)c(F)c5F)c5nc(c(-c6c(F)c(F)c(F)c(F)c6F)c6ccc3[nH]6)C=C5)C=C4)cc2)c1
REMARK SMILES IDX 36 1 35 2 34 3 32 4 33 5 31 7 11 8 12 9 104 10 13 11 14 12
REMARK SMILES IDX 10 13 8 14 9 15 7 17 1 18 2 19 3 20 4 21 6 22 5 23 15 24
REMARK SMILES IDX 16 25 30 26 17 27 29 28 18 29 19 30 20 31 28 32 21 33 22 34
REMARK SMILES IDX 23 35 27 36 24 37 26 38 25 39 37 40 38 41 39 42 40 44 41 45
REMARK SMILES IDX 42 46 103 47 43 48 102 49 44 50 45 51 46 52 96 53 47 54
REMARK SMILES IDX 101 55 95 56 97 57 48 58 100 59 94 60 93 61 49 63 81 64
REMARK SMILES IDX 61 65 80 66 62 67 65 68 79 69 98 70 63 71 64 72 78 74 99 75
REMARK SMILES IDX 66 76 50 77 51 78 59 79 52 80 53 81 57 82 60 83 54 84 55 85
REMARK SMILES IDX 58 86 56 87 82 88 83 89 91 90 84 91 85 92 89 93 92 94 86 95
REMARK SMILES IDX 87 96 90 97 88 98 67 99 68 100 76 101 69 102 70 103 74 104
REMARK SMILES IDX 77 105 71 106 72 107 75 108 73 109
REMARK H PARENT 34 6 10 16 38 43 97 62 65 73
REMARK Flexibility Score: inf
ROOT
ATOM      1  C   UNL A   1      33.571  30.167  27.874  1.00  0.00     0.042 C 
ENDROOT
BRANCH   1   2
ATOM      2  C   UNL A   1      32.968  29.260  26.828  1.00  0.00     0.118 C 
BRANCH   2   3
ATOM      3  N   UNL A   1      32.125  28.199  27.305  1.00  0.00    -0.352 N 
ATOM      4  C   UNL A   1      31.442  27.272  26.547  1.00  0.00     0.253 C 
ATOM      5  O   UNL A   1      30.857  26.377  27.160  1.00  0.00    -0.269 OA
ATOM      6  H   UNL A   1      32.022  28.125  28.281  1.00  0.00     0.163 HD
BRANCH   4   7
ATOM      7  C   UNL A   1      31.319  27.332  25.045  1.00  0.00     0.065 A 
ATOM      8  C   UNL A   1      29.709  27.848  23.284  1.00  0.00     0.042 A 
ATOM      9  C   UNL A   1      30.646  27.543  22.314  1.00  0.00     0.028 A 
ATOM     10  C   UNL A   1      30.092  27.895  24.623  1.00  0.00     0.042 A 
ATOM     11  C   UNL A   1      31.886  27.045  22.704  1.00  0.00     0.029 A 
ATOM     12  C   UNL A   1      32.196  26.794  24.062  1.00  0.00     0.050 A 
BRANCH   8  13
ATOM     13  N   UNL A   1      28.344  27.960  22.996  1.00  0.00    -0.322 N 
ATOM     14  C   UNL A   1      27.573  29.098  22.840  1.00  0.00     0.255 C 
ATOM     15  O   UNL A   1      26.355  28.967  22.702  1.00  0.00    -0.269 OA
ATOM     16  H   UNL A   1      27.864  27.107  22.890  1.00  0.00     0.170 HD
BRANCH  14  17
ATOM     17  C   UNL A   1      28.145  30.482  22.766  1.00  0.00     0.043 A 
ATOM     18  C   UNL A   1      27.799  30.859  20.237  1.00  0.00     0.045 C 
ATOM     19  C   UNL A   1      28.279  31.262  21.598  1.00  0.00    -0.038 A 
ATOM     20  C   UNL A   1      28.877  32.537  21.691  1.00  0.00     0.004 A 
ATOM     21  C   UNL A   1      29.213  33.088  22.925  1.00  0.00     0.000 A 
ATOM     22  C   UNL A   1      28.453  31.071  24.006  1.00  0.00     0.014 A 
ATOM     23  C   UNL A   1      28.968  32.367  24.086  1.00  0.00     0.001 A 
ENDBRANCH  14  17
ENDBRANCH   8  13
BRANCH  12  24
ATOM     24  N   UNL A   1      33.215  25.855  24.295  1.00  0.00    -0.371 N 
ATOM     25  C   UNL A   1      33.907  25.252  23.157  1.00  0.00     0.118 C 
ATOM     26  C   UNL A   1      33.463  25.505  25.687  1.00  0.00     0.118 C 
ATOM     27  C   UNL A   1      34.731  24.018  23.472  1.00  0.00     0.047 C 
ATOM     28  C   UNL A   1      34.159  24.173  25.867  1.00  0.00     0.047 C 
ATOM     29  C   UNL A   1      35.308  23.948  24.891  1.00  0.00     0.094 C 
BRANCH  29  30
ATOM     30  N   UNL A   1      36.076  22.706  25.075  1.00  0.00    -0.310 N 
ATOM     31  C   UNL A   1      35.763  21.381  24.806  1.00  0.00     0.108 A 
ATOM     32  C   UNL A   1      37.360  22.706  25.594  1.00  0.00     0.160 A 
ATOM     33  C   UNL A   1      34.458  20.841  24.349  1.00  0.00     0.088 C 
ATOM     34  N   UNL A   1      36.800  20.591  25.026  1.00  0.00    -0.232 NA
ATOM     35  C   UNL A   1      37.783  21.388  25.529  1.00  0.00     0.108 A 
ATOM     36  N   UNL A   1      38.068  23.764  26.040  1.00  0.00    -0.237 NA
ATOM     37  C   UNL A   1      39.077  21.084  25.960  1.00  0.00     0.034 A 
ATOM     38  C   UNL A   1      39.294  23.412  26.499  1.00  0.00     0.113 A 
ATOM     39  C   UNL A   1      39.841  22.134  26.470  1.00  0.00     0.022 A 
ENDBRANCH  29  30
ENDBRANCH  12  24
ENDBRANCH   4   7
ENDBRANCH   2   3
ENDBRANCH   1   2
BRANCH   1  40
ATOM     40  C   UNL A   1      34.507  31.220  27.294  1.00  0.00     0.118 C 
BRANCH  40  41
ATOM     41  N   UNL A   1      35.368  31.881  28.290  1.00  0.00    -0.352 N 
ATOM     42  C   UNL A   1      36.564  31.479  28.879  1.00  0.00     0.251 C 
ATOM     43  H   UNL A   1      35.041  32.759  28.593  1.00  0.00     0.163 HD
ATOM     44  O   UNL A   1      37.292  32.258  29.448  1.00  0.00    -0.269 OA
BRANCH  42  45
ATOM     45  C   UNL A   1      37.017  30.091  28.674  1.00  0.00     0.039 A 
ATOM     46  C   UNL A   1      37.174  29.339  29.841  1.00  0.00     0.014 A 
ATOM     47  C   UNL A   1      37.722  29.810  27.515  1.00  0.00     0.014 A 
ATOM     48  C   UNL A   1      38.328  28.590  29.976  1.00  0.00     0.010 A 
ATOM     49  C   UNL A   1      38.920  29.149  27.686  1.00  0.00     0.010 A 
ATOM     50  C   UNL A   1      39.273  28.664  28.958  1.00  0.00    -0.014 A 
BRANCH  50  51
ATOM     51  C   UNL A   1      40.702  28.502  29.216  1.00  0.00     0.031 A 
ATOM     52  C   UNL A   1      41.398  27.301  28.716  1.00  0.00     0.074 A 
ATOM     53  C   UNL A   1      41.411  29.496  29.816  1.00  0.00     0.049 A 
ATOM     54  N   UNL A   1      42.557  26.929  29.139  1.00  0.00    -0.248 NA
ATOM     55  C   UNL A   1      40.821  26.367  27.749  1.00  0.00     0.031 C 
ATOM     56  C   UNL A   1      42.867  29.642  29.856  1.00  0.00     0.029 A 
ATOM     57  N   UNL A   1      40.949  30.497  30.697  1.00  0.00    -0.354 N 
ATOM     58  C   UNL A   1      43.002  25.944  28.298  1.00  0.00     0.074 A 
ATOM     59  C   UNL A   1      41.849  25.538  27.543  1.00  0.00     0.031 C 
ATOM     60  C   UNL A   1      43.203  30.412  30.901  1.00  0.00     0.029 A 
ATOM     61  C   UNL A   1      41.989  30.689  31.642  1.00  0.00     0.049 A 
ATOM     62  H   UNL A   1      40.084  30.965  30.663  1.00  0.00     0.167 HD
ATOM     63  C   UNL A   1      44.337  25.696  28.247  1.00  0.00     0.037 A 
ATOM     64  C   UNL A   1      41.812  30.443  32.972  1.00  0.00     0.037 A 
ATOM     65  C   UNL A   1      45.025  26.271  29.400  1.00  0.00     0.049 A 
ATOM     66  C   UNL A   1      42.710  29.361  33.531  1.00  0.00     0.074 A 
ATOM     67  C   UNL A   1      45.923  27.307  29.576  1.00  0.00     0.029 A 
ATOM     68  N   UNL A   1      44.601  25.897  30.674  1.00  0.00    -0.354 N 
ATOM     69  N   UNL A   1      43.462  28.589  32.795  1.00  0.00    -0.248 NA
ATOM     70  C   UNL A   1      42.786  29.017  34.949  1.00  0.00     0.031 C 
ATOM     71  C   UNL A   1      45.947  27.626  30.965  1.00  0.00     0.029 A 
ATOM     72  C   UNL A   1      45.106  26.750  31.632  1.00  0.00     0.049 A 
ATOM     73  H   UNL A   1      44.018  25.128  30.864  1.00  0.00     0.167 HD
ATOM     74  C   UNL A   1      44.023  27.614  33.576  1.00  0.00     0.074 A 
ATOM     75  C   UNL A   1      43.610  27.954  34.925  1.00  0.00     0.031 C 
ATOM     76  C   UNL A   1      44.734  26.582  33.033  1.00  0.00     0.037 A 
BRANCH  63  77
ATOM     77  C   UNL A   1      45.040  25.066  27.069  1.00  0.00     0.064 A 
ATOM     78  C   UNL A   1      44.994  23.669  26.880  1.00  0.00     0.173 A 
ATOM     79  C   UNL A   1      45.887  25.757  26.173  1.00  0.00     0.173 A 
ATOM     80  F   UNL A   1      44.254  22.890  27.683  1.00  0.00    -0.203 F 
ATOM     81  C   UNL A   1      45.725  23.026  25.876  1.00  0.00     0.198 A 
ATOM     82  C   UNL A   1      46.566  25.120  25.132  1.00  0.00     0.198 A 
ATOM     83  F   UNL A   1      46.150  27.062  26.303  1.00  0.00    -0.203 F 
ATOM     84  F   UNL A   1      45.689  21.689  25.779  1.00  0.00    -0.200 F 
ATOM     85  C   UNL A   1      46.497  23.752  24.991  1.00  0.00     0.200 A 
ATOM     86  F   UNL A   1      47.318  25.846  24.291  1.00  0.00    -0.200 F 
ATOM     87  F   UNL A   1      47.190  23.138  24.023  1.00  0.00    -0.200 F 
ENDBRANCH  63  77
BRANCH  64  88
ATOM     88  C   UNL A   1      40.438  30.756  33.437  1.00  0.00     0.064 A 
ATOM     89  C   UNL A   1      40.076  32.113  33.555  1.00  0.00     0.173 A 
ATOM     90  C   UNL A   1      39.406  29.814  33.362  1.00  0.00     0.173 A 
ATOM     91  F   UNL A   1      41.029  33.055  33.631  1.00  0.00    -0.203 F 
ATOM     92  C   UNL A   1      38.746  32.518  33.466  1.00  0.00     0.198 A 
ATOM     93  C   UNL A   1      38.073  30.225  33.284  1.00  0.00     0.198 A 
ATOM     94  F   UNL A   1      39.690  28.512  33.226  1.00  0.00    -0.203 F 
ATOM     95  F   UNL A   1      38.446  33.825  33.454  1.00  0.00    -0.200 F 
ATOM     96  C   UNL A   1      37.749  31.574  33.298  1.00  0.00     0.200 A 
ATOM     97  F   UNL A   1      37.109  29.314  33.084  1.00  0.00    -0.200 F 
ATOM     98  F   UNL A   1      36.482  31.964  33.101  1.00  0.00    -0.200 F 
ENDBRANCH  64  88
BRANCH  76  99
ATOM     99  C   UNL A   1      45.171  25.330  33.762  1.00  0.00     0.064 A 
ATOM    100  C   UNL A   1      44.291  24.341  34.234  1.00  0.00     0.173 A 
ATOM    101  C   UNL A   1      46.548  25.019  33.871  1.00  0.00     0.173 A 
ATOM    102  F   UNL A   1      42.965  24.455  34.080  1.00  0.00    -0.203 F 
ATOM    103  C   UNL A   1      44.752  23.161  34.828  1.00  0.00     0.198 A 
ATOM    104  C   UNL A   1      47.004  23.815  34.408  1.00  0.00     0.198 A 
ATOM    105  F   UNL A   1      47.491  25.866  33.432  1.00  0.00    -0.203 F 
ATOM    106  F   UNL A   1      43.871  22.268  35.300  1.00  0.00    -0.200 F 
ATOM    107  C   UNL A   1      46.106  22.893  34.903  1.00  0.00     0.200 A 
ATOM    108  F   UNL A   1      48.317  23.546  34.423  1.00  0.00    -0.200 F 
ATOM    109  F   UNL A   1      46.541  21.740  35.429  1.00  0.00    -0.200 F 
ENDBRANCH  76  99
ENDBRANCH  50  51
ENDBRANCH  42  45
ENDBRANCH  40  41
ENDBRANCH   1  40
TORSDOF 14
ENDMDL
MODEL 3
REMARK VINA RESULT:     -14.9      1.805      2.809
REMARK SMILES Cc1ccccc1C(=O)Nc1ccc(N2CCC(n3c(C)nc4cccnc43)CC2)c(C(=O)NCCCNC(=O)c2ccc(-c3c4nc(c(-c5c(F)c(F)c(F)c(F)c5F)c5ccc([nH]5)c(-c5c(F)c(F)c(F)c(F)c5F)c5nc(c(-c6c(F)c(F)c(F)c(F)c6F)c6ccc3[nH]6)C=C5)C=C4)cc2)c1
REMARK SMILES IDX 36 1 35 2 34 3 32 4 33 5 31 7 11 8 12 9 104 10 13 11 14 12
REMARK SMILES IDX 10 13 8 14 9 15 7 17 1 18 2 19 3 20 4 21 6 22 5 23 15 24
REMARK SMILES IDX 16 25 30 26 17 27 29 28 18 29 19 30 20 31 28 32 21 33 22 34
REMARK SMILES IDX 23 35 27 36 24 37 26 38 25 39 37 40 38 41 39 42 40 44 41 45
REMARK SMILES IDX 42 46 103 47 43 48 102 49 44 50 45 51 46 52 96 53 47 54
REMARK SMILES IDX 101 55 95 56 97 57 48 58 100 59 94 60 93 61 49 63 81 64
REMARK SMILES IDX 61 65 80 66 62 67 65 68 79 69 98 70 63 71 64 72 78 74 99 75
REMARK SMILES IDX 66 76 50 77 51 78 59 79 52 80 53 81 57 82 60 83 54 84 55 85
REMARK SMILES IDX 58 86 56 87 82 88 83 89 91 90 84 91 85 92 89 93 92 94 86 95
REMARK SMILES IDX 87 96 90 97 88 98 67 99 68 100 76 101 69 102 70 103 74 104
REMARK SMILES IDX 77 105 71 106 72 107 75 108 73 109
REMARK H PARENT 34 6 10 16 38 43 97 62 65 73
REMARK Flexibility Score: inf
ROOT
ATOM      1  C   UNL A   1      33.297  30.321  27.805  1.00  0.00     0.042 C 
ENDROOT
BRANCH   1   2
ATOM      2  C   UNL A   1      32.739  29.383  26.762  1.00  0.00     0.118 C 
BRANCH   2   3
ATOM      3  N   UNL A   1      32.054  28.216  27.246  1.00  0.00    -0.352 N 
ATOM      4  C   UNL A   1      31.468  27.221  26.493  1.00  0.00     0.253 C 
ATOM      5  O   UNL A   1      31.023  26.250  27.107  1.00  0.00    -0.269 OA
ATOM      6  H   UNL A   1      31.997  28.115  28.223  1.00  0.00     0.163 HD
BRANCH   4   7
ATOM      7  C   UNL A   1      31.284  27.289  24.998  1.00  0.00     0.065 A 
ATOM      8  C   UNL A   1      29.608  27.823  23.305  1.00  0.00     0.042 A 
ATOM      9  C   UNL A   1      30.503  27.515  22.297  1.00  0.00     0.028 A 
ATOM     10  C   UNL A   1      30.045  27.862  24.628  1.00  0.00     0.042 A 
ATOM     11  C   UNL A   1      31.753  27.006  22.634  1.00  0.00     0.029 A 
ATOM     12  C   UNL A   1      32.116  26.747  23.978  1.00  0.00     0.050 A 
BRANCH   8  13
ATOM     13  N   UNL A   1      28.233  27.946  23.073  1.00  0.00    -0.322 N 
ATOM     14  C   UNL A   1      27.470  29.090  22.924  1.00  0.00     0.255 C 
ATOM     15  O   UNL A   1      26.246  28.972  22.842  1.00  0.00    -0.269 OA
ATOM     16  H   UNL A   1      27.740  27.098  23.007  1.00  0.00     0.170 HD
BRANCH  14  17
ATOM     17  C   UNL A   1      28.055  30.465  22.794  1.00  0.00     0.043 A 
ATOM     18  C   UNL A   1      27.729  30.735  20.250  1.00  0.00     0.045 C 
ATOM     19  C   UNL A   1      28.204  31.193  21.595  1.00  0.00    -0.038 A 
ATOM     20  C   UNL A   1      28.812  32.466  21.637  1.00  0.00     0.004 A 
ATOM     21  C   UNL A   1      29.145  33.066  22.848  1.00  0.00     0.000 A 
ATOM     22  C   UNL A   1      28.360  31.104  24.010  1.00  0.00     0.014 A 
ATOM     23  C   UNL A   1      28.886  32.398  24.037  1.00  0.00     0.001 A 
ENDBRANCH  14  17
ENDBRANCH   8  13
BRANCH  12  24
ATOM     24  N   UNL A   1      33.137  25.801  24.166  1.00  0.00    -0.371 N 
ATOM     25  C   UNL A   1      33.682  25.095  23.007  1.00  0.00     0.118 C 
ATOM     26  C   UNL A   1      33.536  25.548  25.544  1.00  0.00     0.118 C 
ATOM     27  C   UNL A   1      34.513  23.865  23.321  1.00  0.00     0.047 C 
ATOM     28  C   UNL A   1      34.221  24.213  25.746  1.00  0.00     0.047 C 
ATOM     29  C   UNL A   1      35.247  23.885  24.667  1.00  0.00     0.094 C 
BRANCH  29  30
ATOM     30  N   UNL A   1      36.007  22.639  24.858  1.00  0.00    -0.310 N 
ATOM     31  C   UNL A   1      37.330  22.411  25.212  1.00  0.00     0.108 A 
ATOM     32  C   UNL A   1      35.427  21.392  24.694  1.00  0.00     0.160 A 
ATOM     33  C   UNL A   1      38.402  23.424  25.382  1.00  0.00     0.088 C 
ATOM     34  N   UNL A   1      37.565  21.121  25.376  1.00  0.00    -0.232 NA
ATOM     35  C   UNL A   1      36.410  20.480  25.043  1.00  0.00     0.108 A 
ATOM     36  N   UNL A   1      34.164  21.116  24.310  1.00  0.00    -0.237 NA
ATOM     37  C   UNL A   1      36.096  19.119  25.008  1.00  0.00     0.034 A 
ATOM     38  C   UNL A   1      33.923  19.784  24.237  1.00  0.00     0.113 A 
ATOM     39  C   UNL A   1      34.815  18.772  24.577  1.00  0.00     0.022 A 
ENDBRANCH  29  30
ENDBRANCH  12  24
ENDBRANCH   4   7
ENDBRANCH   2   3
ENDBRANCH   1   2
BRANCH   1  40
ATOM     40  C   UNL A   1      34.052  31.505  27.212  1.00  0.00     0.118 C 
BRANCH  40  41
ATOM     41  N   UNL A   1      34.995  32.149  28.142  1.00  0.00    -0.352 N 
ATOM     42  C   UNL A   1      36.132  31.659  28.780  1.00  0.00     0.251 C 
ATOM     43  H   UNL A   1      34.787  33.089  28.348  1.00  0.00     0.163 HD
ATOM     44  O   UNL A   1      36.958  32.391  29.271  1.00  0.00    -0.269 OA
BRANCH  42  45
ATOM     45  C   UNL A   1      36.399  30.210  28.725  1.00  0.00     0.039 A 
ATOM     46  C   UNL A   1      36.638  29.603  29.961  1.00  0.00     0.014 A 
ATOM     47  C   UNL A   1      36.898  29.693  27.541  1.00  0.00     0.014 A 
ATOM     48  C   UNL A   1      37.712  28.738  30.058  1.00  0.00     0.010 A 
ATOM     49  C   UNL A   1      38.030  28.914  27.655  1.00  0.00     0.010 A 
ATOM     50  C   UNL A   1      38.506  28.559  28.931  1.00  0.00    -0.014 A 
BRANCH  50  51
ATOM     51  C   UNL A   1      39.931  28.253  29.028  1.00  0.00     0.031 A 
ATOM     52  C   UNL A   1      40.401  26.884  28.739  1.00  0.00     0.074 A 
ATOM     53  C   UNL A   1      40.833  29.241  29.277  1.00  0.00     0.049 A 
ATOM     54  N   UNL A   1      41.565  26.450  29.081  1.00  0.00    -0.248 NA
ATOM     55  C   UNL A   1      39.576  25.855  28.105  1.00  0.00     0.031 C 
ATOM     56  C   UNL A   1      42.283  29.180  29.089  1.00  0.00     0.029 A 
ATOM     57  N   UNL A   1      40.632  30.464  29.950  1.00  0.00    -0.354 N 
ATOM     58  C   UNL A   1      41.757  25.252  28.445  1.00  0.00     0.074 A 
ATOM     59  C   UNL A   1      40.460  24.862  27.966  1.00  0.00     0.031 C 
ATOM     60  C   UNL A   1      42.867  30.102  29.869  1.00  0.00     0.029 A 
ATOM     61  C   UNL A   1      41.826  30.705  30.677  1.00  0.00     0.049 A 
ATOM     62  H   UNL A   1      39.829  31.033  29.921  1.00  0.00     0.167 HD
ATOM     63  C   UNL A   1      43.030  24.809  28.278  1.00  0.00     0.037 A 
ATOM     64  C   UNL A   1      41.840  30.782  32.039  1.00  0.00     0.037 A 
ATOM     65  C   UNL A   1      43.955  25.516  29.161  1.00  0.00     0.049 A 
ATOM     66  C   UNL A   1      42.692  29.729  32.714  1.00  0.00     0.074 A 
ATOM     67  C   UNL A   1      44.978  26.425  28.967  1.00  0.00     0.029 A 
ATOM     68  N   UNL A   1      43.704  25.493  30.532  1.00  0.00    -0.354 N 
ATOM     69  N   UNL A   1      43.226  28.716  32.089  1.00  0.00    -0.248 NA
ATOM     70  C   UNL A   1      42.958  29.694  34.151  1.00  0.00     0.031 C 
ATOM     71  C   UNL A   1      45.261  27.031  30.226  1.00  0.00     0.029 A 
ATOM     72  C   UNL A   1      44.448  26.451  31.186  1.00  0.00     0.049 A 
ATOM     73  H   UNL A   1      43.078  24.875  30.974  1.00  0.00     0.167 HD
ATOM     74  C   UNL A   1      43.795  27.864  32.997  1.00  0.00     0.074 A 
ATOM     75  C   UNL A   1      43.645  28.545  34.269  1.00  0.00     0.031 C 
ATOM     76  C   UNL A   1      44.291  26.647  32.624  1.00  0.00     0.037 A 
BRANCH  63  77
ATOM     77  C   UNL A   1      43.461  23.844  27.200  1.00  0.00     0.064 A 
ATOM     78  C   UNL A   1      44.184  24.308  26.082  1.00  0.00     0.173 A 
ATOM     79  C   UNL A   1      43.077  22.485  27.135  1.00  0.00     0.173 A 
ATOM     80  F   UNL A   1      44.581  25.586  26.000  1.00  0.00    -0.203 F 
ATOM     81  C   UNL A   1      44.502  23.479  25.000  1.00  0.00     0.198 A 
ATOM     82  C   UNL A   1      43.449  21.644  26.084  1.00  0.00     0.198 A 
ATOM     83  F   UNL A   1      42.270  21.927  28.046  1.00  0.00    -0.203 F 
ATOM     84  F   UNL A   1      45.140  23.987  23.937  1.00  0.00    -0.200 F 
ATOM     85  C   UNL A   1      44.150  22.143  25.009  1.00  0.00     0.200 A 
ATOM     86  F   UNL A   1      43.088  20.353  26.111  1.00  0.00    -0.200 F 
ATOM     87  F   UNL A   1      44.463  21.346  23.979  1.00  0.00    -0.200 F 
ENDBRANCH  63  77
BRANCH  64  88
ATOM     88  C   UNL A   1      40.602  31.383  32.594  1.00  0.00     0.064 A 
ATOM     89  C   UNL A   1      40.433  32.777  32.469  1.00  0.00     0.173 A 
ATOM     90  C   UNL A   1      39.462  30.612  32.846  1.00  0.00     0.173 A 
ATOM     91  F   UNL A   1      41.497  33.559  32.228  1.00  0.00    -0.203 F 
ATOM     92  C   UNL A   1      39.166  33.355  32.462  1.00  0.00     0.198 A 
ATOM     93  C   UNL A   1      38.194  31.199  32.849  1.00  0.00     0.198 A 
ATOM     94  F   UNL A   1      39.557  29.280  32.951  1.00  0.00    -0.203 F 
ATOM     95  F   UNL A   1      39.032  34.666  32.215  1.00  0.00    -0.200 F 
ATOM     96  C   UNL A   1      38.045  32.559  32.620  1.00  0.00     0.200 A 
ATOM     97  F   UNL A   1      37.105  30.424  32.965  1.00  0.00    -0.200 F 
ATOM     98  F   UNL A   1      36.821  33.093  32.504  1.00  0.00    -0.200 F 
ENDBRANCH  64  88
BRANCH  76  99
ATOM     99  C   UNL A   1      44.700  25.534  33.563  1.00  0.00     0.064 A 
ATOM    100  C   UNL A   1      46.018  25.067  33.711  1.00  0.00     0.173 A 
ATOM    101  C   UNL A   1      43.760  24.996  34.475  1.00  0.00     0.173 A 
ATOM    102  F   UNL A   1      47.025  25.582  32.995  1.00  0.00    -0.203 F 
ATOM    103  C   UNL A   1      46.356  24.091  34.655  1.00  0.00     0.198 A 
ATOM    104  C   UNL A   1      44.113  24.068  35.455  1.00  0.00     0.198 A 
ATOM    105  F   UNL A   1      42.474  25.380  34.458  1.00  0.00    -0.203 F 
ATOM    106  F   UNL A   1      47.619  23.649  34.729  1.00  0.00    -0.200 F 
ATOM    107  C   UNL A   1      45.408  23.602  35.534  1.00  0.00     0.200 A 
ATOM    108  F   UNL A   1      43.194  23.646  36.335  1.00  0.00    -0.200 F 
ATOM    109  F   UNL A   1      45.748  22.703  36.468  1.00  0.00    -0.200 F 
ENDBRANCH  76  99
ENDBRANCH  50  51
ENDBRANCH  42  45
ENDBRANCH  40  41
ENDBRANCH   1  40
TORSDOF 14
ENDMDL
