MODEL 1
REMARK VINA RESULT:     -14.9      0.000      0.000
REMARK SMILES C[C@@H](CCC(=O)NCCCNC(=O)c1ccc(-c2c3nc(c(-c4c(F)c(F)c(F)c(F)c4F)c4ccc([nH]4)c(-c4c(F)c(F)c(F)c(F)c4F)c4nc(c(-c5c(F)c(F)c(F)c(F)c5F)c5ccc2[nH]5)C=C4)C=C3)cc1)[C@@H]1CC[C@H]2[C@@H]3CC[C@H]4CC(=O)CC[C@@]4(C)[C@H]3CC(=O)[C@@]21C
REMARK SMILES IDX 8 1 7 2 5 3 6 4 4 6 3 7 2 8 1 9 77 10 78 11 96 12 79 13
REMARK SMILES IDX 80 14 94 15 97 16 81 17 93 18 95 19 82 20 92 21 83 22 90 23
REMARK SMILES IDX 84 24 89 25 91 26 85 27 88 28 86 29 87 30 9 31 10 32 11 33
REMARK SMILES IDX 12 34 13 36 14 37 15 38 76 39 16 40 75 41 17 42 18 43 19 44
REMARK SMILES IDX 69 45 20 46 74 47 68 48 70 49 21 50 73 51 67 52 66 53 22 55
REMARK SMILES IDX 54 56 34 57 53 58 35 59 38 60 52 61 71 62 36 63 37 64 51 66
REMARK SMILES IDX 72 67 39 68 23 69 24 70 32 71 25 72 26 73 30 74 33 75 27 76
REMARK SMILES IDX 28 77 31 78 29 79 55 80 56 81 64 82 57 83 58 84 62 85 65 86
REMARK SMILES IDX 59 87 60 88 63 89 61 90 40 91 41 92 49 93 42 94 43 95 47 96
REMARK SMILES IDX 50 97 44 98 45 99 48 100 46 101
REMARK H PARENT 7 5 11 35 70 54 38 65
REMARK Flexibility Score: inf
ROOT
ATOM      1  C   UNL A   1      40.684  19.644  26.179  1.00  0.00     0.117 C 
ENDROOT
BRANCH   1   2
ATOM      2  N   UNL A   1      40.275  21.045  26.252  1.00  0.00    -0.356 N 
ATOM      3  C   UNL A   1      39.066  21.648  25.977  1.00  0.00     0.220 C 
ATOM      4  O   UNL A   1      38.860  22.755  26.488  1.00  0.00    -0.275 OA
ATOM      5  H   UNL A   1      40.981  21.663  26.548  1.00  0.00     0.163 HD
BRANCH   3   6
ATOM      6  C   UNL A   1      38.029  21.056  25.028  1.00  0.00     0.100 C 
BRANCH   6   7
ATOM      7  C   UNL A   1      36.852  21.994  24.674  1.00  0.00     0.013 C 
BRANCH   7   8
ATOM      8  C   UNL A   1      35.424  21.508  25.031  1.00  0.00    -0.010 C 
ATOM      9  C   UNL A   1      35.364  19.972  25.007  1.00  0.00     0.008 C 
BRANCH   8  10
ATOM     10  C   UNL A   1      34.332  22.142  24.158  1.00  0.00     0.005 C 
ATOM     11  C   UNL A   1      34.907  22.789  22.861  1.00  0.00     0.005 C 
ATOM     12  C   UNL A   1      33.405  23.243  24.778  1.00  0.00     0.032 C 
ATOM     13  C   UNL A   1      33.976  23.920  22.520  1.00  0.00     0.005 C 
ATOM     14  C   UNL A   1      33.775  24.462  23.913  1.00  0.00     0.006 C 
ATOM     15  C   UNL A   1      33.528  23.794  26.194  1.00  0.00     0.139 C 
ATOM     16  C   UNL A   1      31.943  22.774  24.709  1.00  0.00     0.020 C 
ATOM     17  C   UNL A   1      32.844  25.645  23.999  1.00  0.00    -0.003 C 
ATOM     18  C   UNL A   1      32.500  24.882  26.502  1.00  0.00     0.080 C 
ATOM     19  O   UNL A   1      34.355  23.448  27.016  1.00  0.00    -0.299 OA
ATOM     20  C   UNL A   1      33.476  26.835  23.252  1.00  0.00     0.004 C 
ATOM     21  C   UNL A   1      32.624  26.026  25.473  1.00  0.00     0.006 C 
ATOM     22  C   UNL A   1      32.973  28.227  23.616  1.00  0.00     0.005 C 
ATOM     23  C   UNL A   1      31.575  27.170  25.541  1.00  0.00    -0.025 C 
ATOM     24  C   UNL A   1      32.353  28.419  25.035  1.00  0.00     0.002 C 
ATOM     25  C   UNL A   1      30.298  26.997  24.668  1.00  0.00     0.015 C 
ATOM     26  C   UNL A   1      31.102  27.308  27.004  1.00  0.00     0.012 C 
ATOM     27  C   UNL A   1      31.460  29.653  25.063  1.00  0.00     0.079 C 
ATOM     28  C   UNL A   1      30.016  28.106  23.634  1.00  0.00     0.076 C 
ATOM     29  C   UNL A   1      30.418  29.513  24.007  1.00  0.00     0.133 C 
ATOM     30  O   UNL A   1      29.957  30.498  23.436  1.00  0.00    -0.300 OA
ENDBRANCH   8  10
ENDBRANCH   7   8
ENDBRANCH   6   7
ENDBRANCH   3   6
ENDBRANCH   1   2
BRANCH   1  31
ATOM     31  C   UNL A   1      42.197  19.223  26.357  1.00  0.00     0.042 C 
BRANCH  31  32
ATOM     32  C   UNL A   1      43.328  19.851  25.491  1.00  0.00     0.118 C 
BRANCH  32  33
ATOM     33  N   UNL A   1      43.847  21.254  25.807  1.00  0.00    -0.352 N 
ATOM     34  C   UNL A   1      43.793  22.428  25.039  1.00  0.00     0.251 C 
ATOM     35  H   UNL A   1      44.288  21.348  26.682  1.00  0.00     0.163 HD
ATOM     36  O   UNL A   1      44.181  22.408  23.872  1.00  0.00    -0.269 OA
BRANCH  34  37
ATOM     37  C   UNL A   1      43.338  23.797  25.645  1.00  0.00     0.039 A 
ATOM     38  C   UNL A   1      42.157  23.873  26.427  1.00  0.00     0.014 A 
ATOM     39  C   UNL A   1      44.048  24.993  25.592  1.00  0.00     0.014 A 
ATOM     40  C   UNL A   1      41.741  25.047  27.177  1.00  0.00     0.010 A 
ATOM     41  C   UNL A   1      43.640  26.152  26.370  1.00  0.00     0.010 A 
ATOM     42  C   UNL A   1      42.503  26.223  27.244  1.00  0.00    -0.014 A 
BRANCH  42  43
ATOM     43  C   UNL A   1      42.285  27.419  28.318  1.00  0.00     0.031 A 
ATOM     44  C   UNL A   1      42.833  27.287  29.770  1.00  0.00     0.074 A 
ATOM     45  C   UNL A   1      41.313  28.391  28.218  1.00  0.00     0.049 A 
ATOM     46  N   UNL A   1      42.424  27.864  30.886  1.00  0.00    -0.248 NA
ATOM     47  C   UNL A   1      43.896  26.302  29.990  1.00  0.00     0.031 C 
ATOM     48  C   UNL A   1      40.561  28.777  27.025  1.00  0.00     0.029 A 
ATOM     49  N   UNL A   1      40.664  29.144  29.223  1.00  0.00    -0.354 N 
ATOM     50  C   UNL A   1      43.105  27.245  31.935  1.00  0.00     0.074 A 
ATOM     51  C   UNL A   1      43.887  26.191  31.312  1.00  0.00     0.031 C 
ATOM     52  C   UNL A   1      39.517  29.559  27.365  1.00  0.00     0.029 A 
ATOM     53  C   UNL A   1      39.477  29.748  28.813  1.00  0.00     0.049 A 
ATOM     54  H   UNL A   1      41.021  29.234  30.136  1.00  0.00     0.167 HD
ATOM     55  C   UNL A   1      43.152  27.526  33.271  1.00  0.00     0.037 A 
ATOM     56  C   UNL A   1      38.440  30.347  29.467  1.00  0.00     0.037 A 
ATOM     57  C   UNL A   1      42.440  28.585  33.949  1.00  0.00     0.049 A 
ATOM     58  C   UNL A   1      38.491  30.671  30.947  1.00  0.00     0.074 A 
ATOM     59  C   UNL A   1      42.690  29.134  35.203  1.00  0.00     0.029 A 
ATOM     60  N   UNL A   1      41.302  29.209  33.475  1.00  0.00    -0.354 N 
ATOM     61  N   UNL A   1      39.352  30.294  31.850  1.00  0.00    -0.248 NA
ATOM     62  C   UNL A   1      37.455  31.587  31.480  1.00  0.00     0.031 C 
ATOM     63  C   UNL A   1      41.691  30.073  35.494  1.00  0.00     0.029 A 
ATOM     64  C   UNL A   1      40.859  30.156  34.395  1.00  0.00     0.049 A 
ATOM     65  H   UNL A   1      40.868  29.013  32.613  1.00  0.00     0.167 HD
ATOM     66  C   UNL A   1      39.035  30.999  33.010  1.00  0.00     0.074 A 
ATOM     67  C   UNL A   1      37.863  31.787  32.725  1.00  0.00     0.031 C 
ATOM     68  C   UNL A   1      39.722  31.014  34.177  1.00  0.00     0.037 A 
BRANCH  55  69
ATOM     69  C   UNL A   1      44.129  26.737  34.119  1.00  0.00     0.064 A 
ATOM     70  C   UNL A   1      43.709  25.590  34.814  1.00  0.00     0.173 A 
ATOM     71  C   UNL A   1      45.498  27.053  34.168  1.00  0.00     0.173 A 
ATOM     72  F   UNL A   1      42.424  25.203  34.767  1.00  0.00    -0.203 F 
ATOM     73  C   UNL A   1      44.590  24.850  35.595  1.00  0.00     0.198 A 
ATOM     74  C   UNL A   1      46.391  26.273  34.906  1.00  0.00     0.198 A 
ATOM     75  F   UNL A   1      45.985  28.098  33.482  1.00  0.00    -0.203 F 
ATOM     76  F   UNL A   1      44.132  23.818  36.316  1.00  0.00    -0.200 F 
ATOM     77  C   UNL A   1      45.931  25.188  35.636  1.00  0.00     0.200 A 
ATOM     78  F   UNL A   1      47.699  26.570  34.910  1.00  0.00    -0.200 F 
ATOM     79  F   UNL A   1      46.781  24.465  36.379  1.00  0.00    -0.200 F 
ENDBRANCH  55  69
BRANCH  56  80
ATOM     80  C   UNL A   1      37.189  30.777  28.748  1.00  0.00     0.064 A 
ATOM     81  C   UNL A   1      36.970  32.127  28.437  1.00  0.00     0.173 A 
ATOM     82  C   UNL A   1      36.111  29.900  28.533  1.00  0.00     0.173 A 
ATOM     83  F   UNL A   1      37.918  33.033  28.716  1.00  0.00    -0.203 F 
ATOM     84  C   UNL A   1      35.738  32.572  27.947  1.00  0.00     0.198 A 
ATOM     85  C   UNL A   1      34.894  30.337  28.009  1.00  0.00     0.198 A 
ATOM     86  F   UNL A   1      36.190  28.617  28.899  1.00  0.00    -0.203 F 
ATOM     87  F   UNL A   1      35.536  33.881  27.742  1.00  0.00    -0.200 F 
ATOM     88  C   UNL A   1      34.704  31.677  27.724  1.00  0.00     0.200 A 
ATOM     89  F   UNL A   1      33.892  29.465  27.828  1.00  0.00    -0.200 F 
ATOM     90  F   UNL A   1      33.517  32.108  27.275  1.00  0.00    -0.200 F 
ENDBRANCH  56  80
BRANCH  68  91
ATOM     91  C   UNL A   1      39.366  32.044  35.220  1.00  0.00     0.064 A 
ATOM     92  C   UNL A   1      38.503  31.792  36.297  1.00  0.00     0.173 A 
ATOM     93  C   UNL A   1      39.937  33.329  35.142  1.00  0.00     0.173 A 
ATOM     94  F   UNL A   1      37.904  30.599  36.417  1.00  0.00    -0.203 F 
ATOM     95  C   UNL A   1      38.218  32.782  37.242  1.00  0.00     0.198 A 
ATOM     96  C   UNL A   1      39.674  34.305  36.103  1.00  0.00     0.198 A 
ATOM     97  F   UNL A   1      40.763  33.641  34.132  1.00  0.00    -0.203 F 
ATOM     98  F   UNL A   1      37.358  32.529  38.239  1.00  0.00    -0.200 F 
ATOM     99  C   UNL A   1      38.811  34.032  37.150  1.00  0.00     0.200 A 
ATOM    100  F   UNL A   1      40.256  35.509  36.011  1.00  0.00    -0.200 F 
ATOM    101  F   UNL A   1      38.543  34.977  38.063  1.00  0.00    -0.200 F 
ENDBRANCH  68  91
ENDBRANCH  42  43
ENDBRANCH  34  37
ENDBRANCH  32  33
ENDBRANCH  31  32
ENDBRANCH   1  31
TORSDOF 13
ENDMDL
MODEL 2
REMARK VINA RESULT:     -14.8      0.357      1.563
REMARK SMILES C[C@@H](CCC(=O)NCCCNC(=O)c1ccc(-c2c3nc(c(-c4c(F)c(F)c(F)c(F)c4F)c4ccc([nH]4)c(-c4c(F)c(F)c(F)c(F)c4F)c4nc(c(-c5c(F)c(F)c(F)c(F)c5F)c5ccc2[nH]5)C=C4)C=C3)cc1)[C@@H]1CC[C@H]2[C@@H]3CC[C@H]4CC(=O)CC[C@@]4(C)[C@H]3CC(=O)[C@@]21C
REMARK SMILES IDX 8 1 7 2 5 3 6 4 4 6 3 7 2 8 1 9 77 10 78 11 96 12 79 13
REMARK SMILES IDX 80 14 94 15 97 16 81 17 93 18 95 19 82 20 92 21 83 22 90 23
REMARK SMILES IDX 84 24 89 25 91 26 85 27 88 28 86 29 87 30 9 31 10 32 11 33
REMARK SMILES IDX 12 34 13 36 14 37 15 38 76 39 16 40 75 41 17 42 18 43 19 44
REMARK SMILES IDX 69 45 20 46 74 47 68 48 70 49 21 50 73 51 67 52 66 53 22 55
REMARK SMILES IDX 54 56 34 57 53 58 35 59 38 60 52 61 71 62 36 63 37 64 51 66
REMARK SMILES IDX 72 67 39 68 23 69 24 70 32 71 25 72 26 73 30 74 33 75 27 76
REMARK SMILES IDX 28 77 31 78 29 79 55 80 56 81 64 82 57 83 58 84 62 85 65 86
REMARK SMILES IDX 59 87 60 88 63 89 61 90 40 91 41 92 49 93 42 94 43 95 47 96
REMARK SMILES IDX 50 97 44 98 45 99 48 100 46 101
REMARK H PARENT 7 5 11 35 70 54 38 65
REMARK Flexibility Score: inf
ROOT
ATOM      1  C   UNL A   1      40.520  19.840  26.126  1.00  0.00     0.117 C 
ENDROOT
BRANCH   1   2
ATOM      2  N   UNL A   1      40.045  21.222  26.122  1.00  0.00    -0.356 N 
ATOM      3  C   UNL A   1      38.803  21.749  25.837  1.00  0.00     0.220 C 
ATOM      4  O   UNL A   1      38.554  22.875  26.283  1.00  0.00    -0.275 OA
ATOM      5  H   UNL A   1      40.726  21.890  26.363  1.00  0.00     0.163 HD
BRANCH   3   6
ATOM      6  C   UNL A   1      37.778  21.050  24.950  1.00  0.00     0.100 C 
BRANCH   6   7
ATOM      7  C   UNL A   1      36.603  21.939  24.480  1.00  0.00     0.013 C 
BRANCH   7   8
ATOM      8  C   UNL A   1      35.178  21.532  24.935  1.00  0.00    -0.010 C 
ATOM      9  C   UNL A   1      35.058  20.001  25.001  1.00  0.00     0.008 C 
BRANCH   8  10
ATOM     10  C   UNL A   1      34.066  22.162  24.084  1.00  0.00     0.005 C 
ATOM     11  C   UNL A   1      34.606  22.764  22.750  1.00  0.00     0.005 C 
ATOM     12  C   UNL A   1      33.181  23.295  24.706  1.00  0.00     0.032 C 
ATOM     13  C   UNL A   1      33.683  23.902  22.412  1.00  0.00     0.005 C 
ATOM     14  C   UNL A   1      33.541  24.484  23.796  1.00  0.00     0.006 C 
ATOM     15  C   UNL A   1      33.364  23.882  26.102  1.00  0.00     0.139 C 
ATOM     16  C   UNL A   1      31.710  22.851  24.701  1.00  0.00     0.020 C 
ATOM     17  C   UNL A   1      32.634  25.686  23.882  1.00  0.00    -0.003 C 
ATOM     18  C   UNL A   1      32.365  24.995  26.416  1.00  0.00     0.080 C 
ATOM     19  O   UNL A   1      34.214  23.543  26.903  1.00  0.00    -0.299 OA
ATOM     20  C   UNL A   1      33.259  26.844  23.082  1.00  0.00     0.004 C 
ATOM     21  C   UNL A   1      32.473  26.110  25.352  1.00  0.00     0.006 C 
ATOM     22  C   UNL A   1      32.792  28.254  23.425  1.00  0.00     0.005 C 
ATOM     23  C   UNL A   1      31.446  27.274  25.425  1.00  0.00    -0.025 C 
ATOM     24  C   UNL A   1      32.227  28.495  24.859  1.00  0.00     0.002 C 
ATOM     25  C   UNL A   1      30.136  27.101  24.603  1.00  0.00     0.015 C 
ATOM     26  C   UNL A   1      31.028  27.459  26.900  1.00  0.00     0.012 C 
ATOM     27  C   UNL A   1      31.357  29.745  24.885  1.00  0.00     0.079 C 
ATOM     28  C   UNL A   1      29.837  28.187  23.550  1.00  0.00     0.076 C 
ATOM     29  C   UNL A   1      30.276  29.595  23.871  1.00  0.00     0.133 C 
ATOM     30  O   UNL A   1      29.812  30.573  23.289  1.00  0.00    -0.300 OA
ENDBRANCH   8  10
ENDBRANCH   7   8
ENDBRANCH   6   7
ENDBRANCH   3   6
ENDBRANCH   1   2
BRANCH   1  31
ATOM     31  C   UNL A   1      42.003  19.486  26.540  1.00  0.00     0.042 C 
BRANCH  31  32
ATOM     32  C   UNL A   1      43.226  20.034  25.748  1.00  0.00     0.118 C 
BRANCH  32  33
ATOM     33  N   UNL A   1      43.683  21.480  25.947  1.00  0.00    -0.352 N 
ATOM     34  C   UNL A   1      43.431  22.620  25.167  1.00  0.00     0.251 C 
ATOM     35  H   UNL A   1      44.240  21.635  26.744  1.00  0.00     0.163 HD
ATOM     36  O   UNL A   1      43.642  22.584  23.956  1.00  0.00    -0.269 OA
BRANCH  34  37
ATOM     37  C   UNL A   1      42.971  23.975  25.800  1.00  0.00     0.039 A 
ATOM     38  C   UNL A   1      41.835  24.017  26.647  1.00  0.00     0.014 A 
ATOM     39  C   UNL A   1      43.643  25.190  25.709  1.00  0.00     0.014 A 
ATOM     40  C   UNL A   1      41.428  25.179  27.422  1.00  0.00     0.010 A 
ATOM     41  C   UNL A   1      43.247  26.337  26.511  1.00  0.00     0.010 A 
ATOM     42  C   UNL A   1      42.159  26.376  27.448  1.00  0.00    -0.014 A 
BRANCH  42  43
ATOM     43  C   UNL A   1      41.969  27.565  28.534  1.00  0.00     0.031 A 
ATOM     44  C   UNL A   1      42.580  27.438  29.961  1.00  0.00     0.074 A 
ATOM     45  C   UNL A   1      40.978  28.522  28.479  1.00  0.00     0.049 A 
ATOM     46  N   UNL A   1      42.210  28.005  31.096  1.00  0.00    -0.248 NA
ATOM     47  C   UNL A   1      43.666  26.469  30.132  1.00  0.00     0.031 C 
ATOM     48  C   UNL A   1      40.171  28.899  27.321  1.00  0.00     0.029 A 
ATOM     49  N   UNL A   1      40.361  29.262  29.513  1.00  0.00    -0.354 N 
ATOM     50  C   UNL A   1      42.945  27.394  32.112  1.00  0.00     0.074 A 
ATOM     51  C   UNL A   1      43.715  26.354  31.453  1.00  0.00     0.031 C 
ATOM     52  C   UNL A   1      39.130  29.664  27.707  1.00  0.00     0.029 A 
ATOM     53  C   UNL A   1      39.148  29.848  29.157  1.00  0.00     0.049 A 
ATOM     54  H   UNL A   1      40.755  29.354  30.410  1.00  0.00     0.167 HD
ATOM     55  C   UNL A   1      43.044  27.671  33.446  1.00  0.00     0.037 A 
ATOM     56  C   UNL A   1      38.131  30.429  29.855  1.00  0.00     0.037 A 
ATOM     57  C   UNL A   1      42.345  28.718  34.158  1.00  0.00     0.049 A 
ATOM     58  C   UNL A   1      38.240  30.750  31.334  1.00  0.00     0.074 A 
ATOM     59  C   UNL A   1      42.639  29.267  35.401  1.00  0.00     0.029 A 
ATOM     60  N   UNL A   1      41.178  29.325  33.735  1.00  0.00    -0.354 N 
ATOM     61  N   UNL A   1      39.143  30.383  32.198  1.00  0.00    -0.248 NA
ATOM     62  C   UNL A   1      37.213  31.648  31.913  1.00  0.00     0.031 C 
ATOM     63  C   UNL A   1      41.639  30.189  35.739  1.00  0.00     0.029 A 
ATOM     64  C   UNL A   1      40.759  30.262  34.676  1.00  0.00     0.049 A 
ATOM     65  H   UNL A   1      40.711  29.124  32.891  1.00  0.00     0.167 HD
ATOM     66  C   UNL A   1      38.865  31.080  33.373  1.00  0.00     0.074 A 
ATOM     67  C   UNL A   1      37.670  31.850  33.141  1.00  0.00     0.031 C 
ATOM     68  C   UNL A   1      39.601  31.102  34.509  1.00  0.00     0.037 A 
BRANCH  55  69
ATOM     69  C   UNL A   1      44.068  26.896  34.249  1.00  0.00     0.064 A 
ATOM     70  C   UNL A   1      45.392  27.358  34.355  1.00  0.00     0.173 A 
ATOM     71  C   UNL A   1      43.724  25.755  34.994  1.00  0.00     0.173 A 
ATOM     72  F   UNL A   1      45.774  28.471  33.710  1.00  0.00    -0.203 F 
ATOM     73  C   UNL A   1      46.347  26.663  35.089  1.00  0.00     0.198 A 
ATOM     74  C   UNL A   1      44.672  25.093  35.778  1.00  0.00     0.198 A 
ATOM     75  F   UNL A   1      42.466  25.289  34.990  1.00  0.00    -0.203 F 
ATOM     76  F   UNL A   1      47.619  27.084  35.090  1.00  0.00    -0.200 F 
ATOM     77  C   UNL A   1      45.986  25.535  35.805  1.00  0.00     0.200 A 
ATOM     78  F   UNL A   1      44.314  24.028  36.509  1.00  0.00    -0.200 F 
ATOM     79  F   UNL A   1      46.906  24.875  36.522  1.00  0.00    -0.200 F 
ENDBRANCH  55  69
BRANCH  56  80
ATOM     80  C   UNL A   1      36.843  30.841  29.192  1.00  0.00     0.064 A 
ATOM     81  C   UNL A   1      35.902  29.879  28.797  1.00  0.00     0.173 A 
ATOM     82  C   UNL A   1      36.612  32.160  28.764  1.00  0.00     0.173 A 
ATOM     83  F   UNL A   1      36.117  28.587  29.079  1.00  0.00    -0.203 F 
ATOM     84  C   UNL A   1      34.797  30.220  28.011  1.00  0.00     0.198 A 
ATOM     85  C   UNL A   1      35.489  32.508  28.011  1.00  0.00     0.198 A 
ATOM     86  F   UNL A   1      37.508  33.123  29.001  1.00  0.00    -0.203 F 
ATOM     87  F   UNL A   1      33.964  29.263  27.580  1.00  0.00    -0.200 F 
ATOM     88  C   UNL A   1      34.585  31.535  27.626  1.00  0.00     0.200 A 
ATOM     89  F   UNL A   1      35.314  33.778  27.621  1.00  0.00    -0.200 F 
ATOM     90  F   UNL A   1      33.537  31.858  26.856  1.00  0.00    -0.200 F 
ENDBRANCH  56  80
BRANCH  68  91
ATOM     91  C   UNL A   1      39.274  32.124  35.570  1.00  0.00     0.064 A 
ATOM     92  C   UNL A   1      38.408  31.875  36.645  1.00  0.00     0.173 A 
ATOM     93  C   UNL A   1      39.877  33.395  35.511  1.00  0.00     0.173 A 
ATOM     94  F   UNL A   1      37.780  30.696  36.748  1.00  0.00    -0.203 F 
ATOM     95  C   UNL A   1      38.150  32.857  37.608  1.00  0.00     0.198 A 
ATOM     96  C   UNL A   1      39.641  34.361  36.489  1.00  0.00     0.198 A 
ATOM     97  F   UNL A   1      40.707  33.703  34.504  1.00  0.00    -0.203 F 
ATOM     98  F   UNL A   1      37.287  32.609  38.603  1.00  0.00    -0.200 F 
ATOM     99  C   UNL A   1      38.774  34.093  37.534  1.00  0.00     0.200 A 
ATOM    100  F   UNL A   1      40.252  35.552  36.415  1.00  0.00    -0.200 F 
ATOM    101  F   UNL A   1      38.532  35.029  38.463  1.00  0.00    -0.200 F 
ENDBRANCH  68  91
ENDBRANCH  42  43
ENDBRANCH  34  37
ENDBRANCH  32  33
ENDBRANCH  31  32
ENDBRANCH   1  31
TORSDOF 13
ENDMDL
MODEL 3
REMARK VINA RESULT:     -14.4      4.497     10.413
REMARK SMILES C[C@@H](CCC(=O)NCCCNC(=O)c1ccc(-c2c3nc(c(-c4c(F)c(F)c(F)c(F)c4F)c4ccc([nH]4)c(-c4c(F)c(F)c(F)c(F)c4F)c4nc(c(-c5c(F)c(F)c(F)c(F)c5F)c5ccc2[nH]5)C=C4)C=C3)cc1)[C@@H]1CC[C@H]2[C@@H]3CC[C@H]4CC(=O)CC[C@@]4(C)[C@H]3CC(=O)[C@@]21C
REMARK SMILES IDX 8 1 7 2 5 3 6 4 4 6 3 7 2 8 1 9 77 10 78 11 96 12 79 13
REMARK SMILES IDX 80 14 94 15 97 16 81 17 93 18 95 19 82 20 92 21 83 22 90 23
REMARK SMILES IDX 84 24 89 25 91 26 85 27 88 28 86 29 87 30 9 31 10 32 11 33
REMARK SMILES IDX 12 34 13 36 14 37 15 38 76 39 16 40 75 41 17 42 18 43 19 44
REMARK SMILES IDX 69 45 20 46 74 47 68 48 70 49 21 50 73 51 67 52 66 53 22 55
REMARK SMILES IDX 54 56 34 57 53 58 35 59 38 60 52 61 71 62 36 63 37 64 51 66
REMARK SMILES IDX 72 67 39 68 23 69 24 70 32 71 25 72 26 73 30 74 33 75 27 76
REMARK SMILES IDX 28 77 31 78 29 79 55 80 56 81 64 82 57 83 58 84 62 85 65 86
REMARK SMILES IDX 59 87 60 88 63 89 61 90 40 91 41 92 49 93 42 94 43 95 47 96
REMARK SMILES IDX 50 97 44 98 45 99 48 100 46 101
REMARK H PARENT 7 5 11 35 70 54 38 65
REMARK Flexibility Score: inf
ROOT
ATOM      1  C   UNL A   1      32.941  33.830  28.001  1.00  0.00     0.117 C 
ENDROOT
BRANCH   1   2
ATOM      2  N   UNL A   1      33.706  32.585  28.020  1.00  0.00    -0.356 N 
ATOM      3  C   UNL A   1      33.478  31.376  27.400  1.00  0.00     0.220 C 
ATOM      4  O   UNL A   1      34.451  30.627  27.250  1.00  0.00    -0.275 OA
ATOM      5  H   UNL A   1      34.522  32.614  28.569  1.00  0.00     0.163 HD
BRANCH   3   6
ATOM      6  C   UNL A   1      32.093  30.900  26.972  1.00  0.00     0.100 C 
BRANCH   6   7
ATOM      7  C   UNL A   1      31.990  29.393  26.644  1.00  0.00     0.013 C 
BRANCH   7   8
ATOM      8  C   UNL A   1      31.714  29.003  25.169  1.00  0.00    -0.010 C 
ATOM      9  C   UNL A   1      30.848  30.075  24.489  1.00  0.00     0.008 C 
BRANCH   8  10
ATOM     10  C   UNL A   1      31.117  27.597  25.014  1.00  0.00     0.005 C 
ATOM     11  C   UNL A   1      30.639  27.000  26.374  1.00  0.00     0.005 C 
ATOM     12  C   UNL A   1      31.987  26.467  24.365  1.00  0.00     0.032 C 
ATOM     13  C   UNL A   1      30.783  25.509  26.240  1.00  0.00     0.005 C 
ATOM     14  C   UNL A   1      32.120  25.482  25.542  1.00  0.00     0.006 C 
ATOM     15  C   UNL A   1      33.433  26.630  23.908  1.00  0.00     0.139 C 
ATOM     16  C   UNL A   1      31.279  25.939  23.108  1.00  0.00     0.020 C 
ATOM     17  C   UNL A   1      32.624  24.103  25.201  1.00  0.00    -0.003 C 
ATOM     18  C   UNL A   1      34.028  25.342  23.341  1.00  0.00     0.080 C 
ATOM     19  O   UNL A   1      34.086  27.653  23.989  1.00  0.00    -0.299 OA
ATOM     20  C   UNL A   1      32.899  23.333  26.506  1.00  0.00     0.004 C 
ATOM     21  C   UNL A   1      33.925  24.212  24.389  1.00  0.00     0.006 C 
ATOM     22  C   UNL A   1      33.851  22.146  26.422  1.00  0.00     0.005 C 
ATOM     23  C   UNL A   1      34.362  22.786  23.952  1.00  0.00    -0.025 C 
ATOM     24  C   UNL A   1      34.896  22.143  25.264  1.00  0.00     0.002 C 
ATOM     25  C   UNL A   1      33.251  21.866  23.367  1.00  0.00     0.015 C 
ATOM     26  C   UNL A   1      35.448  22.924  22.864  1.00  0.00     0.012 C 
ATOM     27  C   UNL A   1      35.394  20.727  25.001  1.00  0.00     0.079 C 
ATOM     28  C   UNL A   1      33.017  20.525  24.092  1.00  0.00     0.076 C 
ATOM     29  C   UNL A   1      34.223  19.855  24.706  1.00  0.00     0.133 C 
ATOM     30  O   UNL A   1      34.229  18.663  25.004  1.00  0.00    -0.300 OA
ENDBRANCH   8  10
ENDBRANCH   7   8
ENDBRANCH   6   7
ENDBRANCH   3   6
ENDBRANCH   1   2
BRANCH   1  31
ATOM     31  C   UNL A   1      33.427  35.102  28.804  1.00  0.00     0.042 C 
BRANCH  31  32
ATOM     32  C   UNL A   1      33.428  35.136  30.360  1.00  0.00     0.118 C 
BRANCH  32  33
ATOM     33  N   UNL A   1      34.549  34.448  31.141  1.00  0.00    -0.352 N 
ATOM     34  C   UNL A   1      34.547  33.224  31.830  1.00  0.00     0.251 C 
ATOM     35  H   UNL A   1      35.402  34.940  31.166  1.00  0.00     0.163 HD
ATOM     36  O   UNL A   1      33.658  32.990  32.646  1.00  0.00    -0.269 OA
BRANCH  34  37
ATOM     37  C   UNL A   1      35.694  32.174  31.661  1.00  0.00     0.039 A 
ATOM     38  C   UNL A   1      35.954  31.600  30.390  1.00  0.00     0.014 A 
ATOM     39  C   UNL A   1      36.608  31.795  32.639  1.00  0.00     0.014 A 
ATOM     40  C   UNL A   1      37.097  30.755  30.087  1.00  0.00     0.010 A 
ATOM     41  C   UNL A   1      37.766  30.975  32.319  1.00  0.00     0.010 A 
ATOM     42  C   UNL A   1      38.102  30.461  31.021  1.00  0.00    -0.014 A 
BRANCH  42  43
ATOM     43  C   UNL A   1      39.555  29.833  30.666  1.00  0.00     0.031 A 
ATOM     44  C   UNL A   1      40.739  30.760  30.260  1.00  0.00     0.074 A 
ATOM     45  C   UNL A   1      39.769  28.524  30.291  1.00  0.00     0.049 A 
ATOM     46  N   UNL A   1      41.809  30.497  29.530  1.00  0.00    -0.248 NA
ATOM     47  C   UNL A   1      40.633  32.172  30.636  1.00  0.00     0.031 C 
ATOM     48  C   UNL A   1      38.873  27.386  30.484  1.00  0.00     0.029 A 
ATOM     49  N   UNL A   1      40.788  27.955  29.494  1.00  0.00    -0.354 N 
ATOM     50  C   UNL A   1      42.439  31.717  29.283  1.00  0.00     0.074 A 
ATOM     51  C   UNL A   1      41.572  32.721  29.876  1.00  0.00     0.031 C 
ATOM     52  C   UNL A   1      39.291  26.333  29.752  1.00  0.00     0.029 A 
ATOM     53  C   UNL A   1      40.492  26.687  28.998  1.00  0.00     0.049 A 
ATOM     54  H   UNL A   1      41.637  28.417  29.305  1.00  0.00     0.167 HD
ATOM     55  C   UNL A   1      43.634  32.012  28.688  1.00  0.00     0.037 A 
ATOM     56  C   UNL A   1      41.044  25.887  28.042  1.00  0.00     0.037 A 
ATOM     57  C   UNL A   1      44.565  31.063  28.122  1.00  0.00     0.049 A 
ATOM     58  C   UNL A   1      42.375  26.203  27.386  1.00  0.00     0.074 A 
ATOM     59  C   UNL A   1      45.910  31.244  27.816  1.00  0.00     0.029 A 
ATOM     60  N   UNL A   1      44.245  29.785  27.705  1.00  0.00    -0.354 N 
ATOM     61  N   UNL A   1      43.086  27.294  27.437  1.00  0.00    -0.248 NA
ATOM     62  C   UNL A   1      43.019  25.125  26.600  1.00  0.00     0.031 C 
ATOM     63  C   UNL A   1      46.396  30.085  27.197  1.00  0.00     0.029 A 
ATOM     64  C   UNL A   1      45.371  29.158  27.177  1.00  0.00     0.049 A 
ATOM     65  H   UNL A   1      43.351  29.377  27.772  1.00  0.00     0.167 HD
ATOM     66  C   UNL A   1      44.290  27.004  26.797  1.00  0.00     0.074 A 
ATOM     67  C   UNL A   1      44.200  25.653  26.307  1.00  0.00     0.031 C 
ATOM     68  C   UNL A   1      45.382  27.799  26.701  1.00  0.00     0.037 A 
BRANCH  55  69
ATOM     69  C   UNL A   1      44.097  33.453  28.723  1.00  0.00     0.064 A 
ATOM     70  C   UNL A   1      44.762  33.964  29.852  1.00  0.00     0.173 A 
ATOM     71  C   UNL A   1      43.974  34.304  27.611  1.00  0.00     0.173 A 
ATOM     72  F   UNL A   1      44.958  33.188  30.930  1.00  0.00    -0.203 F 
ATOM     73  C   UNL A   1      45.198  35.283  29.903  1.00  0.00     0.198 A 
ATOM     74  C   UNL A   1      44.467  35.610  27.645  1.00  0.00     0.198 A 
ATOM     75  F   UNL A   1      43.405  33.869  26.476  1.00  0.00    -0.203 F 
ATOM     76  F   UNL A   1      45.745  35.758  31.031  1.00  0.00    -0.200 F 
ATOM     77  C   UNL A   1      45.056  36.104  28.798  1.00  0.00     0.200 A 
ATOM     78  F   UNL A   1      44.372  36.393  26.560  1.00  0.00    -0.200 F 
ATOM     79  F   UNL A   1      45.490  37.371  28.846  1.00  0.00    -0.200 F 
ENDBRANCH  55  69
BRANCH  56  80
ATOM     80  C   UNL A   1      40.391  24.601  27.606  1.00  0.00     0.064 A 
ATOM     81  C   UNL A   1      40.917  23.363  28.002  1.00  0.00     0.173 A 
ATOM     82  C   UNL A   1      39.367  24.571  26.643  1.00  0.00     0.173 A 
ATOM     83  F   UNL A   1      41.966  23.324  28.836  1.00  0.00    -0.203 F 
ATOM     84  C   UNL A   1      40.448  22.163  27.456  1.00  0.00     0.198 A 
ATOM     85  C   UNL A   1      38.873  23.373  26.126  1.00  0.00     0.198 A 
ATOM     86  F   UNL A   1      38.880  25.704  26.128  1.00  0.00    -0.203 F 
ATOM     87  F   UNL A   1      41.031  21.005  27.793  1.00  0.00    -0.200 F 
ATOM     88  C   UNL A   1      39.420  22.167  26.526  1.00  0.00     0.200 A 
ATOM     89  F   UNL A   1      37.900  23.394  25.204  1.00  0.00    -0.200 F 
ATOM     90  F   UNL A   1      38.985  21.020  25.988  1.00  0.00    -0.200 F 
ENDBRANCH  56  80
BRANCH  68  91
ATOM     91  C   UNL A   1      46.676  27.204  26.201  1.00  0.00     0.064 A 
ATOM     92  C   UNL A   1      47.092  27.267  24.864  1.00  0.00     0.173 A 
ATOM     93  C   UNL A   1      47.538  26.568  27.114  1.00  0.00     0.173 A 
ATOM     94  F   UNL A   1      46.308  27.835  23.937  1.00  0.00    -0.203 F 
ATOM     95  C   UNL A   1      48.309  26.708  24.458  1.00  0.00     0.198 A 
ATOM     96  C   UNL A   1      48.764  26.038  26.713  1.00  0.00     0.198 A 
ATOM     97  F   UNL A   1      47.196  26.463  28.407  1.00  0.00    -0.203 F 
ATOM     98  F   UNL A   1      48.666  26.745  23.167  1.00  0.00    -0.200 F 
ATOM     99  C   UNL A   1      49.147  26.104  25.384  1.00  0.00     0.200 A 
ATOM    100  F   UNL A   1      49.572  25.461  27.613  1.00  0.00    -0.200 F 
ATOM    101  F   UNL A   1      50.317  25.578  24.995  1.00  0.00    -0.200 F 
ENDBRANCH  68  91
ENDBRANCH  42  43
ENDBRANCH  34  37
ENDBRANCH  32  33
ENDBRANCH  31  32
ENDBRANCH   1  31
TORSDOF 13
ENDMDL
