MODEL 1
REMARK VINA RESULT:     -13.0      0.000      0.000
REMARK SMILES C[C@H](NC(=O)[C@@H]1CCCN(S(=O)(=O)c2ccc(Cl)cc2)C1)C(=O)NCCCNC(=O)c1ccc(-c2c3nc(c(-c4c(F)c(F)c(F)c(F)c4F)c4ccc([nH]4)c(-c4c(F)c(F)c(F)c(F)c4F)c4nc(c(-c5c(F)c(F)c(F)c(F)c5F)c5ccc2[nH]5)C=C4)C=C3)cc1
REMARK SMILES IDX 25 1 24 2 22 3 23 4 2 6 1 7 3 8 4 9 5 11 6 12 7 13 21 14
REMARK SMILES IDX 8 15 10 16 9 17 11 18 12 19 13 20 14 21 15 22 20 23 16 24
REMARK SMILES IDX 19 25 17 26 18 27 26 28 27 29 28 30 29 31 30 33 31 34 32 35
REMARK SMILES IDX 93 36 33 37 92 38 34 39 35 40 36 41 86 42 37 43 91 44 85 45
REMARK SMILES IDX 87 46 38 47 90 48 84 49 83 50 39 52 71 53 51 54 70 55 52 56
REMARK SMILES IDX 55 57 69 58 88 59 53 60 54 61 68 63 89 64 56 65 40 66 41 67
REMARK SMILES IDX 49 68 42 69 43 70 47 71 50 72 44 73 45 74 48 75 46 76 72 77
REMARK SMILES IDX 73 78 81 79 74 80 75 81 79 82 82 83 76 84 77 85 80 86 78 87
REMARK SMILES IDX 57 88 58 89 66 90 59 91 60 92 64 93 67 94 61 95 62 96 65 97
REMARK SMILES IDX 63 98
REMARK H PARENT 24 5 3 10 28 32 87 51 55 62
REMARK Flexibility Score: inf
ROOT
ATOM      1  C   UNL A   1      31.855  30.795  26.167  1.00  0.00     0.117 C 
ENDROOT
BRANCH   1   2
ATOM      2  N   UNL A   1      31.647  29.658  27.045  1.00  0.00    -0.354 N 
ATOM      3  C   UNL A   1      32.480  28.648  27.406  1.00  0.00     0.242 C 
ATOM      4  O   UNL A   1      32.050  27.808  28.198  1.00  0.00    -0.273 OA
ATOM      5  H   UNL A   1      30.749  29.609  27.445  1.00  0.00     0.163 HD
BRANCH   3   6
ATOM      6  C   UNL A   1      33.936  28.614  26.934  1.00  0.00     0.168 C 
ATOM      7  C   UNL A   1      34.779  29.616  27.730  1.00  0.00     0.041 C 
BRANCH   6   8
ATOM      8  N   UNL A   1      34.081  28.817  25.495  1.00  0.00    -0.344 N 
ATOM      9  C   UNL A   1      34.054  27.851  24.525  1.00  0.00     0.225 C 
ATOM     10  H   UNL A   1      34.212  29.744  25.191  1.00  0.00     0.164 HD
ATOM     11  O   UNL A   1      34.357  28.166  23.376  1.00  0.00    -0.275 OA
BRANCH   9  12
ATOM     12  C   UNL A   1      33.628  26.440  24.924  1.00  0.00     0.094 C 
ATOM     13  C   UNL A   1      34.257  25.366  24.046  1.00  0.00     0.016 C 
ATOM     14  C   UNL A   1      32.105  26.368  25.027  1.00  0.00     0.116 C 
ATOM     15  C   UNL A   1      33.502  25.161  22.748  1.00  0.00     0.018 C 
ATOM     16  N   UNL A   1      31.435  26.131  23.710  1.00  0.00    -0.197 NA
ATOM     17  C   UNL A   1      32.018  24.959  23.001  1.00  0.00     0.102 C 
BRANCH  16  18
ATOM     18  S   UNL A   1      29.718  26.086  23.898  1.00  0.00     0.243 S 
ATOM     19  O   UNL A   1      29.213  25.050  23.021  1.00  0.00    -0.207 OA
ATOM     20  O   UNL A   1      29.434  26.056  25.319  1.00  0.00    -0.207 OA
BRANCH  18  21
ATOM     21  C   UNL A   1      29.165  27.652  23.267  1.00  0.00     0.082 A 
ATOM     22  C   UNL A   1      30.083  28.499  22.633  1.00  0.00     0.023 A 
ATOM     23  C   UNL A   1      27.816  28.009  23.353  1.00  0.00     0.023 A 
ATOM     24  C   UNL A   1      29.674  29.755  22.189  1.00  0.00     0.022 A 
ATOM     25  C   UNL A   1      27.402  29.251  22.867  1.00  0.00     0.022 A 
ATOM     26  C   UNL A   1      28.336  30.128  22.310  1.00  0.00     0.041 A 
ATOM     27  Cl  UNL A   1      27.836  31.682  21.768  1.00  0.00    -0.084 Cl
ENDBRANCH  18  21
ENDBRANCH  16  18
ENDBRANCH   9  12
ENDBRANCH   6   8
ENDBRANCH   3   6
ENDBRANCH   1   2
BRANCH   1  28
ATOM     28  C   UNL A   1      31.494  32.096  26.863  1.00  0.00     0.042 C 
BRANCH  28  29
ATOM     29  C   UNL A   1      32.698  32.838  27.427  1.00  0.00     0.118 C 
BRANCH  29  30
ATOM     30  N   UNL A   1      32.433  34.251  27.668  1.00  0.00    -0.352 N 
ATOM     31  C   UNL A   1      32.994  35.092  28.598  1.00  0.00     0.251 C 
ATOM     32  H   UNL A   1      31.756  34.660  27.082  1.00  0.00     0.163 HD
ATOM     33  O   UNL A   1      32.525  36.208  28.788  1.00  0.00    -0.269 OA
BRANCH  31  34
ATOM     34  C   UNL A   1      34.148  34.621  29.385  1.00  0.00     0.039 A 
ATOM     35  C   UNL A   1      33.930  34.081  30.652  1.00  0.00     0.014 A 
ATOM     36  C   UNL A   1      35.436  34.674  28.845  1.00  0.00     0.014 A 
ATOM     37  C   UNL A   1      34.999  33.520  31.349  1.00  0.00     0.010 A 
ATOM     38  C   UNL A   1      36.477  34.026  29.496  1.00  0.00     0.010 A 
ATOM     39  C   UNL A   1      36.271  33.446  30.756  1.00  0.00    -0.014 A 
BRANCH  39  40
ATOM     40  C   UNL A   1      37.401  32.765  31.435  1.00  0.00     0.031 A 
ATOM     41  C   UNL A   1      38.077  31.596  30.776  1.00  0.00     0.074 A 
ATOM     42  C   UNL A   1      37.766  33.157  32.671  1.00  0.00     0.049 A 
ATOM     43  N   UNL A   1      39.032  30.827  31.234  1.00  0.00    -0.248 NA
ATOM     44  C   UNL A   1      37.597  31.221  29.437  1.00  0.00     0.031 C 
ATOM     45  C   UNL A   1      37.146  34.242  33.434  1.00  0.00     0.029 A 
ATOM     46  N   UNL A   1      38.742  32.679  33.509  1.00  0.00    -0.354 N 
ATOM     47  C   UNL A   1      39.252  29.874  30.249  1.00  0.00     0.074 A 
ATOM     48  C   UNL A   1      38.292  30.120  29.197  1.00  0.00     0.031 C 
ATOM     49  C   UNL A   1      37.775  34.366  34.612  1.00  0.00     0.029 A 
ATOM     50  C   UNL A   1      38.810  33.341  34.710  1.00  0.00     0.049 A 
ATOM     51  H   UNL A   1      39.337  31.931  33.272  1.00  0.00     0.167 HD
ATOM     52  C   UNL A   1      40.192  28.900  30.213  1.00  0.00     0.037 A 
ATOM     53  C   UNL A   1      39.611  33.138  35.773  1.00  0.00     0.037 A 
ATOM     54  C   UNL A   1      41.157  28.674  31.257  1.00  0.00     0.049 A 
ATOM     55  C   UNL A   1      40.635  32.038  35.713  1.00  0.00     0.074 A 
ATOM     56  C   UNL A   1      42.188  27.753  31.293  1.00  0.00     0.029 A 
ATOM     57  N   UNL A   1      41.204  29.375  32.453  1.00  0.00    -0.354 N 
ATOM     58  N   UNL A   1      40.888  31.192  34.745  1.00  0.00    -0.248 NA
ATOM     59  C   UNL A   1      41.493  31.869  36.894  1.00  0.00     0.031 C 
ATOM     60  C   UNL A   1      42.823  27.857  32.534  1.00  0.00     0.029 A 
ATOM     61  C   UNL A   1      42.231  28.888  33.246  1.00  0.00     0.049 A 
ATOM     62  H   UNL A   1      40.599  30.111  32.701  1.00  0.00     0.167 HD
ATOM     63  C   UNL A   1      41.952  30.414  35.183  1.00  0.00     0.074 A 
ATOM     64  C   UNL A   1      42.306  30.899  36.500  1.00  0.00     0.031 C 
ATOM     65  C   UNL A   1      42.577  29.390  34.552  1.00  0.00     0.037 A 
BRANCH  52  66
ATOM     66  C   UNL A   1      40.220  28.005  29.007  1.00  0.00     0.064 A 
ATOM     67  C   UNL A   1      40.951  28.341  27.856  1.00  0.00     0.173 A 
ATOM     68  C   UNL A   1      39.539  26.778  29.014  1.00  0.00     0.173 A 
ATOM     69  F   UNL A   1      41.611  29.507  27.791  1.00  0.00    -0.203 F 
ATOM     70  C   UNL A   1      40.970  27.499  26.747  1.00  0.00     0.198 A 
ATOM     71  C   UNL A   1      39.590  25.922  27.917  1.00  0.00     0.198 A 
ATOM     72  F   UNL A   1      38.830  26.404  30.089  1.00  0.00    -0.203 F 
ATOM     73  F   UNL A   1      41.629  27.868  25.639  1.00  0.00    -0.200 F 
ATOM     74  C   UNL A   1      40.297  26.287  26.782  1.00  0.00     0.200 A 
ATOM     75  F   UNL A   1      38.952  24.745  27.957  1.00  0.00    -0.200 F 
ATOM     76  F   UNL A   1      40.325  25.473  25.717  1.00  0.00    -0.200 F 
ENDBRANCH  52  66
BRANCH  53  77
ATOM     77  C   UNL A   1      39.490  34.007  36.974  1.00  0.00     0.064 A 
ATOM     78  C   UNL A   1      40.137  35.249  37.032  1.00  0.00     0.173 A 
ATOM     79  C   UNL A   1      38.734  33.613  38.088  1.00  0.00     0.173 A 
ATOM     80  F   UNL A   1      40.886  35.663  36.000  1.00  0.00    -0.203 F 
ATOM     81  C   UNL A   1      40.056  36.052  38.168  1.00  0.00     0.198 A 
ATOM     82  C   UNL A   1      38.627  34.432  39.211  1.00  0.00     0.198 A 
ATOM     83  F   UNL A   1      38.089  32.438  38.082  1.00  0.00    -0.203 F 
ATOM     84  F   UNL A   1      40.727  37.211  38.216  1.00  0.00    -0.200 F 
ATOM     85  C   UNL A   1      39.296  35.646  39.255  1.00  0.00     0.200 A 
ATOM     86  F   UNL A   1      37.876  34.043  40.251  1.00  0.00    -0.200 F 
ATOM     87  F   UNL A   1      39.214  36.420  40.345  1.00  0.00    -0.200 F 
ENDBRANCH  53  77
BRANCH  65  88
ATOM     88  C   UNL A   1      43.741  28.754  35.257  1.00  0.00     0.064 A 
ATOM     89  C   UNL A   1      43.571  27.686  36.150  1.00  0.00     0.173 A 
ATOM     90  C   UNL A   1      45.049  29.194  35.001  1.00  0.00     0.173 A 
ATOM     91  F   UNL A   1      42.340  27.236  36.441  1.00  0.00    -0.203 F 
ATOM     92  C   UNL A   1      44.665  27.102  36.784  1.00  0.00     0.198 A 
ATOM     93  C   UNL A   1      46.143  28.585  35.609  1.00  0.00     0.198 A 
ATOM     94  F   UNL A   1      45.268  30.206  34.149  1.00  0.00    -0.203 F 
ATOM     95  F   UNL A   1      44.475  26.120  37.675  1.00  0.00    -0.200 F 
ATOM     96  C   UNL A   1      45.950  27.546  36.507  1.00  0.00     0.200 A 
ATOM     97  F   UNL A   1      47.384  29.003  35.326  1.00  0.00    -0.200 F 
ATOM     98  F   UNL A   1      47.002  26.977  37.110  1.00  0.00    -0.200 F 
ENDBRANCH  65  88
ENDBRANCH  39  40
ENDBRANCH  31  34
ENDBRANCH  29  30
ENDBRANCH  28  29
ENDBRANCH   1  28
TORSDOF 14
ENDMDL
MODEL 2
REMARK VINA RESULT:     -12.9      0.549      7.343
REMARK SMILES C[C@H](NC(=O)[C@@H]1CCCN(S(=O)(=O)c2ccc(Cl)cc2)C1)C(=O)NCCCNC(=O)c1ccc(-c2c3nc(c(-c4c(F)c(F)c(F)c(F)c4F)c4ccc([nH]4)c(-c4c(F)c(F)c(F)c(F)c4F)c4nc(c(-c5c(F)c(F)c(F)c(F)c5F)c5ccc2[nH]5)C=C4)C=C3)cc1
REMARK SMILES IDX 25 1 24 2 22 3 23 4 2 6 1 7 3 8 4 9 5 11 6 12 7 13 21 14
REMARK SMILES IDX 8 15 10 16 9 17 11 18 12 19 13 20 14 21 15 22 20 23 16 24
REMARK SMILES IDX 19 25 17 26 18 27 26 28 27 29 28 30 29 31 30 33 31 34 32 35
REMARK SMILES IDX 93 36 33 37 92 38 34 39 35 40 36 41 86 42 37 43 91 44 85 45
REMARK SMILES IDX 87 46 38 47 90 48 84 49 83 50 39 52 71 53 51 54 70 55 52 56
REMARK SMILES IDX 55 57 69 58 88 59 53 60 54 61 68 63 89 64 56 65 40 66 41 67
REMARK SMILES IDX 49 68 42 69 43 70 47 71 50 72 44 73 45 74 48 75 46 76 72 77
REMARK SMILES IDX 73 78 81 79 74 80 75 81 79 82 82 83 76 84 77 85 80 86 78 87
REMARK SMILES IDX 57 88 58 89 66 90 59 91 60 92 64 93 67 94 61 95 62 96 65 97
REMARK SMILES IDX 63 98
REMARK H PARENT 24 5 3 10 28 32 87 51 55 62
REMARK Flexibility Score: inf
ROOT
ATOM      1  C   UNL A   1      31.742  30.851  26.091  1.00  0.00     0.117 C 
ENDROOT
BRANCH   1   2
ATOM      2  N   UNL A   1      31.528  29.727  26.983  1.00  0.00    -0.354 N 
ATOM      3  C   UNL A   1      32.362  28.729  27.373  1.00  0.00     0.242 C 
ATOM      4  O   UNL A   1      31.926  27.898  28.172  1.00  0.00    -0.273 OA
ATOM      5  H   UNL A   1      30.624  29.678  27.370  1.00  0.00     0.163 HD
BRANCH   3   6
ATOM      6  C   UNL A   1      33.825  28.697  26.923  1.00  0.00     0.168 C 
ATOM      7  C   UNL A   1      34.654  29.702  27.731  1.00  0.00     0.041 C 
BRANCH   6   8
ATOM      8  N   UNL A   1      33.992  28.898  25.486  1.00  0.00    -0.344 N 
ATOM      9  C   UNL A   1      34.035  27.927  24.523  1.00  0.00     0.225 C 
ATOM     10  H   UNL A   1      34.083  29.829  25.178  1.00  0.00     0.164 HD
ATOM     11  O   UNL A   1      34.348  28.250  23.379  1.00  0.00    -0.275 OA
BRANCH   9  12
ATOM     12  C   UNL A   1      33.672  26.498  24.923  1.00  0.00     0.094 C 
ATOM     13  C   UNL A   1      34.320  25.454  24.022  1.00  0.00     0.016 C 
ATOM     14  C   UNL A   1      32.156  26.368  25.061  1.00  0.00     0.116 C 
ATOM     15  C   UNL A   1      33.542  25.229  22.742  1.00  0.00     0.018 C 
ATOM     16  N   UNL A   1      31.464  26.114  23.760  1.00  0.00    -0.197 NA
ATOM     17  C   UNL A   1      32.073  24.969  23.029  1.00  0.00     0.102 C 
BRANCH  16  18
ATOM     18  S   UNL A   1      29.755  26.003  23.989  1.00  0.00     0.243 S 
ATOM     19  O   UNL A   1      29.245  25.072  23.004  1.00  0.00    -0.207 OA
ATOM     20  O   UNL A   1      29.515  25.790  25.402  1.00  0.00    -0.207 OA
BRANCH  18  21
ATOM     21  C   UNL A   1      29.149  27.622  23.574  1.00  0.00     0.082 A 
ATOM     22  C   UNL A   1      30.063  28.660  23.354  1.00  0.00     0.023 A 
ATOM     23  C   UNL A   1      27.778  27.840  23.414  1.00  0.00     0.023 A 
ATOM     24  C   UNL A   1      29.598  29.947  23.088  1.00  0.00     0.022 A 
ATOM     25  C   UNL A   1      27.319  29.123  23.105  1.00  0.00     0.022 A 
ATOM     26  C   UNL A   1      28.228  30.174  22.968  1.00  0.00     0.041 A 
ATOM     27  Cl  UNL A   1      27.657  31.765  22.647  1.00  0.00    -0.084 Cl
ENDBRANCH  18  21
ENDBRANCH  16  18
ENDBRANCH   9  12
ENDBRANCH   6   8
ENDBRANCH   3   6
ENDBRANCH   1   2
BRANCH   1  28
ATOM     28  C   UNL A   1      31.452  32.168  26.791  1.00  0.00     0.042 C 
BRANCH  28  29
ATOM     29  C   UNL A   1      32.704  32.887  27.276  1.00  0.00     0.118 C 
BRANCH  29  30
ATOM     30  N   UNL A   1      32.455  34.275  27.646  1.00  0.00    -0.352 N 
ATOM     31  C   UNL A   1      33.029  35.022  28.644  1.00  0.00     0.251 C 
ATOM     32  H   UNL A   1      31.779  34.742  27.104  1.00  0.00     0.163 HD
ATOM     33  O   UNL A   1      32.573  36.121  28.938  1.00  0.00    -0.269 OA
BRANCH  31  34
ATOM     34  C   UNL A   1      34.183  34.471  29.378  1.00  0.00     0.039 A 
ATOM     35  C   UNL A   1      33.963  33.788  30.574  1.00  0.00     0.014 A 
ATOM     36  C   UNL A   1      35.473  34.591  28.854  1.00  0.00     0.014 A 
ATOM     37  C   UNL A   1      35.033  33.156  31.207  1.00  0.00     0.010 A 
ATOM     38  C   UNL A   1      36.515  33.878  29.431  1.00  0.00     0.010 A 
ATOM     39  C   UNL A   1      36.307  33.158  30.615  1.00  0.00    -0.014 A 
BRANCH  39  40
ATOM     40  C   UNL A   1      37.438  32.410  31.217  1.00  0.00     0.031 A 
ATOM     41  C   UNL A   1      37.935  32.775  32.588  1.00  0.00     0.074 A 
ATOM     42  C   UNL A   1      38.058  31.453  30.499  1.00  0.00     0.049 A 
ATOM     43  N   UNL A   1      38.951  32.290  33.255  1.00  0.00    -0.248 NA
ATOM     44  C   UNL A   1      37.215  33.849  33.289  1.00  0.00     0.031 C 
ATOM     45  C   UNL A   1      37.701  31.050  29.138  1.00  0.00     0.029 A 
ATOM     46  N   UNL A   1      39.128  30.652  30.812  1.00  0.00    -0.354 N 
ATOM     47  C   UNL A   1      38.998  33.008  34.442  1.00  0.00     0.074 A 
ATOM     48  C   UNL A   1      37.951  34.004  34.379  1.00  0.00     0.031 C 
ATOM     49  C   UNL A   1      38.516  30.059  28.745  1.00  0.00     0.029 A 
ATOM     50  C   UNL A   1      39.482  29.788  29.804  1.00  0.00     0.049 A 
ATOM     51  H   UNL A   1      39.597  30.692  31.677  1.00  0.00     0.167 HD
ATOM     52  C   UNL A   1      39.822  32.833  35.503  1.00  0.00     0.037 A 
ATOM     53  C   UNL A   1      40.479  28.886  29.741  1.00  0.00     0.037 A 
ATOM     54  C   UNL A   1      40.849  31.827  35.565  1.00  0.00     0.049 A 
ATOM     55  C   UNL A   1      41.391  28.723  30.927  1.00  0.00     0.074 A 
ATOM     56  C   UNL A   1      41.699  31.527  36.615  1.00  0.00     0.029 A 
ATOM     57  N   UNL A   1      41.169  30.960  34.531  1.00  0.00    -0.354 N 
ATOM     58  N   UNL A   1      41.378  29.354  32.076  1.00  0.00    -0.248 NA
ATOM     59  C   UNL A   1      42.454  27.715  30.810  1.00  0.00     0.031 C 
ATOM     60  C   UNL A   1      42.571  30.518  36.195  1.00  0.00     0.029 A 
ATOM     61  C   UNL A   1      42.222  30.143  34.908  1.00  0.00     0.049 A 
ATOM     62  H   UNL A   1      40.714  30.930  33.658  1.00  0.00     0.167 HD
ATOM     63  C   UNL A   1      42.404  28.799  32.829  1.00  0.00     0.074 A 
ATOM     64  C   UNL A   1      43.010  27.770  32.012  1.00  0.00     0.031 C 
ATOM     65  C   UNL A   1      42.808  29.115  34.084  1.00  0.00     0.037 A 
BRANCH  52  66
ATOM     66  C   UNL A   1      39.646  33.750  36.679  1.00  0.00     0.064 A 
ATOM     67  C   UNL A   1      38.841  33.398  37.775  1.00  0.00     0.173 A 
ATOM     68  C   UNL A   1      40.318  34.981  36.730  1.00  0.00     0.173 A 
ATOM     69  F   UNL A   1      38.166  32.239  37.773  1.00  0.00    -0.203 F 
ATOM     70  C   UNL A   1      38.690  34.258  38.860  1.00  0.00     0.198 A 
ATOM     71  C   UNL A   1      40.193  35.822  37.833  1.00  0.00     0.198 A 
ATOM     72  F   UNL A   1      41.103  35.365  35.713  1.00  0.00    -0.203 F 
ATOM     73  F   UNL A   1      37.873  33.924  39.869  1.00  0.00    -0.200 F 
ATOM     74  C   UNL A   1      39.373  35.464  38.892  1.00  0.00     0.200 A 
ATOM     75  F   UNL A   1      40.865  36.980  37.869  1.00  0.00    -0.200 F 
ATOM     76  F   UNL A   1      39.235  36.286  39.943  1.00  0.00    -0.200 F 
ENDBRANCH  52  66
BRANCH  53  77
ATOM     77  C   UNL A   1      40.656  28.055  28.520  1.00  0.00     0.064 A 
ATOM     78  C   UNL A   1      40.043  26.799  28.409  1.00  0.00     0.173 A 
ATOM     79  C   UNL A   1      41.444  28.492  27.445  1.00  0.00     0.173 A 
ATOM     80  F   UNL A   1      39.294  26.328  29.417  1.00  0.00    -0.203 F 
ATOM     81  C   UNL A   1      40.233  26.001  27.283  1.00  0.00     0.198 A 
ATOM     82  C   UNL A   1      41.606  27.707  26.305  1.00  0.00     0.198 A 
ATOM     83  F   UNL A   1      42.047  29.689  27.496  1.00  0.00    -0.203 F 
ATOM     84  F   UNL A   1      39.677  24.783  27.226  1.00  0.00    -0.200 F 
ATOM     85  C   UNL A   1      41.009  26.458  26.229  1.00  0.00     0.200 A 
ATOM     86  F   UNL A   1      42.343  28.161  25.281  1.00  0.00    -0.200 F 
ATOM     87  F   UNL A   1      41.187  25.693  25.144  1.00  0.00    -0.200 F 
ENDBRANCH  53  77
BRANCH  65  88
ATOM     88  C   UNL A   1      43.930  28.307  34.671  1.00  0.00     0.064 A 
ATOM     89  C   UNL A   1      45.267  28.720  34.576  1.00  0.00     0.173 A 
ATOM     90  C   UNL A   1      43.656  27.124  35.374  1.00  0.00     0.173 A 
ATOM     91  F   UNL A   1      45.584  29.836  33.902  1.00  0.00    -0.203 F 
ATOM     92  C   UNL A   1      46.292  27.962  35.138  1.00  0.00     0.198 A 
ATOM     93  C   UNL A   1      44.679  26.388  35.965  1.00  0.00     0.198 A 
ATOM     94  F   UNL A   1      42.394  26.688  35.502  1.00  0.00    -0.203 F 
ATOM     95  F   UNL A   1      47.566  28.347  34.988  1.00  0.00    -0.200 F 
ATOM     96  C   UNL A   1      45.996  26.802  35.839  1.00  0.00     0.200 A 
ATOM     97  F   UNL A   1      44.391  25.277  36.657  1.00  0.00    -0.200 F 
ATOM     98  F   UNL A   1      46.982  26.080  36.387  1.00  0.00    -0.200 F 
ENDBRANCH  65  88
ENDBRANCH  39  40
ENDBRANCH  31  34
ENDBRANCH  29  30
ENDBRANCH  28  29
ENDBRANCH   1  28
TORSDOF 14
ENDMDL
MODEL 3
REMARK VINA RESULT:     -12.9      2.370      3.452
REMARK SMILES C[C@H](NC(=O)[C@@H]1CCCN(S(=O)(=O)c2ccc(Cl)cc2)C1)C(=O)NCCCNC(=O)c1ccc(-c2c3nc(c(-c4c(F)c(F)c(F)c(F)c4F)c4ccc([nH]4)c(-c4c(F)c(F)c(F)c(F)c4F)c4nc(c(-c5c(F)c(F)c(F)c(F)c5F)c5ccc2[nH]5)C=C4)C=C3)cc1
REMARK SMILES IDX 25 1 24 2 22 3 23 4 2 6 1 7 3 8 4 9 5 11 6 12 7 13 21 14
REMARK SMILES IDX 8 15 10 16 9 17 11 18 12 19 13 20 14 21 15 22 20 23 16 24
REMARK SMILES IDX 19 25 17 26 18 27 26 28 27 29 28 30 29 31 30 33 31 34 32 35
REMARK SMILES IDX 93 36 33 37 92 38 34 39 35 40 36 41 86 42 37 43 91 44 85 45
REMARK SMILES IDX 87 46 38 47 90 48 84 49 83 50 39 52 71 53 51 54 70 55 52 56
REMARK SMILES IDX 55 57 69 58 88 59 53 60 54 61 68 63 89 64 56 65 40 66 41 67
REMARK SMILES IDX 49 68 42 69 43 70 47 71 50 72 44 73 45 74 48 75 46 76 72 77
REMARK SMILES IDX 73 78 81 79 74 80 75 81 79 82 82 83 76 84 77 85 80 86 78 87
REMARK SMILES IDX 57 88 58 89 66 90 59 91 60 92 64 93 67 94 61 95 62 96 65 97
REMARK SMILES IDX 63 98
REMARK H PARENT 24 5 3 10 28 32 87 51 55 62
REMARK Flexibility Score: inf
ROOT
ATOM      1  C   UNL A   1      31.974  30.677  26.227  1.00  0.00     0.117 C 
ENDROOT
BRANCH   1   2
ATOM      2  N   UNL A   1      31.523  29.588  27.074  1.00  0.00    -0.354 N 
ATOM      3  C   UNL A   1      32.104  28.398  27.378  1.00  0.00     0.242 C 
ATOM      4  O   UNL A   1      31.505  27.652  28.155  1.00  0.00    -0.273 OA
ATOM      5  H   UNL A   1      30.647  29.736  27.499  1.00  0.00     0.163 HD
BRANCH   3   6
ATOM      6  C   UNL A   1      33.500  28.043  26.861  1.00  0.00     0.168 C 
ATOM      7  C   UNL A   1      34.507  29.130  27.252  1.00  0.00     0.041 C 
BRANCH   6   8
ATOM      8  N   UNL A   1      33.534  27.774  25.426  1.00  0.00    -0.344 N 
ATOM      9  C   UNL A   1      33.913  26.606  24.821  1.00  0.00     0.225 C 
ATOM     10  H   UNL A   1      33.255  28.508  24.832  1.00  0.00     0.164 HD
ATOM     11  O   UNL A   1      34.044  26.595  23.599  1.00  0.00    -0.275 OA
BRANCH   9  12
ATOM     12  C   UNL A   1      34.132  25.376  25.700  1.00  0.00     0.094 C 
ATOM     13  C   UNL A   1      35.455  24.677  25.411  1.00  0.00     0.016 C 
ATOM     14  C   UNL A   1      32.904  24.469  25.637  1.00  0.00     0.116 C 
ATOM     15  C   UNL A   1      35.368  23.739  24.225  1.00  0.00     0.018 C 
ATOM     16  N   UNL A   1      32.909  23.550  24.457  1.00  0.00    -0.197 NA
ATOM     17  C   UNL A   1      34.186  22.793  24.356  1.00  0.00     0.102 C 
BRANCH  16  18
ATOM     18  S   UNL A   1      31.483  22.574  24.437  1.00  0.00     0.243 S 
ATOM     19  O   UNL A   1      30.900  22.633  25.761  1.00  0.00    -0.207 OA
ATOM     20  O   UNL A   1      30.710  22.952  23.270  1.00  0.00    -0.207 OA
BRANCH  18  21
ATOM     21  C   UNL A   1      32.084  20.922  24.179  1.00  0.00     0.082 A 
ATOM     22  C   UNL A   1      32.093  20.390  22.883  1.00  0.00     0.023 A 
ATOM     23  C   UNL A   1      32.592  20.183  25.251  1.00  0.00     0.023 A 
ATOM     24  C   UNL A   1      32.505  19.075  22.677  1.00  0.00     0.022 A 
ATOM     25  C   UNL A   1      33.044  18.879  25.032  1.00  0.00     0.022 A 
ATOM     26  C   UNL A   1      32.976  18.323  23.752  1.00  0.00     0.041 A 
ATOM     27  Cl  UNL A   1      33.475  16.697  23.496  1.00  0.00    -0.084 Cl
ENDBRANCH  18  21
ENDBRANCH  16  18
ENDBRANCH   9  12
ENDBRANCH   6   8
ENDBRANCH   3   6
ENDBRANCH   1   2
BRANCH   1  28
ATOM     28  C   UNL A   1      31.605  32.024  26.826  1.00  0.00     0.042 C 
BRANCH  28  29
ATOM     29  C   UNL A   1      32.802  32.795  27.369  1.00  0.00     0.118 C 
BRANCH  29  30
ATOM     30  N   UNL A   1      32.497  34.192  27.651  1.00  0.00    -0.352 N 
ATOM     31  C   UNL A   1      33.027  35.018  28.611  1.00  0.00     0.251 C 
ATOM     32  H   UNL A   1      31.813  34.600  27.073  1.00  0.00     0.163 HD
ATOM     33  O   UNL A   1      32.527  36.114  28.832  1.00  0.00    -0.269 OA
BRANCH  31  34
ATOM     34  C   UNL A   1      34.189  34.554  29.392  1.00  0.00     0.039 A 
ATOM     35  C   UNL A   1      33.978  33.990  30.650  1.00  0.00     0.014 A 
ATOM     36  C   UNL A   1      35.476  34.637  28.855  1.00  0.00     0.014 A 
ATOM     37  C   UNL A   1      35.056  33.436  31.339  1.00  0.00     0.010 A 
ATOM     38  C   UNL A   1      36.528  33.997  29.497  1.00  0.00     0.010 A 
ATOM     39  C   UNL A   1      36.329  33.393  30.747  1.00  0.00    -0.014 A 
BRANCH  39  40
ATOM     40  C   UNL A   1      37.470  32.721  31.416  1.00  0.00     0.031 A 
ATOM     41  C   UNL A   1      38.147  31.555  30.753  1.00  0.00     0.074 A 
ATOM     42  C   UNL A   1      37.845  33.117  32.648  1.00  0.00     0.049 A 
ATOM     43  N   UNL A   1      39.111  30.792  31.204  1.00  0.00    -0.248 NA
ATOM     44  C   UNL A   1      37.656  31.174  29.420  1.00  0.00     0.031 C 
ATOM     45  C   UNL A   1      37.225  34.200  33.415  1.00  0.00     0.029 A 
ATOM     46  N   UNL A   1      38.831  32.647  33.478  1.00  0.00    -0.354 N 
ATOM     47  C   UNL A   1      39.328  29.839  30.219  1.00  0.00     0.074 A 
ATOM     48  C   UNL A   1      38.356  30.076  29.175  1.00  0.00     0.031 C 
ATOM     49  C   UNL A   1      37.865  34.331  34.587  1.00  0.00     0.029 A 
ATOM     50  C   UNL A   1      38.906  33.313  34.677  1.00  0.00     0.049 A 
ATOM     51  H   UNL A   1      39.429  31.902  33.237  1.00  0.00     0.167 HD
ATOM     52  C   UNL A   1      40.273  28.870  30.176  1.00  0.00     0.037 A 
ATOM     53  C   UNL A   1      39.719  33.117  35.732  1.00  0.00     0.037 A 
ATOM     54  C   UNL A   1      41.249  28.653  31.211  1.00  0.00     0.049 A 
ATOM     55  C   UNL A   1      40.749  32.022  35.665  1.00  0.00     0.074 A 
ATOM     56  C   UNL A   1      42.287  27.737  31.240  1.00  0.00     0.029 A 
ATOM     57  N   UNL A   1      41.304  29.356  32.405  1.00  0.00    -0.354 N 
ATOM     58  N   UNL A   1      40.998  31.176  34.696  1.00  0.00    -0.248 NA
ATOM     59  C   UNL A   1      41.620  31.861  36.839  1.00  0.00     0.031 C 
ATOM     60  C   UNL A   1      42.933  27.848  32.474  1.00  0.00     0.029 A 
ATOM     61  C   UNL A   1      42.341  28.877  33.190  1.00  0.00     0.049 A 
ATOM     62  H   UNL A   1      40.696  30.089  32.658  1.00  0.00     0.167 HD
ATOM     63  C   UNL A   1      42.071  30.406  35.126  1.00  0.00     0.074 A 
ATOM     64  C   UNL A   1      42.435  30.896  36.438  1.00  0.00     0.031 C 
ATOM     65  C   UNL A   1      42.697  29.384  34.491  1.00  0.00     0.037 A 
BRANCH  52  66
ATOM     66  C   UNL A   1      40.295  27.972  28.972  1.00  0.00     0.064 A 
ATOM     67  C   UNL A   1      41.033  28.299  27.823  1.00  0.00     0.173 A 
ATOM     68  C   UNL A   1      39.600  26.753  28.978  1.00  0.00     0.173 A 
ATOM     69  F   UNL A   1      41.706  29.458  27.758  1.00  0.00    -0.203 F 
ATOM     70  C   UNL A   1      41.047  27.455  26.715  1.00  0.00     0.198 A 
ATOM     71  C   UNL A   1      39.646  25.895  27.883  1.00  0.00     0.198 A 
ATOM     72  F   UNL A   1      38.884  26.390  30.052  1.00  0.00    -0.203 F 
ATOM     73  F   UNL A   1      41.713  27.814  25.609  1.00  0.00    -0.200 F 
ATOM     74  C   UNL A   1      40.360  26.250  26.750  1.00  0.00     0.200 A 
ATOM     75  F   UNL A   1      38.994  24.725  27.924  1.00  0.00    -0.200 F 
ATOM     76  F   UNL A   1      40.383  25.434  25.686  1.00  0.00    -0.200 F 
ENDBRANCH  52  66
BRANCH  53  77
ATOM     77  C   UNL A   1      39.604  33.987  36.932  1.00  0.00     0.064 A 
ATOM     78  C   UNL A   1      38.836  33.593  38.037  1.00  0.00     0.173 A 
ATOM     79  C   UNL A   1      40.249  35.231  36.998  1.00  0.00     0.173 A 
ATOM     80  F   UNL A   1      38.185  32.421  38.016  1.00  0.00    -0.203 F 
ATOM     81  C   UNL A   1      38.697  34.420  39.150  1.00  0.00     0.198 A 
ATOM     82  C   UNL A   1      40.135  36.043  38.125  1.00  0.00     0.198 A 
ATOM     83  F   UNL A   1      41.001  35.653  35.972  1.00  0.00    -0.203 F 
ATOM     84  F   UNL A   1      37.915  34.040  40.170  1.00  0.00    -0.200 F 
ATOM     85  C   UNL A   1      39.351  35.642  39.196  1.00  0.00     0.200 A 
ATOM     86  F   UNL A   1      40.785  37.215  38.172  1.00  0.00    -0.200 F 
ATOM     87  F   UNL A   1      39.221  36.435  40.268  1.00  0.00    -0.200 F 
ENDBRANCH  53  77
BRANCH  65  88
ATOM     88  C   UNL A   1      43.871  28.757  35.186  1.00  0.00     0.064 A 
ATOM     89  C   UNL A   1      43.723  27.651  36.036  1.00  0.00     0.173 A 
ATOM     90  C   UNL A   1      45.168  29.246  34.964  1.00  0.00     0.173 A 
ATOM     91  F   UNL A   1      42.503  27.153  36.294  1.00  0.00    -0.203 F 
ATOM     92  C   UNL A   1      44.827  27.076  36.661  1.00  0.00     0.198 A 
ATOM     93  C   UNL A   1      46.272  28.647  35.562  1.00  0.00     0.198 A 
ATOM     94  F   UNL A   1      45.365  30.296  34.154  1.00  0.00    -0.203 F 
ATOM     95  F   UNL A   1      44.657  26.055  37.512  1.00  0.00    -0.200 F 
ATOM     96  C   UNL A   1      46.101  27.569  36.417  1.00  0.00     0.200 A 
ATOM     97  F   UNL A   1      47.503  29.112  35.311  1.00  0.00    -0.200 F 
ATOM     98  F   UNL A   1      47.162  27.009  37.012  1.00  0.00    -0.200 F 
ENDBRANCH  65  88
ENDBRANCH  39  40
ENDBRANCH  31  34
ENDBRANCH  29  30
ENDBRANCH  28  29
ENDBRANCH   1  28
TORSDOF 14
ENDMDL
