MODEL 1
REMARK VINA RESULT:     -14.4      0.000      0.000
REMARK SMILES Cc1ccccc1NC(=O)CSc1nc(C(=O)NCCCNC(=O)c2ccc(-c3c4nc(c(-c5c(F)c(F)c(F)c(F)c5F)c5ccc([nH]5)c(-c5c(F)c(F)c(F)c(F)c5F)c5nc(c(-c6c(F)c(F)c(F)c(F)c6F)c6ccc3[nH]6)C=C5)C=C4)cc2)c2ccccc2n1
REMARK SMILES IDX 19 1 18 2 16 3 17 4 15 6 13 7 14 8 94 9 93 10 88 11 92 12
REMARK SMILES IDX 89 13 91 14 90 15 12 16 11 17 9 18 8 19 10 21 7 22 1 23 2 24
REMARK SMILES IDX 3 25 4 26 6 27 5 28 20 29 21 30 22 31 23 32 24 34 25 35
REMARK SMILES IDX 26 36 87 37 27 38 86 39 28 40 29 41 30 42 80 43 31 44 85 45
REMARK SMILES IDX 79 46 81 47 32 48 84 49 78 50 77 51 33 53 65 54 45 55 64 56
REMARK SMILES IDX 46 57 49 58 63 59 82 60 47 61 48 62 62 64 83 65 50 66 34 67
REMARK SMILES IDX 35 68 43 69 36 70 37 71 41 72 44 73 38 74 39 75 42 76 40 77
REMARK SMILES IDX 66 78 67 79 75 80 68 81 69 82 73 83 76 84 70 85 71 86 74 87
REMARK SMILES IDX 72 88 51 89 52 90 60 91 53 92 54 93 58 94 61 95 55 96 56 97
REMARK SMILES IDX 59 98 57 99
REMARK H PARENT 18 5 8 20 22 33 81 52 49 63
REMARK Flexibility Score: inf
ROOT
ATOM      1  C   UNL A   1      36.541  20.797  25.020  1.00  0.00     0.118 C 
ENDROOT
BRANCH   1   2
ATOM      2  N   UNL A   1      35.841  21.233  26.218  1.00  0.00    -0.351 N 
ATOM      3  C   UNL A   1      34.481  21.412  26.422  1.00  0.00     0.270 C 
ATOM      4  O   UNL A   1      34.102  21.722  27.550  1.00  0.00    -0.267 OA
ATOM      5  H   UNL A   1      36.414  21.429  26.994  1.00  0.00     0.163 HD
BRANCH   3   6
ATOM      6  C   UNL A   1      33.499  21.340  25.284  1.00  0.00     0.140 A 
ATOM      7  C   UNL A   1      32.642  22.525  23.549  1.00  0.00     0.189 A 
ATOM      8  N   UNL A   1      33.287  22.545  24.709  1.00  0.00    -0.217 NA
ATOM      9  N   UNL A   1      32.330  21.418  22.864  1.00  0.00    -0.222 NA
ATOM     10  C   UNL A   1      32.538  20.242  23.460  1.00  0.00     0.076 A 
ATOM     11  C   UNL A   1      33.022  20.131  24.763  1.00  0.00     0.032 A 
ATOM     12  C   UNL A   1      32.309  19.074  22.742  1.00  0.00     0.029 A 
ATOM     13  C   UNL A   1      33.068  18.854  25.385  1.00  0.00     0.013 A 
ATOM     14  C   UNL A   1      32.495  17.809  23.306  1.00  0.00     0.002 A 
ATOM     15  C   UNL A   1      32.838  17.697  24.646  1.00  0.00     0.001 A 
BRANCH   7  16
ATOM     16  S   UNL A   1      32.217  24.069  22.809  1.00  0.00    -0.076 SA
BRANCH  16  17
ATOM     17  C   UNL A   1      33.682  25.036  23.289  1.00  0.00     0.178 C 
BRANCH  17  18
ATOM     18  C   UNL A   1      33.652  26.473  22.816  1.00  0.00     0.234 C 
ATOM     19  N   UNL A   1      33.364  27.554  23.592  1.00  0.00    -0.325 N 
ATOM     20  H   UNL A   1      33.353  28.389  23.070  1.00  0.00     0.169 HD
ATOM     21  O   UNL A   1      33.888  26.726  21.625  1.00  0.00    -0.274 OA
BRANCH  19  22
ATOM     22  C   UNL A   1      33.078  27.779  24.953  1.00  0.00     0.044 A 
ATOM     23  C   UNL A   1      30.618  27.026  24.594  1.00  0.00     0.046 C 
ATOM     24  C   UNL A   1      31.754  27.585  25.414  1.00  0.00    -0.027 A 
ATOM     25  C   UNL A   1      31.419  27.957  26.733  1.00  0.00     0.005 A 
ATOM     26  C   UNL A   1      32.375  28.462  27.606  1.00  0.00     0.000 A 
ATOM     27  C   UNL A   1      34.037  28.207  25.876  1.00  0.00     0.026 A 
ATOM     28  C   UNL A   1      33.691  28.561  27.183  1.00  0.00     0.002 A 
ENDBRANCH  19  22
ENDBRANCH  17  18
ENDBRANCH  16  17
ENDBRANCH   7  16
ENDBRANCH   3   6
ENDBRANCH   1   2
BRANCH   1  29
ATOM     29  C   UNL A   1      38.039  20.984  25.041  1.00  0.00     0.042 C 
BRANCH  29  30
ATOM     30  C   UNL A   1      38.484  22.167  25.881  1.00  0.00     0.118 C 
BRANCH  30  31
ATOM     31  N   UNL A   1      39.926  22.207  26.158  1.00  0.00    -0.352 N 
ATOM     32  C   UNL A   1      40.700  23.307  26.512  1.00  0.00     0.251 C 
ATOM     33  H   UNL A   1      40.404  21.350  26.085  1.00  0.00     0.163 HD
ATOM     34  O   UNL A   1      41.853  23.192  26.887  1.00  0.00    -0.269 OA
BRANCH  32  35
ATOM     35  C   UNL A   1      40.030  24.625  26.501  1.00  0.00     0.039 A 
ATOM     36  C   UNL A   1      40.765  25.703  26.003  1.00  0.00     0.014 A 
ATOM     37  C   UNL A   1      38.964  24.807  27.379  1.00  0.00     0.014 A 
ATOM     38  C   UNL A   1      40.632  26.935  26.630  1.00  0.00     0.010 A 
ATOM     39  C   UNL A   1      38.906  26.007  28.064  1.00  0.00     0.010 A 
ATOM     40  C   UNL A   1      39.818  27.029  27.757  1.00  0.00    -0.014 A 
BRANCH  40  41
ATOM     41  C   UNL A   1      40.013  28.067  28.769  1.00  0.00     0.031 A 
ATOM     42  C   UNL A   1      39.115  29.241  28.808  1.00  0.00     0.074 A 
ATOM     43  C   UNL A   1      40.992  27.944  29.700  1.00  0.00     0.049 A 
ATOM     44  N   UNL A   1      39.416  30.350  29.395  1.00  0.00    -0.248 NA
ATOM     45  C   UNL A   1      37.838  29.300  28.102  1.00  0.00     0.031 C 
ATOM     46  C   UNL A   1      41.157  28.734  30.922  1.00  0.00     0.029 A 
ATOM     47  N   UNL A   1      42.189  27.204  29.608  1.00  0.00    -0.354 N 
ATOM     48  C   UNL A   1      38.286  31.127  29.415  1.00  0.00     0.074 A 
ATOM     49  C   UNL A   1      37.393  30.503  28.477  1.00  0.00     0.031 C 
ATOM     50  C   UNL A   1      42.447  28.704  31.288  1.00  0.00     0.029 A 
ATOM     51  C   UNL A   1      43.173  28.001  30.246  1.00  0.00     0.049 A 
ATOM     52  H   UNL A   1      42.315  26.322  29.190  1.00  0.00     0.167 HD
ATOM     53  C   UNL A   1      38.196  32.120  30.341  1.00  0.00     0.037 A 
ATOM     54  C   UNL A   1      44.264  28.484  29.589  1.00  0.00     0.037 A 
ATOM     55  C   UNL A   1      39.511  32.434  30.903  1.00  0.00     0.049 A 
ATOM     56  C   UNL A   1      44.401  29.987  29.632  1.00  0.00     0.074 A 
ATOM     57  C   UNL A   1      40.098  32.252  32.142  1.00  0.00     0.029 A 
ATOM     58  N   UNL A   1      40.534  32.829  30.039  1.00  0.00    -0.354 N 
ATOM     59  N   UNL A   1      43.431  30.795  29.962  1.00  0.00    -0.248 NA
ATOM     60  C   UNL A   1      45.616  30.700  29.248  1.00  0.00     0.031 C 
ATOM     61  C   UNL A   1      41.497  32.460  31.996  1.00  0.00     0.029 A 
ATOM     62  C   UNL A   1      41.755  32.808  30.680  1.00  0.00     0.049 A 
ATOM     63  H   UNL A   1      40.401  33.086  29.098  1.00  0.00     0.167 HD
ATOM     64  C   UNL A   1      43.839  32.092  29.787  1.00  0.00     0.074 A 
ATOM     65  C   UNL A   1      45.225  31.980  29.372  1.00  0.00     0.031 C 
ATOM     66  C   UNL A   1      42.981  33.140  29.965  1.00  0.00     0.037 A 
BRANCH  53  67
ATOM     67  C   UNL A   1      36.896  32.682  30.891  1.00  0.00     0.064 A 
ATOM     68  C   UNL A   1      36.092  33.525  30.090  1.00  0.00     0.173 A 
ATOM     69  C   UNL A   1      36.453  32.558  32.228  1.00  0.00     0.173 A 
ATOM     70  F   UNL A   1      36.389  33.747  28.803  1.00  0.00    -0.203 F 
ATOM     71  C   UNL A   1      34.966  34.193  30.590  1.00  0.00     0.198 A 
ATOM     72  C   UNL A   1      35.297  33.182  32.710  1.00  0.00     0.198 A 
ATOM     73  F   UNL A   1      37.140  31.887  33.156  1.00  0.00    -0.203 F 
ATOM     74  F   UNL A   1      34.284  35.032  29.798  1.00  0.00    -0.200 F 
ATOM     75  C   UNL A   1      34.563  34.013  31.897  1.00  0.00     0.200 A 
ATOM     76  F   UNL A   1      34.929  32.993  33.986  1.00  0.00    -0.200 F 
ATOM     77  F   UNL A   1      33.488  34.652  32.378  1.00  0.00    -0.200 F 
ENDBRANCH  53  67
BRANCH  54  78
ATOM     78  C   UNL A   1      44.714  27.622  28.468  1.00  0.00     0.064 A 
ATOM     79  C   UNL A   1      45.349  26.404  28.772  1.00  0.00     0.173 A 
ATOM     80  C   UNL A   1      44.218  27.789  27.170  1.00  0.00     0.173 A 
ATOM     81  F   UNL A   1      45.840  26.194  30.004  1.00  0.00    -0.203 F 
ATOM     82  C   UNL A   1      45.381  25.355  27.858  1.00  0.00     0.198 A 
ATOM     83  C   UNL A   1      44.263  26.738  26.250  1.00  0.00     0.198 A 
ATOM     84  F   UNL A   1      43.579  28.915  26.826  1.00  0.00    -0.203 F 
ATOM     85  F   UNL A   1      45.887  24.166  28.219  1.00  0.00    -0.200 F 
ATOM     86  C   UNL A   1      44.812  25.513  26.606  1.00  0.00     0.200 A 
ATOM     87  F   UNL A   1      43.676  26.875  25.054  1.00  0.00    -0.200 F 
ATOM     88  F   UNL A   1      44.744  24.475  25.762  1.00  0.00    -0.200 F 
ENDBRANCH  54  78
BRANCH  66  89
ATOM     89  C   UNL A   1      43.235  34.576  29.555  1.00  0.00     0.064 A 
ATOM     90  C   UNL A   1      43.398  35.642  30.456  1.00  0.00     0.173 A 
ATOM     91  C   UNL A   1      43.464  34.899  28.194  1.00  0.00     0.173 A 
ATOM     92  F   UNL A   1      43.349  35.453  31.781  1.00  0.00    -0.203 F 
ATOM     93  C   UNL A   1      43.686  36.943  30.027  1.00  0.00     0.198 A 
ATOM     94  C   UNL A   1      43.809  36.184  27.775  1.00  0.00     0.198 A 
ATOM     95  F   UNL A   1      43.386  33.969  27.231  1.00  0.00    -0.203 F 
ATOM     96  F   UNL A   1      43.783  37.933  30.926  1.00  0.00    -0.200 F 
ATOM     97  C   UNL A   1      43.900  37.212  28.689  1.00  0.00     0.200 A 
ATOM     98  F   UNL A   1      44.071  36.414  26.480  1.00  0.00    -0.200 F 
ATOM     99  F   UNL A   1      44.218  38.450  28.286  1.00  0.00    -0.200 F 
ENDBRANCH  66  89
ENDBRANCH  40  41
ENDBRANCH  32  35
ENDBRANCH  30  31
ENDBRANCH  29  30
ENDBRANCH   1  29
TORSDOF 14
ENDMDL
MODEL 2
REMARK VINA RESULT:     -14.4      3.328      9.676
REMARK SMILES Cc1ccccc1NC(=O)CSc1nc(C(=O)NCCCNC(=O)c2ccc(-c3c4nc(c(-c5c(F)c(F)c(F)c(F)c5F)c5ccc([nH]5)c(-c5c(F)c(F)c(F)c(F)c5F)c5nc(c(-c6c(F)c(F)c(F)c(F)c6F)c6ccc3[nH]6)C=C5)C=C4)cc2)c2ccccc2n1
REMARK SMILES IDX 19 1 18 2 16 3 17 4 15 6 13 7 14 8 94 9 93 10 88 11 92 12
REMARK SMILES IDX 89 13 91 14 90 15 12 16 11 17 9 18 8 19 10 21 7 22 1 23 2 24
REMARK SMILES IDX 3 25 4 26 6 27 5 28 20 29 21 30 22 31 23 32 24 34 25 35
REMARK SMILES IDX 26 36 87 37 27 38 86 39 28 40 29 41 30 42 80 43 31 44 85 45
REMARK SMILES IDX 79 46 81 47 32 48 84 49 78 50 77 51 33 53 65 54 45 55 64 56
REMARK SMILES IDX 46 57 49 58 63 59 82 60 47 61 48 62 62 64 83 65 50 66 34 67
REMARK SMILES IDX 35 68 43 69 36 70 37 71 41 72 44 73 38 74 39 75 42 76 40 77
REMARK SMILES IDX 66 78 67 79 75 80 68 81 69 82 73 83 76 84 70 85 71 86 74 87
REMARK SMILES IDX 72 88 51 89 52 90 60 91 53 92 54 93 58 94 61 95 55 96 56 97
REMARK SMILES IDX 59 98 57 99
REMARK H PARENT 18 5 8 20 22 33 81 52 49 63
REMARK Flexibility Score: inf
ROOT
ATOM      1  C   UNL A   1      32.062  30.013  25.656  1.00  0.00     0.118 C 
ENDROOT
BRANCH   1   2
ATOM      2  N   UNL A   1      32.934  29.709  24.533  1.00  0.00    -0.351 N 
ATOM      3  C   UNL A   1      32.688  28.913  23.424  1.00  0.00     0.270 C 
ATOM      4  O   UNL A   1      33.554  28.855  22.552  1.00  0.00    -0.267 OA
ATOM      5  H   UNL A   1      33.825  30.127  24.565  1.00  0.00     0.163 HD
BRANCH   3   6
ATOM      6  C   UNL A   1      31.454  28.058  23.327  1.00  0.00     0.140 A 
ATOM      7  C   UNL A   1      30.502  26.151  24.103  1.00  0.00     0.189 A 
ATOM      8  N   UNL A   1      31.612  26.855  23.921  1.00  0.00    -0.217 NA
ATOM      9  N   UNL A   1      29.262  26.604  23.881  1.00  0.00    -0.222 NA
ATOM     10  C   UNL A   1      29.133  27.789  23.282  1.00  0.00     0.076 A 
ATOM     11  C   UNL A   1      30.227  28.540  22.852  1.00  0.00     0.032 A 
ATOM     12  C   UNL A   1      27.862  28.326  23.119  1.00  0.00     0.029 A 
ATOM     13  C   UNL A   1      30.009  29.715  22.082  1.00  0.00     0.013 A 
ATOM     14  C   UNL A   1      27.653  29.558  22.490  1.00  0.00     0.002 A 
ATOM     15  C   UNL A   1      28.728  30.237  21.935  1.00  0.00     0.001 A 
BRANCH   7  16
ATOM     16  S   UNL A   1      30.653  24.518  24.754  1.00  0.00    -0.076 SA
BRANCH  16  17
ATOM     17  C   UNL A   1      31.930  24.821  26.013  1.00  0.00     0.178 C 
BRANCH  17  18
ATOM     18  C   UNL A   1      32.377  23.575  26.748  1.00  0.00     0.234 C 
ATOM     19  N   UNL A   1      33.535  22.897  26.519  1.00  0.00    -0.325 N 
ATOM     20  H   UNL A   1      33.603  22.087  27.075  1.00  0.00     0.169 HD
ATOM     21  O   UNL A   1      31.647  23.093  27.626  1.00  0.00    -0.274 OA
BRANCH  19  22
ATOM     22  C   UNL A   1      34.661  23.062  25.688  1.00  0.00     0.044 A 
ATOM     23  C   UNL A   1      33.388  21.984  23.697  1.00  0.00     0.046 C 
ATOM     24  C   UNL A   1      34.609  22.570  24.361  1.00  0.00    -0.027 A 
ATOM     25  C   UNL A   1      35.777  22.585  23.571  1.00  0.00     0.005 A 
ATOM     26  C   UNL A   1      36.966  23.120  24.051  1.00  0.00     0.000 A 
ATOM     27  C   UNL A   1      35.844  23.671  26.114  1.00  0.00     0.026 A 
ATOM     28  C   UNL A   1      36.991  23.688  25.314  1.00  0.00     0.002 A 
ENDBRANCH  19  22
ENDBRANCH  17  18
ENDBRANCH  16  17
ENDBRANCH   7  16
ENDBRANCH   3   6
ENDBRANCH   1   2
BRANCH   1  29
ATOM     29  C   UNL A   1      32.482  31.193  26.501  1.00  0.00     0.042 C 
BRANCH  29  30
ATOM     30  C   UNL A   1      33.311  30.800  27.709  1.00  0.00     0.118 C 
BRANCH  30  31
ATOM     31  N   UNL A   1      34.272  31.823  28.144  1.00  0.00    -0.352 N 
ATOM     32  C   UNL A   1      35.615  31.656  28.464  1.00  0.00     0.251 C 
ATOM     33  H   UNL A   1      33.923  32.740  28.217  1.00  0.00     0.163 HD
ATOM     34  O   UNL A   1      36.360  32.602  28.645  1.00  0.00    -0.269 OA
BRANCH  32  35
ATOM     35  C   UNL A   1      36.127  30.268  28.487  1.00  0.00     0.039 A 
ATOM     36  C   UNL A   1      36.506  29.755  29.729  1.00  0.00     0.014 A 
ATOM     37  C   UNL A   1      36.635  29.756  27.296  1.00  0.00     0.014 A 
ATOM     38  C   UNL A   1      37.628  28.941  29.790  1.00  0.00     0.010 A 
ATOM     39  C   UNL A   1      37.808  29.027  27.370  1.00  0.00     0.010 A 
ATOM     40  C   UNL A   1      38.358  28.717  28.623  1.00  0.00    -0.014 A 
BRANCH  40  41
ATOM     41  C   UNL A   1      39.775  28.356  28.653  1.00  0.00     0.031 A 
ATOM     42  C   UNL A   1      40.190  26.961  28.396  1.00  0.00     0.074 A 
ATOM     43  C   UNL A   1      40.720  29.303  28.880  1.00  0.00     0.049 A 
ATOM     44  N   UNL A   1      41.333  26.479  28.753  1.00  0.00    -0.248 NA
ATOM     45  C   UNL A   1      39.311  25.958  27.800  1.00  0.00     0.031 C 
ATOM     46  C   UNL A   1      42.166  29.177  28.684  1.00  0.00     0.029 A 
ATOM     47  N   UNL A   1      40.575  30.529  29.561  1.00  0.00    -0.354 N 
ATOM     48  C   UNL A   1      41.458  25.242  28.174  1.00  0.00     0.074 A 
ATOM     49  C   UNL A   1      40.132  24.906  27.730  1.00  0.00     0.031 C 
ATOM     50  C   UNL A   1      42.791  30.061  29.475  1.00  0.00     0.029 A 
ATOM     51  C   UNL A   1      41.777  30.695  30.295  1.00  0.00     0.049 A 
ATOM     52  H   UNL A   1      39.805  31.140  29.533  1.00  0.00     0.167 HD
ATOM     53  C   UNL A   1      42.706  24.723  28.012  1.00  0.00     0.037 A 
ATOM     54  C   UNL A   1      41.801  30.765  31.656  1.00  0.00     0.037 A 
ATOM     55  C   UNL A   1      43.678  25.423  28.853  1.00  0.00     0.049 A 
ATOM     56  C   UNL A   1      42.673  29.725  32.317  1.00  0.00     0.074 A 
ATOM     57  C   UNL A   1      44.734  26.280  28.598  1.00  0.00     0.029 A 
ATOM     58  N   UNL A   1      43.471  25.457  30.233  1.00  0.00    -0.354 N 
ATOM     59  N   UNL A   1      43.107  28.652  31.714  1.00  0.00    -0.248 NA
ATOM     60  C   UNL A   1      43.072  29.777  33.721  1.00  0.00     0.031 C 
ATOM     61  C   UNL A   1      45.104  26.892  29.827  1.00  0.00     0.029 A 
ATOM     62  C   UNL A   1      44.303  26.378  30.833  1.00  0.00     0.049 A 
ATOM     63  H   UNL A   1      42.817  24.898  30.713  1.00  0.00     0.167 HD
ATOM     64  C   UNL A   1      43.766  27.858  32.616  1.00  0.00     0.074 A 
ATOM     65  C   UNL A   1      43.747  28.623  33.849  1.00  0.00     0.031 C 
ATOM     66  C   UNL A   1      44.237  26.623  32.269  1.00  0.00     0.037 A 
BRANCH  53  67
ATOM     67  C   UNL A   1      43.096  23.711  26.948  1.00  0.00     0.064 A 
ATOM     68  C   UNL A   1      42.766  22.346  27.112  1.00  0.00     0.173 A 
ATOM     69  C   UNL A   1      43.913  23.979  25.825  1.00  0.00     0.173 A 
ATOM     70  F   UNL A   1      42.004  21.935  28.135  1.00  0.00    -0.203 F 
ATOM     71  C   UNL A   1      43.229  21.347  26.245  1.00  0.00     0.198 A 
ATOM     72  C   UNL A   1      44.328  22.987  24.930  1.00  0.00     0.198 A 
ATOM     73  F   UNL A   1      44.408  25.191  25.568  1.00  0.00    -0.203 F 
ATOM     74  F   UNL A   1      42.938  20.063  26.492  1.00  0.00    -0.200 F 
ATOM     75  C   UNL A   1      44.002  21.669  25.148  1.00  0.00     0.200 A 
ATOM     76  F   UNL A   1      45.081  23.327  23.873  1.00  0.00    -0.200 F 
ATOM     77  F   UNL A   1      44.448  20.717  24.318  1.00  0.00    -0.200 F 
ENDBRANCH  53  67
BRANCH  54  78
ATOM     78  C   UNL A   1      40.563  31.335  32.244  1.00  0.00     0.064 A 
ATOM     79  C   UNL A   1      39.581  30.449  32.727  1.00  0.00     0.173 A 
ATOM     80  C   UNL A   1      40.496  32.668  32.662  1.00  0.00     0.173 A 
ATOM     81  F   UNL A   1      39.603  29.159  32.357  1.00  0.00    -0.203 F 
ATOM     82  C   UNL A   1      38.648  30.851  33.678  1.00  0.00     0.198 A 
ATOM     83  C   UNL A   1      39.549  33.071  33.607  1.00  0.00     0.198 A 
ATOM     84  F   UNL A   1      41.417  33.554  32.258  1.00  0.00    -0.203 F 
ATOM     85  F   UNL A   1      37.803  29.954  34.208  1.00  0.00    -0.200 F 
ATOM     86  C   UNL A   1      38.651  32.156  34.139  1.00  0.00     0.200 A 
ATOM     87  F   UNL A   1      39.577  34.323  34.085  1.00  0.00    -0.200 F 
ATOM     88  F   UNL A   1      37.826  32.521  35.130  1.00  0.00    -0.200 F 
ENDBRANCH  54  78
BRANCH  66  89
ATOM     89  C   UNL A   1      44.740  25.564  33.227  1.00  0.00     0.064 A 
ATOM     90  C   UNL A   1      46.066  25.098  33.270  1.00  0.00     0.173 A 
ATOM     91  C   UNL A   1      43.897  25.071  34.254  1.00  0.00     0.173 A 
ATOM     92  F   UNL A   1      47.006  25.583  32.449  1.00  0.00    -0.203 F 
ATOM     93  C   UNL A   1      46.494  24.155  34.212  1.00  0.00     0.198 A 
ATOM     94  C   UNL A   1      44.342  24.176  35.227  1.00  0.00     0.198 A 
ATOM     95  F   UNL A   1      42.619  25.465  34.359  1.00  0.00    -0.203 F 
ATOM     96  F   UNL A   1      47.758  23.709  34.178  1.00  0.00    -0.200 F 
ATOM     97  C   UNL A   1      45.636  23.701  35.194  1.00  0.00     0.200 A 
ATOM     98  F   UNL A   1      43.512  23.793  36.208  1.00  0.00    -0.200 F 
ATOM     99  F   UNL A   1      46.061  22.832  36.121  1.00  0.00    -0.200 F 
ENDBRANCH  66  89
ENDBRANCH  40  41
ENDBRANCH  32  35
ENDBRANCH  30  31
ENDBRANCH  29  30
ENDBRANCH   1  29
TORSDOF 14
ENDMDL
MODEL 3
REMARK VINA RESULT:     -14.2      3.206      9.686
REMARK SMILES Cc1ccccc1NC(=O)CSc1nc(C(=O)NCCCNC(=O)c2ccc(-c3c4nc(c(-c5c(F)c(F)c(F)c(F)c5F)c5ccc([nH]5)c(-c5c(F)c(F)c(F)c(F)c5F)c5nc(c(-c6c(F)c(F)c(F)c(F)c6F)c6ccc3[nH]6)C=C5)C=C4)cc2)c2ccccc2n1
REMARK SMILES IDX 19 1 18 2 16 3 17 4 15 6 13 7 14 8 94 9 93 10 88 11 92 12
REMARK SMILES IDX 89 13 91 14 90 15 12 16 11 17 9 18 8 19 10 21 7 22 1 23 2 24
REMARK SMILES IDX 3 25 4 26 6 27 5 28 20 29 21 30 22 31 23 32 24 34 25 35
REMARK SMILES IDX 26 36 87 37 27 38 86 39 28 40 29 41 30 42 80 43 31 44 85 45
REMARK SMILES IDX 79 46 81 47 32 48 84 49 78 50 77 51 33 53 65 54 45 55 64 56
REMARK SMILES IDX 46 57 49 58 63 59 82 60 47 61 48 62 62 64 83 65 50 66 34 67
REMARK SMILES IDX 35 68 43 69 36 70 37 71 41 72 44 73 38 74 39 75 42 76 40 77
REMARK SMILES IDX 66 78 67 79 75 80 68 81 69 82 73 83 76 84 70 85 71 86 74 87
REMARK SMILES IDX 72 88 51 89 52 90 60 91 53 92 54 93 58 94 61 95 55 96 56 97
REMARK SMILES IDX 59 98 57 99
REMARK H PARENT 18 5 8 20 22 33 81 52 49 63
REMARK Flexibility Score: inf
ROOT
ATOM      1  C   UNL A   1      31.923  30.034  25.726  1.00  0.00     0.118 C 
ENDROOT
BRANCH   1   2
ATOM      2  N   UNL A   1      32.877  29.731  24.672  1.00  0.00    -0.351 N 
ATOM      3  C   UNL A   1      32.709  28.953  23.535  1.00  0.00     0.270 C 
ATOM      4  O   UNL A   1      33.641  28.892  22.735  1.00  0.00    -0.267 OA
ATOM      5  H   UNL A   1      33.768  30.135  24.780  1.00  0.00     0.163 HD
BRANCH   3   6
ATOM      6  C   UNL A   1      31.475  28.118  23.328  1.00  0.00     0.140 A 
ATOM      7  C   UNL A   1      30.515  26.135  23.868  1.00  0.00     0.189 A 
ATOM      8  N   UNL A   1      31.627  26.852  23.778  1.00  0.00    -0.217 NA
ATOM      9  N   UNL A   1      29.277  26.613  23.691  1.00  0.00    -0.222 NA
ATOM     10  C   UNL A   1      29.155  27.861  23.234  1.00  0.00     0.076 A 
ATOM     11  C   UNL A   1      30.253  28.655  22.904  1.00  0.00     0.032 A 
ATOM     12  C   UNL A   1      27.886  28.416  23.125  1.00  0.00     0.029 A 
ATOM     13  C   UNL A   1      30.042  29.912  22.276  1.00  0.00     0.013 A 
ATOM     14  C   UNL A   1      27.683  29.713  22.644  1.00  0.00     0.002 A 
ATOM     15  C   UNL A   1      28.763  30.451  22.181  1.00  0.00     0.001 A 
BRANCH   7  16
ATOM     16  S   UNL A   1      30.658  24.436  24.322  1.00  0.00    -0.076 SA
BRANCH  16  17
ATOM     17  C   UNL A   1      30.935  24.634  26.110  1.00  0.00     0.178 C 
BRANCH  17  18
ATOM     18  C   UNL A   1      30.922  23.332  26.882  1.00  0.00     0.234 C 
ATOM     19  N   UNL A   1      31.897  22.383  26.847  1.00  0.00    -0.325 N 
ATOM     20  H   UNL A   1      31.663  21.594  27.387  1.00  0.00     0.169 HD
ATOM     21  O   UNL A   1      29.950  23.065  27.604  1.00  0.00    -0.274 OA
BRANCH  19  22
ATOM     22  C   UNL A   1      33.159  22.246  26.234  1.00  0.00     0.044 A 
ATOM     23  C   UNL A   1      32.167  20.596  24.490  1.00  0.00     0.046 C 
ATOM     24  C   UNL A   1      33.297  21.347  25.149  1.00  0.00    -0.027 A 
ATOM     25  C   UNL A   1      34.582  21.081  24.630  1.00  0.00     0.005 A 
ATOM     26  C   UNL A   1      35.709  21.724  25.128  1.00  0.00     0.000 A 
ATOM     27  C   UNL A   1      34.295  22.942  26.657  1.00  0.00     0.026 A 
ATOM     28  C   UNL A   1      35.560  22.675  26.125  1.00  0.00     0.002 A 
ENDBRANCH  19  22
ENDBRANCH  17  18
ENDBRANCH  16  17
ENDBRANCH   7  16
ENDBRANCH   3   6
ENDBRANCH   1   2
BRANCH   1  29
ATOM     29  C   UNL A   1      32.415  30.984  26.792  1.00  0.00     0.042 C 
BRANCH  29  30
ATOM     30  C   UNL A   1      33.542  30.411  27.630  1.00  0.00     0.118 C 
BRANCH  30  31
ATOM     31  N   UNL A   1      34.383  31.420  28.288  1.00  0.00    -0.352 N 
ATOM     32  C   UNL A   1      35.680  31.273  28.769  1.00  0.00     0.251 C 
ATOM     33  H   UNL A   1      33.980  32.311  28.401  1.00  0.00     0.163 HD
ATOM     34  O   UNL A   1      36.344  32.224  29.139  1.00  0.00    -0.269 OA
BRANCH  32  35
ATOM     35  C   UNL A   1      36.256  29.912  28.727  1.00  0.00     0.039 A 
ATOM     36  C   UNL A   1      36.625  29.345  29.948  1.00  0.00     0.014 A 
ATOM     37  C   UNL A   1      36.819  29.494  27.524  1.00  0.00     0.014 A 
ATOM     38  C   UNL A   1      37.784  28.580  29.995  1.00  0.00     0.010 A 
ATOM     39  C   UNL A   1      38.023  28.817  27.590  1.00  0.00     0.010 A 
ATOM     40  C   UNL A   1      38.554  28.459  28.839  1.00  0.00    -0.014 A 
BRANCH  40  41
ATOM     41  C   UNL A   1      39.985  28.162  28.889  1.00  0.00     0.031 A 
ATOM     42  C   UNL A   1      40.468  26.794  28.611  1.00  0.00     0.074 A 
ATOM     43  C   UNL A   1      40.881  29.146  29.155  1.00  0.00     0.049 A 
ATOM     44  N   UNL A   1      41.625  26.356  28.980  1.00  0.00    -0.248 NA
ATOM     45  C   UNL A   1      39.647  25.765  27.976  1.00  0.00     0.031 C 
ATOM     46  C   UNL A   1      42.335  29.090  28.985  1.00  0.00     0.029 A 
ATOM     47  N   UNL A   1      40.667  30.349  29.859  1.00  0.00    -0.354 N 
ATOM     48  C   UNL A   1      41.818  25.139  28.377  1.00  0.00     0.074 A 
ATOM     49  C   UNL A   1      40.517  24.754  27.899  1.00  0.00     0.031 C 
ATOM     50  C   UNL A   1      42.904  29.984  29.807  1.00  0.00     0.029 A 
ATOM     51  C   UNL A   1      41.846  30.553  30.621  1.00  0.00     0.049 A 
ATOM     52  H   UNL A   1      39.870  30.925  29.829  1.00  0.00     0.167 HD
ATOM     53  C   UNL A   1      43.091  24.681  28.229  1.00  0.00     0.037 A 
ATOM     54  C   UNL A   1      41.841  30.594  31.982  1.00  0.00     0.037 A 
ATOM     55  C   UNL A   1      44.014  25.406  29.104  1.00  0.00     0.049 A 
ATOM     56  C   UNL A   1      42.747  29.580  32.638  1.00  0.00     0.074 A 
ATOM     57  C   UNL A   1      45.033  26.315  28.888  1.00  0.00     0.029 A 
ATOM     58  N   UNL A   1      43.779  25.400  30.480  1.00  0.00    -0.354 N 
ATOM     59  N   UNL A   1      43.241  28.541  32.021  1.00  0.00    -0.248 NA
ATOM     60  C   UNL A   1      43.116  29.619  34.051  1.00  0.00     0.031 C 
ATOM     61  C   UNL A   1      45.352  26.916  30.137  1.00  0.00     0.029 A 
ATOM     62  C   UNL A   1      44.556  26.344  31.116  1.00  0.00     0.049 A 
ATOM     63  H   UNL A   1      43.143  24.801  30.935  1.00  0.00     0.167 HD
ATOM     64  C   UNL A   1      43.919  27.759  32.919  1.00  0.00     0.074 A 
ATOM     65  C   UNL A   1      43.842  28.494  34.167  1.00  0.00     0.031 C 
ATOM     66  C   UNL A   1      44.452  26.554  32.556  1.00  0.00     0.037 A 
BRANCH  53  67
ATOM     67  C   UNL A   1      43.546  23.712  27.151  1.00  0.00     0.064 A 
ATOM     68  C   UNL A   1      44.286  24.181  26.042  1.00  0.00     0.173 A 
ATOM     69  C   UNL A   1      43.173  22.351  27.065  1.00  0.00     0.173 A 
ATOM     70  F   UNL A   1      44.704  25.453  25.975  1.00  0.00    -0.203 F 
ATOM     71  C   UNL A   1      44.601  23.368  24.945  1.00  0.00     0.198 A 
ATOM     72  C   UNL A   1      43.537  21.527  25.995  1.00  0.00     0.198 A 
ATOM     73  F   UNL A   1      42.387  21.761  27.968  1.00  0.00    -0.203 F 
ATOM     74  F   UNL A   1      45.246  23.890  23.893  1.00  0.00    -0.200 F 
ATOM     75  C   UNL A   1      44.235  22.038  24.926  1.00  0.00     0.200 A 
ATOM     76  F   UNL A   1      43.166  20.237  26.000  1.00  0.00    -0.200 F 
ATOM     77  F   UNL A   1      44.533  21.258  23.879  1.00  0.00    -0.200 F 
ENDBRANCH  53  67
BRANCH  54  78
ATOM     78  C   UNL A   1      40.567  31.093  32.558  1.00  0.00     0.064 A 
ATOM     79  C   UNL A   1      40.280  32.468  32.458  1.00  0.00     0.173 A 
ATOM     80  C   UNL A   1      39.509  30.229  32.856  1.00  0.00     0.173 A 
ATOM     81  F   UNL A   1      41.261  33.338  32.171  1.00  0.00    -0.203 F 
ATOM     82  C   UNL A   1      38.974  32.942  32.533  1.00  0.00     0.198 A 
ATOM     83  C   UNL A   1      38.200  30.711  32.944  1.00  0.00     0.198 A 
ATOM     84  F   UNL A   1      39.713  28.907  32.939  1.00  0.00    -0.203 F 
ATOM     85  F   UNL A   1      38.718  34.241  32.313  1.00  0.00    -0.200 F 
ATOM     86  C   UNL A   1      37.930  32.058  32.748  1.00  0.00     0.200 A 
ATOM     87  F   UNL A   1      37.185  29.852  33.110  1.00  0.00    -0.200 F 
ATOM     88  F   UNL A   1      36.663  32.493  32.715  1.00  0.00    -0.200 F 
ENDBRANCH  54  78
BRANCH  66  89
ATOM     89  C   UNL A   1      44.985  25.497  33.500  1.00  0.00     0.064 A 
ATOM     90  C   UNL A   1      44.181  24.676  34.309  1.00  0.00     0.173 A 
ATOM     91  C   UNL A   1      46.368  25.183  33.512  1.00  0.00     0.173 A 
ATOM     92  F   UNL A   1      42.845  24.768  34.290  1.00  0.00    -0.203 F 
ATOM     93  C   UNL A   1      44.721  23.676  35.126  1.00  0.00     0.198 A 
ATOM     94  C   UNL A   1      46.895  24.146  34.282  1.00  0.00     0.198 A 
ATOM     95  F   UNL A   1      47.244  25.857  32.754  1.00  0.00    -0.203 F 
ATOM     96  F   UNL A   1      43.912  22.954  35.914  1.00  0.00    -0.200 F 
ATOM     97  C   UNL A   1      46.075  23.405  35.106  1.00  0.00     0.200 A 
ATOM     98  F   UNL A   1      48.203  23.860  34.205  1.00  0.00    -0.200 F 
ATOM     99  F   UNL A   1      46.583  22.418  35.856  1.00  0.00    -0.200 F 
ENDBRANCH  66  89
ENDBRANCH  40  41
ENDBRANCH  32  35
ENDBRANCH  30  31
ENDBRANCH  29  30
ENDBRANCH   1  29
TORSDOF 14
ENDMDL
