MODEL 1
REMARK VINA RESULT:     -12.8      0.000      0.000
REMARK SMILES CC(C)C(=O)Nc1ccc(NC(=O)[C@@H]2[C@@H](C(=O)NCCCNC(=O)c3ccc(-c4c5nc(c(-c6c(F)c(F)c(F)c(F)c6F)c6ccc([nH]6)c(-c6c(F)c(F)c(F)c(F)c6F)c6nc(c(-c7c(F)c(F)c(F)c(F)c7F)c7ccc4[nH]7)C=C6)C=C5)cc3)C2(C)C)cc1Cl
REMARK SMILES IDX 19 1 18 2 16 3 17 4 15 6 14 7 88 8 89 9 90 10 12 11 11 12
REMARK SMILES IDX 13 14 10 15 7 16 8 17 92 18 9 19 91 20 93 21 6 22 4 23 5 24
REMARK SMILES IDX 2 26 1 27 3 28 20 29 21 30 22 31 23 32 24 34 25 35 26 36
REMARK SMILES IDX 87 37 27 38 86 39 28 40 29 41 30 42 80 43 31 44 85 45 79 46
REMARK SMILES IDX 81 47 32 48 84 49 78 50 77 51 33 53 65 54 45 55 64 56 46 57
REMARK SMILES IDX 49 58 63 59 82 60 47 61 48 62 62 64 83 65 50 66 34 67 35 68
REMARK SMILES IDX 43 69 36 70 37 71 41 72 44 73 38 74 39 75 42 76 40 77 66 78
REMARK SMILES IDX 67 79 75 80 68 81 69 82 73 83 76 84 70 85 71 86 74 87 72 88
REMARK SMILES IDX 51 89 52 90 60 91 53 92 54 93 58 94 61 95 55 96 56 97 59 98
REMARK SMILES IDX 57 99
REMARK H PARENT 18 5 11 13 6 25 22 33 81 52 49 63
REMARK Flexibility Score: inf
ROOT
ATOM      1  C   UNL A   1      31.334  30.616  25.641  1.00  0.00     0.117 C 
ENDROOT
BRANCH   1   2
ATOM      2  N   UNL A   1      32.307  29.682  26.203  1.00  0.00    -0.356 N 
ATOM      3  C   UNL A   1      32.388  28.320  26.389  1.00  0.00     0.224 C 
ATOM      4  O   UNL A   1      33.377  27.917  27.001  1.00  0.00    -0.275 OA
ATOM      5  H   UNL A   1      33.110  30.145  26.532  1.00  0.00     0.163 HD
BRANCH   3   6
ATOM      6  C   UNL A   1      31.414  27.293  25.899  1.00  0.00     0.098 C 
ATOM      7  C   UNL A   1      31.473  25.845  26.276  1.00  0.00     0.098 C 
ATOM      8  C   UNL A   1      31.741  26.273  24.815  1.00  0.00    -0.011 C 
ATOM      9  C   UNL A   1      33.117  26.208  24.204  1.00  0.00     0.013 C 
ATOM     10  C   UNL A   1      30.667  25.957  23.791  1.00  0.00     0.013 C 
BRANCH   7  11
ATOM     11  C   UNL A   1      30.311  24.980  26.595  1.00  0.00     0.228 C 
ATOM     12  N   UNL A   1      30.525  23.624  26.763  1.00  0.00    -0.326 N 
ATOM     13  H   UNL A   1      29.743  23.135  27.108  1.00  0.00     0.169 HD
ATOM     14  O   UNL A   1      29.199  25.461  26.774  1.00  0.00    -0.274 OA
BRANCH  12  15
ATOM     15  C   UNL A   1      31.657  22.809  26.533  1.00  0.00     0.042 A 
ATOM     16  C   UNL A   1      33.930  21.276  25.879  1.00  0.00     0.060 A 
ATOM     17  C   UNL A   1      33.895  21.994  27.065  1.00  0.00     0.030 A 
ATOM     18  C   UNL A   1      32.783  21.215  25.080  1.00  0.00     0.066 A 
ATOM     19  C   UNL A   1      32.780  22.775  27.358  1.00  0.00     0.028 A 
ATOM     20  C   UNL A   1      31.664  22.003  25.391  1.00  0.00     0.048 A 
ATOM     21  Cl  UNL A   1      32.671  20.130  23.741  1.00  0.00    -0.082 Cl
BRANCH  16  22
ATOM     22  N   UNL A   1      35.144  20.661  25.552  1.00  0.00    -0.325 N 
ATOM     23  C   UNL A   1      36.297  21.305  25.189  1.00  0.00     0.226 C 
ATOM     24  O   UNL A   1      37.357  20.689  25.358  1.00  0.00    -0.274 OA
ATOM     25  H   UNL A   1      35.171  19.678  25.585  1.00  0.00     0.169 HD
BRANCH  23  26
ATOM     26  C   UNL A   1      36.334  22.734  24.632  1.00  0.00     0.072 C 
ATOM     27  C   UNL A   1      37.178  23.699  25.452  1.00  0.00     0.018 C 
ATOM     28  C   UNL A   1      36.655  22.827  23.144  1.00  0.00     0.018 C 
ENDBRANCH  23  26
ENDBRANCH  16  22
ENDBRANCH  12  15
ENDBRANCH   7  11
ENDBRANCH   3   6
ENDBRANCH   1   2
BRANCH   1  29
ATOM     29  C   UNL A   1      31.207  31.908  26.439  1.00  0.00     0.042 C 
BRANCH  29  30
ATOM     30  C   UNL A   1      32.523  32.445  26.962  1.00  0.00     0.118 C 
BRANCH  30  31
ATOM     31  N   UNL A   1      32.407  33.815  27.434  1.00  0.00    -0.352 N 
ATOM     32  C   UNL A   1      33.065  34.469  28.445  1.00  0.00     0.251 C 
ATOM     33  H   UNL A   1      31.749  34.364  26.949  1.00  0.00     0.163 HD
ATOM     34  O   UNL A   1      32.646  35.560  28.825  1.00  0.00    -0.269 OA
BRANCH  32  35
ATOM     35  C   UNL A   1      34.253  33.871  29.102  1.00  0.00     0.039 A 
ATOM     36  C   UNL A   1      34.058  32.890  30.078  1.00  0.00     0.014 A 
ATOM     37  C   UNL A   1      35.550  34.294  28.803  1.00  0.00     0.014 A 
ATOM     38  C   UNL A   1      35.158  32.299  30.704  1.00  0.00     0.010 A 
ATOM     39  C   UNL A   1      36.647  33.626  29.340  1.00  0.00     0.010 A 
ATOM     40  C   UNL A   1      36.465  32.636  30.315  1.00  0.00    -0.014 A 
BRANCH  40  41
ATOM     41  C   UNL A   1      37.642  31.973  30.932  1.00  0.00     0.031 A 
ATOM     42  C   UNL A   1      38.111  32.371  32.306  1.00  0.00     0.074 A 
ATOM     43  C   UNL A   1      38.325  31.046  30.234  1.00  0.00     0.049 A 
ATOM     44  N   UNL A   1      39.124  31.916  33.001  1.00  0.00    -0.248 NA
ATOM     45  C   UNL A   1      37.364  33.447  32.975  1.00  0.00     0.031 C 
ATOM     46  C   UNL A   1      38.016  30.625  28.867  1.00  0.00     0.029 A 
ATOM     47  N   UNL A   1      39.421  30.296  30.575  1.00  0.00    -0.354 N 
ATOM     48  C   UNL A   1      39.143  32.660  34.174  1.00  0.00     0.074 A 
ATOM     49  C   UNL A   1      38.085  33.640  34.069  1.00  0.00     0.031 C 
ATOM     50  C   UNL A   1      38.884  29.671  28.495  1.00  0.00     0.029 A 
ATOM     51  C   UNL A   1      39.833  29.442  29.580  1.00  0.00     0.049 A 
ATOM     52  H   UNL A   1      39.872  30.363  31.447  1.00  0.00     0.167 HD
ATOM     53  C   UNL A   1      39.954  32.524  35.252  1.00  0.00     0.037 A 
ATOM     54  C   UNL A   1      40.861  28.574  29.544  1.00  0.00     0.037 A 
ATOM     55  C   UNL A   1      40.996  31.534  35.357  1.00  0.00     0.049 A 
ATOM     56  C   UNL A   1      41.735  28.423  30.758  1.00  0.00     0.074 A 
ATOM     57  C   UNL A   1      41.816  31.255  36.436  1.00  0.00     0.029 A 
ATOM     58  N   UNL A   1      41.370  30.669  34.338  1.00  0.00    -0.354 N 
ATOM     59  N   UNL A   1      41.684  29.064  31.900  1.00  0.00    -0.248 NA
ATOM     60  C   UNL A   1      42.803  27.418  30.680  1.00  0.00     0.031 C 
ATOM     61  C   UNL A   1      42.732  30.271  36.046  1.00  0.00     0.029 A 
ATOM     62  C   UNL A   1      42.436  29.883  34.749  1.00  0.00     0.049 A 
ATOM     63  H   UNL A   1      40.941  30.621  33.453  1.00  0.00     0.167 HD
ATOM     64  C   UNL A   1      42.698  28.530  32.684  1.00  0.00     0.074 A 
ATOM     65  C   UNL A   1      43.330  27.492  31.894  1.00  0.00     0.031 C 
ATOM     66  C   UNL A   1      43.072  28.868  33.944  1.00  0.00     0.037 A 
BRANCH  53  67
ATOM     67  C   UNL A   1      39.755  33.483  36.394  1.00  0.00     0.064 A 
ATOM     68  C   UNL A   1      38.949  33.170  37.500  1.00  0.00     0.173 A 
ATOM     69  C   UNL A   1      40.384  34.739  36.383  1.00  0.00     0.173 A 
ATOM     70  F   UNL A   1      38.315  31.988  37.560  1.00  0.00    -0.203 F 
ATOM     71  C   UNL A   1      38.740  34.091  38.523  1.00  0.00     0.198 A 
ATOM     72  C   UNL A   1      40.204  35.643  37.426  1.00  0.00     0.198 A 
ATOM     73  F   UNL A   1      41.172  35.091  35.356  1.00  0.00    -0.203 F 
ATOM     74  F   UNL A   1      37.906  33.795  39.530  1.00  0.00    -0.200 F 
ATOM     75  C   UNL A   1      39.371  35.325  38.488  1.00  0.00     0.200 A 
ATOM     76  F   UNL A   1      40.829  36.828  37.398  1.00  0.00    -0.200 F 
ATOM     77  F   UNL A   1      39.168  36.211  39.472  1.00  0.00    -0.200 F 
ENDBRANCH  53  67
BRANCH  54  78
ATOM     78  C   UNL A   1      41.095  27.770  28.316  1.00  0.00     0.064 A 
ATOM     79  C   UNL A   1      41.949  28.224  27.302  1.00  0.00     0.173 A 
ATOM     80  C   UNL A   1      40.491  26.515  28.146  1.00  0.00     0.173 A 
ATOM     81  F   UNL A   1      42.536  29.427  27.410  1.00  0.00    -0.203 F 
ATOM     82  C   UNL A   1      42.183  27.459  26.162  1.00  0.00     0.198 A 
ATOM     83  C   UNL A   1      40.749  25.738  27.020  1.00  0.00     0.198 A 
ATOM     84  F   UNL A   1      39.672  26.031  29.091  1.00  0.00    -0.203 F 
ATOM     85  F   UNL A   1      42.975  27.934  25.190  1.00  0.00    -0.200 F 
ATOM     86  C   UNL A   1      41.590  26.214  26.025  1.00  0.00     0.200 A 
ATOM     87  F   UNL A   1      40.189  24.526  26.902  1.00  0.00    -0.200 F 
ATOM     88  F   UNL A   1      41.826  25.472  24.934  1.00  0.00    -0.200 F 
ENDBRANCH  54  78
BRANCH  66  89
ATOM     89  C   UNL A   1      44.213  28.097  34.549  1.00  0.00     0.064 A 
ATOM     90  C   UNL A   1      45.539  28.549  34.463  1.00  0.00     0.173 A 
ATOM     91  C   UNL A   1      43.975  26.894  35.232  1.00  0.00     0.173 A 
ATOM     92  F   UNL A   1      45.825  29.686  33.810  1.00  0.00    -0.203 F 
ATOM     93  C   UNL A   1      46.586  27.803  35.000  1.00  0.00     0.198 A 
ATOM     94  C   UNL A   1      45.020  26.172  35.802  1.00  0.00     0.198 A 
ATOM     95  F   UNL A   1      42.726  26.419  35.353  1.00  0.00    -0.203 F 
ATOM     96  F   UNL A   1      47.850  28.221  34.845  1.00  0.00    -0.200 F 
ATOM     97  C   UNL A   1      46.326  26.620  35.674  1.00  0.00     0.200 A 
ATOM     98  F   UNL A   1      44.764  25.037  36.468  1.00  0.00    -0.200 F 
ATOM     99  F   UNL A   1      47.335  25.905  36.190  1.00  0.00    -0.200 F 
ENDBRANCH  66  89
ENDBRANCH  40  41
ENDBRANCH  32  35
ENDBRANCH  30  31
ENDBRANCH  29  30
ENDBRANCH   1  29
TORSDOF 14
ENDMDL
MODEL 2
REMARK VINA RESULT:     -12.8      0.696      7.342
REMARK SMILES CC(C)C(=O)Nc1ccc(NC(=O)[C@@H]2[C@@H](C(=O)NCCCNC(=O)c3ccc(-c4c5nc(c(-c6c(F)c(F)c(F)c(F)c6F)c6ccc([nH]6)c(-c6c(F)c(F)c(F)c(F)c6F)c6nc(c(-c7c(F)c(F)c(F)c(F)c7F)c7ccc4[nH]7)C=C6)C=C5)cc3)C2(C)C)cc1Cl
REMARK SMILES IDX 19 1 18 2 16 3 17 4 15 6 14 7 88 8 89 9 90 10 12 11 11 12
REMARK SMILES IDX 13 14 10 15 7 16 8 17 92 18 9 19 91 20 93 21 6 22 4 23 5 24
REMARK SMILES IDX 2 26 1 27 3 28 20 29 21 30 22 31 23 32 24 34 25 35 26 36
REMARK SMILES IDX 87 37 27 38 86 39 28 40 29 41 30 42 80 43 31 44 85 45 79 46
REMARK SMILES IDX 81 47 32 48 84 49 78 50 77 51 33 53 65 54 45 55 64 56 46 57
REMARK SMILES IDX 49 58 63 59 82 60 47 61 48 62 62 64 83 65 50 66 34 67 35 68
REMARK SMILES IDX 43 69 36 70 37 71 41 72 44 73 38 74 39 75 42 76 40 77 66 78
REMARK SMILES IDX 67 79 75 80 68 81 69 82 73 83 76 84 70 85 71 86 74 87 72 88
REMARK SMILES IDX 51 89 52 90 60 91 53 92 54 93 58 94 61 95 55 96 56 97 59 98
REMARK SMILES IDX 57 99
REMARK H PARENT 18 5 11 13 6 25 22 33 81 52 49 63
REMARK Flexibility Score: inf
ROOT
ATOM      1  C   UNL A   1      31.377  30.695  25.733  1.00  0.00     0.117 C 
ENDROOT
BRANCH   1   2
ATOM      2  N   UNL A   1      32.287  29.752  26.377  1.00  0.00    -0.356 N 
ATOM      3  C   UNL A   1      32.352  28.387  26.546  1.00  0.00     0.224 C 
ATOM      4  O   UNL A   1      33.272  27.973  27.251  1.00  0.00    -0.275 OA
ATOM      5  H   UNL A   1      33.050  30.209  26.798  1.00  0.00     0.163 HD
BRANCH   3   6
ATOM      6  C   UNL A   1      31.438  27.368  25.937  1.00  0.00     0.098 C 
ATOM      7  C   UNL A   1      31.427  25.922  26.328  1.00  0.00     0.098 C 
ATOM      8  C   UNL A   1      31.893  26.336  24.912  1.00  0.00    -0.011 C 
ATOM      9  C   UNL A   1      33.337  26.248  24.491  1.00  0.00     0.013 C 
ATOM     10  C   UNL A   1      30.961  26.024  23.756  1.00  0.00     0.013 C 
BRANCH   7  11
ATOM     11  C   UNL A   1      30.220  25.075  26.494  1.00  0.00     0.228 C 
ATOM     12  N   UNL A   1      30.384  23.705  26.577  1.00  0.00    -0.326 N 
ATOM     13  H   UNL A   1      29.564  23.218  26.825  1.00  0.00     0.169 HD
ATOM     14  O   UNL A   1      29.111  25.578  26.625  1.00  0.00    -0.274 OA
BRANCH  12  15
ATOM     15  C   UNL A   1      31.508  22.872  26.372  1.00  0.00     0.042 A 
ATOM     16  C   UNL A   1      33.777  21.310  25.774  1.00  0.00     0.060 A 
ATOM     17  C   UNL A   1      33.697  21.983  26.984  1.00  0.00     0.030 A 
ATOM     18  C   UNL A   1      32.671  21.307  24.917  1.00  0.00     0.066 A 
ATOM     19  C   UNL A   1      32.586  22.779  27.251  1.00  0.00     0.028 A 
ATOM     20  C   UNL A   1      31.556  22.110  25.201  1.00  0.00     0.048 A 
ATOM     21  Cl  UNL A   1      32.604  20.276  23.533  1.00  0.00    -0.082 Cl
BRANCH  16  22
ATOM     22  N   UNL A   1      34.992  20.679  25.485  1.00  0.00    -0.325 N 
ATOM     23  C   UNL A   1      36.163  21.307  25.153  1.00  0.00     0.226 C 
ATOM     24  O   UNL A   1      37.210  20.679  25.355  1.00  0.00    -0.274 OA
ATOM     25  H   UNL A   1      35.006  19.696  25.523  1.00  0.00     0.169 HD
BRANCH  23  26
ATOM     26  C   UNL A   1      36.234  22.733  24.591  1.00  0.00     0.072 C 
ATOM     27  C   UNL A   1      37.020  23.704  25.460  1.00  0.00     0.018 C 
ATOM     28  C   UNL A   1      36.651  22.819  23.127  1.00  0.00     0.018 C 
ENDBRANCH  23  26
ENDBRANCH  16  22
ENDBRANCH  12  15
ENDBRANCH   7  11
ENDBRANCH   3   6
ENDBRANCH   1   2
BRANCH   1  29
ATOM     29  C   UNL A   1      31.218  32.002  26.501  1.00  0.00     0.042 C 
BRANCH  29  30
ATOM     30  C   UNL A   1      32.523  32.595  26.990  1.00  0.00     0.118 C 
BRANCH  30  31
ATOM     31  N   UNL A   1      32.372  33.979  27.410  1.00  0.00    -0.352 N 
ATOM     32  C   UNL A   1      32.976  34.673  28.428  1.00  0.00     0.251 C 
ATOM     33  H   UNL A   1      31.734  34.504  26.875  1.00  0.00     0.163 HD
ATOM     34  O   UNL A   1      32.530  35.771  28.751  1.00  0.00    -0.269 OA
BRANCH  32  35
ATOM     35  C   UNL A   1      34.136  34.110  29.161  1.00  0.00     0.039 A 
ATOM     36  C   UNL A   1      33.897  33.259  30.244  1.00  0.00     0.014 A 
ATOM     37  C   UNL A   1      35.450  34.442  28.825  1.00  0.00     0.014 A 
ATOM     38  C   UNL A   1      34.971  32.702  30.944  1.00  0.00     0.010 A 
ATOM     39  C   UNL A   1      36.517  33.798  29.446  1.00  0.00     0.010 A 
ATOM     40  C   UNL A   1      36.291  32.938  30.529  1.00  0.00    -0.014 A 
BRANCH  40  41
ATOM     41  C   UNL A   1      37.439  32.306  31.229  1.00  0.00     0.031 A 
ATOM     42  C   UNL A   1      38.174  31.152  30.605  1.00  0.00     0.074 A 
ATOM     43  C   UNL A   1      37.788  32.739  32.455  1.00  0.00     0.049 A 
ATOM     44  N   UNL A   1      39.189  30.465  31.070  1.00  0.00    -0.248 NA
ATOM     45  C   UNL A   1      37.685  30.682  29.300  1.00  0.00     0.031 C 
ATOM     46  C   UNL A   1      37.110  33.801  33.199  1.00  0.00     0.029 A 
ATOM     47  N   UNL A   1      38.797  32.337  33.294  1.00  0.00    -0.354 N 
ATOM     48  C   UNL A   1      39.443  29.478  30.126  1.00  0.00     0.074 A 
ATOM     49  C   UNL A   1      38.438  29.612  29.096  1.00  0.00     0.031 C 
ATOM     50  C   UNL A   1      37.737  33.986  34.371  1.00  0.00     0.029 A 
ATOM     51  C   UNL A   1      38.836  33.031  34.478  1.00  0.00     0.049 A 
ATOM     52  H   UNL A   1      39.430  31.617  33.070  1.00  0.00     0.167 HD
ATOM     53  C   UNL A   1      40.440  28.559  30.107  1.00  0.00     0.037 A 
ATOM     54  C   UNL A   1      39.661  32.911  35.534  1.00  0.00     0.037 A 
ATOM     55  C   UNL A   1      41.450  28.444  31.129  1.00  0.00     0.049 A 
ATOM     56  C   UNL A   1      40.773  31.900  35.484  1.00  0.00     0.074 A 
ATOM     57  C   UNL A   1      42.550  27.606  31.163  1.00  0.00     0.029 A 
ATOM     58  N   UNL A   1      41.472  29.180  32.305  1.00  0.00    -0.354 N 
ATOM     59  N   UNL A   1      41.065  31.036  34.542  1.00  0.00    -0.248 NA
ATOM     60  C   UNL A   1      41.678  31.857  36.640  1.00  0.00     0.031 C 
ATOM     61  C   UNL A   1      43.198  27.786  32.390  1.00  0.00     0.029 A 
ATOM     62  C   UNL A   1      42.545  28.788  33.091  1.00  0.00     0.049 A 
ATOM     63  H   UNL A   1      40.821  29.879  32.546  1.00  0.00     0.167 HD
ATOM     64  C   UNL A   1      42.195  30.359  34.981  1.00  0.00     0.074 A 
ATOM     65  C   UNL A   1      42.551  30.933  36.263  1.00  0.00     0.031 C 
ATOM     66  C   UNL A   1      42.876  29.353  34.377  1.00  0.00     0.037 A 
BRANCH  53  67
ATOM     67  C   UNL A   1      40.471  27.596  28.952  1.00  0.00     0.064 A 
ATOM     68  C   UNL A   1      41.274  27.813  27.820  1.00  0.00     0.173 A 
ATOM     69  C   UNL A   1      39.685  26.433  28.977  1.00  0.00     0.173 A 
ATOM     70  F   UNL A   1      42.039  28.913  27.737  1.00  0.00    -0.203 F 
ATOM     71  C   UNL A   1      41.252  26.933  26.742  1.00  0.00     0.198 A 
ATOM     72  C   UNL A   1      39.694  25.535  27.913  1.00  0.00     0.198 A 
ATOM     73  F   UNL A   1      38.903  26.168  30.035  1.00  0.00    -0.203 F 
ATOM     74  F   UNL A   1      41.971  27.203  25.643  1.00  0.00    -0.200 F 
ATOM     75  C   UNL A   1      40.466  25.792  26.791  1.00  0.00     0.200 A 
ATOM     76  F   UNL A   1      38.946  24.424  27.970  1.00  0.00    -0.200 F 
ATOM     77  F   UNL A   1      40.444  24.946  25.751  1.00  0.00    -0.200 F 
ENDBRANCH  53  67
BRANCH  54  78
ATOM     78  C   UNL A   1      39.470  33.794  36.715  1.00  0.00     0.064 A 
ATOM     79  C   UNL A   1      38.706  33.381  37.815  1.00  0.00     0.173 A 
ATOM     80  C   UNL A   1      40.075  35.058  36.779  1.00  0.00     0.173 A 
ATOM     81  F   UNL A   1      38.092  32.188  37.793  1.00  0.00    -0.203 F 
ATOM     82  C   UNL A   1      38.545  34.202  38.929  1.00  0.00     0.198 A 
ATOM     83  C   UNL A   1      39.939  35.866  37.906  1.00  0.00     0.198 A 
ATOM     84  F   UNL A   1      40.824  35.496  35.757  1.00  0.00    -0.203 F 
ATOM     85  F   UNL A   1      37.778  33.798  39.951  1.00  0.00    -0.200 F 
ATOM     86  C   UNL A   1      39.169  35.439  38.977  1.00  0.00     0.200 A 
ATOM     87  F   UNL A   1      40.560  37.052  37.956  1.00  0.00    -0.200 F 
ATOM     88  F   UNL A   1      39.025  36.223  40.055  1.00  0.00    -0.200 F 
ENDBRANCH  54  78
BRANCH  66  89
ATOM     89  C   UNL A   1      44.085  28.818  35.095  1.00  0.00     0.064 A 
ATOM     90  C   UNL A   1      43.999  27.729  35.976  1.00  0.00     0.173 A 
ATOM     91  C   UNL A   1      45.347  29.397  34.892  1.00  0.00     0.173 A 
ATOM     92  F   UNL A   1      42.815  27.146  36.218  1.00  0.00    -0.203 F 
ATOM     93  C   UNL A   1      45.124  27.269  36.658  1.00  0.00     0.198 A 
ATOM     94  C   UNL A   1      46.475  28.908  35.545  1.00  0.00     0.198 A 
ATOM     95  F   UNL A   1      45.490  30.435  34.053  1.00  0.00    -0.203 F 
ATOM     96  F   UNL A   1      45.003  26.272  37.547  1.00  0.00    -0.200 F 
ATOM     97  C   UNL A   1      46.360  27.855  36.437  1.00  0.00     0.200 A 
ATOM     98  F   UNL A   1      47.673  29.465  35.317  1.00  0.00    -0.200 F 
ATOM     99  F   UNL A   1      47.441  27.410  37.095  1.00  0.00    -0.200 F 
ENDBRANCH  66  89
ENDBRANCH  40  41
ENDBRANCH  32  35
ENDBRANCH  30  31
ENDBRANCH  29  30
ENDBRANCH   1  29
TORSDOF 14
ENDMDL
MODEL 3
REMARK VINA RESULT:     -12.7      5.022      9.532
REMARK SMILES CC(C)C(=O)Nc1ccc(NC(=O)[C@@H]2[C@@H](C(=O)NCCCNC(=O)c3ccc(-c4c5nc(c(-c6c(F)c(F)c(F)c(F)c6F)c6ccc([nH]6)c(-c6c(F)c(F)c(F)c(F)c6F)c6nc(c(-c7c(F)c(F)c(F)c(F)c7F)c7ccc4[nH]7)C=C6)C=C5)cc3)C2(C)C)cc1Cl
REMARK SMILES IDX 19 1 18 2 16 3 17 4 15 6 14 7 88 8 89 9 90 10 12 11 11 12
REMARK SMILES IDX 13 14 10 15 7 16 8 17 92 18 9 19 91 20 93 21 6 22 4 23 5 24
REMARK SMILES IDX 2 26 1 27 3 28 20 29 21 30 22 31 23 32 24 34 25 35 26 36
REMARK SMILES IDX 87 37 27 38 86 39 28 40 29 41 30 42 80 43 31 44 85 45 79 46
REMARK SMILES IDX 81 47 32 48 84 49 78 50 77 51 33 53 65 54 45 55 64 56 46 57
REMARK SMILES IDX 49 58 63 59 82 60 47 61 48 62 62 64 83 65 50 66 34 67 35 68
REMARK SMILES IDX 43 69 36 70 37 71 41 72 44 73 38 74 39 75 42 76 40 77 66 78
REMARK SMILES IDX 67 79 75 80 68 81 69 82 73 83 76 84 70 85 71 86 74 87 72 88
REMARK SMILES IDX 51 89 52 90 60 91 53 92 54 93 58 94 61 95 55 96 56 97 59 98
REMARK SMILES IDX 57 99
REMARK H PARENT 18 5 11 13 6 25 22 33 81 52 49 63
REMARK Flexibility Score: inf
ROOT
ATOM      1  C   UNL A   1      36.468  20.341  25.040  1.00  0.00     0.117 C 
ENDROOT
BRANCH   1   2
ATOM      2  N   UNL A   1      36.650  21.789  25.115  1.00  0.00    -0.356 N 
ATOM      3  C   UNL A   1      35.981  22.901  24.658  1.00  0.00     0.224 C 
ATOM      4  O   UNL A   1      36.527  23.984  24.869  1.00  0.00    -0.275 OA
ATOM      5  H   UNL A   1      37.457  22.030  25.623  1.00  0.00     0.163 HD
BRANCH   3   6
ATOM      6  C   UNL A   1      34.654  22.922  23.963  1.00  0.00     0.098 C 
ATOM      7  C   UNL A   1      34.138  24.098  23.192  1.00  0.00     0.098 C 
ATOM      8  C   UNL A   1      33.435  23.663  24.499  1.00  0.00    -0.011 C 
ATOM      9  C   UNL A   1      33.520  24.482  25.761  1.00  0.00     0.013 C 
ATOM     10  C   UNL A   1      32.081  22.991  24.368  1.00  0.00     0.013 C 
BRANCH   7  11
ATOM     11  C   UNL A   1      33.408  24.041  21.902  1.00  0.00     0.228 C 
ATOM     12  N   UNL A   1      32.694  25.154  21.498  1.00  0.00    -0.326 N 
ATOM     13  H   UNL A   1      32.353  25.099  20.576  1.00  0.00     0.169 HD
ATOM     14  O   UNL A   1      33.489  23.058  21.177  1.00  0.00    -0.274 OA
BRANCH  12  15
ATOM     15  C   UNL A   1      32.365  26.358  22.162  1.00  0.00     0.042 A 
ATOM     16  C   UNL A   1      31.618  28.640  23.641  1.00  0.00     0.060 A 
ATOM     17  C   UNL A   1      32.927  28.490  23.210  1.00  0.00     0.030 A 
ATOM     18  C   UNL A   1      30.650  27.719  23.224  1.00  0.00     0.066 A 
ATOM     19  C   UNL A   1      33.290  27.341  22.510  1.00  0.00     0.028 A 
ATOM     20  C   UNL A   1      31.029  26.568  22.516  1.00  0.00     0.048 A 
ATOM     21  Cl  UNL A   1      28.966  27.993  23.498  1.00  0.00    -0.082 Cl
BRANCH  16  22
ATOM     22  N   UNL A   1      31.356  29.718  24.494  1.00  0.00    -0.325 N 
ATOM     23  C   UNL A   1      31.852  29.877  25.760  1.00  0.00     0.226 C 
ATOM     24  O   UNL A   1      31.896  31.033  26.201  1.00  0.00    -0.274 OA
ATOM     25  H   UNL A   1      30.762  30.424  24.153  1.00  0.00     0.169 HD
BRANCH  23  26
ATOM     26  C   UNL A   1      32.376  28.720  26.621  1.00  0.00     0.072 C 
ATOM     27  C   UNL A   1      33.752  28.969  27.223  1.00  0.00     0.018 C 
ATOM     28  C   UNL A   1      31.388  28.204  27.661  1.00  0.00     0.018 C 
ENDBRANCH  23  26
ENDBRANCH  16  22
ENDBRANCH  12  15
ENDBRANCH   7  11
ENDBRANCH   3   6
ENDBRANCH   1   2
BRANCH   1  29
ATOM     29  C   UNL A   1      37.776  19.576  24.874  1.00  0.00     0.042 C 
BRANCH  29  30
ATOM     30  C   UNL A   1      38.938  20.160  25.651  1.00  0.00     0.118 C 
BRANCH  30  31
ATOM     31  N   UNL A   1      40.008  19.195  25.843  1.00  0.00    -0.352 N 
ATOM     32  C   UNL A   1      41.350  19.383  26.063  1.00  0.00     0.251 C 
ATOM     33  H   UNL A   1      39.724  18.253  25.812  1.00  0.00     0.163 HD
ATOM     34  O   UNL A   1      42.112  18.424  25.967  1.00  0.00    -0.269 OA
BRANCH  32  35
ATOM     35  C   UNL A   1      41.895  20.723  26.388  1.00  0.00     0.039 A 
ATOM     36  C   UNL A   1      42.289  21.560  25.339  1.00  0.00     0.014 A 
ATOM     37  C   UNL A   1      42.065  21.150  27.707  1.00  0.00     0.014 A 
ATOM     38  C   UNL A   1      42.794  22.833  25.614  1.00  0.00     0.010 A 
ATOM     39  C   UNL A   1      42.457  22.458  27.976  1.00  0.00     0.010 A 
ATOM     40  C   UNL A   1      42.849  23.308  26.934  1.00  0.00    -0.014 A 
BRANCH  40  41
ATOM     41  C   UNL A   1      43.330  24.681  27.235  1.00  0.00     0.031 A 
ATOM     42  C   UNL A   1      42.377  25.732  27.737  1.00  0.00     0.074 A 
ATOM     43  C   UNL A   1      44.618  24.998  27.006  1.00  0.00     0.049 A 
ATOM     44  N   UNL A   1      42.609  26.986  28.040  1.00  0.00    -0.248 NA
ATOM     45  C   UNL A   1      40.969  25.334  27.886  1.00  0.00     0.031 C 
ATOM     46  C   UNL A   1      45.624  24.092  26.453  1.00  0.00     0.029 A 
ATOM     47  N   UNL A   1      45.300  26.172  27.204  1.00  0.00    -0.354 N 
ATOM     48  C   UNL A   1      41.379  27.524  28.397  1.00  0.00     0.074 A 
ATOM     49  C   UNL A   1      40.394  26.482  28.209  1.00  0.00     0.031 C 
ATOM     50  C   UNL A   1      46.801  24.732  26.383  1.00  0.00     0.029 A 
ATOM     51  C   UNL A   1      46.625  26.104  26.848  1.00  0.00     0.049 A 
ATOM     52  H   UNL A   1      44.881  26.986  27.566  1.00  0.00     0.167 HD
ATOM     53  C   UNL A   1      41.099  28.766  28.862  1.00  0.00     0.037 A 
ATOM     54  C   UNL A   1      47.589  27.042  26.887  1.00  0.00     0.037 A 
ATOM     55  C   UNL A   1      42.089  29.793  29.064  1.00  0.00     0.049 A 
ATOM     56  C   UNL A   1      47.263  28.407  27.426  1.00  0.00     0.074 A 
ATOM     57  C   UNL A   1      41.925  31.054  29.610  1.00  0.00     0.029 A 
ATOM     58  N   UNL A   1      43.427  29.681  28.713  1.00  0.00    -0.354 N 
ATOM     59  N   UNL A   1      46.116  28.875  27.853  1.00  0.00    -0.248 NA
ATOM     60  C   UNL A   1      48.370  29.368  27.501  1.00  0.00     0.031 C 
ATOM     61  C   UNL A   1      43.148  31.729  29.524  1.00  0.00     0.029 A 
ATOM     62  C   UNL A   1      44.092  30.865  28.993  1.00  0.00     0.049 A 
ATOM     63  H   UNL A   1      43.843  28.879  28.322  1.00  0.00     0.167 HD
ATOM     64  C   UNL A   1      46.364  30.179  28.263  1.00  0.00     0.074 A 
ATOM     65  C   UNL A   1      47.779  30.416  28.058  1.00  0.00     0.031 C 
ATOM     66  C   UNL A   1      45.498  31.097  28.763  1.00  0.00     0.037 A 
BRANCH  53  67
ATOM     67  C   UNL A   1      39.660  29.083  29.166  1.00  0.00     0.064 A 
ATOM     68  C   UNL A   1      39.119  28.935  30.453  1.00  0.00     0.173 A 
ATOM     69  C   UNL A   1      38.807  29.545  28.151  1.00  0.00     0.173 A 
ATOM     70  F   UNL A   1      39.884  28.487  31.460  1.00  0.00    -0.203 F 
ATOM     71  C   UNL A   1      37.772  29.189  30.701  1.00  0.00     0.198 A 
ATOM     72  C   UNL A   1      37.470  29.835  28.411  1.00  0.00     0.198 A 
ATOM     73  F   UNL A   1      39.269  29.713  26.903  1.00  0.00    -0.203 F 
ATOM     74  F   UNL A   1      37.264  28.967  31.922  1.00  0.00    -0.200 F 
ATOM     75  C   UNL A   1      36.950  29.643  29.681  1.00  0.00     0.200 A 
ATOM     76  F   UNL A   1      36.682  30.290  27.428  1.00  0.00    -0.200 F 
ATOM     77  F   UNL A   1      35.654  29.886  29.921  1.00  0.00    -0.200 F 
ENDBRANCH  53  67
BRANCH  54  78
ATOM     78  C   UNL A   1      48.958  26.702  26.418  1.00  0.00     0.064 A 
ATOM     79  C   UNL A   1      49.890  26.097  27.273  1.00  0.00     0.173 A 
ATOM     80  C   UNL A   1      49.352  26.947  25.094  1.00  0.00     0.173 A 
ATOM     81  F   UNL A   1      49.567  25.859  28.554  1.00  0.00    -0.203 F 
ATOM     82  C   UNL A   1      51.165  25.760  26.825  1.00  0.00     0.198 A 
ATOM     83  C   UNL A   1      50.618  26.582  24.639  1.00  0.00     0.198 A 
ATOM     84  F   UNL A   1      48.495  27.516  24.233  1.00  0.00    -0.203 F 
ATOM     85  F   UNL A   1      52.049  25.217  27.674  1.00  0.00    -0.200 F 
ATOM     86  C   UNL A   1      51.525  25.995  25.507  1.00  0.00     0.200 A 
ATOM     87  F   UNL A   1      50.953  26.793  23.359  1.00  0.00    -0.200 F 
ATOM     88  F   UNL A   1      52.748  25.658  25.073  1.00  0.00    -0.200 F 
ENDBRANCH  54  78
BRANCH  66  89
ATOM     89  C   UNL A   1      46.065  32.439  29.135  1.00  0.00     0.064 A 
ATOM     90  C   UNL A   1      46.584  32.694  30.414  1.00  0.00     0.173 A 
ATOM     91  C   UNL A   1      46.097  33.482  28.197  1.00  0.00     0.173 A 
ATOM     92  F   UNL A   1      46.566  31.736  31.354  1.00  0.00    -0.203 F 
ATOM     93  C   UNL A   1      47.074  33.954  30.751  1.00  0.00     0.198 A 
ATOM     94  C   UNL A   1      46.624  34.728  28.526  1.00  0.00     0.198 A 
ATOM     95  F   UNL A   1      45.623  33.293  26.956  1.00  0.00    -0.203 F 
ATOM     96  F   UNL A   1      47.500  34.192  32.000  1.00  0.00    -0.200 F 
ATOM     97  C   UNL A   1      47.099  34.967  29.806  1.00  0.00     0.200 A 
ATOM     98  F   UNL A   1      46.663  35.702  27.604  1.00  0.00    -0.200 F 
ATOM     99  F   UNL A   1      47.571  36.179  30.132  1.00  0.00    -0.200 F 
ENDBRANCH  66  89
ENDBRANCH  40  41
ENDBRANCH  32  35
ENDBRANCH  30  31
ENDBRANCH  29  30
ENDBRANCH   1  29
TORSDOF 14
ENDMDL
