MODEL 1
REMARK VINA RESULT:     -13.7      0.000      0.000
REMARK SMILES O=C1OC(c2ccc(Cl)cc2)=N/C1=C/Nc1ccc(O)c(C(=O)NCCCNC(=O)c2ccc(-c3c4nc(c(-c5c(F)c(F)c(F)c(F)c5F)c5ccc([nH]5)c(-c5c(F)c(F)c(F)c(F)c5F)c5nc(c(-c6c(F)c(F)c(F)c(F)c6F)c6ccc3[nH]6)C=C5)C=C4)cc2)c1
REMARK SMILES IDX 25 1 24 2 22 3 23 4 21 6 16 7 17 8 94 9 18 10 19 11 15 12
REMARK SMILES IDX 14 14 1 15 2 16 3 17 13 18 4 19 12 20 5 21 6 22 11 23 7 24
REMARK SMILES IDX 10 25 8 26 9 27 20 28 26 30 27 31 28 32 29 33 30 35 31 36
REMARK SMILES IDX 32 37 93 38 33 39 92 40 34 41 35 42 36 43 86 44 37 45 91 46
REMARK SMILES IDX 85 47 87 48 38 49 90 50 84 51 83 52 39 54 71 55 51 56 70 57
REMARK SMILES IDX 52 58 55 59 69 60 88 61 53 62 54 63 68 65 89 66 56 67 40 68
REMARK SMILES IDX 41 69 49 70 42 71 43 72 47 73 50 74 44 75 45 76 48 77 46 78
REMARK SMILES IDX 72 79 73 80 81 81 74 82 75 83 79 84 82 85 76 86 77 87 80 88
REMARK SMILES IDX 78 89 57 90 58 91 66 92 59 93 60 94 64 95 67 96 61 97 62 98
REMARK SMILES IDX 65 99 63 100
REMARK H PARENT 24 5 15 13 20 29 28 34 87 53 55 64
REMARK Flexibility Score: inf
ROOT
ATOM      1  C   UNL A   1      31.694  30.574  26.712  1.00  0.00     0.118 C 
ENDROOT
BRANCH   1   2
ATOM      2  N   UNL A   1      32.499  30.253  25.554  1.00  0.00    -0.352 N 
ATOM      3  C   UNL A   1      32.268  29.475  24.451  1.00  0.00     0.255 C 
ATOM      4  O   UNL A   1      33.226  29.350  23.680  1.00  0.00    -0.269 OA
ATOM      5  H   UNL A   1      33.388  30.677  25.561  1.00  0.00     0.163 HD
BRANCH   3   6
ATOM      6  C   UNL A   1      30.957  28.866  24.068  1.00  0.00     0.083 A 
ATOM      7  C   UNL A   1      29.740  26.724  24.014  1.00  0.00     0.039 A 
ATOM      8  C   UNL A   1      28.679  27.359  23.371  1.00  0.00     0.030 A 
ATOM      9  C   UNL A   1      30.873  27.481  24.332  1.00  0.00     0.043 A 
ATOM     10  C   UNL A   1      28.708  28.732  23.146  1.00  0.00     0.049 A 
ATOM     11  C   UNL A   1      29.826  29.486  23.522  1.00  0.00     0.128 A 
BRANCH   7  12
ATOM     12  N   UNL A   1      29.729  25.353  24.294  1.00  0.00    -0.360 N 
ATOM     13  H   UNL A   1      28.981  25.018  24.840  1.00  0.00     0.166 HD
BRANCH  12  14
ATOM     14  C   UNL A   1      30.654  24.432  23.883  1.00  0.00     0.119 C 
ATOM     15  O   UNL A   1      31.573  25.091  26.685  1.00  0.00    -0.244 OA
ATOM     16  C   UNL A   1      32.106  24.322  25.914  1.00  0.00     0.365 C 
ATOM     17  O   UNL A   1      33.207  23.546  26.135  1.00  0.00    -0.402 OA
ATOM     18  C   UNL A   1      31.737  23.973  24.516  1.00  0.00     0.168 C 
ATOM     19  C   UNL A   1      33.441  22.894  24.974  1.00  0.00     0.231 C 
ATOM     20  N   UNL A   1      32.636  23.091  23.982  1.00  0.00    -0.204 NA
BRANCH  19  21
ATOM     21  C   UNL A   1      34.642  22.070  24.953  1.00  0.00     0.037 A 
ATOM     22  C   UNL A   1      35.908  22.658  25.016  1.00  0.00     0.015 A 
ATOM     23  C   UNL A   1      34.496  20.680  24.913  1.00  0.00     0.015 A 
ATOM     24  C   UNL A   1      37.039  21.839  25.044  1.00  0.00     0.021 A 
ATOM     25  C   UNL A   1      35.630  19.868  24.921  1.00  0.00     0.021 A 
ATOM     26  C   UNL A   1      36.895  20.451  24.991  1.00  0.00     0.041 A 
ATOM     27  Cl  UNL A   1      38.292  19.446  25.022  1.00  0.00    -0.084 Cl
ENDBRANCH  19  21
ENDBRANCH  12  14
ENDBRANCH   7  12
BRANCH  11  28
ATOM     28  O   UNL A   1      29.717  30.837  23.387  1.00  0.00    -0.507 OA
ATOM     29  H   UNL A   1      30.488  31.372  23.387  1.00  0.00     0.293 HD
ENDBRANCH  11  28
ENDBRANCH   3   6
ENDBRANCH   1   2
BRANCH   1  30
ATOM     30  C   UNL A   1      31.501  32.087  26.822  1.00  0.00     0.042 C 
BRANCH  30  31
ATOM     31  C   UNL A   1      32.794  32.835  27.116  1.00  0.00     0.118 C 
BRANCH  31  32
ATOM     32  N   UNL A   1      32.535  34.201  27.555  1.00  0.00    -0.352 N 
ATOM     33  C   UNL A   1      33.035  34.890  28.629  1.00  0.00     0.251 C 
ATOM     34  H   UNL A   1      31.905  34.706  26.992  1.00  0.00     0.163 HD
ATOM     35  O   UNL A   1      32.495  35.932  28.989  1.00  0.00    -0.269 OA
BRANCH  33  36
ATOM     36  C   UNL A   1      34.212  34.381  29.364  1.00  0.00     0.039 A 
ATOM     37  C   UNL A   1      34.010  33.669  30.549  1.00  0.00     0.014 A 
ATOM     38  C   UNL A   1      35.509  34.629  28.908  1.00  0.00     0.014 A 
ATOM     39  C   UNL A   1      35.105  33.149  31.241  1.00  0.00     0.010 A 
ATOM     40  C   UNL A   1      36.594  34.045  29.554  1.00  0.00     0.010 A 
ATOM     41  C   UNL A   1      36.403  33.298  30.724  1.00  0.00    -0.014 A 
BRANCH  41  42
ATOM     42  C   UNL A   1      37.569  32.653  31.377  1.00  0.00     0.031 A 
ATOM     43  C   UNL A   1      38.272  31.505  30.713  1.00  0.00     0.074 A 
ATOM     44  C   UNL A   1      37.944  33.060  32.605  1.00  0.00     0.049 A 
ATOM     45  N   UNL A   1      39.254  30.764  31.161  1.00  0.00    -0.248 NA
ATOM     46  C   UNL A   1      37.790  31.119  29.378  1.00  0.00     0.031 C 
ATOM     47  C   UNL A   1      37.312  34.140  33.363  1.00  0.00     0.029 A 
ATOM     48  N   UNL A   1      38.936  32.605  33.436  1.00  0.00    -0.354 N 
ATOM     49  C   UNL A   1      39.502  29.824  30.169  1.00  0.00     0.074 A 
ATOM     50  C   UNL A   1      38.527  30.049  29.123  1.00  0.00     0.031 C 
ATOM     51  C   UNL A   1      37.948  34.282  34.536  1.00  0.00     0.029 A 
ATOM     52  C   UNL A   1      38.995  33.272  34.636  1.00  0.00     0.049 A 
ATOM     53  H   UNL A   1      39.547  31.872  33.196  1.00  0.00     0.167 HD
ATOM     54  C   UNL A   1      40.468  28.875  30.128  1.00  0.00     0.037 A 
ATOM     55  C   UNL A   1      39.795  33.078  35.701  1.00  0.00     0.037 A 
ATOM     56  C   UNL A   1      41.432  28.659  31.176  1.00  0.00     0.049 A 
ATOM     57  C   UNL A   1      40.825  31.983  35.653  1.00  0.00     0.074 A 
ATOM     58  C   UNL A   1      42.481  27.758  31.212  1.00  0.00     0.029 A 
ATOM     59  N   UNL A   1      41.453  29.345  32.383  1.00  0.00    -0.354 N 
ATOM     60  N   UNL A   1      41.098  31.147  34.681  1.00  0.00    -0.248 NA
ATOM     61  C   UNL A   1      41.657  31.806  36.849  1.00  0.00     0.031 C 
ATOM     62  C   UNL A   1      43.096  27.854  32.466  1.00  0.00     0.029 A 
ATOM     63  C   UNL A   1      42.474  28.861  33.186  1.00  0.00     0.049 A 
ATOM     64  H   UNL A   1      40.833  30.069  32.632  1.00  0.00     0.167 HD
ATOM     65  C   UNL A   1      42.150  30.362  35.136  1.00  0.00     0.074 A 
ATOM     66  C   UNL A   1      42.475  30.835  36.467  1.00  0.00     0.031 C 
ATOM     67  C   UNL A   1      42.786  29.343  34.510  1.00  0.00     0.037 A 
BRANCH  54  68
ATOM     68  C   UNL A   1      40.518  27.990  28.913  1.00  0.00     0.064 A 
ATOM     69  C   UNL A   1      41.321  28.302  27.804  1.00  0.00     0.173 A 
ATOM     70  C   UNL A   1      39.766  26.806  28.861  1.00  0.00     0.173 A 
ATOM     71  F   UNL A   1      42.055  29.425  27.796  1.00  0.00    -0.203 F 
ATOM     72  C   UNL A   1      41.337  27.487  26.675  1.00  0.00     0.198 A 
ATOM     73  C   UNL A   1      39.813  25.973  27.745  1.00  0.00     0.198 A 
ATOM     74  F   UNL A   1      38.987  26.453  29.894  1.00  0.00    -0.203 F 
ATOM     75  F   UNL A   1      42.061  27.840  25.605  1.00  0.00    -0.200 F 
ATOM     76  C   UNL A   1      40.587  26.320  26.649  1.00  0.00     0.200 A 
ATOM     77  F   UNL A   1      39.101  24.838  27.728  1.00  0.00    -0.200 F 
ATOM     78  F   UNL A   1      40.605  25.535  25.563  1.00  0.00    -0.200 F 
ENDBRANCH  54  68
BRANCH  55  79
ATOM     79  C   UNL A   1      39.663  33.956  36.893  1.00  0.00     0.064 A 
ATOM     80  C   UNL A   1      40.330  35.188  36.955  1.00  0.00     0.173 A 
ATOM     81  C   UNL A   1      38.862  33.593  37.987  1.00  0.00     0.173 A 
ATOM     82  F   UNL A   1      41.121  35.571  35.942  1.00  0.00    -0.203 F 
ATOM     83  C   UNL A   1      40.215  36.014  38.071  1.00  0.00     0.198 A 
ATOM     84  C   UNL A   1      38.723  34.435  39.089  1.00  0.00     0.198 A 
ATOM     85  F   UNL A   1      38.198  32.428  37.977  1.00  0.00    -0.203 F 
ATOM     86  F   UNL A   1      40.897  37.166  38.121  1.00  0.00    -0.200 F 
ATOM     87  C   UNL A   1      39.406  35.640  39.133  1.00  0.00     0.200 A 
ATOM     88  F   UNL A   1      37.925  34.079  40.104  1.00  0.00    -0.200 F 
ATOM     89  F   UNL A   1      39.286  36.441  40.201  1.00  0.00    -0.200 F 
ENDBRANCH  55  79
BRANCH  67  90
ATOM     90  C   UNL A   1      43.921  28.684  35.241  1.00  0.00     0.064 A 
ATOM     91  C   UNL A   1      45.248  29.116  35.086  1.00  0.00     0.173 A 
ATOM     92  C   UNL A   1      43.673  27.639  36.144  1.00  0.00     0.173 A 
ATOM     93  F   UNL A   1      45.542  30.099  34.222  1.00  0.00    -0.203 F 
ATOM     94  C   UNL A   1      46.284  28.509  35.790  1.00  0.00     0.198 A 
ATOM     95  C   UNL A   1      44.708  27.059  36.872  1.00  0.00     0.198 A 
ATOM     96  F   UNL A   1      42.424  27.191  36.334  1.00  0.00    -0.203 F 
ATOM     97  F   UNL A   1      47.549  28.904  35.588  1.00  0.00    -0.200 F 
ATOM     98  C   UNL A   1      46.013  27.489  36.690  1.00  0.00     0.200 A 
ATOM     99  F   UNL A   1      44.441  26.086  37.754  1.00  0.00    -0.200 F 
ATOM    100  F   UNL A   1      47.011  26.916  37.376  1.00  0.00    -0.200 F 
ENDBRANCH  67  90
ENDBRANCH  41  42
ENDBRANCH  33  36
ENDBRANCH  31  32
ENDBRANCH  30  31
ENDBRANCH   1  30
TORSDOF 14
ENDMDL
MODEL 2
REMARK VINA RESULT:     -13.4      1.560      2.838
REMARK SMILES O=C1OC(c2ccc(Cl)cc2)=N/C1=C/Nc1ccc(O)c(C(=O)NCCCNC(=O)c2ccc(-c3c4nc(c(-c5c(F)c(F)c(F)c(F)c5F)c5ccc([nH]5)c(-c5c(F)c(F)c(F)c(F)c5F)c5nc(c(-c6c(F)c(F)c(F)c(F)c6F)c6ccc3[nH]6)C=C5)C=C4)cc2)c1
REMARK SMILES IDX 25 1 24 2 22 3 23 4 21 6 16 7 17 8 94 9 18 10 19 11 15 12
REMARK SMILES IDX 14 14 1 15 2 16 3 17 13 18 4 19 12 20 5 21 6 22 11 23 7 24
REMARK SMILES IDX 10 25 8 26 9 27 20 28 26 30 27 31 28 32 29 33 30 35 31 36
REMARK SMILES IDX 32 37 93 38 33 39 92 40 34 41 35 42 36 43 86 44 37 45 91 46
REMARK SMILES IDX 85 47 87 48 38 49 90 50 84 51 83 52 39 54 71 55 51 56 70 57
REMARK SMILES IDX 52 58 55 59 69 60 88 61 53 62 54 63 68 65 89 66 56 67 40 68
REMARK SMILES IDX 41 69 49 70 42 71 43 72 47 73 50 74 44 75 45 76 48 77 46 78
REMARK SMILES IDX 72 79 73 80 81 81 74 82 75 83 79 84 82 85 76 86 77 87 80 88
REMARK SMILES IDX 78 89 57 90 58 91 66 92 59 93 60 94 64 95 67 96 61 97 62 98
REMARK SMILES IDX 65 99 63 100
REMARK H PARENT 24 5 15 13 20 29 28 34 87 53 55 64
REMARK Flexibility Score: inf
ROOT
ATOM      1  C   UNL A   1      31.531  30.490  26.116  1.00  0.00     0.118 C 
ENDROOT
BRANCH   1   2
ATOM      2  N   UNL A   1      32.836  30.010  26.511  1.00  0.00    -0.352 N 
ATOM      3  C   UNL A   1      33.625  28.988  26.054  1.00  0.00     0.255 C 
ATOM      4  O   UNL A   1      34.670  28.800  26.688  1.00  0.00    -0.269 OA
ATOM      5  H   UNL A   1      33.237  30.518  27.254  1.00  0.00     0.163 HD
BRANCH   3   6
ATOM      6  C   UNL A   1      33.377  28.173  24.825  1.00  0.00     0.083 A 
ATOM      7  C   UNL A   1      33.783  25.951  23.840  1.00  0.00     0.039 A 
ATOM      8  C   UNL A   1      33.199  26.385  22.652  1.00  0.00     0.030 A 
ATOM      9  C   UNL A   1      33.886  26.857  24.901  1.00  0.00     0.043 A 
ATOM     10  C   UNL A   1      32.640  27.657  22.564  1.00  0.00     0.049 A 
ATOM     11  C   UNL A   1      32.700  28.533  23.654  1.00  0.00     0.128 A 
BRANCH   7  12
ATOM     12  N   UNL A   1      34.319  24.666  23.980  1.00  0.00    -0.360 N 
ATOM     13  H   UNL A   1      35.300  24.588  23.951  1.00  0.00     0.166 HD
BRANCH  12  14
ATOM     14  C   UNL A   1      33.613  23.506  24.154  1.00  0.00     0.119 C 
ATOM     15  O   UNL A   1      36.479  22.579  24.388  1.00  0.00    -0.244 OA
ATOM     16  C   UNL A   1      35.489  21.883  24.460  1.00  0.00     0.365 C 
ATOM     17  O   UNL A   1      35.427  20.541  24.702  1.00  0.00    -0.402 OA
ATOM     18  C   UNL A   1      34.057  22.257  24.321  1.00  0.00     0.168 C 
ATOM     19  C   UNL A   1      34.115  20.215  24.646  1.00  0.00     0.231 C 
ATOM     20  N   UNL A   1      33.255  21.153  24.423  1.00  0.00    -0.204 NA
BRANCH  19  21
ATOM     21  C   UNL A   1      33.821  18.795  24.785  1.00  0.00     0.037 A 
ATOM     22  C   UNL A   1      34.684  17.835  24.251  1.00  0.00     0.015 A 
ATOM     23  C   UNL A   1      32.680  18.418  25.500  1.00  0.00     0.015 A 
ATOM     24  C   UNL A   1      34.400  16.481  24.441  1.00  0.00     0.021 A 
ATOM     25  C   UNL A   1      32.391  17.065  25.671  1.00  0.00     0.021 A 
ATOM     26  C   UNL A   1      33.254  16.103  25.146  1.00  0.00     0.041 A 
ATOM     27  Cl  UNL A   1      32.906  14.433  25.376  1.00  0.00    -0.084 Cl
ENDBRANCH  19  21
ENDBRANCH  12  14
ENDBRANCH   7  12
BRANCH  11  28
ATOM     28  O   UNL A   1      32.015  29.703  23.527  1.00  0.00    -0.507 OA
ATOM     29  H   UNL A   1      31.799  30.030  22.675  1.00  0.00     0.293 HD
ENDBRANCH  11  28
ENDBRANCH   3   6
ENDBRANCH   1   2
BRANCH   1  30
ATOM     30  C   UNL A   1      31.377  31.969  26.476  1.00  0.00     0.042 C 
BRANCH  30  31
ATOM     31  C   UNL A   1      32.566  32.522  27.250  1.00  0.00     0.118 C 
BRANCH  31  32
ATOM     32  N   UNL A   1      32.401  33.940  27.543  1.00  0.00    -0.352 N 
ATOM     33  C   UNL A   1      32.994  34.716  28.506  1.00  0.00     0.251 C 
ATOM     34  H   UNL A   1      31.767  34.415  26.958  1.00  0.00     0.163 HD
ATOM     35  O   UNL A   1      32.528  35.821  28.770  1.00  0.00    -0.269 OA
BRANCH  33  36
ATOM     36  C   UNL A   1      34.182  34.226  29.235  1.00  0.00     0.039 A 
ATOM     37  C   UNL A   1      34.004  33.607  30.475  1.00  0.00     0.014 A 
ATOM     38  C   UNL A   1      35.468  34.403  28.719  1.00  0.00     0.014 A 
ATOM     39  C   UNL A   1      35.109  33.106  31.164  1.00  0.00     0.010 A 
ATOM     40  C   UNL A   1      36.559  33.835  29.368  1.00  0.00     0.010 A 
ATOM     41  C   UNL A   1      36.391  33.179  30.595  1.00  0.00    -0.014 A 
BRANCH  41  42
ATOM     42  C   UNL A   1      37.562  32.548  31.252  1.00  0.00     0.031 A 
ATOM     43  C   UNL A   1      38.292  31.420  30.583  1.00  0.00     0.074 A 
ATOM     44  C   UNL A   1      37.917  32.948  32.488  1.00  0.00     0.049 A 
ATOM     45  N   UNL A   1      39.284  30.693  31.033  1.00  0.00    -0.248 NA
ATOM     46  C   UNL A   1      37.831  31.041  29.239  1.00  0.00     0.031 C 
ATOM     47  C   UNL A   1      37.258  34.009  33.252  1.00  0.00     0.029 A 
ATOM     48  N   UNL A   1      38.910  32.502  33.324  1.00  0.00    -0.354 N 
ATOM     49  C   UNL A   1      39.558  29.768  30.033  1.00  0.00     0.074 A 
ATOM     50  C   UNL A   1      38.590  29.987  28.980  1.00  0.00     0.031 C 
ATOM     51  C   UNL A   1      37.880  34.149  34.433  1.00  0.00     0.029 A 
ATOM     52  C   UNL A   1      38.944  33.157  34.531  1.00  0.00     0.049 A 
ATOM     53  H   UNL A   1      39.536  31.783  33.082  1.00  0.00     0.167 HD
ATOM     54  C   UNL A   1      40.542  28.837  29.992  1.00  0.00     0.037 A 
ATOM     55  C   UNL A   1      39.737  32.967  35.603  1.00  0.00     0.037 A 
ATOM     56  C   UNL A   1      41.499  28.628  31.047  1.00  0.00     0.049 A 
ATOM     57  C   UNL A   1      40.787  31.891  35.553  1.00  0.00     0.074 A 
ATOM     58  C   UNL A   1      42.564  27.745  31.084  1.00  0.00     0.029 A 
ATOM     59  N   UNL A   1      41.496  29.301  32.262  1.00  0.00    -0.354 N 
ATOM     60  N   UNL A   1      41.085  31.070  34.575  1.00  0.00    -0.248 NA
ATOM     61  C   UNL A   1      41.611  31.715  36.756  1.00  0.00     0.031 C 
ATOM     62  C   UNL A   1      43.165  27.839  32.345  1.00  0.00     0.029 A 
ATOM     63  C   UNL A   1      42.518  28.827  33.070  1.00  0.00     0.049 A 
ATOM     64  H   UNL A   1      40.861  30.011  32.512  1.00  0.00     0.167 HD
ATOM     65  C   UNL A   1      42.147  30.300  35.033  1.00  0.00     0.074 A 
ATOM     66  C   UNL A   1      42.450  30.764  36.371  1.00  0.00     0.031 C 
ATOM     67  C   UNL A   1      42.808  29.299  34.401  1.00  0.00     0.037 A 
BRANCH  54  68
ATOM     68  C   UNL A   1      40.620  27.967  28.767  1.00  0.00     0.064 A 
ATOM     69  C   UNL A   1      39.916  26.756  28.675  1.00  0.00     0.173 A 
ATOM     70  C   UNL A   1      41.395  28.357  27.664  1.00  0.00     0.173 A 
ATOM     71  F   UNL A   1      39.166  26.330  29.703  1.00  0.00    -0.203 F 
ATOM     72  C   UNL A   1      40.019  25.948  27.545  1.00  0.00     0.198 A 
ATOM     73  C   UNL A   1      41.466  27.565  26.520  1.00  0.00     0.198 A 
ATOM     74  F   UNL A   1      42.082  29.508  27.692  1.00  0.00    -0.203 F 
ATOM     75  F   UNL A   1      39.390  24.767  27.508  1.00  0.00    -0.200 F 
ATOM     76  C   UNL A   1      40.789  26.357  26.466  1.00  0.00     0.200 A 
ATOM     77  F   UNL A   1      42.197  27.969  25.472  1.00  0.00    -0.200 F 
ATOM     78  F   UNL A   1      40.886  25.580  25.379  1.00  0.00    -0.200 F 
ENDBRANCH  54  68
BRANCH  55  79
ATOM     79  C   UNL A   1      39.577  33.829  36.803  1.00  0.00     0.064 A 
ATOM     80  C   UNL A   1      38.788  33.414  37.885  1.00  0.00     0.173 A 
ATOM     81  C   UNL A   1      40.215  35.075  36.901  1.00  0.00     0.173 A 
ATOM     82  F   UNL A   1      38.144  32.239  37.831  1.00  0.00    -0.203 F 
ATOM     83  C   UNL A   1      38.629  34.219  39.011  1.00  0.00     0.198 A 
ATOM     84  C   UNL A   1      40.080  35.865  38.041  1.00  0.00     0.198 A 
ATOM     85  F   UNL A   1      40.986  35.517  35.897  1.00  0.00    -0.203 F 
ATOM     86  F   UNL A   1      37.835  33.816  40.012  1.00  0.00    -0.200 F 
ATOM     87  C   UNL A   1      39.282  35.439  39.091  1.00  0.00     0.200 A 
ATOM     88  F   UNL A   1      40.728  37.035  38.123  1.00  0.00    -0.200 F 
ATOM     89  F   UNL A   1      39.138  36.209  40.180  1.00  0.00    -0.200 F 
ENDBRANCH  55  79
BRANCH  67  90
ATOM     90  C   UNL A   1      43.948  28.654  35.137  1.00  0.00     0.064 A 
ATOM     91  C   UNL A   1      43.761  27.514  35.934  1.00  0.00     0.173 A 
ATOM     92  C   UNL A   1      45.252  29.155  35.005  1.00  0.00     0.173 A 
ATOM     93  F   UNL A   1      42.531  27.006  36.108  1.00  0.00    -0.203 F 
ATOM     94  C   UNL A   1      44.834  26.916  36.590  1.00  0.00     0.198 A 
ATOM     95  C   UNL A   1      46.327  28.532  35.633  1.00  0.00     0.198 A 
ATOM     96  F   UNL A   1      45.488  30.239  34.251  1.00  0.00    -0.203 F 
ATOM     97  F   UNL A   1      44.624  25.858  37.385  1.00  0.00    -0.200 F 
ATOM     98  C   UNL A   1      46.116  27.418  36.430  1.00  0.00     0.200 A 
ATOM     99  F   UNL A   1      47.568  29.009  35.464  1.00  0.00    -0.200 F 
ATOM    100  F   UNL A   1      47.149  26.832  37.051  1.00  0.00    -0.200 F 
ENDBRANCH  67  90
ENDBRANCH  41  42
ENDBRANCH  33  36
ENDBRANCH  31  32
ENDBRANCH  30  31
ENDBRANCH   1  30
TORSDOF 14
ENDMDL
MODEL 3
REMARK VINA RESULT:     -13.1      5.327     10.588
REMARK SMILES O=C1OC(c2ccc(Cl)cc2)=N/C1=C/Nc1ccc(O)c(C(=O)NCCCNC(=O)c2ccc(-c3c4nc(c(-c5c(F)c(F)c(F)c(F)c5F)c5ccc([nH]5)c(-c5c(F)c(F)c(F)c(F)c5F)c5nc(c(-c6c(F)c(F)c(F)c(F)c6F)c6ccc3[nH]6)C=C5)C=C4)cc2)c1
REMARK SMILES IDX 25 1 24 2 22 3 23 4 21 6 16 7 17 8 94 9 18 10 19 11 15 12
REMARK SMILES IDX 14 14 1 15 2 16 3 17 13 18 4 19 12 20 5 21 6 22 11 23 7 24
REMARK SMILES IDX 10 25 8 26 9 27 20 28 26 30 27 31 28 32 29 33 30 35 31 36
REMARK SMILES IDX 32 37 93 38 33 39 92 40 34 41 35 42 36 43 86 44 37 45 91 46
REMARK SMILES IDX 85 47 87 48 38 49 90 50 84 51 83 52 39 54 71 55 51 56 70 57
REMARK SMILES IDX 52 58 55 59 69 60 88 61 53 62 54 63 68 65 89 66 56 67 40 68
REMARK SMILES IDX 41 69 49 70 42 71 43 72 47 73 50 74 44 75 45 76 48 77 46 78
REMARK SMILES IDX 72 79 73 80 81 81 74 82 75 83 79 84 82 85 76 86 77 87 80 88
REMARK SMILES IDX 78 89 57 90 58 91 66 92 59 93 60 94 64 95 67 96 61 97 62 98
REMARK SMILES IDX 65 99 63 100
REMARK H PARENT 24 5 15 13 20 29 28 34 87 53 55 64
REMARK Flexibility Score: inf
ROOT
ATOM      1  C   UNL A   1      41.662  20.873  26.125  1.00  0.00     0.118 C 
ENDROOT
BRANCH   1   2
ATOM      2  N   UNL A   1      42.003  19.468  26.118  1.00  0.00    -0.352 N 
ATOM      3  C   UNL A   1      43.109  18.785  25.687  1.00  0.00     0.255 C 
ATOM      4  O   UNL A   1      43.032  17.553  25.755  1.00  0.00    -0.269 OA
ATOM      5  H   UNL A   1      41.302  18.888  26.496  1.00  0.00     0.163 HD
BRANCH   3   6
ATOM      6  C   UNL A   1      44.401  19.398  25.249  1.00  0.00     0.083 A 
ATOM      7  C   UNL A   1      45.372  21.483  24.365  1.00  0.00     0.039 A 
ATOM      8  C   UNL A   1      46.605  20.844  24.249  1.00  0.00     0.030 A 
ATOM      9  C   UNL A   1      44.283  20.745  24.840  1.00  0.00     0.043 A 
ATOM     10  C   UNL A   1      46.767  19.535  24.694  1.00  0.00     0.049 A 
ATOM     11  C   UNL A   1      45.679  18.828  25.221  1.00  0.00     0.128 A 
BRANCH   7  12
ATOM     12  N   UNL A   1      45.182  22.811  23.966  1.00  0.00    -0.360 N 
ATOM     13  H   UNL A   1      45.611  23.088  23.125  1.00  0.00     0.166 HD
BRANCH  12  14
ATOM     14  C   UNL A   1      44.457  23.763  24.632  1.00  0.00     0.119 C 
ATOM     15  O   UNL A   1      47.152  25.089  24.305  1.00  0.00    -0.244 OA
ATOM     16  C   UNL A   1      46.181  25.558  24.859  1.00  0.00     0.365 C 
ATOM     17  O   UNL A   1      46.057  26.794  25.423  1.00  0.00    -0.402 OA
ATOM     18  C   UNL A   1      44.840  24.958  25.089  1.00  0.00     0.168 C 
ATOM     19  C   UNL A   1      44.811  26.840  25.948  1.00  0.00     0.231 C 
ATOM     20  N   UNL A   1      44.043  25.811  25.803  1.00  0.00    -0.204 NA
BRANCH  19  21
ATOM     21  C   UNL A   1      44.492  28.051  26.691  1.00  0.00     0.037 A 
ATOM     22  C   UNL A   1      43.263  28.690  26.515  1.00  0.00     0.015 A 
ATOM     23  C   UNL A   1      45.427  28.531  27.613  1.00  0.00     0.015 A 
ATOM     24  C   UNL A   1      42.967  29.822  27.278  1.00  0.00     0.021 A 
ATOM     25  C   UNL A   1      45.135  29.674  28.358  1.00  0.00     0.021 A 
ATOM     26  C   UNL A   1      43.905  30.311  28.191  1.00  0.00     0.041 A 
ATOM     27  Cl  UNL A   1      43.538  31.708  29.126  1.00  0.00    -0.084 Cl
ENDBRANCH  19  21
ENDBRANCH  12  14
ENDBRANCH   7  12
BRANCH  11  28
ATOM     28  O   UNL A   1      45.954  17.605  25.752  1.00  0.00    -0.507 OA
ATOM     29  H   UNL A   1      45.622  17.376  26.599  1.00  0.00     0.293 HD
ENDBRANCH  11  28
ENDBRANCH   3   6
ENDBRANCH   1   2
BRANCH   1  30
ATOM     30  C   UNL A   1      41.827  21.452  27.532  1.00  0.00     0.042 C 
BRANCH  30  31
ATOM     31  C   UNL A   1      40.635  22.288  27.978  1.00  0.00     0.118 C 
BRANCH  31  32
ATOM     32  N   UNL A   1      39.760  22.615  26.860  1.00  0.00    -0.352 N 
ATOM     33  C   UNL A   1      39.031  23.750  26.613  1.00  0.00     0.251 C 
ATOM     34  H   UNL A   1      39.681  21.912  26.175  1.00  0.00     0.163 HD
ATOM     35  O   UNL A   1      38.147  23.732  25.762  1.00  0.00    -0.269 OA
BRANCH  33  36
ATOM     36  C   UNL A   1      39.296  24.989  27.373  1.00  0.00     0.039 A 
ATOM     37  C   UNL A   1      38.756  25.123  28.654  1.00  0.00     0.014 A 
ATOM     38  C   UNL A   1      40.045  26.029  26.816  1.00  0.00     0.014 A 
ATOM     39  C   UNL A   1      39.023  26.271  29.402  1.00  0.00     0.010 A 
ATOM     40  C   UNL A   1      40.375  27.136  27.590  1.00  0.00     0.010 A 
ATOM     41  C   UNL A   1      39.869  27.267  28.891  1.00  0.00    -0.014 A 
BRANCH  41  42
ATOM     42  C   UNL A   1      40.263  28.438  29.713  1.00  0.00     0.031 A 
ATOM     43  C   UNL A   1      41.596  28.468  30.402  1.00  0.00     0.074 A 
ATOM     44  C   UNL A   1      39.383  29.440  29.895  1.00  0.00     0.049 A 
ATOM     45  N   UNL A   1      42.084  29.364  31.223  1.00  0.00    -0.248 NA
ATOM     46  C   UNL A   1      42.492  27.327  30.157  1.00  0.00     0.031 C 
ATOM     47  C   UNL A   1      38.044  29.502  29.306  1.00  0.00     0.029 A 
ATOM     48  N   UNL A   1      39.474  30.591  30.637  1.00  0.00    -0.354 N 
ATOM     49  C   UNL A   1      43.336  28.891  31.597  1.00  0.00     0.074 A 
ATOM     50  C   UNL A   1      43.507  27.603  30.961  1.00  0.00     0.031 C 
ATOM     51  C   UNL A   1      37.450  30.643  29.687  1.00  0.00     0.029 A 
ATOM     52  C   UNL A   1      38.341  31.366  30.587  1.00  0.00     0.049 A 
ATOM     53  H   UNL A   1      40.274  30.837  31.154  1.00  0.00     0.167 HD
ATOM     54  C   UNL A   1      44.264  29.490  32.383  1.00  0.00     0.037 A 
ATOM     55  C   UNL A   1      38.050  32.524  31.211  1.00  0.00     0.037 A 
ATOM     56  C   UNL A   1      44.082  30.773  33.011  1.00  0.00     0.049 A 
ATOM     57  C   UNL A   1      39.077  33.142  32.120  1.00  0.00     0.074 A 
ATOM     58  C   UNL A   1      44.976  31.490  33.785  1.00  0.00     0.029 A 
ATOM     59  N   UNL A   1      42.915  31.524  32.950  1.00  0.00    -0.354 N 
ATOM     60  N   UNL A   1      40.285  32.724  32.410  1.00  0.00    -0.248 NA
ATOM     61  C   UNL A   1      38.699  34.394  32.788  1.00  0.00     0.031 C 
ATOM     62  C   UNL A   1      44.330  32.643  34.246  1.00  0.00     0.029 A 
ATOM     63  C   UNL A   1      43.055  32.680  33.704  1.00  0.00     0.049 A 
ATOM     64  H   UNL A   1      42.108  31.273  32.446  1.00  0.00     0.167 HD
ATOM     65  C   UNL A   1      40.821  33.672  33.271  1.00  0.00     0.074 A 
ATOM     66  C   UNL A   1      39.811  34.696  33.442  1.00  0.00     0.031 C 
ATOM     67  C   UNL A   1      42.039  33.691  33.865  1.00  0.00     0.037 A 
BRANCH  54  68
ATOM     68  C   UNL A   1      45.555  28.754  32.613  1.00  0.00     0.064 A 
ATOM     69  C   UNL A   1      45.654  27.711  33.549  1.00  0.00     0.173 A 
ATOM     70  C   UNL A   1      46.704  29.082  31.878  1.00  0.00     0.173 A 
ATOM     71  F   UNL A   1      44.588  27.360  34.285  1.00  0.00    -0.203 F 
ATOM     72  C   UNL A   1      46.863  27.056  33.770  1.00  0.00     0.198 A 
ATOM     73  C   UNL A   1      47.902  28.399  32.075  1.00  0.00     0.198 A 
ATOM     74  F   UNL A   1      46.667  30.063  30.965  1.00  0.00    -0.203 F 
ATOM     75  F   UNL A   1      46.947  26.109  34.713  1.00  0.00    -0.200 F 
ATOM     76  C   UNL A   1      47.984  27.396  33.028  1.00  0.00     0.200 A 
ATOM     77  F   UNL A   1      48.980  28.717  31.346  1.00  0.00    -0.200 F 
ATOM     78  F   UNL A   1      49.146  26.763  33.240  1.00  0.00    -0.200 F 
ENDBRANCH  54  68
BRANCH  55  79
ATOM     79  C   UNL A   1      36.736  33.178  30.979  1.00  0.00     0.064 A 
ATOM     80  C   UNL A   1      36.463  33.829  29.768  1.00  0.00     0.173 A 
ATOM     81  C   UNL A   1      35.725  33.158  31.951  1.00  0.00     0.173 A 
ATOM     82  F   UNL A   1      37.404  33.891  28.815  1.00  0.00    -0.203 F 
ATOM     83  C   UNL A   1      35.235  34.449  29.544  1.00  0.00     0.198 A 
ATOM     84  C   UNL A   1      34.486  33.751  31.714  1.00  0.00     0.198 A 
ATOM     85  F   UNL A   1      35.931  32.543  33.125  1.00  0.00    -0.203 F 
ATOM     86  F   UNL A   1      35.016  35.100  28.394  1.00  0.00    -0.200 F 
ATOM     87  C   UNL A   1      34.246  34.402  30.514  1.00  0.00     0.200 A 
ATOM     88  F   UNL A   1      33.525  33.687  32.647  1.00  0.00    -0.200 F 
ATOM     89  F   UNL A   1      33.060  34.989  30.295  1.00  0.00    -0.200 F 
ENDBRANCH  55  79
BRANCH  67  90
ATOM     90  C   UNL A   1      42.364  34.871  34.736  1.00  0.00     0.064 A 
ATOM     91  C   UNL A   1      42.191  34.831  36.128  1.00  0.00     0.173 A 
ATOM     92  C   UNL A   1      42.898  36.042  34.176  1.00  0.00     0.173 A 
ATOM     93  F   UNL A   1      41.666  33.743  36.713  1.00  0.00    -0.203 F 
ATOM     94  C   UNL A   1      42.519  35.927  36.922  1.00  0.00     0.198 A 
ATOM     95  C   UNL A   1      43.259  37.121  34.976  1.00  0.00     0.198 A 
ATOM     96  F   UNL A   1      43.089  36.131  32.851  1.00  0.00    -0.203 F 
ATOM     97  F   UNL A   1      42.299  35.884  38.243  1.00  0.00    -0.200 F 
ATOM     98  C   UNL A   1      43.063  37.066  36.347  1.00  0.00     0.200 A 
ATOM     99  F   UNL A   1      43.800  38.215  34.421  1.00  0.00    -0.200 F 
ATOM    100  F   UNL A   1      43.391  38.114  37.116  1.00  0.00    -0.200 F 
ENDBRANCH  67  90
ENDBRANCH  41  42
ENDBRANCH  33  36
ENDBRANCH  31  32
ENDBRANCH  30  31
ENDBRANCH   1  30
TORSDOF 14
ENDMDL
