MODEL 1
REMARK VINA RESULT:     -13.7      0.000      0.000
REMARK SMILES C[C@H](NC(=O)N1CCN(/C=C/c2ccccc2)CC1)C(=O)NCCCNC(=O)c1ccc(-c2c3nc(c(-c4c(F)c(F)c(F)c(F)c4F)c4ccc([nH]4)c(-c4c(F)c(F)c(F)c(F)c4F)c4nc(c(-c5c(F)c(F)c(F)c(F)c5F)c5ccc2[nH]5)C=C4)C=C3)cc1
REMARK SMILES IDX 23 1 22 2 20 3 21 4 2 6 1 7 3 8 4 9 5 11 6 12 7 13 19 14
REMARK SMILES IDX 8 15 18 16 9 17 10 18 11 19 12 20 13 21 17 22 14 23 16 24
REMARK SMILES IDX 15 25 24 26 25 27 26 28 27 29 28 31 29 32 30 33 91 34 31 35
REMARK SMILES IDX 90 36 32 37 33 38 34 39 84 40 35 41 89 42 83 43 85 44 36 45
REMARK SMILES IDX 88 46 82 47 81 48 37 50 69 51 49 52 68 53 50 54 53 55 67 56
REMARK SMILES IDX 86 57 51 58 52 59 66 61 87 62 54 63 38 64 39 65 47 66 40 67
REMARK SMILES IDX 41 68 45 69 48 70 42 71 43 72 46 73 44 74 70 75 71 76 79 77
REMARK SMILES IDX 72 78 73 79 77 80 80 81 74 82 75 83 78 84 76 85 55 86 56 87
REMARK SMILES IDX 64 88 57 89 58 90 62 91 65 92 59 93 60 94 63 95 61 96
REMARK H PARENT 22 5 3 10 26 30 85 49 53 60
REMARK Flexibility Score: inf
ROOT
ATOM      1  C   UNL A   1      32.117  30.490  26.218  1.00  0.00     0.117 C 
ENDROOT
BRANCH   1   2
ATOM      2  N   UNL A   1      31.809  29.541  27.279  1.00  0.00    -0.354 N 
ATOM      3  C   UNL A   1      31.884  28.175  27.275  1.00  0.00     0.242 C 
ATOM      4  O   UNL A   1      31.631  27.573  28.320  1.00  0.00    -0.273 OA
ATOM      5  H   UNL A   1      31.502  29.943  28.125  1.00  0.00     0.163 HD
BRANCH   3   6
ATOM      6  C   UNL A   1      32.352  27.433  26.010  1.00  0.00     0.170 C 
ATOM      7  C   UNL A   1      33.655  28.090  25.556  1.00  0.00     0.041 C 
BRANCH   6   8
ATOM      8  N   UNL A   1      31.216  27.403  25.081  1.00  0.00    -0.326 N 
ATOM      9  C   UNL A   1      30.639  26.469  24.307  1.00  0.00     0.318 C 
ATOM     10  H   UNL A   1      30.770  28.277  25.008  1.00  0.00     0.166 HD
ATOM     11  O   UNL A   1      29.990  26.884  23.345  1.00  0.00    -0.249 OA
ATOM     12  N   UNL A   1      30.844  25.148  24.530  1.00  0.00    -0.321 N 
ATOM     13  C   UNL A   1      30.658  24.211  23.425  1.00  0.00     0.143 C 
ATOM     14  C   UNL A   1      30.861  24.492  25.835  1.00  0.00     0.143 C 
ATOM     15  C   UNL A   1      31.781  23.168  23.416  1.00  0.00     0.137 C 
ATOM     16  C   UNL A   1      31.884  23.343  25.910  1.00  0.00     0.137 C 
ATOM     17  N   UNL A   1      31.881  22.465  24.714  1.00  0.00    -0.374 N 
BRANCH  17  18
ATOM     18  C   UNL A   1      32.303  21.149  24.830  1.00  0.00     0.081 C 
ATOM     19  C   UNL A   1      32.360  20.176  23.911  1.00  0.00     0.025 C 
BRANCH  19  20
ATOM     20  C   UNL A   1      32.781  18.804  24.223  1.00  0.00    -0.024 A 
ATOM     21  C   UNL A   1      33.301  17.993  23.206  1.00  0.00     0.008 A 
ATOM     22  C   UNL A   1      32.603  18.255  25.500  1.00  0.00     0.008 A 
ATOM     23  C   UNL A   1      33.654  16.668  23.469  1.00  0.00     0.001 A 
ATOM     24  C   UNL A   1      32.960  16.931  25.763  1.00  0.00     0.001 A 
ATOM     25  C   UNL A   1      33.485  16.138  24.747  1.00  0.00     0.000 A 
ENDBRANCH  19  20
ENDBRANCH  17  18
ENDBRANCH   6   8
ENDBRANCH   3   6
ENDBRANCH   1   2
BRANCH   1  26
ATOM     26  C   UNL A   1      31.706  31.906  26.587  1.00  0.00     0.042 C 
BRANCH  26  27
ATOM     27  C   UNL A   1      32.763  32.648  27.392  1.00  0.00     0.118 C 
BRANCH  27  28
ATOM     28  N   UNL A   1      32.417  34.044  27.634  1.00  0.00    -0.352 N 
ATOM     29  C   UNL A   1      32.955  34.927  28.543  1.00  0.00     0.251 C 
ATOM     30  H   UNL A   1      31.698  34.405  27.068  1.00  0.00     0.163 HD
ATOM     31  O   UNL A   1      32.445  36.022  28.722  1.00  0.00    -0.269 OA
BRANCH  29  32
ATOM     32  C   UNL A   1      34.138  34.518  29.326  1.00  0.00     0.039 A 
ATOM     33  C   UNL A   1      33.951  33.964  30.594  1.00  0.00     0.014 A 
ATOM     34  C   UNL A   1      35.421  34.637  28.786  1.00  0.00     0.014 A 
ATOM     35  C   UNL A   1      35.049  33.447  31.286  1.00  0.00     0.010 A 
ATOM     36  C   UNL A   1      36.497  34.049  29.439  1.00  0.00     0.010 A 
ATOM     37  C   UNL A   1      36.320  33.442  30.691  1.00  0.00    -0.014 A 
BRANCH  37  38
ATOM     38  C   UNL A   1      37.482  32.792  31.347  1.00  0.00     0.031 A 
ATOM     39  C   UNL A   1      38.159  31.624  30.689  1.00  0.00     0.074 A 
ATOM     40  C   UNL A   1      37.864  33.195  32.575  1.00  0.00     0.049 A 
ATOM     41  N   UNL A   1      39.107  30.849  31.149  1.00  0.00    -0.248 NA
ATOM     42  C   UNL A   1      37.684  31.259  29.344  1.00  0.00     0.031 C 
ATOM     43  C   UNL A   1      37.252  34.283  33.338  1.00  0.00     0.029 A 
ATOM     44  N   UNL A   1      38.849  32.720  33.405  1.00  0.00    -0.354 N 
ATOM     45  C   UNL A   1      39.326  29.896  30.163  1.00  0.00     0.074 A 
ATOM     46  C   UNL A   1      38.380  30.159  29.101  1.00  0.00     0.031 C 
ATOM     47  C   UNL A   1      37.884  34.404  34.516  1.00  0.00     0.029 A 
ATOM     48  C   UNL A   1      38.916  33.377  34.610  1.00  0.00     0.049 A 
ATOM     49  H   UNL A   1      39.449  31.979  33.161  1.00  0.00     0.167 HD
ATOM     50  C   UNL A   1      40.249  28.907  30.138  1.00  0.00     0.037 A 
ATOM     51  C   UNL A   1      39.711  33.163  35.675  1.00  0.00     0.037 A 
ATOM     52  C   UNL A   1      41.208  28.668  31.185  1.00  0.00     0.049 A 
ATOM     53  C   UNL A   1      40.724  32.051  35.624  1.00  0.00     0.074 A 
ATOM     54  C   UNL A   1      42.231  27.738  31.221  1.00  0.00     0.029 A 
ATOM     55  N   UNL A   1      41.259  29.367  32.381  1.00  0.00    -0.354 N 
ATOM     56  N   UNL A   1      40.970  31.201  34.658  1.00  0.00    -0.248 NA
ATOM     57  C   UNL A   1      41.569  31.870  36.813  1.00  0.00     0.031 C 
ATOM     58  C   UNL A   1      42.875  27.844  32.458  1.00  0.00     0.029 A 
ATOM     59  C   UNL A   1      42.281  28.872  33.174  1.00  0.00     0.049 A 
ATOM     60  H   UNL A   1      40.658  30.106  32.630  1.00  0.00     0.167 HD
ATOM     61  C   UNL A   1      42.009  30.400  35.109  1.00  0.00     0.074 A 
ATOM     62  C   UNL A   1      42.358  30.876  36.432  1.00  0.00     0.031 C 
ATOM     63  C   UNL A   1      42.618  29.362  34.486  1.00  0.00     0.037 A 
BRANCH  50  64
ATOM     64  C   UNL A   1      40.270  28.008  28.936  1.00  0.00     0.064 A 
ATOM     65  C   UNL A   1      41.012  28.331  27.790  1.00  0.00     0.173 A 
ATOM     66  C   UNL A   1      39.567  26.794  28.943  1.00  0.00     0.173 A 
ATOM     67  F   UNL A   1      41.691  29.486  27.729  1.00  0.00    -0.203 F 
ATOM     68  C   UNL A   1      41.027  27.485  26.684  1.00  0.00     0.198 A 
ATOM     69  C   UNL A   1      39.608  25.936  27.846  1.00  0.00     0.198 A 
ATOM     70  F   UNL A   1      38.845  26.435  30.016  1.00  0.00    -0.203 F 
ATOM     71  F   UNL A   1      41.704  27.838  25.583  1.00  0.00    -0.200 F 
ATOM     72  C   UNL A   1      40.331  26.286  26.716  1.00  0.00     0.200 A 
ATOM     73  F   UNL A   1      38.946  24.772  27.884  1.00  0.00    -0.200 F 
ATOM     74  F   UNL A   1      40.353  25.469  25.654  1.00  0.00    -0.200 F 
ENDBRANCH  50  64
BRANCH  51  75
ATOM     75  C   UNL A   1      39.594  34.031  36.876  1.00  0.00     0.064 A 
ATOM     76  C   UNL A   1      38.826  33.631  37.979  1.00  0.00     0.173 A 
ATOM     77  C   UNL A   1      40.241  35.273  36.946  1.00  0.00     0.173 A 
ATOM     78  F   UNL A   1      38.172  32.461  37.948  1.00  0.00    -0.203 F 
ATOM     79  C   UNL A   1      38.694  34.449  39.099  1.00  0.00     0.198 A 
ATOM     80  C   UNL A   1      40.129  36.079  38.078  1.00  0.00     0.198 A 
ATOM     81  F   UNL A   1      40.989  35.701  35.919  1.00  0.00    -0.203 F 
ATOM     82  F   UNL A   1      37.918  34.061  40.120  1.00  0.00    -0.200 F 
ATOM     83  C   UNL A   1      39.350  35.669  39.150  1.00  0.00     0.200 A 
ATOM     84  F   UNL A   1      40.774  37.252  38.129  1.00  0.00    -0.200 F 
ATOM     85  F   UNL A   1      39.225  36.454  40.228  1.00  0.00    -0.200 F 
ENDBRANCH  51  75
BRANCH  63  86
ATOM     86  C   UNL A   1      43.741  28.686  35.214  1.00  0.00     0.064 A 
ATOM     87  C   UNL A   1      45.070  29.110  35.069  1.00  0.00     0.173 A 
ATOM     88  C   UNL A   1      43.480  27.634  36.104  1.00  0.00     0.173 A 
ATOM     89  F   UNL A   1      45.373  30.101  34.217  1.00  0.00    -0.203 F 
ATOM     90  C   UNL A   1      46.099  28.492  35.776  1.00  0.00     0.198 A 
ATOM     91  C   UNL A   1      44.507  27.037  36.830  1.00  0.00     0.198 A 
ATOM     92  F   UNL A   1      42.224  27.195  36.283  1.00  0.00    -0.203 F 
ATOM     93  F   UNL A   1      47.366  28.886  35.591  1.00  0.00    -0.200 F 
ATOM     94  C   UNL A   1      45.815  27.462  36.661  1.00  0.00     0.200 A 
ATOM     95  F   UNL A   1      44.229  26.052  37.695  1.00  0.00    -0.200 F 
ATOM     96  F   UNL A   1      46.805  26.876  37.348  1.00  0.00    -0.200 F 
ENDBRANCH  63  86
ENDBRANCH  37  38
ENDBRANCH  29  32
ENDBRANCH  27  28
ENDBRANCH  26  27
ENDBRANCH   1  26
TORSDOF 13
ENDMDL
MODEL 2
REMARK VINA RESULT:     -13.6      0.753      7.364
REMARK SMILES C[C@H](NC(=O)N1CCN(/C=C/c2ccccc2)CC1)C(=O)NCCCNC(=O)c1ccc(-c2c3nc(c(-c4c(F)c(F)c(F)c(F)c4F)c4ccc([nH]4)c(-c4c(F)c(F)c(F)c(F)c4F)c4nc(c(-c5c(F)c(F)c(F)c(F)c5F)c5ccc2[nH]5)C=C4)C=C3)cc1
REMARK SMILES IDX 23 1 22 2 20 3 21 4 2 6 1 7 3 8 4 9 5 11 6 12 7 13 19 14
REMARK SMILES IDX 8 15 18 16 9 17 10 18 11 19 12 20 13 21 17 22 14 23 16 24
REMARK SMILES IDX 15 25 24 26 25 27 26 28 27 29 28 31 29 32 30 33 91 34 31 35
REMARK SMILES IDX 90 36 32 37 33 38 34 39 84 40 35 41 89 42 83 43 85 44 36 45
REMARK SMILES IDX 88 46 82 47 81 48 37 50 69 51 49 52 68 53 50 54 53 55 67 56
REMARK SMILES IDX 86 57 51 58 52 59 66 61 87 62 54 63 38 64 39 65 47 66 40 67
REMARK SMILES IDX 41 68 45 69 48 70 42 71 43 72 46 73 44 74 70 75 71 76 79 77
REMARK SMILES IDX 72 78 73 79 77 80 80 81 74 82 75 83 78 84 76 85 55 86 56 87
REMARK SMILES IDX 64 88 57 89 58 90 62 91 65 92 59 93 60 94 63 95 61 96
REMARK H PARENT 22 5 3 10 26 30 85 49 53 60
REMARK Flexibility Score: inf
ROOT
ATOM      1  C   UNL A   1      31.773  30.766  26.121  1.00  0.00     0.117 C 
ENDROOT
BRANCH   1   2
ATOM      2  N   UNL A   1      31.487  29.788  27.161  1.00  0.00    -0.354 N 
ATOM      3  C   UNL A   1      31.788  28.455  27.211  1.00  0.00     0.242 C 
ATOM      4  O   UNL A   1      31.499  27.827  28.231  1.00  0.00    -0.273 OA
ATOM      5  H   UNL A   1      31.006  30.139  27.946  1.00  0.00     0.163 HD
BRANCH   3   6
ATOM      6  C   UNL A   1      32.540  27.791  26.043  1.00  0.00     0.170 C 
ATOM      7  C   UNL A   1      33.989  28.272  26.106  1.00  0.00     0.041 C 
BRANCH   6   8
ATOM      8  N   UNL A   1      31.763  28.050  24.825  1.00  0.00    -0.326 N 
ATOM      9  C   UNL A   1      31.471  27.358  23.712  1.00  0.00     0.318 C 
ATOM     10  H   UNL A   1      31.360  28.949  24.824  1.00  0.00     0.166 HD
ATOM     11  O   UNL A   1      31.163  28.023  22.721  1.00  0.00    -0.249 OA
ATOM     12  N   UNL A   1      31.600  26.009  23.671  1.00  0.00    -0.321 N 
ATOM     13  C   UNL A   1      31.784  25.360  22.375  1.00  0.00     0.143 C 
ATOM     14  C   UNL A   1      31.199  25.078  24.723  1.00  0.00     0.143 C 
ATOM     15  C   UNL A   1      32.855  24.269  22.475  1.00  0.00     0.137 C 
ATOM     16  C   UNL A   1      32.150  23.871  24.841  1.00  0.00     0.137 C 
ATOM     17  N   UNL A   1      32.535  23.286  23.535  1.00  0.00    -0.374 N 
BRANCH  17  18
ATOM     18  C   UNL A   1      32.905  21.952  23.464  1.00  0.00     0.081 C 
ATOM     19  C   UNL A   1      32.333  20.867  24.002  1.00  0.00     0.025 C 
BRANCH  19  20
ATOM     20  C   UNL A   1      32.899  19.517  23.877  1.00  0.00    -0.024 A 
ATOM     21  C   UNL A   1      34.030  19.171  24.626  1.00  0.00     0.008 A 
ATOM     22  C   UNL A   1      32.383  18.588  22.963  1.00  0.00     0.008 A 
ATOM     23  C   UNL A   1      34.618  17.912  24.479  1.00  0.00     0.001 A 
ATOM     24  C   UNL A   1      32.969  17.329  22.819  1.00  0.00     0.001 A 
ATOM     25  C   UNL A   1      34.087  16.992  23.576  1.00  0.00     0.000 A 
ENDBRANCH  19  20
ENDBRANCH  17  18
ENDBRANCH   6   8
ENDBRANCH   3   6
ENDBRANCH   1   2
BRANCH   1  26
ATOM     26  C   UNL A   1      31.476  32.185  26.579  1.00  0.00     0.042 C 
BRANCH  26  27
ATOM     27  C   UNL A   1      32.650  32.848  27.282  1.00  0.00     0.118 C 
BRANCH  27  28
ATOM     28  N   UNL A   1      32.393  34.242  27.626  1.00  0.00    -0.352 N 
ATOM     29  C   UNL A   1      32.968  35.013  28.611  1.00  0.00     0.251 C 
ATOM     30  H   UNL A   1      31.713  34.694  27.077  1.00  0.00     0.163 HD
ATOM     31  O   UNL A   1      32.529  36.123  28.866  1.00  0.00    -0.269 OA
BRANCH  29  32
ATOM     32  C   UNL A   1      34.103  34.465  29.380  1.00  0.00     0.039 A 
ATOM     33  C   UNL A   1      33.851  33.833  30.600  1.00  0.00     0.014 A 
ATOM     34  C   UNL A   1      35.402  34.533  28.872  1.00  0.00     0.014 A 
ATOM     35  C   UNL A   1      34.895  33.191  31.269  1.00  0.00     0.010 A 
ATOM     36  C   UNL A   1      36.421  33.825  29.496  1.00  0.00     0.010 A 
ATOM     37  C   UNL A   1      36.176  33.140  30.696  1.00  0.00    -0.014 A 
BRANCH  37  38
ATOM     38  C   UNL A   1      37.275  32.364  31.320  1.00  0.00     0.031 A 
ATOM     39  C   UNL A   1      37.779  32.739  32.685  1.00  0.00     0.074 A 
ATOM     40  C   UNL A   1      37.879  31.384  30.619  1.00  0.00     0.049 A 
ATOM     41  N   UNL A   1      38.801  32.265  33.349  1.00  0.00    -0.248 NA
ATOM     42  C   UNL A   1      37.053  33.812  33.383  1.00  0.00     0.031 C 
ATOM     43  C   UNL A   1      37.515  30.963  29.266  1.00  0.00     0.029 A 
ATOM     44  N   UNL A   1      38.943  30.579  30.943  1.00  0.00    -0.354 N 
ATOM     45  C   UNL A   1      38.854  32.994  34.530  1.00  0.00     0.074 A 
ATOM     46  C   UNL A   1      37.792  33.975  34.470  1.00  0.00     0.031 C 
ATOM     47  C   UNL A   1      38.329  29.967  28.881  1.00  0.00     0.029 A 
ATOM     48  C   UNL A   1      39.298  29.708  29.941  1.00  0.00     0.049 A 
ATOM     49  H   UNL A   1      39.407  30.621  31.809  1.00  0.00     0.167 HD
ATOM     50  C   UNL A   1      39.697  32.843  35.577  1.00  0.00     0.037 A 
ATOM     51  C   UNL A   1      40.302  28.813  29.879  1.00  0.00     0.037 A 
ATOM     52  C   UNL A   1      40.733  31.846  35.644  1.00  0.00     0.049 A 
ATOM     53  C   UNL A   1      41.230  28.671  31.055  1.00  0.00     0.074 A 
ATOM     54  C   UNL A   1      41.592  31.564  36.691  1.00  0.00     0.029 A 
ATOM     55  N   UNL A   1      41.049  30.968  34.618  1.00  0.00    -0.354 N 
ATOM     56  N   UNL A   1      41.227  29.317  32.195  1.00  0.00    -0.248 NA
ATOM     57  C   UNL A   1      42.304  27.673  30.934  1.00  0.00     0.031 C 
ATOM     58  C   UNL A   1      42.458  30.545  36.283  1.00  0.00     0.029 A 
ATOM     59  C   UNL A   1      42.108  30.160  34.998  1.00  0.00     0.049 A 
ATOM     60  H   UNL A   1      40.589  30.926  33.748  1.00  0.00     0.167 HD
ATOM     61  C   UNL A   1      42.277  28.793  32.935  1.00  0.00     0.074 A 
ATOM     62  C   UNL A   1      42.888  27.762  32.121  1.00  0.00     0.031 C 
ATOM     63  C   UNL A   1      42.700  29.135  34.176  1.00  0.00     0.037 A 
BRANCH  50  64
ATOM     64  C   UNL A   1      39.533  33.776  36.741  1.00  0.00     0.064 A 
ATOM     65  C   UNL A   1      38.758  33.428  37.857  1.00  0.00     0.173 A 
ATOM     66  C   UNL A   1      40.183  35.019  36.755  1.00  0.00     0.173 A 
ATOM     67  F   UNL A   1      38.105  32.257  37.888  1.00  0.00    -0.203 F 
ATOM     68  C   UNL A   1      38.617  34.301  38.933  1.00  0.00     0.198 A 
ATOM     69  C   UNL A   1      40.065  35.878  37.845  1.00  0.00     0.198 A 
ATOM     70  F   UNL A   1      40.940  35.399  35.714  1.00  0.00    -0.203 F 
ATOM     71  F   UNL A   1      37.833  33.967  39.967  1.00  0.00    -0.200 F 
ATOM     72  C   UNL A   1      39.277  35.521  38.929  1.00  0.00     0.200 A 
ATOM     73  F   UNL A   1      40.713  37.051  37.845  1.00  0.00    -0.200 F 
ATOM     74  F   UNL A   1      39.147  36.358  39.968  1.00  0.00    -0.200 F 
ENDBRANCH  50  64
BRANCH  51  75
ATOM     75  C   UNL A   1      40.473  27.969  28.668  1.00  0.00     0.064 A 
ATOM     76  C   UNL A   1      39.854  26.715  28.574  1.00  0.00     0.173 A 
ATOM     77  C   UNL A   1      41.255  28.394  27.585  1.00  0.00     0.173 A 
ATOM     78  F   UNL A   1      39.113  26.257  29.594  1.00  0.00    -0.203 F 
ATOM     79  C   UNL A   1      40.027  25.909  27.451  1.00  0.00     0.198 A 
ATOM     80  C   UNL A   1      41.406  27.599  26.451  1.00  0.00     0.198 A 
ATOM     81  F   UNL A   1      41.867  29.588  27.624  1.00  0.00    -0.203 F 
ATOM     82  F   UNL A   1      39.460  24.696  27.406  1.00  0.00    -0.200 F 
ATOM     83  C   UNL A   1      40.798  26.354  26.388  1.00  0.00     0.200 A 
ATOM     84  F   UNL A   1      42.142  28.037  25.421  1.00  0.00    -0.200 F 
ATOM     85  F   UNL A   1      40.962  25.580  25.307  1.00  0.00    -0.200 F 
ENDBRANCH  51  75
BRANCH  63  86
ATOM     86  C   UNL A   1      43.861  28.373  34.742  1.00  0.00     0.064 A 
ATOM     87  C   UNL A   1      43.679  27.170  35.439  1.00  0.00     0.173 A 
ATOM     88  C   UNL A   1      45.173  28.827  34.542  1.00  0.00     0.173 A 
ATOM     89  F   UNL A   1      42.442  26.704  35.670  1.00  0.00    -0.203 F 
ATOM     90  C   UNL A   1      44.770  26.458  35.932  1.00  0.00     0.198 A 
ATOM     91  C   UNL A   1      46.263  28.098  35.012  1.00  0.00     0.198 A 
ATOM     92  F   UNL A   1      45.401  29.970  33.877  1.00  0.00    -0.203 F 
ATOM     93  F   UNL A   1      44.571  25.333  36.630  1.00  0.00    -0.200 F 
ATOM     94  C   UNL A   1      46.059  26.919  35.711  1.00  0.00     0.200 A 
ATOM     95  F   UNL A   1      47.508  28.537  34.785  1.00  0.00    -0.200 F 
ATOM     96  F   UNL A   1      47.108  26.226  36.176  1.00  0.00    -0.200 F 
ENDBRANCH  63  86
ENDBRANCH  37  38
ENDBRANCH  29  32
ENDBRANCH  27  28
ENDBRANCH  26  27
ENDBRANCH   1  26
TORSDOF 13
ENDMDL
MODEL 3
REMARK VINA RESULT:     -13.6      0.159      1.935
REMARK SMILES C[C@H](NC(=O)N1CCN(/C=C/c2ccccc2)CC1)C(=O)NCCCNC(=O)c1ccc(-c2c3nc(c(-c4c(F)c(F)c(F)c(F)c4F)c4ccc([nH]4)c(-c4c(F)c(F)c(F)c(F)c4F)c4nc(c(-c5c(F)c(F)c(F)c(F)c5F)c5ccc2[nH]5)C=C4)C=C3)cc1
REMARK SMILES IDX 23 1 22 2 20 3 21 4 2 6 1 7 3 8 4 9 5 11 6 12 7 13 19 14
REMARK SMILES IDX 8 15 18 16 9 17 10 18 11 19 12 20 13 21 17 22 14 23 16 24
REMARK SMILES IDX 15 25 24 26 25 27 26 28 27 29 28 31 29 32 30 33 91 34 31 35
REMARK SMILES IDX 90 36 32 37 33 38 34 39 84 40 35 41 89 42 83 43 85 44 36 45
REMARK SMILES IDX 88 46 82 47 81 48 37 50 69 51 49 52 68 53 50 54 53 55 67 56
REMARK SMILES IDX 86 57 51 58 52 59 66 61 87 62 54 63 38 64 39 65 47 66 40 67
REMARK SMILES IDX 41 68 45 69 48 70 42 71 43 72 46 73 44 74 70 75 71 76 79 77
REMARK SMILES IDX 72 78 73 79 77 80 80 81 74 82 75 83 78 84 76 85 55 86 56 87
REMARK SMILES IDX 64 88 57 89 58 90 62 91 65 92 59 93 60 94 63 95 61 96
REMARK H PARENT 22 5 3 10 26 30 85 49 53 60
REMARK Flexibility Score: inf
ROOT
ATOM      1  C   UNL A   1      32.150  30.523  26.277  1.00  0.00     0.117 C 
ENDROOT
BRANCH   1   2
ATOM      2  N   UNL A   1      31.752  29.497  27.230  1.00  0.00    -0.354 N 
ATOM      3  C   UNL A   1      31.861  28.136  27.141  1.00  0.00     0.242 C 
ATOM      4  O   UNL A   1      31.509  27.457  28.108  1.00  0.00    -0.273 OA
ATOM      5  H   UNL A   1      31.345  29.832  28.062  1.00  0.00     0.163 HD
BRANCH   3   6
ATOM      6  C   UNL A   1      32.482  27.492  25.888  1.00  0.00     0.170 C 
ATOM      7  C   UNL A   1      33.797  28.219  25.611  1.00  0.00     0.041 C 
BRANCH   6   8
ATOM      8  N   UNL A   1      31.446  27.485  24.847  1.00  0.00    -0.326 N 
ATOM      9  C   UNL A   1      30.940  26.565  24.009  1.00  0.00     0.318 C 
ATOM     10  H   UNL A   1      31.022  28.366  24.737  1.00  0.00     0.166 HD
ATOM     11  O   UNL A   1      30.398  26.996  22.990  1.00  0.00    -0.249 OA
ATOM     12  N   UNL A   1      31.104  25.240  24.240  1.00  0.00    -0.321 N 
ATOM     13  C   UNL A   1      31.020  24.315  23.113  1.00  0.00     0.143 C 
ATOM     14  C   UNL A   1      30.979  24.574  25.534  1.00  0.00     0.143 C 
ATOM     15  C   UNL A   1      32.125  23.257  23.210  1.00  0.00     0.137 C 
ATOM     16  C   UNL A   1      31.973  23.410  25.702  1.00  0.00     0.137 C 
ATOM     17  N   UNL A   1      32.081  22.542  24.505  1.00  0.00    -0.374 N 
BRANCH  17  18
ATOM     18  C   UNL A   1      32.473  21.220  24.651  1.00  0.00     0.081 C 
ATOM     19  C   UNL A   1      32.360  20.187  23.806  1.00  0.00     0.025 C 
BRANCH  19  20
ATOM     20  C   UNL A   1      32.778  18.821  24.150  1.00  0.00    -0.024 A 
ATOM     21  C   UNL A   1      33.304  17.988  23.155  1.00  0.00     0.008 A 
ATOM     22  C   UNL A   1      32.590  18.299  25.438  1.00  0.00     0.008 A 
ATOM     23  C   UNL A   1      33.654  16.668  23.449  1.00  0.00     0.001 A 
ATOM     24  C   UNL A   1      32.944  16.981  25.732  1.00  0.00     0.001 A 
ATOM     25  C   UNL A   1      33.475  16.166  24.737  1.00  0.00     0.000 A 
ENDBRANCH  19  20
ENDBRANCH  17  18
ENDBRANCH   6   8
ENDBRANCH   3   6
ENDBRANCH   1   2
BRANCH   1  26
ATOM     26  C   UNL A   1      31.721  31.911  26.725  1.00  0.00     0.042 C 
BRANCH  26  27
ATOM     27  C   UNL A   1      32.847  32.711  27.363  1.00  0.00     0.118 C 
BRANCH  27  28
ATOM     28  N   UNL A   1      32.478  34.095  27.632  1.00  0.00    -0.352 N 
ATOM     29  C   UNL A   1      32.990  34.964  28.569  1.00  0.00     0.251 C 
ATOM     30  H   UNL A   1      31.761  34.460  27.066  1.00  0.00     0.163 HD
ATOM     31  O   UNL A   1      32.463  36.047  28.767  1.00  0.00    -0.269 OA
BRANCH  29  32
ATOM     32  C   UNL A   1      34.169  34.554  29.359  1.00  0.00     0.039 A 
ATOM     33  C   UNL A   1      33.976  34.019  30.634  1.00  0.00     0.014 A 
ATOM     34  C   UNL A   1      35.453  34.653  28.817  1.00  0.00     0.014 A 
ATOM     35  C   UNL A   1      35.068  33.502  31.333  1.00  0.00     0.010 A 
ATOM     36  C   UNL A   1      36.524  34.064  29.479  1.00  0.00     0.010 A 
ATOM     37  C   UNL A   1      36.340  33.475  30.739  1.00  0.00    -0.014 A 
BRANCH  37  38
ATOM     38  C   UNL A   1      37.495  32.822  31.404  1.00  0.00     0.031 A 
ATOM     39  C   UNL A   1      38.177  31.655  30.749  1.00  0.00     0.074 A 
ATOM     40  C   UNL A   1      37.866  33.222  32.636  1.00  0.00     0.049 A 
ATOM     41  N   UNL A   1      39.120  30.879  31.217  1.00  0.00    -0.248 NA
ATOM     42  C   UNL A   1      37.715  31.295  29.399  1.00  0.00     0.031 C 
ATOM     43  C   UNL A   1      37.248  34.308  33.396  1.00  0.00     0.029 A 
ATOM     44  N   UNL A   1      38.842  32.744  33.475  1.00  0.00    -0.354 N 
ATOM     45  C   UNL A   1      39.348  29.928  30.230  1.00  0.00     0.074 A 
ATOM     46  C   UNL A   1      38.412  30.195  29.160  1.00  0.00     0.031 C 
ATOM     47  C   UNL A   1      37.868  34.426  34.581  1.00  0.00     0.029 A 
ATOM     48  C   UNL A   1      38.898  33.397  34.682  1.00  0.00     0.049 A 
ATOM     49  H   UNL A   1      39.444  32.003  33.235  1.00  0.00     0.167 HD
ATOM     50  C   UNL A   1      40.270  28.938  30.211  1.00  0.00     0.037 A 
ATOM     51  C   UNL A   1      39.683  33.180  35.755  1.00  0.00     0.037 A 
ATOM     52  C   UNL A   1      41.219  28.696  31.267  1.00  0.00     0.049 A 
ATOM     53  C   UNL A   1      40.695  32.068  35.710  1.00  0.00     0.074 A 
ATOM     54  C   UNL A   1      42.241  27.764  31.310  1.00  0.00     0.029 A 
ATOM     55  N   UNL A   1      41.259  29.392  32.465  1.00  0.00    -0.354 N 
ATOM     56  N   UNL A   1      40.950  31.220  34.744  1.00  0.00    -0.248 NA
ATOM     57  C   UNL A   1      41.528  31.882  36.907  1.00  0.00     0.031 C 
ATOM     58  C   UNL A   1      42.872  27.867  32.554  1.00  0.00     0.029 A 
ATOM     59  C   UNL A   1      42.273  28.893  33.266  1.00  0.00     0.049 A 
ATOM     60  H   UNL A   1      40.656  30.131  32.710  1.00  0.00     0.167 HD
ATOM     61  C   UNL A   1      41.984  30.416  35.203  1.00  0.00     0.074 A 
ATOM     62  C   UNL A   1      42.321  30.889  36.530  1.00  0.00     0.031 C 
ATOM     63  C   UNL A   1      42.598  29.379  34.583  1.00  0.00     0.037 A 
BRANCH  50  64
ATOM     64  C   UNL A   1      40.302  28.042  29.008  1.00  0.00     0.064 A 
ATOM     65  C   UNL A   1      39.569  26.846  28.963  1.00  0.00     0.173 A 
ATOM     66  C   UNL A   1      41.047  28.398  27.874  1.00  0.00     0.173 A 
ATOM     67  F   UNL A   1      38.850  26.454  30.026  1.00  0.00    -0.203 F 
ATOM     68  C   UNL A   1      39.603  26.026  27.838  1.00  0.00     0.198 A 
ATOM     69  C   UNL A   1      41.055  27.590  26.739  1.00  0.00     0.198 A 
ATOM     70  F   UNL A   1      41.763  29.533  27.863  1.00  0.00    -0.203 F 
ATOM     71  F   UNL A   1      38.933  24.866  27.837  1.00  0.00    -0.200 F 
ATOM     72  C   UNL A   1      40.340  26.403  26.725  1.00  0.00     0.200 A 
ATOM     73  F   UNL A   1      41.758  27.961  25.660  1.00  0.00    -0.200 F 
ATOM     74  F   UNL A   1      40.365  25.616  25.640  1.00  0.00    -0.200 F 
ENDBRANCH  50  64
BRANCH  51  75
ATOM     75  C   UNL A   1      39.555  34.045  36.956  1.00  0.00     0.064 A 
ATOM     76  C   UNL A   1      40.220  35.277  37.028  1.00  0.00     0.173 A 
ATOM     77  C   UNL A   1      38.772  33.661  38.054  1.00  0.00     0.173 A 
ATOM     78  F   UNL A   1      40.998  35.677  36.012  1.00  0.00    -0.203 F 
ATOM     79  C   UNL A   1      40.122  36.083  38.160  1.00  0.00     0.198 A 
ATOM     80  C   UNL A   1      38.653  34.480  39.175  1.00  0.00     0.198 A 
ATOM     81  F   UNL A   1      38.113  32.492  38.034  1.00  0.00    -0.203 F 
ATOM     82  F   UNL A   1      40.804  37.235  38.220  1.00  0.00    -0.200 F 
ATOM     83  C   UNL A   1      39.335  35.687  39.230  1.00  0.00     0.200 A 
ATOM     84  F   UNL A   1      37.882  34.099  40.202  1.00  0.00    -0.200 F 
ATOM     85  F   UNL A   1      39.239  36.463  40.318  1.00  0.00    -0.200 F 
ENDBRANCH  51  75
BRANCH  63  86
ATOM     86  C   UNL A   1      43.714  28.701  35.320  1.00  0.00     0.064 A 
ATOM     87  C   UNL A   1      43.474  27.623  36.184  1.00  0.00     0.173 A 
ATOM     88  C   UNL A   1      45.043  29.102  35.122  1.00  0.00     0.173 A 
ATOM     89  F   UNL A   1      42.218  27.213  36.420  1.00  0.00    -0.203 F 
ATOM     90  C   UNL A   1      44.524  26.983  36.838  1.00  0.00     0.198 A 
ATOM     91  C   UNL A   1      46.093  28.443  35.756  1.00  0.00     0.198 A 
ATOM     92  F   UNL A   1      45.326  30.125  34.300  1.00  0.00    -0.203 F 
ATOM     93  F   UNL A   1      44.268  25.983  37.691  1.00  0.00    -0.200 F 
ATOM     94  C   UNL A   1      45.831  27.389  36.617  1.00  0.00     0.200 A 
ATOM     95  F   UNL A   1      47.357  28.826  35.530  1.00  0.00    -0.200 F 
ATOM     96  F   UNL A   1      46.841  26.765  37.239  1.00  0.00    -0.200 F 
ENDBRANCH  63  86
ENDBRANCH  37  38
ENDBRANCH  29  32
ENDBRANCH  27  28
ENDBRANCH  26  27
ENDBRANCH   1  26
TORSDOF 13
ENDMDL
