MODEL 1
REMARK VINA RESULT:     -12.7      0.000      0.000
REMARK SMILES Cc1ccc2c(c1C)O[C@@H](C(=O)NCCCNC(=O)c1ccc(-c3c4nc(c(-c5c(F)c(F)c(F)c(F)c5F)c5ccc([nH]5)c(-c5c(F)c(F)c(F)c(F)c5F)c5nc(c(-c6c(F)c(F)c(F)c(F)c6F)c6ccc3[nH]6)C=C5)C=C4)cc1)CC2=O
REMARK SMILES IDX 16 1 15 2 14 3 13 4 11 5 12 6 10 8 1 9 2 10 3 11 7 12 4 13
REMARK SMILES IDX 6 14 8 15 5 16 9 17 84 18 83 19 85 20 17 21 18 22 19 24
REMARK SMILES IDX 20 25 21 26 82 27 22 28 81 29 23 30 24 31 25 32 75 33 26 34
REMARK SMILES IDX 80 35 74 36 76 37 27 38 79 39 73 40 72 41 28 43 60 44 40 45
REMARK SMILES IDX 59 46 41 47 44 48 58 49 77 50 42 51 43 52 57 54 78 55 45 56
REMARK SMILES IDX 29 57 30 58 38 59 31 60 32 61 36 62 39 63 33 64 34 65 37 66
REMARK SMILES IDX 35 67 61 68 62 69 70 70 63 71 64 72 68 73 71 74 65 75 66 76
REMARK SMILES IDX 69 77 67 78 46 79 47 80 55 81 48 82 49 83 53 84 56 85 50 86
REMARK SMILES IDX 51 87 54 88 52 89
REMARK H PARENT 13 7 17 23 76 42 44 53
REMARK Flexibility Score: inf
ROOT
ATOM      1  C   UNL A   1      32.586  32.863  27.060  1.00  0.00     0.118 C 
ENDROOT
BRANCH   1   2
ATOM      2  C   UNL A   1      31.256  32.373  26.502  1.00  0.00     0.042 C 
BRANCH   2   3
ATOM      3  C   UNL A   1      31.354  30.958  25.943  1.00  0.00     0.118 C 
BRANCH   3   4
ATOM      4  N   UNL A   1      32.399  30.188  26.583  1.00  0.00    -0.353 N 
ATOM      5  C   UNL A   1      33.241  29.223  26.132  1.00  0.00     0.261 C 
ATOM      6  O   UNL A   1      34.074  28.817  26.953  1.00  0.00    -0.271 OA
ATOM      7  H   UNL A   1      32.524  30.407  27.534  1.00  0.00     0.163 HD
BRANCH   5   8
ATOM      8  C   UNL A   1      33.174  28.567  24.726  1.00  0.00     0.269 C 
ATOM      9  C   UNL A   1      27.298  28.578  23.136  1.00  0.00     0.045 C 
ATOM     10  C   UNL A   1      28.651  27.983  23.429  1.00  0.00    -0.044 A 
ATOM     11  C   UNL A   1      28.685  26.650  23.876  1.00  0.00     0.005 A 
ATOM     12  C   UNL A   1      29.860  28.695  23.280  1.00  0.00    -0.005 A 
ATOM     13  C   UNL A   1      29.887  26.046  24.237  1.00  0.00     0.016 A 
ATOM     14  C   UNL A   1      31.057  28.105  23.746  1.00  0.00     0.134 A 
ATOM     15  C   UNL A   1      29.910  30.104  22.747  1.00  0.00     0.049 C 
ATOM     16  C   UNL A   1      31.067  26.789  24.202  1.00  0.00     0.060 A 
ATOM     17  O   UNL A   1      32.143  28.931  23.826  1.00  0.00    -0.479 OA
ATOM     18  C   UNL A   1      32.304  26.221  24.758  1.00  0.00     0.170 C 
ATOM     19  C   UNL A   1      33.522  27.088  24.757  1.00  0.00     0.136 C 
ATOM     20  O   UNL A   1      32.327  25.070  25.185  1.00  0.00    -0.294 OA
ENDBRANCH   5   8
ENDBRANCH   3   4
ENDBRANCH   2   3
ENDBRANCH   1   2
BRANCH   1  21
ATOM     21  N   UNL A   1      32.472  34.204  27.626  1.00  0.00    -0.352 N 
ATOM     22  C   UNL A   1      33.106  34.767  28.705  1.00  0.00     0.251 C 
ATOM     23  H   UNL A   1      31.839  34.799  27.160  1.00  0.00     0.163 HD
ATOM     24  O   UNL A   1      32.698  35.829  29.169  1.00  0.00    -0.269 OA
BRANCH  22  25
ATOM     25  C   UNL A   1      34.272  34.099  29.316  1.00  0.00     0.039 A 
ATOM     26  C   UNL A   1      34.062  33.133  30.305  1.00  0.00     0.014 A 
ATOM     27  C   UNL A   1      35.572  34.446  28.939  1.00  0.00     0.014 A 
ATOM     28  C   UNL A   1      35.155  32.474  30.870  1.00  0.00     0.010 A 
ATOM     29  C   UNL A   1      36.653  33.728  29.435  1.00  0.00     0.010 A 
ATOM     30  C   UNL A   1      36.456  32.750  30.419  1.00  0.00    -0.014 A 
BRANCH  30  31
ATOM     31  C   UNL A   1      37.630  32.062  31.004  1.00  0.00     0.031 A 
ATOM     32  C   UNL A   1      38.101  32.441  32.380  1.00  0.00     0.074 A 
ATOM     33  C   UNL A   1      38.288  31.133  30.287  1.00  0.00     0.049 A 
ATOM     34  N   UNL A   1      39.113  31.975  33.065  1.00  0.00    -0.248 NA
ATOM     35  C   UNL A   1      37.350  33.504  33.069  1.00  0.00     0.031 C 
ATOM     36  C   UNL A   1      37.946  30.718  28.927  1.00  0.00     0.029 A 
ATOM     37  N   UNL A   1      39.383  30.369  30.602  1.00  0.00    -0.354 N 
ATOM     38  C   UNL A   1      39.115  32.681  34.260  1.00  0.00     0.074 A 
ATOM     39  C   UNL A   1      38.055  33.660  34.180  1.00  0.00     0.031 C 
ATOM     40  C   UNL A   1      38.790  29.751  28.537  1.00  0.00     0.029 A 
ATOM     41  C   UNL A   1      39.751  29.497  29.608  1.00  0.00     0.049 A 
ATOM     42  H   UNL A   1      39.859  30.439  31.462  1.00  0.00     0.167 HD
ATOM     43  C   UNL A   1      39.904  32.501  35.343  1.00  0.00     0.037 A 
ATOM     44  C   UNL A   1      40.746  28.592  29.572  1.00  0.00     0.037 A 
ATOM     45  C   UNL A   1      40.945  31.512  35.422  1.00  0.00     0.049 A 
ATOM     46  C   UNL A   1      41.635  28.433  30.777  1.00  0.00     0.074 A 
ATOM     47  C   UNL A   1      41.777  31.221  36.487  1.00  0.00     0.029 A 
ATOM     48  N   UNL A   1      41.293  30.653  34.389  1.00  0.00    -0.354 N 
ATOM     49  N   UNL A   1      41.584  29.058  31.928  1.00  0.00    -0.248 NA
ATOM     50  C   UNL A   1      42.713  27.438  30.683  1.00  0.00     0.031 C 
ATOM     51  C   UNL A   1      42.660  30.216  36.084  1.00  0.00     0.029 A 
ATOM     52  C   UNL A   1      42.345  29.845  34.786  1.00  0.00     0.049 A 
ATOM     53  H   UNL A   1      40.858  30.623  33.506  1.00  0.00     0.167 HD
ATOM     54  C   UNL A   1      42.600  28.517  32.704  1.00  0.00     0.074 A 
ATOM     55  C   UNL A   1      43.246  27.503  31.895  1.00  0.00     0.031 C 
ATOM     56  C   UNL A   1      42.964  28.830  33.970  1.00  0.00     0.037 A 
BRANCH  43  57
ATOM     57  C   UNL A   1      39.656  33.373  36.538  1.00  0.00     0.064 A 
ATOM     58  C   UNL A   1      40.292  34.616  36.678  1.00  0.00     0.173 A 
ATOM     59  C   UNL A   1      38.739  32.990  37.528  1.00  0.00     0.173 A 
ATOM     60  F   UNL A   1      41.190  35.022  35.766  1.00  0.00    -0.203 F 
ATOM     61  C   UNL A   1      40.038  35.433  37.776  1.00  0.00     0.198 A 
ATOM     62  C   UNL A   1      38.462  33.824  38.609  1.00  0.00     0.198 A 
ATOM     63  F   UNL A   1      38.100  31.814  37.440  1.00  0.00    -0.203 F 
ATOM     64  F   UNL A   1      40.690  36.595  37.910  1.00  0.00    -0.200 F 
ATOM     65  C   UNL A   1      39.115  35.041  38.735  1.00  0.00     0.200 A 
ATOM     66  F   UNL A   1      37.562  33.451  39.528  1.00  0.00    -0.200 F 
ATOM     67  F   UNL A   1      38.860  35.835  39.783  1.00  0.00    -0.200 F 
ENDBRANCH  43  57
BRANCH  44  68
ATOM     68  C   UNL A   1      40.914  27.728  28.374  1.00  0.00     0.064 A 
ATOM     69  C   UNL A   1      40.254  26.495  28.284  1.00  0.00     0.173 A 
ATOM     70  C   UNL A   1      41.709  28.124  27.288  1.00  0.00     0.173 A 
ATOM     71  F   UNL A   1      39.498  26.064  29.303  1.00  0.00    -0.203 F 
ATOM     72  C   UNL A   1      40.389  25.686  27.157  1.00  0.00     0.198 A 
ATOM     73  C   UNL A   1      41.824  27.325  26.151  1.00  0.00     0.198 A 
ATOM     74  F   UNL A   1      42.359  29.295  27.323  1.00  0.00    -0.203 F 
ATOM     75  F   UNL A   1      39.772  24.497  27.111  1.00  0.00    -0.200 F 
ATOM     76  C   UNL A   1      41.168  26.104  26.088  1.00  0.00     0.200 A 
ATOM     77  F   UNL A   1      42.567  27.738  25.116  1.00  0.00    -0.200 F 
ATOM     78  F   UNL A   1      41.289  25.330  25.001  1.00  0.00    -0.200 F 
ENDBRANCH  44  68
BRANCH  56  79
ATOM     79  C   UNL A   1      44.095  28.061  34.585  1.00  0.00     0.064 A 
ATOM     80  C   UNL A   1      45.407  28.552  34.568  1.00  0.00     0.173 A 
ATOM     81  C   UNL A   1      43.842  26.875  35.293  1.00  0.00     0.173 A 
ATOM     82  F   UNL A   1      45.700  29.676  33.896  1.00  0.00    -0.203 F 
ATOM     83  C   UNL A   1      46.429  27.879  35.233  1.00  0.00     0.198 A 
ATOM     84  C   UNL A   1      44.860  26.222  35.981  1.00  0.00     0.198 A 
ATOM     85  F   UNL A   1      42.600  26.371  35.347  1.00  0.00    -0.203 F 
ATOM     86  F   UNL A   1      47.682  28.354  35.185  1.00  0.00    -0.200 F 
ATOM     87  C   UNL A   1      46.152  26.724  35.949  1.00  0.00     0.200 A 
ATOM     88  F   UNL A   1      44.588  25.117  36.688  1.00  0.00    -0.200 F 
ATOM     89  F   UNL A   1      47.133  26.095  36.612  1.00  0.00    -0.200 F 
ENDBRANCH  56  79
ENDBRANCH  30  31
ENDBRANCH  22  25
ENDBRANCH   1  21
TORSDOF 10
ENDMDL
MODEL 2
REMARK VINA RESULT:     -12.7      0.534      7.679
REMARK SMILES Cc1ccc2c(c1C)O[C@@H](C(=O)NCCCNC(=O)c1ccc(-c3c4nc(c(-c5c(F)c(F)c(F)c(F)c5F)c5ccc([nH]5)c(-c5c(F)c(F)c(F)c(F)c5F)c5nc(c(-c6c(F)c(F)c(F)c(F)c6F)c6ccc3[nH]6)C=C5)C=C4)cc1)CC2=O
REMARK SMILES IDX 16 1 15 2 14 3 13 4 11 5 12 6 10 8 1 9 2 10 3 11 7 12 4 13
REMARK SMILES IDX 6 14 8 15 5 16 9 17 84 18 83 19 85 20 17 21 18 22 19 24
REMARK SMILES IDX 20 25 21 26 82 27 22 28 81 29 23 30 24 31 25 32 75 33 26 34
REMARK SMILES IDX 80 35 74 36 76 37 27 38 79 39 73 40 72 41 28 43 60 44 40 45
REMARK SMILES IDX 59 46 41 47 44 48 58 49 77 50 42 51 43 52 57 54 78 55 45 56
REMARK SMILES IDX 29 57 30 58 38 59 31 60 32 61 36 62 39 63 33 64 34 65 37 66
REMARK SMILES IDX 35 67 61 68 62 69 70 70 63 71 64 72 68 73 71 74 65 75 66 76
REMARK SMILES IDX 69 77 67 78 46 79 47 80 55 81 48 82 49 83 53 84 56 85 50 86
REMARK SMILES IDX 51 87 54 88 52 89
REMARK H PARENT 13 7 17 23 76 42 44 53
REMARK Flexibility Score: inf
ROOT
ATOM      1  C   UNL A   1      32.459  32.802  27.216  1.00  0.00     0.118 C 
ENDROOT
BRANCH   1   2
ATOM      2  C   UNL A   1      31.196  32.346  26.499  1.00  0.00     0.042 C 
BRANCH   2   3
ATOM      3  C   UNL A   1      31.361  30.972  25.860  1.00  0.00     0.118 C 
BRANCH   3   4
ATOM      4  N   UNL A   1      32.422  30.206  26.478  1.00  0.00    -0.353 N 
ATOM      5  C   UNL A   1      33.260  29.246  26.010  1.00  0.00     0.261 C 
ATOM      6  O   UNL A   1      34.111  28.843  26.814  1.00  0.00    -0.271 OA
ATOM      7  H   UNL A   1      32.564  30.424  27.428  1.00  0.00     0.163 HD
BRANCH   5   8
ATOM      8  C   UNL A   1      33.170  28.593  24.604  1.00  0.00     0.269 C 
ATOM      9  C   UNL A   1      27.259  28.516  23.154  1.00  0.00     0.045 C 
ATOM     10  C   UNL A   1      28.627  27.942  23.413  1.00  0.00    -0.044 A 
ATOM     11  C   UNL A   1      28.693  26.608  23.855  1.00  0.00     0.005 A 
ATOM     12  C   UNL A   1      29.822  28.673  23.237  1.00  0.00    -0.005 A 
ATOM     13  C   UNL A   1      29.912  26.022  24.186  1.00  0.00     0.016 A 
ATOM     14  C   UNL A   1      31.038  28.100  23.673  1.00  0.00     0.134 A 
ATOM     15  C   UNL A   1      29.837  30.084  22.707  1.00  0.00     0.049 C 
ATOM     16  C   UNL A   1      31.079  26.783  24.124  1.00  0.00     0.060 A 
ATOM     17  O   UNL A   1      32.112  28.943  23.729  1.00  0.00    -0.479 OA
ATOM     18  C   UNL A   1      32.338  26.234  24.649  1.00  0.00     0.170 C 
ATOM     19  C   UNL A   1      33.542  27.119  24.622  1.00  0.00     0.136 C 
ATOM     20  O   UNL A   1      32.389  25.082  25.072  1.00  0.00    -0.294 OA
ENDBRANCH   5   8
ENDBRANCH   3   4
ENDBRANCH   2   3
ENDBRANCH   1   2
BRANCH   1  21
ATOM     21  N   UNL A   1      32.384  34.211  27.597  1.00  0.00    -0.352 N 
ATOM     22  C   UNL A   1      33.026  34.892  28.601  1.00  0.00     0.251 C 
ATOM     23  H   UNL A   1      31.777  34.757  27.047  1.00  0.00     0.163 HD
ATOM     24  O   UNL A   1      32.649  36.019  28.913  1.00  0.00    -0.269 OA
BRANCH  22  25
ATOM     25  C   UNL A   1      34.162  34.274  29.313  1.00  0.00     0.039 A 
ATOM     26  C   UNL A   1      33.910  33.464  30.425  1.00  0.00     0.014 A 
ATOM     27  C   UNL A   1      35.476  34.517  28.906  1.00  0.00     0.014 A 
ATOM     28  C   UNL A   1      34.974  32.852  31.089  1.00  0.00     0.010 A 
ATOM     29  C   UNL A   1      36.526  33.837  29.510  1.00  0.00     0.010 A 
ATOM     30  C   UNL A   1      36.287  33.014  30.618  1.00  0.00    -0.014 A 
BRANCH  30  31
ATOM     31  C   UNL A   1      37.431  32.373  31.308  1.00  0.00     0.031 A 
ATOM     32  C   UNL A   1      38.173  31.255  30.631  1.00  0.00     0.074 A 
ATOM     33  C   UNL A   1      37.773  32.770  32.547  1.00  0.00     0.049 A 
ATOM     34  N   UNL A   1      39.187  30.554  31.067  1.00  0.00    -0.248 NA
ATOM     35  C   UNL A   1      37.696  30.855  29.297  1.00  0.00     0.031 C 
ATOM     36  C   UNL A   1      37.095  33.814  33.316  1.00  0.00     0.029 A 
ATOM     37  N   UNL A   1      38.775  32.341  33.380  1.00  0.00    -0.354 N 
ATOM     38  C   UNL A   1      39.469  29.639  30.061  1.00  0.00     0.074 A 
ATOM     39  C   UNL A   1      38.475  29.818  29.028  1.00  0.00     0.031 C 
ATOM     40  C   UNL A   1      37.723  33.970  34.492  1.00  0.00     0.029 A 
ATOM     41  C   UNL A   1      38.827  33.017  34.573  1.00  0.00     0.049 A 
ATOM     42  H   UNL A   1      39.399  31.617  33.142  1.00  0.00     0.167 HD
ATOM     43  C   UNL A   1      40.490  28.755  29.990  1.00  0.00     0.037 A 
ATOM     44  C   UNL A   1      39.677  32.887  35.609  1.00  0.00     0.037 A 
ATOM     45  C   UNL A   1      41.486  28.595  31.015  1.00  0.00     0.049 A 
ATOM     46  C   UNL A   1      40.787  31.872  35.521  1.00  0.00     0.074 A 
ATOM     47  C   UNL A   1      42.584  27.756  31.024  1.00  0.00     0.029 A 
ATOM     48  N   UNL A   1      41.499  29.293  32.214  1.00  0.00    -0.354 N 
ATOM     49  N   UNL A   1      41.086  31.059  34.537  1.00  0.00    -0.248 NA
ATOM     50  C   UNL A   1      41.680  31.761  36.682  1.00  0.00     0.031 C 
ATOM     51  C   UNL A   1      43.239  27.913  32.249  1.00  0.00     0.029 A 
ATOM     52  C   UNL A   1      42.578  28.886  32.981  1.00  0.00     0.049 A 
ATOM     53  H   UNL A   1      40.840  29.975  32.480  1.00  0.00     0.167 HD
ATOM     54  C   UNL A   1      42.215  30.362  34.945  1.00  0.00     0.074 A 
ATOM     55  C   UNL A   1      42.553  30.855  36.264  1.00  0.00     0.031 C 
ATOM     56  C   UNL A   1      42.907  29.402  34.286  1.00  0.00     0.037 A 
BRANCH  43  57
ATOM     57  C   UNL A   1      40.597  27.913  28.753  1.00  0.00     0.064 A 
ATOM     58  C   UNL A   1      39.904  26.698  28.636  1.00  0.00     0.173 A 
ATOM     59  C   UNL A   1      41.356  28.344  27.655  1.00  0.00     0.173 A 
ATOM     60  F   UNL A   1      39.175  26.235  29.663  1.00  0.00    -0.203 F 
ATOM     61  C   UNL A   1      39.985  25.935  27.475  1.00  0.00     0.198 A 
ATOM     62  C   UNL A   1      41.411  27.593  26.483  1.00  0.00     0.198 A 
ATOM     63  F   UNL A   1      42.035  29.499  27.713  1.00  0.00    -0.203 F 
ATOM     64  F   UNL A   1      39.350  24.758  27.404  1.00  0.00    -0.200 F 
ATOM     65  C   UNL A   1      40.730  26.388  26.396  1.00  0.00     0.200 A 
ATOM     66  F   UNL A   1      42.120  28.037  25.437  1.00  0.00    -0.200 F 
ATOM     67  F   UNL A   1      40.796  25.658  25.274  1.00  0.00    -0.200 F 
ENDBRANCH  43  57
BRANCH  44  68
ATOM     68  C   UNL A   1      39.545  33.780  36.790  1.00  0.00     0.064 A 
ATOM     69  C   UNL A   1      40.166  35.036  36.808  1.00  0.00     0.173 A 
ATOM     70  C   UNL A   1      38.778  33.414  37.905  1.00  0.00     0.173 A 
ATOM     71  F   UNL A   1      40.924  35.424  35.773  1.00  0.00    -0.203 F 
ATOM     72  C   UNL A   1      40.032  35.890  37.902  1.00  0.00     0.198 A 
ATOM     73  C   UNL A   1      38.624  34.279  38.988  1.00  0.00     0.198 A 
ATOM     74  F   UNL A   1      38.161  32.225  37.936  1.00  0.00    -0.203 F 
ATOM     75  F   UNL A   1      40.663  37.072  37.906  1.00  0.00    -0.200 F 
ATOM     76  C   UNL A   1      39.255  35.514  38.988  1.00  0.00     0.200 A 
ATOM     77  F   UNL A   1      37.863  33.917  40.030  1.00  0.00    -0.200 F 
ATOM     78  F   UNL A   1      39.119  36.340  40.034  1.00  0.00    -0.200 F 
ENDBRANCH  44  68
BRANCH  56  79
ATOM     79  C   UNL A   1      44.118  28.828  34.958  1.00  0.00     0.064 A 
ATOM     80  C   UNL A   1      44.039  27.673  35.748  1.00  0.00     0.173 A 
ATOM     81  C   UNL A   1      45.389  29.376  34.716  1.00  0.00     0.173 A 
ATOM     82  F   UNL A   1      42.847  27.119  36.016  1.00  0.00    -0.203 F 
ATOM     83  C   UNL A   1      45.187  27.091  36.279  1.00  0.00     0.198 A 
ATOM     84  C   UNL A   1      46.536  28.774  35.224  1.00  0.00     0.198 A 
ATOM     85  F   UNL A   1      45.518  30.474  33.956  1.00  0.00    -0.203 F 
ATOM     86  F   UNL A   1      45.086  26.001  37.051  1.00  0.00    -0.200 F 
ATOM     87  C   UNL A   1      46.434  27.634  36.005  1.00  0.00     0.200 A 
ATOM     88  F   UNL A   1      47.741  29.288  34.942  1.00  0.00    -0.200 F 
ATOM     89  F   UNL A   1      47.539  27.055  36.494  1.00  0.00    -0.200 F 
ENDBRANCH  56  79
ENDBRANCH  30  31
ENDBRANCH  22  25
ENDBRANCH   1  21
TORSDOF 10
ENDMDL
MODEL 3
REMARK VINA RESULT:     -12.7      0.323      1.195
REMARK SMILES Cc1ccc2c(c1C)O[C@@H](C(=O)NCCCNC(=O)c1ccc(-c3c4nc(c(-c5c(F)c(F)c(F)c(F)c5F)c5ccc([nH]5)c(-c5c(F)c(F)c(F)c(F)c5F)c5nc(c(-c6c(F)c(F)c(F)c(F)c6F)c6ccc3[nH]6)C=C5)C=C4)cc1)CC2=O
REMARK SMILES IDX 16 1 15 2 14 3 13 4 11 5 12 6 10 8 1 9 2 10 3 11 7 12 4 13
REMARK SMILES IDX 6 14 8 15 5 16 9 17 84 18 83 19 85 20 17 21 18 22 19 24
REMARK SMILES IDX 20 25 21 26 82 27 22 28 81 29 23 30 24 31 25 32 75 33 26 34
REMARK SMILES IDX 80 35 74 36 76 37 27 38 79 39 73 40 72 41 28 43 60 44 40 45
REMARK SMILES IDX 59 46 41 47 44 48 58 49 77 50 42 51 43 52 57 54 78 55 45 56
REMARK SMILES IDX 29 57 30 58 38 59 31 60 32 61 36 62 39 63 33 64 34 65 37 66
REMARK SMILES IDX 35 67 61 68 62 69 70 70 63 71 64 72 68 73 71 74 65 75 66 76
REMARK SMILES IDX 69 77 67 78 46 79 47 80 55 81 48 82 49 83 53 84 56 85 50 86
REMARK SMILES IDX 51 87 54 88 52 89
REMARK H PARENT 13 7 17 23 76 42 44 53
REMARK Flexibility Score: inf
ROOT
ATOM      1  C   UNL A   1      32.525  32.519  27.235  1.00  0.00     0.118 C 
ENDROOT
BRANCH   1   2
ATOM      2  C   UNL A   1      31.243  32.149  26.501  1.00  0.00     0.042 C 
BRANCH   2   3
ATOM      3  C   UNL A   1      31.371  30.830  25.748  1.00  0.00     0.118 C 
BRANCH   3   4
ATOM      4  N   UNL A   1      32.500  30.047  26.205  1.00  0.00    -0.353 N 
ATOM      5  C   UNL A   1      33.278  29.112  25.602  1.00  0.00     0.261 C 
ATOM      6  O   UNL A   1      34.219  28.683  26.283  1.00  0.00    -0.271 OA
ATOM      7  H   UNL A   1      32.754  30.230  27.138  1.00  0.00     0.163 HD
BRANCH   5   8
ATOM      8  C   UNL A   1      33.020  28.512  24.193  1.00  0.00     0.269 C 
ATOM      9  C   UNL A   1      26.985  28.578  23.405  1.00  0.00     0.045 C 
ATOM     10  C   UNL A   1      28.362  27.974  23.491  1.00  0.00    -0.044 A 
ATOM     11  C   UNL A   1      28.451  26.624  23.876  1.00  0.00     0.005 A 
ATOM     12  C   UNL A   1      29.544  28.692  23.210  1.00  0.00    -0.005 A 
ATOM     13  C   UNL A   1      29.687  26.008  24.049  1.00  0.00     0.016 A 
ATOM     14  C   UNL A   1      30.790  28.086  23.487  1.00  0.00     0.134 A 
ATOM     15  C   UNL A   1      29.528  30.122  22.730  1.00  0.00     0.049 C 
ATOM     16  C   UNL A   1      30.855  26.753  23.885  1.00  0.00     0.060 A 
ATOM     17  O   UNL A   1      31.880  28.910  23.454  1.00  0.00    -0.479 OA
ATOM     18  C   UNL A   1      32.153  26.165  24.248  1.00  0.00     0.170 C 
ATOM     19  C   UNL A   1      33.364  27.033  24.118  1.00  0.00     0.136 C 
ATOM     20  O   UNL A   1      32.228  24.998  24.623  1.00  0.00    -0.294 OA
ENDBRANCH   5   8
ENDBRANCH   3   4
ENDBRANCH   2   3
ENDBRANCH   1   2
BRANCH   1  21
ATOM     21  N   UNL A   1      32.538  33.928  27.620  1.00  0.00    -0.352 N 
ATOM     22  C   UNL A   1      33.278  34.578  28.576  1.00  0.00     0.251 C 
ATOM     23  H   UNL A   1      31.917  34.502  27.115  1.00  0.00     0.163 HD
ATOM     24  O   UNL A   1      32.972  35.719  28.915  1.00  0.00    -0.269 OA
BRANCH  22  25
ATOM     25  C   UNL A   1      34.434  33.910  29.205  1.00  0.00     0.039 A 
ATOM     26  C   UNL A   1      34.211  32.978  30.224  1.00  0.00     0.014 A 
ATOM     27  C   UNL A   1      35.738  34.223  28.815  1.00  0.00     0.014 A 
ATOM     28  C   UNL A   1      35.295  32.320  30.806  1.00  0.00     0.010 A 
ATOM     29  C   UNL A   1      36.809  33.504  29.330  1.00  0.00     0.010 A 
ATOM     30  C   UNL A   1      36.599  32.560  30.344  1.00  0.00    -0.014 A 
BRANCH  30  31
ATOM     31  C   UNL A   1      37.763  31.871  30.948  1.00  0.00     0.031 A 
ATOM     32  C   UNL A   1      38.199  32.234  32.339  1.00  0.00     0.074 A 
ATOM     33  C   UNL A   1      38.443  30.956  30.234  1.00  0.00     0.049 A 
ATOM     34  N   UNL A   1      39.197  31.764  33.042  1.00  0.00    -0.248 NA
ATOM     35  C   UNL A   1      37.425  33.283  33.025  1.00  0.00     0.031 C 
ATOM     36  C   UNL A   1      38.136  30.558  28.860  1.00  0.00     0.029 A 
ATOM     37  N   UNL A   1      39.535  30.194  30.565  1.00  0.00    -0.354 N 
ATOM     38  C   UNL A   1      39.166  32.454  34.246  1.00  0.00     0.074 A 
ATOM     39  C   UNL A   1      38.102  33.428  34.154  1.00  0.00     0.031 C 
ATOM     40  C   UNL A   1      38.996  29.601  28.478  1.00  0.00     0.029 A 
ATOM     41  C   UNL A   1      39.933  29.338  29.568  1.00  0.00     0.049 A 
ATOM     42  H   UNL A   1      39.990  30.255  31.436  1.00  0.00     0.167 HD
ATOM     43  C   UNL A   1      39.930  32.264  35.345  1.00  0.00     0.037 A 
ATOM     44  C   UNL A   1      40.934  28.439  29.543  1.00  0.00     0.037 A 
ATOM     45  C   UNL A   1      40.975  31.281  35.435  1.00  0.00     0.049 A 
ATOM     46  C   UNL A   1      41.795  28.269  30.767  1.00  0.00     0.074 A 
ATOM     47  C   UNL A   1      41.784  30.981  36.516  1.00  0.00     0.029 A 
ATOM     48  N   UNL A   1      41.353  30.438  34.400  1.00  0.00    -0.354 N 
ATOM     49  N   UNL A   1      41.713  28.879  31.925  1.00  0.00    -0.248 NA
ATOM     50  C   UNL A   1      42.881  27.283  30.685  1.00  0.00     0.031 C 
ATOM     51  C   UNL A   1      42.683  29.986  36.121  1.00  0.00     0.029 A 
ATOM     52  C   UNL A   1      42.401  29.631  34.811  1.00  0.00     0.049 A 
ATOM     53  H   UNL A   1      40.940  30.418  33.507  1.00  0.00     0.167 HD
ATOM     54  C   UNL A   1      42.713  28.333  32.717  1.00  0.00     0.074 A 
ATOM     55  C   UNL A   1      43.384  27.334  31.911  1.00  0.00     0.031 C 
ATOM     56  C   UNL A   1      43.045  28.631  33.996  1.00  0.00     0.037 A 
BRANCH  43  57
ATOM     57  C   UNL A   1      39.648  33.118  36.546  1.00  0.00     0.064 A 
ATOM     58  C   UNL A   1      40.305  34.344  36.739  1.00  0.00     0.173 A 
ATOM     59  C   UNL A   1      38.680  32.737  37.486  1.00  0.00     0.173 A 
ATOM     60  F   UNL A   1      41.250  34.748  35.875  1.00  0.00    -0.203 F 
ATOM     61  C   UNL A   1      40.019  35.145  37.840  1.00  0.00     0.198 A 
ATOM     62  C   UNL A   1      38.374  33.556  38.571  1.00  0.00     0.198 A 
ATOM     63  F   UNL A   1      38.021  31.578  37.347  1.00  0.00    -0.203 F 
ATOM     64  F   UNL A   1      40.690  36.289  38.026  1.00  0.00    -0.200 F 
ATOM     65  C   UNL A   1      39.047  34.756  38.750  1.00  0.00     0.200 A 
ATOM     66  F   UNL A   1      37.426  33.185  39.442  1.00  0.00    -0.200 F 
ATOM     67  F   UNL A   1      38.763  35.534  39.802  1.00  0.00    -0.200 F 
ENDBRANCH  43  57
BRANCH  44  68
ATOM     68  C   UNL A   1      41.136  27.593  28.338  1.00  0.00     0.064 A 
ATOM     69  C   UNL A   1      42.020  27.990  27.326  1.00  0.00     0.173 A 
ATOM     70  C   UNL A   1      40.478  26.364  28.185  1.00  0.00     0.173 A 
ATOM     71  F   UNL A   1      42.659  29.165  27.418  1.00  0.00    -0.203 F 
ATOM     72  C   UNL A   1      42.232  27.195  26.201  1.00  0.00     0.198 A 
ATOM     73  C   UNL A   1      40.709  25.557  27.071  1.00  0.00     0.198 A 
ATOM     74  F   UNL A   1      39.624  25.937  29.126  1.00  0.00    -0.203 F 
ATOM     75  F   UNL A   1      43.058  27.614  25.233  1.00  0.00    -0.200 F 
ATOM     76  C   UNL A   1      41.582  25.976  26.078  1.00  0.00     0.200 A 
ATOM     77  F   UNL A   1      40.089  24.375  26.962  1.00  0.00    -0.200 F 
ATOM     78  F   UNL A   1      41.794  25.207  25.001  1.00  0.00    -0.200 F 
ENDBRANCH  44  68
BRANCH  56  79
ATOM     79  C   UNL A   1      44.166  27.861  34.627  1.00  0.00     0.064 A 
ATOM     80  C   UNL A   1      45.474  28.361  34.652  1.00  0.00     0.173 A 
ATOM     81  C   UNL A   1      43.905  26.661  35.309  1.00  0.00     0.173 A 
ATOM     82  F   UNL A   1      45.775  29.498  34.006  1.00  0.00    -0.203 F 
ATOM     83  C   UNL A   1      46.484  27.686  35.332  1.00  0.00     0.198 A 
ATOM     84  C   UNL A   1      44.910  26.005  36.012  1.00  0.00     0.198 A 
ATOM     85  F   UNL A   1      42.666  26.147  35.324  1.00  0.00    -0.203 F 
ATOM     86  F   UNL A   1      47.734  28.170  35.324  1.00  0.00    -0.200 F 
ATOM     87  C   UNL A   1      46.198  26.517  36.022  1.00  0.00     0.200 A 
ATOM     88  F   UNL A   1      44.628  24.887  36.695  1.00  0.00    -0.200 F 
ATOM     89  F   UNL A   1      47.167  25.884  36.699  1.00  0.00    -0.200 F 
ENDBRANCH  56  79
ENDBRANCH  30  31
ENDBRANCH  22  25
ENDBRANCH   1  21
TORSDOF 10
ENDMDL
