MODEL 1
REMARK VINA RESULT:     -11.8      0.000      0.000
REMARK SMILES C/C=C/C[C@H](Cc1cccc(F)c1)C(=O)NCCCNC(=O)c1ccc(-c2c3nc(c(-c4c(F)c(F)c(F)c(F)c4F)c4ccc([nH]4)c(-c4c(F)c(F)c(F)c(F)c4F)c4nc(c(-c5c(F)c(F)c(F)c(F)c5F)c5ccc2[nH]5)C=C4)C=C3)cc1
REMARK SMILES IDX 18 1 17 2 16 3 14 4 15 5 5 7 4 8 3 9 1 10 2 11 6 12 7 13
REMARK SMILES IDX 8 14 13 15 9 16 11 17 10 18 12 19 19 20 20 21 21 22 22 24
REMARK SMILES IDX 23 25 24 26 85 27 25 28 84 29 26 30 27 31 28 32 78 33 29 34
REMARK SMILES IDX 83 35 77 36 79 37 30 38 82 39 76 40 75 41 31 43 63 44 43 45
REMARK SMILES IDX 62 46 44 47 47 48 61 49 80 50 45 51 46 52 60 54 81 55 48 56
REMARK SMILES IDX 32 57 33 58 41 59 34 60 35 61 39 62 42 63 36 64 37 65 40 66
REMARK SMILES IDX 38 67 64 68 65 69 73 70 66 71 67 72 71 73 74 74 68 75 69 76
REMARK SMILES IDX 72 77 70 78 49 79 50 80 58 81 51 82 52 83 56 84 59 85 53 86
REMARK SMILES IDX 54 87 57 88 55 89
REMARK H PARENT 16 6 20 23 79 42 47 53
REMARK Flexibility Score: inf
ROOT
ATOM      1  C   UNL A   1      31.464  31.936  26.851  1.00  0.00     0.042 C 
ENDROOT
BRANCH   1   2
ATOM      2  C   UNL A   1      31.721  30.669  26.062  1.00  0.00     0.117 C 
BRANCH   2   3
ATOM      3  N   UNL A   1      31.026  30.603  24.799  1.00  0.00    -0.356 N 
ATOM      4  C   UNL A   1      30.654  29.514  24.074  1.00  0.00     0.223 C 
ATOM      5  O   UNL A   1      29.928  29.718  23.096  1.00  0.00    -0.275 OA
ATOM      6  H   UNL A   1      30.784  31.472  24.406  1.00  0.00     0.163 HD
BRANCH   4   7
ATOM      7  C   UNL A   1      31.112  28.095  24.416  1.00  0.00     0.086 C 
BRANCH   7   8
ATOM      8  C   UNL A   1      32.520  27.803  23.804  1.00  0.00     0.040 C 
BRANCH   8   9
ATOM      9  C   UNL A   1      33.503  27.051  24.675  1.00  0.00    -0.031 C 
ATOM     10  C   UNL A   1      34.786  25.011  25.357  1.00  0.00     0.035 C 
ATOM     11  C   UNL A   1      34.008  25.840  24.384  1.00  0.00    -0.035 C 
ENDBRANCH   8   9
ENDBRANCH   7   8
BRANCH   7  12
ATOM     12  C   UNL A   1      30.041  27.007  24.174  1.00  0.00     0.049 C 
BRANCH  12  13
ATOM     13  C   UNL A   1      30.411  25.554  24.411  1.00  0.00    -0.044 A 
ATOM     14  C   UNL A   1      30.625  24.635  23.374  1.00  0.00     0.004 A 
ATOM     15  C   UNL A   1      30.657  25.128  25.728  1.00  0.00     0.043 A 
ATOM     16  C   UNL A   1      31.032  23.322  23.645  1.00  0.00     0.003 A 
ATOM     17  C   UNL A   1      31.069  23.824  25.987  1.00  0.00     0.123 A 
ATOM     18  C   UNL A   1      31.254  22.915  24.956  1.00  0.00     0.039 A 
ATOM     19  F   UNL A   1      31.303  23.446  27.251  1.00  0.00    -0.207 F 
ENDBRANCH  12  13
ENDBRANCH   7  12
ENDBRANCH   4   7
ENDBRANCH   2   3
ENDBRANCH   1   2
BRANCH   1  20
ATOM     20  C   UNL A   1      32.730  32.663  27.255  1.00  0.00     0.118 C 
BRANCH  20  21
ATOM     21  N   UNL A   1      32.489  34.059  27.606  1.00  0.00    -0.352 N 
ATOM     22  C   UNL A   1      33.044  34.839  28.590  1.00  0.00     0.251 C 
ATOM     23  H   UNL A   1      31.819  34.515  27.047  1.00  0.00     0.163 HD
ATOM     24  O   UNL A   1      32.556  35.937  28.850  1.00  0.00    -0.269 OA
BRANCH  22  25
ATOM     25  C   UNL A   1      34.211  34.353  29.354  1.00  0.00     0.039 A 
ATOM     26  C   UNL A   1      34.006  33.674  30.557  1.00  0.00     0.014 A 
ATOM     27  C   UNL A   1      35.507  34.560  28.880  1.00  0.00     0.014 A 
ATOM     28  C   UNL A   1      35.098  33.128  31.237  1.00  0.00     0.010 A 
ATOM     29  C   UNL A   1      36.574  33.920  29.490  1.00  0.00     0.010 A 
ATOM     30  C   UNL A   1      36.384  33.203  30.680  1.00  0.00    -0.014 A 
BRANCH  30  31
ATOM     31  C   UNL A   1      37.554  32.551  31.317  1.00  0.00     0.031 A 
ATOM     32  C   UNL A   1      38.241  31.406  30.627  1.00  0.00     0.074 A 
ATOM     33  C   UNL A   1      37.934  32.924  32.554  1.00  0.00     0.049 A 
ATOM     34  N   UNL A   1      39.195  30.627  31.068  1.00  0.00    -0.248 NA
ATOM     35  C   UNL A   1      37.768  31.068  29.275  1.00  0.00     0.031 C 
ATOM     36  C   UNL A   1      37.313  33.988  33.343  1.00  0.00     0.029 A 
ATOM     37  N   UNL A   1      38.925  32.439  33.372  1.00  0.00    -0.354 N 
ATOM     38  C   UNL A   1      39.415  29.697  30.061  1.00  0.00     0.074 A 
ATOM     39  C   UNL A   1      38.459  29.970  29.012  1.00  0.00     0.031 C 
ATOM     40  C   UNL A   1      37.951  34.093  34.519  1.00  0.00     0.029 A 
ATOM     41  C   UNL A   1      38.992  33.072  34.589  1.00  0.00     0.049 A 
ATOM     42  H   UNL A   1      39.529  31.707  33.111  1.00  0.00     0.167 HD
ATOM     43  C   UNL A   1      40.348  28.719  30.010  1.00  0.00     0.037 A 
ATOM     44  C   UNL A   1      39.794  32.847  35.648  1.00  0.00     0.037 A 
ATOM     45  C   UNL A   1      41.321  28.483  31.043  1.00  0.00     0.049 A 
ATOM     46  C   UNL A   1      40.822  31.752  35.572  1.00  0.00     0.074 A 
ATOM     47  C   UNL A   1      42.363  27.574  31.048  1.00  0.00     0.029 A 
ATOM     48  N   UNL A   1      41.367  29.156  32.256  1.00  0.00    -0.354 N 
ATOM     49  N   UNL A   1      41.069  30.923  34.588  1.00  0.00    -0.248 NA
ATOM     50  C   UNL A   1      41.683  31.561  36.747  1.00  0.00     0.031 C 
ATOM     51  C   UNL A   1      43.000  27.650  32.289  1.00  0.00     0.029 A 
ATOM     52  C   UNL A   1      42.399  28.655  33.032  1.00  0.00     0.049 A 
ATOM     53  H   UNL A   1      40.757  29.880  32.524  1.00  0.00     0.167 HD
ATOM     54  C   UNL A   1      42.124  30.127  35.012  1.00  0.00     0.074 A 
ATOM     55  C   UNL A   1      42.477  30.577  36.342  1.00  0.00     0.031 C 
ATOM     56  C   UNL A   1      42.742  29.117  34.354  1.00  0.00     0.037 A 
BRANCH  43  57
ATOM     57  C   UNL A   1      40.373  27.831  28.799  1.00  0.00     0.064 A 
ATOM     58  C   UNL A   1      39.657  26.624  28.792  1.00  0.00     0.173 A 
ATOM     59  C   UNL A   1      41.147  28.140  27.671  1.00  0.00     0.173 A 
ATOM     60  F   UNL A   1      38.904  26.278  29.846  1.00  0.00    -0.203 F 
ATOM     61  C   UNL A   1      39.726  25.756  27.706  1.00  0.00     0.198 A 
ATOM     62  C   UNL A   1      41.186  27.286  26.572  1.00  0.00     0.198 A 
ATOM     63  F   UNL A   1      41.842  29.287  27.621  1.00  0.00    -0.203 F 
ATOM     64  F   UNL A   1      39.061  24.593  27.737  1.00  0.00    -0.200 F 
ATOM     65  C   UNL A   1      40.485  26.090  26.594  1.00  0.00     0.200 A 
ATOM     66  F   UNL A   1      41.896  27.624  25.487  1.00  0.00    -0.200 F 
ATOM     67  F   UNL A   1      40.536  25.261  25.542  1.00  0.00    -0.200 F 
ENDBRANCH  43  57
BRANCH  44  68
ATOM     68  C   UNL A   1      39.662  33.709  36.852  1.00  0.00     0.064 A 
ATOM     69  C   UNL A   1      38.831  33.347  37.923  1.00  0.00     0.173 A 
ATOM     70  C   UNL A   1      40.307  34.951  36.917  1.00  0.00     0.173 A 
ATOM     71  F   UNL A   1      38.185  32.172  37.904  1.00  0.00    -0.203 F 
ATOM     72  C   UNL A   1      38.628  34.208  38.999  1.00  0.00     0.198 A 
ATOM     73  C   UNL A   1      40.124  35.800  38.007  1.00  0.00     0.198 A 
ATOM     74  F   UNL A   1      41.124  35.334  35.925  1.00  0.00    -0.203 F 
ATOM     75  F   UNL A   1      37.791  33.859  39.985  1.00  0.00    -0.200 F 
ATOM     76  C   UNL A   1      39.276  35.434  39.040  1.00  0.00     0.200 A 
ATOM     77  F   UNL A   1      40.765  36.976  38.052  1.00  0.00    -0.200 F 
ATOM     78  F   UNL A   1      39.077  36.264  40.073  1.00  0.00    -0.200 F 
ENDBRANCH  44  68
BRANCH  56  79
ATOM     79  C   UNL A   1      43.884  28.424  35.039  1.00  0.00     0.064 A 
ATOM     80  C   UNL A   1      45.201  28.869  34.842  1.00  0.00     0.173 A 
ATOM     81  C   UNL A   1      43.691  27.253  35.784  1.00  0.00     0.173 A 
ATOM     82  F   UNL A   1      45.439  29.980  34.127  1.00  0.00    -0.203 F 
ATOM     83  C   UNL A   1      46.283  28.148  35.338  1.00  0.00     0.198 A 
ATOM     84  C   UNL A   1      44.774  26.550  36.305  1.00  0.00     0.198 A 
ATOM     85  F   UNL A   1      42.450  26.793  36.009  1.00  0.00    -0.203 F 
ATOM     86  F   UNL A   1      47.533  28.564  35.091  1.00  0.00    -0.200 F 
ATOM     87  C   UNL A   1      46.069  26.990  36.070  1.00  0.00     0.200 A 
ATOM     88  F   UNL A   1      44.567  25.443  37.030  1.00  0.00    -0.200 F 
ATOM     89  F   UNL A   1      47.111  26.294  36.544  1.00  0.00    -0.200 F 
ENDBRANCH  56  79
ENDBRANCH  30  31
ENDBRANCH  22  25
ENDBRANCH  20  21
ENDBRANCH   1  20
TORSDOF 14
ENDMDL
MODEL 2
REMARK VINA RESULT:     -11.8      6.173     11.295
REMARK SMILES C/C=C/C[C@H](Cc1cccc(F)c1)C(=O)NCCCNC(=O)c1ccc(-c2c3nc(c(-c4c(F)c(F)c(F)c(F)c4F)c4ccc([nH]4)c(-c4c(F)c(F)c(F)c(F)c4F)c4nc(c(-c5c(F)c(F)c(F)c(F)c5F)c5ccc2[nH]5)C=C4)C=C3)cc1
REMARK SMILES IDX 18 1 17 2 16 3 14 4 15 5 5 7 4 8 3 9 1 10 2 11 6 12 7 13
REMARK SMILES IDX 8 14 13 15 9 16 11 17 10 18 12 19 19 20 20 21 21 22 22 24
REMARK SMILES IDX 23 25 24 26 85 27 25 28 84 29 26 30 27 31 28 32 78 33 29 34
REMARK SMILES IDX 83 35 77 36 79 37 30 38 82 39 76 40 75 41 31 43 63 44 43 45
REMARK SMILES IDX 62 46 44 47 47 48 61 49 80 50 45 51 46 52 60 54 81 55 48 56
REMARK SMILES IDX 32 57 33 58 41 59 34 60 35 61 39 62 42 63 36 64 37 65 40 66
REMARK SMILES IDX 38 67 64 68 65 69 73 70 66 71 67 72 71 73 74 74 68 75 69 76
REMARK SMILES IDX 72 77 70 78 49 79 50 80 58 81 51 82 52 83 56 84 59 85 53 86
REMARK SMILES IDX 54 87 57 88 55 89
REMARK H PARENT 16 6 20 23 79 42 47 53
REMARK Flexibility Score: inf
ROOT
ATOM      1  C   UNL A   1      38.134  19.923  24.819  1.00  0.00     0.042 C 
ENDROOT
BRANCH   1   2
ATOM      2  C   UNL A   1      36.850  20.687  25.063  1.00  0.00     0.117 C 
BRANCH   2   3
ATOM      3  N   UNL A   1      35.671  19.858  25.146  1.00  0.00    -0.356 N 
ATOM      4  C   UNL A   1      34.379  20.163  24.849  1.00  0.00     0.223 C 
ATOM      5  O   UNL A   1      33.572  19.228  24.856  1.00  0.00    -0.275 OA
ATOM      6  H   UNL A   1      35.825  18.939  25.463  1.00  0.00     0.163 HD
BRANCH   4   7
ATOM      7  C   UNL A   1      33.913  21.586  24.536  1.00  0.00     0.086 C 
BRANCH   7   8
ATOM      8  C   UNL A   1      33.792  22.431  25.845  1.00  0.00     0.040 C 
BRANCH   8   9
ATOM      9  C   UNL A   1      34.241  23.874  25.773  1.00  0.00    -0.031 C 
ATOM     10  C   UNL A   1      33.835  26.343  25.660  1.00  0.00     0.035 C 
ATOM     11  C   UNL A   1      33.437  24.934  25.966  1.00  0.00    -0.035 C 
ENDBRANCH   8   9
ENDBRANCH   7   8
BRANCH   7  12
ATOM     12  C   UNL A   1      32.703  21.662  23.578  1.00  0.00     0.049 C 
BRANCH  12  13
ATOM     13  C   UNL A   1      32.177  23.027  23.174  1.00  0.00    -0.044 A 
ATOM     14  C   UNL A   1      30.954  23.545  23.625  1.00  0.00     0.004 A 
ATOM     15  C   UNL A   1      32.998  23.862  22.397  1.00  0.00     0.043 A 
ATOM     16  C   UNL A   1      30.546  24.839  23.277  1.00  0.00     0.003 A 
ATOM     17  C   UNL A   1      32.588  25.150  22.063  1.00  0.00     0.123 A 
ATOM     18  C   UNL A   1      31.366  25.644  22.492  1.00  0.00     0.039 A 
ATOM     19  F   UNL A   1      33.393  25.927  21.327  1.00  0.00    -0.207 F 
ENDBRANCH  12  13
ENDBRANCH   7  12
ENDBRANCH   4   7
ENDBRANCH   2   3
ENDBRANCH   1   2
BRANCH   1  20
ATOM     20  C   UNL A   1      39.250  20.296  25.773  1.00  0.00     0.118 C 
BRANCH  20  21
ATOM     21  N   UNL A   1      40.241  19.235  25.922  1.00  0.00    -0.352 N 
ATOM     22  C   UNL A   1      41.599  19.304  26.109  1.00  0.00     0.251 C 
ATOM     23  H   UNL A   1      39.876  18.322  25.882  1.00  0.00     0.163 HD
ATOM     24  O   UNL A   1      42.284  18.289  26.009  1.00  0.00    -0.269 OA
BRANCH  22  25
ATOM     25  C   UNL A   1      42.243  20.600  26.407  1.00  0.00     0.039 A 
ATOM     26  C   UNL A   1      42.634  21.428  25.353  1.00  0.00     0.014 A 
ATOM     27  C   UNL A   1      42.455  21.001  27.727  1.00  0.00     0.014 A 
ATOM     28  C   UNL A   1      43.155  22.695  25.626  1.00  0.00     0.010 A 
ATOM     29  C   UNL A   1      42.861  22.299  27.995  1.00  0.00     0.010 A 
ATOM     30  C   UNL A   1      43.224  23.158  26.949  1.00  0.00    -0.014 A 
BRANCH  30  31
ATOM     31  C   UNL A   1      43.677  24.532  27.276  1.00  0.00     0.031 A 
ATOM     32  C   UNL A   1      42.696  25.537  27.809  1.00  0.00     0.074 A 
ATOM     33  C   UNL A   1      44.943  24.901  27.001  1.00  0.00     0.049 A 
ATOM     34  N   UNL A   1      42.861  26.815  28.039  1.00  0.00    -0.248 NA
ATOM     35  C   UNL A   1      41.335  25.050  28.088  1.00  0.00     0.031 C 
ATOM     36  C   UNL A   1      45.973  24.028  26.437  1.00  0.00     0.029 A 
ATOM     37  N   UNL A   1      45.576  26.110  27.146  1.00  0.00    -0.354 N 
ATOM     38  C   UNL A   1      41.625  27.283  28.462  1.00  0.00     0.074 A 
ATOM     39  C   UNL A   1      40.704  26.171  28.403  1.00  0.00     0.031 C 
ATOM     40  C   UNL A   1      47.114  24.722  26.306  1.00  0.00     0.029 A 
ATOM     41  C   UNL A   1      46.885  26.100  26.729  1.00  0.00     0.049 A 
ATOM     42  H   UNL A   1      45.134  26.910  27.513  1.00  0.00     0.167 HD
ATOM     43  C   UNL A   1      41.297  28.526  28.883  1.00  0.00     0.037 A 
ATOM     44  C   UNL A   1      47.795  27.093  26.680  1.00  0.00     0.037 A 
ATOM     45  C   UNL A   1      42.232  29.615  28.976  1.00  0.00     0.049 A 
ATOM     46  C   UNL A   1      47.408  28.468  27.149  1.00  0.00     0.074 A 
ATOM     47  C   UNL A   1      42.019  30.889  29.472  1.00  0.00     0.029 A 
ATOM     48  N   UNL A   1      43.554  29.561  28.557  1.00  0.00    -0.354 N 
ATOM     49  N   UNL A   1      46.256  28.884  27.613  1.00  0.00    -0.248 NA
ATOM     50  C   UNL A   1      48.443  29.509  27.092  1.00  0.00     0.031 C 
ATOM     51  C   UNL A   1      43.192  31.625  29.294  1.00  0.00     0.029 A 
ATOM     52  C   UNL A   1      44.158  30.792  28.752  1.00  0.00     0.049 A 
ATOM     53  H   UNL A   1      43.996  28.767  28.179  1.00  0.00     0.167 HD
ATOM     54  C   UNL A   1      46.430  30.226  27.923  1.00  0.00     0.074 A 
ATOM     55  C   UNL A   1      47.803  30.554  27.602  1.00  0.00     0.031 C 
ATOM     56  C   UNL A   1      45.530  31.103  28.431  1.00  0.00     0.037 A 
BRANCH  43  57
ATOM     57  C   UNL A   1      39.872  28.781  29.283  1.00  0.00     0.064 A 
ATOM     58  C   UNL A   1      39.446  28.510  30.593  1.00  0.00     0.173 A 
ATOM     59  C   UNL A   1      38.915  29.235  28.364  1.00  0.00     0.173 A 
ATOM     60  F   UNL A   1      40.318  28.070  31.511  1.00  0.00    -0.203 F 
ATOM     61  C   UNL A   1      38.113  28.673  30.962  1.00  0.00     0.198 A 
ATOM     62  C   UNL A   1      37.591  29.431  28.745  1.00  0.00     0.198 A 
ATOM     63  F   UNL A   1      39.271  29.520  27.103  1.00  0.00    -0.203 F 
ATOM     64  F   UNL A   1      37.723  28.375  32.209  1.00  0.00    -0.200 F 
ATOM     65  C   UNL A   1      37.188  29.139  30.040  1.00  0.00     0.200 A 
ATOM     66  F   UNL A   1      36.704  29.909  27.862  1.00  0.00    -0.200 F 
ATOM     67  F   UNL A   1      35.909  29.312  30.401  1.00  0.00    -0.200 F 
ENDBRANCH  43  57
BRANCH  44  68
ATOM     68  C   UNL A   1      49.167  26.793  26.193  1.00  0.00     0.064 A 
ATOM     69  C   UNL A   1      49.536  27.024  24.859  1.00  0.00     0.173 A 
ATOM     70  C   UNL A   1      50.112  26.197  27.037  1.00  0.00     0.173 A 
ATOM     71  F   UNL A   1      48.663  27.584  24.008  1.00  0.00    -0.203 F 
ATOM     72  C   UNL A   1      50.788  26.641  24.382  1.00  0.00     0.198 A 
ATOM     73  C   UNL A   1      51.374  25.839  26.566  1.00  0.00     0.198 A 
ATOM     74  F   UNL A   1      49.812  25.971  28.325  1.00  0.00    -0.203 F 
ATOM     75  F   UNL A   1      51.097  26.827  23.092  1.00  0.00    -0.200 F 
ATOM     76  C   UNL A   1      51.706  26.050  25.237  1.00  0.00     0.200 A 
ATOM     77  F   UNL A   1      52.265  25.284  27.399  1.00  0.00    -0.200 F 
ATOM     78  F   UNL A   1      52.909  25.679  24.777  1.00  0.00    -0.200 F 
ENDBRANCH  44  68
BRANCH  56  79
ATOM     79  C   UNL A   1      45.986  32.508  28.697  1.00  0.00     0.064 A 
ATOM     80  C   UNL A   1      46.475  32.864  29.964  1.00  0.00     0.173 A 
ATOM     81  C   UNL A   1      45.826  33.523  27.745  1.00  0.00     0.173 A 
ATOM     82  F   UNL A   1      46.636  31.929  30.913  1.00  0.00    -0.203 F 
ATOM     83  C   UNL A   1      46.754  34.191  30.277  1.00  0.00     0.198 A 
ATOM     84  C   UNL A   1      46.135  34.846  28.052  1.00  0.00     0.198 A 
ATOM     85  F   UNL A   1      45.373  33.231  26.516  1.00  0.00    -0.203 F 
ATOM     86  F   UNL A   1      47.167  34.513  31.510  1.00  0.00    -0.200 F 
ATOM     87  C   UNL A   1      46.584  35.180  29.321  1.00  0.00     0.200 A 
ATOM     88  F   UNL A   1      45.992  35.799  27.121  1.00  0.00    -0.200 F 
ATOM     89  F   UNL A   1      46.850  36.458  29.625  1.00  0.00    -0.200 F 
ENDBRANCH  56  79
ENDBRANCH  30  31
ENDBRANCH  22  25
ENDBRANCH  20  21
ENDBRANCH   1  20
TORSDOF 14
ENDMDL
MODEL 3
REMARK VINA RESULT:     -11.8      6.333     11.470
REMARK SMILES C/C=C/C[C@H](Cc1cccc(F)c1)C(=O)NCCCNC(=O)c1ccc(-c2c3nc(c(-c4c(F)c(F)c(F)c(F)c4F)c4ccc([nH]4)c(-c4c(F)c(F)c(F)c(F)c4F)c4nc(c(-c5c(F)c(F)c(F)c(F)c5F)c5ccc2[nH]5)C=C4)C=C3)cc1
REMARK SMILES IDX 18 1 17 2 16 3 14 4 15 5 5 7 4 8 3 9 1 10 2 11 6 12 7 13
REMARK SMILES IDX 8 14 13 15 9 16 11 17 10 18 12 19 19 20 20 21 21 22 22 24
REMARK SMILES IDX 23 25 24 26 85 27 25 28 84 29 26 30 27 31 28 32 78 33 29 34
REMARK SMILES IDX 83 35 77 36 79 37 30 38 82 39 76 40 75 41 31 43 63 44 43 45
REMARK SMILES IDX 62 46 44 47 47 48 61 49 80 50 45 51 46 52 60 54 81 55 48 56
REMARK SMILES IDX 32 57 33 58 41 59 34 60 35 61 39 62 42 63 36 64 37 65 40 66
REMARK SMILES IDX 38 67 64 68 65 69 73 70 66 71 67 72 71 73 74 74 68 75 69 76
REMARK SMILES IDX 72 77 70 78 49 79 50 80 58 81 51 82 52 83 56 84 59 85 53 86
REMARK SMILES IDX 54 87 57 88 55 89
REMARK H PARENT 16 6 20 23 79 42 47 53
REMARK Flexibility Score: inf
ROOT
ATOM      1  C   UNL A   1      37.852  19.829  25.001  1.00  0.00     0.042 C 
ENDROOT
BRANCH   1   2
ATOM      2  C   UNL A   1      36.869  20.954  24.757  1.00  0.00     0.117 C 
BRANCH   2   3
ATOM      3  N   UNL A   1      36.129  21.361  25.928  1.00  0.00    -0.356 N 
ATOM      4  C   UNL A   1      34.786  21.370  26.141  1.00  0.00     0.223 C 
ATOM      5  O   UNL A   1      34.407  21.619  27.289  1.00  0.00    -0.275 OA
ATOM      6  H   UNL A   1      36.677  21.679  26.682  1.00  0.00     0.163 HD
BRANCH   4   7
ATOM      7  C   UNL A   1      33.768  21.105  25.029  1.00  0.00     0.086 C 
BRANCH   7   8
ATOM      8  C   UNL A   1      33.128  22.441  24.533  1.00  0.00     0.040 C 
BRANCH   8   9
ATOM      9  C   UNL A   1      31.742  22.768  25.044  1.00  0.00    -0.031 C 
ATOM     10  C   UNL A   1      30.082  23.270  26.851  1.00  0.00     0.035 C 
ATOM     11  C   UNL A   1      31.467  23.181  26.293  1.00  0.00    -0.035 C 
ENDBRANCH   8   9
ENDBRANCH   7   8
BRANCH   7  12
ATOM     12  C   UNL A   1      32.774  19.963  25.338  1.00  0.00     0.049 C 
BRANCH  12  13
ATOM     13  C   UNL A   1      33.197  18.533  25.056  1.00  0.00    -0.044 A 
ATOM     14  C   UNL A   1      34.296  18.199  24.251  1.00  0.00     0.004 A 
ATOM     15  C   UNL A   1      32.524  17.489  25.714  1.00  0.00     0.043 A 
ATOM     16  C   UNL A   1      34.686  16.864  24.078  1.00  0.00     0.003 A 
ATOM     17  C   UNL A   1      32.923  16.167  25.543  1.00  0.00     0.123 A 
ATOM     18  C   UNL A   1      33.996  15.845  24.726  1.00  0.00     0.039 A 
ATOM     19  F   UNL A   1      32.268  15.193  26.189  1.00  0.00    -0.207 F 
ENDBRANCH  12  13
ENDBRANCH   7  12
ENDBRANCH   4   7
ENDBRANCH   2   3
ENDBRANCH   1   2
BRANCH   1  20
ATOM     20  C   UNL A   1      39.067  20.250  25.801  1.00  0.00     0.118 C 
BRANCH  20  21
ATOM     21  N   UNL A   1      40.056  19.185  25.926  1.00  0.00    -0.352 N 
ATOM     22  C   UNL A   1      41.418  19.247  26.087  1.00  0.00     0.251 C 
ATOM     23  H   UNL A   1      39.686  18.273  25.889  1.00  0.00     0.163 HD
ATOM     24  O   UNL A   1      42.096  18.229  25.969  1.00  0.00    -0.269 OA
BRANCH  22  25
ATOM     25  C   UNL A   1      42.073  20.539  26.377  1.00  0.00     0.039 A 
ATOM     26  C   UNL A   1      42.508  21.338  25.318  1.00  0.00     0.014 A 
ATOM     27  C   UNL A   1      42.253  20.964  27.694  1.00  0.00     0.014 A 
ATOM     28  C   UNL A   1      43.042  22.603  25.580  1.00  0.00     0.010 A 
ATOM     29  C   UNL A   1      42.673  22.261  27.948  1.00  0.00     0.010 A 
ATOM     30  C   UNL A   1      43.080  23.092  26.895  1.00  0.00    -0.014 A 
BRANCH  30  31
ATOM     31  C   UNL A   1      43.544  24.466  27.208  1.00  0.00     0.031 A 
ATOM     32  C   UNL A   1      42.575  25.480  27.747  1.00  0.00     0.074 A 
ATOM     33  C   UNL A   1      44.809  24.825  26.915  1.00  0.00     0.049 A 
ATOM     34  N   UNL A   1      42.752  26.758  27.966  1.00  0.00    -0.248 NA
ATOM     35  C   UNL A   1      41.215  25.003  28.046  1.00  0.00     0.031 C 
ATOM     36  C   UNL A   1      45.826  23.943  26.343  1.00  0.00     0.029 A 
ATOM     37  N   UNL A   1      45.451  26.032  27.043  1.00  0.00    -0.354 N 
ATOM     38  C   UNL A   1      41.524  27.236  28.401  1.00  0.00     0.074 A 
ATOM     39  C   UNL A   1      40.595  26.129  28.361  1.00  0.00     0.031 C 
ATOM     40  C   UNL A   1      46.970  24.629  26.193  1.00  0.00     0.029 A 
ATOM     41  C   UNL A   1      46.754  26.011  26.610  1.00  0.00     0.049 A 
ATOM     42  H   UNL A   1      45.018  26.837  27.411  1.00  0.00     0.167 HD
ATOM     43  C   UNL A   1      41.208  28.484  28.818  1.00  0.00     0.037 A 
ATOM     44  C   UNL A   1      47.669  26.998  26.543  1.00  0.00     0.037 A 
ATOM     45  C   UNL A   1      42.150  29.568  28.892  1.00  0.00     0.049 A 
ATOM     46  C   UNL A   1      47.296  28.378  27.008  1.00  0.00     0.074 A 
ATOM     47  C   UNL A   1      41.951  30.846  29.383  1.00  0.00     0.029 A 
ATOM     48  N   UNL A   1      43.467  29.504  28.457  1.00  0.00    -0.354 N 
ATOM     49  N   UNL A   1      46.152  28.805  27.484  1.00  0.00    -0.248 NA
ATOM     50  C   UNL A   1      48.337  29.413  26.931  1.00  0.00     0.031 C 
ATOM     51  C   UNL A   1      43.126  31.575  29.186  1.00  0.00     0.029 A 
ATOM     52  C   UNL A   1      44.081  30.732  28.636  1.00  0.00     0.049 A 
ATOM     53  H   UNL A   1      43.899  28.705  28.079  1.00  0.00     0.167 HD
ATOM     54  C   UNL A   1      46.338  30.148  27.782  1.00  0.00     0.074 A 
ATOM     55  C   UNL A   1      47.709  30.465  27.442  1.00  0.00     0.031 C 
ATOM     56  C   UNL A   1      45.450  31.033  28.296  1.00  0.00     0.037 A 
BRANCH  43  57
ATOM     57  C   UNL A   1      39.790  28.750  29.235  1.00  0.00     0.064 A 
ATOM     58  C   UNL A   1      38.858  29.234  28.305  1.00  0.00     0.173 A 
ATOM     59  C   UNL A   1      39.365  28.584  30.562  1.00  0.00     0.173 A 
ATOM     60  F   UNL A   1      39.211  29.416  27.024  1.00  0.00    -0.203 F 
ATOM     61  C   UNL A   1      37.559  29.554  28.691  1.00  0.00     0.198 A 
ATOM     62  C   UNL A   1      38.056  28.871  30.937  1.00  0.00     0.198 A 
ATOM     63  F   UNL A   1      40.213  28.113  31.489  1.00  0.00    -0.203 F 
ATOM     64  F   UNL A   1      36.697  30.047  27.791  1.00  0.00    -0.200 F 
ATOM     65  C   UNL A   1      37.157  29.366  30.004  1.00  0.00     0.200 A 
ATOM     66  F   UNL A   1      37.661  28.661  32.200  1.00  0.00    -0.200 F 
ATOM     67  F   UNL A   1      35.901  29.657  30.371  1.00  0.00    -0.200 F 
ENDBRANCH  43  57
BRANCH  44  68
ATOM     68  C   UNL A   1      49.033  26.687  26.040  1.00  0.00     0.064 A 
ATOM     69  C   UNL A   1      50.035  26.204  26.895  1.00  0.00     0.173 A 
ATOM     70  C   UNL A   1      49.379  26.939  24.707  1.00  0.00     0.173 A 
ATOM     71  F   UNL A   1      49.755  25.954  28.183  1.00  0.00    -0.203 F 
ATOM     72  C   UNL A   1      51.339  26.015  26.442  1.00  0.00     0.198 A 
ATOM     73  C   UNL A   1      50.677  26.725  24.248  1.00  0.00     0.198 A 
ATOM     74  F   UNL A   1      48.452  27.386  23.847  1.00  0.00    -0.203 F 
ATOM     75  F   UNL A   1      52.288  25.602  27.292  1.00  0.00    -0.200 F 
ATOM     76  C   UNL A   1      51.658  26.276  25.118  1.00  0.00     0.200 A 
ATOM     77  F   UNL A   1      50.980  26.961  22.963  1.00  0.00    -0.200 F 
ATOM     78  F   UNL A   1      52.914  26.098  24.683  1.00  0.00    -0.200 F 
ENDBRANCH  44  68
BRANCH  56  79
ATOM     79  C   UNL A   1      45.918  32.436  28.547  1.00  0.00     0.064 A 
ATOM     80  C   UNL A   1      46.502  32.777  29.777  1.00  0.00     0.173 A 
ATOM     81  C   UNL A   1      45.677  33.465  27.626  1.00  0.00     0.173 A 
ATOM     82  F   UNL A   1      46.743  31.829  30.696  1.00  0.00    -0.203 F 
ATOM     83  C   UNL A   1      46.797  34.101  30.088  1.00  0.00     0.198 A 
ATOM     84  C   UNL A   1      46.002  34.785  27.928  1.00  0.00     0.198 A 
ATOM     85  F   UNL A   1      45.131  33.188  26.432  1.00  0.00    -0.203 F 
ATOM     86  F   UNL A   1      47.304  34.408  31.290  1.00  0.00    -0.200 F 
ATOM     87  C   UNL A   1      46.548  35.103  29.163  1.00  0.00     0.200 A 
ATOM     88  F   UNL A   1      45.781  35.751  27.027  1.00  0.00    -0.200 F 
ATOM     89  F   UNL A   1      46.829  36.379  29.465  1.00  0.00    -0.200 F 
ENDBRANCH  56  79
ENDBRANCH  30  31
ENDBRANCH  22  25
ENDBRANCH  20  21
ENDBRANCH   1  20
TORSDOF 14
ENDMDL
