MODEL 1
REMARK VINA RESULT:     -12.7      0.000      0.000
REMARK SMILES COc1ccc(-c2cc(=O)oc3cc(OCC(=O)N[C@@H](C)C(=O)NCCCNC(=O)c4ccc(-c5c6nc(c(-c7c(F)c(F)c(F)c(F)c7F)c7ccc([nH]7)c(-c7c(F)c(F)c(F)c(F)c7F)c7nc(c(-c8c(F)c(F)c(F)c(F)c8F)c8ccc5[nH]8)C=C7)C=C6)cc4)ccc23)cc1
REMARK SMILES IDX 22 1 23 2 24 3 20 5 21 6 19 7 17 8 18 9 16 11 15 12 14 13
REMARK SMILES IDX 7 14 8 15 96 16 9 17 12 18 95 19 10 20 11 21 13 22 94 23
REMARK SMILES IDX 6 24 3 25 4 26 98 27 5 28 97 29 2 30 1 31 25 32 26 33 27 34
REMARK SMILES IDX 28 35 29 36 30 38 31 39 32 40 93 41 33 42 92 43 34 44 35 45
REMARK SMILES IDX 36 46 86 47 37 48 91 49 85 50 87 51 38 52 90 53 84 54 83 55
REMARK SMILES IDX 39 57 71 58 51 59 70 60 52 61 55 62 69 63 88 64 53 65 54 66
REMARK SMILES IDX 68 68 89 69 56 70 40 71 41 72 49 73 42 74 43 75 47 76 50 77
REMARK SMILES IDX 44 78 45 79 48 80 46 81 72 82 73 83 81 84 74 85 75 86 79 87
REMARK SMILES IDX 82 88 76 89 77 90 80 91 78 92 57 93 58 94 66 95 59 96 60 97
REMARK SMILES IDX 64 98 67 99 61 100 62 101 65 102 63 103
REMARK H PARENT 24 4 19 10 28 37 87 56 55 67
REMARK Flexibility Score: inf
ROOT
ATOM      1  C   UNL A   1      30.802  28.204  22.990  1.00  0.00     0.242 C 
ATOM      2  O   UNL A   1      30.063  28.385  22.021  1.00  0.00    -0.273 OA
ATOM      3  N   UNL A   1      31.150  29.293  23.740  1.00  0.00    -0.354 N 
ATOM      4  H   UNL A   1      30.856  30.156  23.366  1.00  0.00     0.163 HD
ENDROOT
BRANCH   1   5
ATOM      5  C   UNL A   1      31.245  26.790  23.399  1.00  0.00     0.168 C 
ATOM      6  C   UNL A   1      31.469  25.951  22.139  1.00  0.00     0.041 C 
BRANCH   5   7
ATOM      7  N   UNL A   1      30.264  26.255  24.349  1.00  0.00    -0.342 N 
ATOM      8  C   UNL A   1      30.430  25.900  25.660  1.00  0.00     0.258 C 
ATOM      9  O   UNL A   1      29.427  25.671  26.337  1.00  0.00    -0.271 OA
ATOM     10  H   UNL A   1      29.354  26.134  23.993  1.00  0.00     0.164 HD
BRANCH   8  11
ATOM     11  C   UNL A   1      31.826  25.791  26.238  1.00  0.00     0.329 C 
BRANCH  11  12
ATOM     12  O   UNL A   1      32.069  24.396  26.229  1.00  0.00    -0.484 OA
BRANCH  12  13
ATOM     13  C   UNL A   1      33.006  23.887  25.390  1.00  0.00     0.123 A 
ATOM     14  C   UNL A   1      35.271  20.708  24.554  1.00  0.00    -0.000 A 
ATOM     15  C   UNL A   1      36.471  20.524  25.125  1.00  0.00     0.103 A 
ATOM     16  C   UNL A   1      34.811  22.104  24.370  1.00  0.00     0.026 A 
ATOM     17  C   UNL A   1      37.235  21.685  25.629  1.00  0.00     0.336 A 
ATOM     18  C   UNL A   1      35.213  22.959  25.384  1.00  0.00     0.142 A 
ATOM     19  C   UNL A   1      33.626  22.352  23.662  1.00  0.00     0.016 A 
ATOM     20  O   UNL A   1      38.432  21.600  25.880  1.00  0.00    -0.246 OA
ATOM     21  O   UNL A   1      36.473  22.800  25.978  1.00  0.00    -0.423 OA
ATOM     22  C   UNL A   1      34.297  23.838  25.929  1.00  0.00     0.094 A 
ATOM     23  C   UNL A   1      32.698  23.238  24.197  1.00  0.00     0.047 A 
BRANCH  14  24
ATOM     24  C   UNL A   1      34.249  19.643  24.706  1.00  0.00    -0.017 A 
ATOM     25  C   UNL A   1      33.009  17.303  25.537  1.00  0.00     0.118 A 
ATOM     26  C   UNL A   1      32.558  18.538  26.013  1.00  0.00     0.047 A 
ATOM     27  C   UNL A   1      33.974  17.227  24.543  1.00  0.00     0.047 A 
ATOM     28  C   UNL A   1      33.190  19.719  25.607  1.00  0.00     0.012 A 
ATOM     29  C   UNL A   1      34.587  18.399  24.123  1.00  0.00     0.012 A 
BRANCH  25  30
ATOM     30  O   UNL A   1      32.519  16.149  26.086  1.00  0.00    -0.497 OA
ATOM     31  C   UNL A   1      33.033  15.028  25.353  1.00  0.00     0.278 C 
ENDBRANCH  25  30
ENDBRANCH  14  24
ENDBRANCH  12  13
ENDBRANCH  11  12
ENDBRANCH   8  11
ENDBRANCH   5   7
ENDBRANCH   1   5
BRANCH   3  32
ATOM     32  C   UNL A   1      31.881  29.399  24.996  1.00  0.00     0.117 C 
BRANCH  32  33
ATOM     33  C   UNL A   1      33.327  28.944  24.867  1.00  0.00     0.042 C 
BRANCH  33  34
ATOM     34  C   UNL A   1      34.116  29.028  26.164  1.00  0.00     0.118 C 
BRANCH  34  35
ATOM     35  N   UNL A   1      33.902  30.283  26.869  1.00  0.00    -0.352 N 
ATOM     36  C   UNL A   1      34.633  30.859  27.877  1.00  0.00     0.251 C 
ATOM     37  H   UNL A   1      33.114  30.797  26.578  1.00  0.00     0.163 HD
ATOM     38  O   UNL A   1      34.189  31.836  28.473  1.00  0.00    -0.269 OA
BRANCH  36  39
ATOM     39  C   UNL A   1      35.941  30.292  28.263  1.00  0.00     0.039 A 
ATOM     40  C   UNL A   1      37.026  30.446  27.396  1.00  0.00     0.014 A 
ATOM     41  C   UNL A   1      36.099  29.603  29.467  1.00  0.00     0.014 A 
ATOM     42  C   UNL A   1      38.283  29.967  27.768  1.00  0.00     0.010 A 
ATOM     43  C   UNL A   1      37.365  29.201  29.876  1.00  0.00     0.010 A 
ATOM     44  C   UNL A   1      38.469  29.373  29.027  1.00  0.00    -0.014 A 
BRANCH  44  45
ATOM     45  C   UNL A   1      39.805  28.907  29.473  1.00  0.00     0.031 A 
ATOM     46  C   UNL A   1      40.621  29.756  30.405  1.00  0.00     0.074 A 
ATOM     47  C   UNL A   1      40.311  27.761  28.979  1.00  0.00     0.049 A 
ATOM     48  N   UNL A   1      41.848  29.580  30.827  1.00  0.00    -0.248 NA
ATOM     49  C   UNL A   1      39.986  30.986  30.906  1.00  0.00     0.031 C 
ATOM     50  C   UNL A   1      39.635  26.877  28.028  1.00  0.00     0.029 A 
ATOM     51  N   UNL A   1      41.519  27.152  29.198  1.00  0.00    -0.354 N 
ATOM     52  C   UNL A   1      42.136  30.684  31.617  1.00  0.00     0.074 A 
ATOM     53  C   UNL A   1      40.977  31.548  31.581  1.00  0.00     0.031 C 
ATOM     54  C   UNL A   1      40.431  25.829  27.761  1.00  0.00     0.029 A 
ATOM     55  C   UNL A   1      41.684  25.985  28.493  1.00  0.00     0.049 A 
ATOM     56  H   UNL A   1      42.205  27.516  29.804  1.00  0.00     0.167 HD
ATOM     57  C   UNL A   1      43.259  30.943  32.327  1.00  0.00     0.037 A 
ATOM     58  C   UNL A   1      42.730  25.141  28.440  1.00  0.00     0.037 A 
ATOM     59  C   UNL A   1      44.395  30.063  32.395  1.00  0.00     0.049 A 
ATOM     60  C   UNL A   1      43.956  25.438  29.260  1.00  0.00     0.074 A 
ATOM     61  C   UNL A   1      45.556  30.204  33.134  1.00  0.00     0.029 A 
ATOM     62  N   UNL A   1      44.507  28.868  31.698  1.00  0.00    -0.354 N 
ATOM     63  N   UNL A   1      44.197  26.458  30.046  1.00  0.00    -0.248 NA
ATOM     64  C   UNL A   1      45.052  24.461  29.189  1.00  0.00     0.031 C 
ATOM     65  C   UNL A   1      46.383  29.109  32.863  1.00  0.00     0.029 A 
ATOM     66  C   UNL A   1      45.722  28.268  31.983  1.00  0.00     0.049 A 
ATOM     67  H   UNL A   1      43.825  28.503  31.091  1.00  0.00     0.167 HD
ATOM     68  C   UNL A   1      45.458  26.237  30.580  1.00  0.00     0.074 A 
ATOM     69  C   UNL A   1      45.928  24.979  30.039  1.00  0.00     0.031 C 
ATOM     70  C   UNL A   1      46.165  27.010  31.441  1.00  0.00     0.037 A 
BRANCH  57  71
ATOM     71  C   UNL A   1      43.308  32.228  33.098  1.00  0.00     0.064 A 
ATOM     72  C   UNL A   1      43.817  33.406  32.529  1.00  0.00     0.173 A 
ATOM     73  C   UNL A   1      42.815  32.293  34.409  1.00  0.00     0.173 A 
ATOM     74  F   UNL A   1      44.313  33.393  31.283  1.00  0.00    -0.203 F 
ATOM     75  C   UNL A   1      43.857  34.594  33.255  1.00  0.00     0.198 A 
ATOM     76  C   UNL A   1      42.831  33.488  35.123  1.00  0.00     0.198 A 
ATOM     77  F   UNL A   1      42.314  31.196  34.999  1.00  0.00    -0.203 F 
ATOM     78  F   UNL A   1      44.392  35.693  32.707  1.00  0.00    -0.200 F 
ATOM     79  C   UNL A   1      43.358  34.635  34.548  1.00  0.00     0.200 A 
ATOM     80  F   UNL A   1      42.341  33.531  36.370  1.00  0.00    -0.200 F 
ATOM     81  F   UNL A   1      43.394  35.780  35.244  1.00  0.00    -0.200 F 
ENDBRANCH  57  71
BRANCH  58  82
ATOM     82  C   UNL A   1      42.651  23.916  27.604  1.00  0.00     0.064 A 
ATOM     83  C   UNL A   1      42.250  22.694  28.162  1.00  0.00     0.173 A 
ATOM     84  C   UNL A   1      42.966  23.942  26.238  1.00  0.00     0.173 A 
ATOM     85  F   UNL A   1      41.959  22.618  29.468  1.00  0.00    -0.203 F 
ATOM     86  C   UNL A   1      42.184  21.538  27.387  1.00  0.00     0.198 A 
ATOM     87  C   UNL A   1      42.877  22.790  25.460  1.00  0.00     0.198 A 
ATOM     88  F   UNL A   1      43.349  25.089  25.659  1.00  0.00    -0.203 F 
ATOM     89  F   UNL A   1      41.835  20.375  27.952  1.00  0.00    -0.200 F 
ATOM     90  C   UNL A   1      42.492  21.588  26.035  1.00  0.00     0.200 A 
ATOM     91  F   UNL A   1      43.164  22.844  24.152  1.00  0.00    -0.200 F 
ATOM     92  F   UNL A   1      42.425  20.477  25.290  1.00  0.00    -0.200 F 
ENDBRANCH  58  82
BRANCH  70  93
ATOM     93  C   UNL A   1      47.506  26.499  31.875  1.00  0.00     0.064 A 
ATOM     94  C   UNL A   1      47.642  25.643  32.976  1.00  0.00     0.173 A 
ATOM     95  C   UNL A   1      48.660  26.838  31.153  1.00  0.00     0.173 A 
ATOM     96  F   UNL A   1      46.569  25.304  33.705  1.00  0.00    -0.203 F 
ATOM     97  C   UNL A   1      48.893  25.159  33.353  1.00  0.00     0.198 A 
ATOM     98  C   UNL A   1      49.905  26.333  31.519  1.00  0.00     0.198 A 
ATOM     99  F   UNL A   1      48.579  27.651  30.089  1.00  0.00    -0.203 F 
ATOM    100  F   UNL A   1      49.007  24.372  34.432  1.00  0.00    -0.200 F 
ATOM    101  C   UNL A   1      50.020  25.499  32.620  1.00  0.00     0.200 A 
ATOM    102  F   UNL A   1      50.992  26.654  30.804  1.00  0.00    -0.200 F 
ATOM    103  F   UNL A   1      51.222  25.027  32.981  1.00  0.00    -0.200 F 
ENDBRANCH  70  93
ENDBRANCH  44  45
ENDBRANCH  36  39
ENDBRANCH  34  35
ENDBRANCH  33  34
ENDBRANCH  32  33
ENDBRANCH   3  32
TORSDOF 16
ENDMDL
MODEL 2
REMARK VINA RESULT:     -12.6      4.585      8.571
REMARK SMILES COc1ccc(-c2cc(=O)oc3cc(OCC(=O)N[C@@H](C)C(=O)NCCCNC(=O)c4ccc(-c5c6nc(c(-c7c(F)c(F)c(F)c(F)c7F)c7ccc([nH]7)c(-c7c(F)c(F)c(F)c(F)c7F)c7nc(c(-c8c(F)c(F)c(F)c(F)c8F)c8ccc5[nH]8)C=C7)C=C6)cc4)ccc23)cc1
REMARK SMILES IDX 22 1 23 2 24 3 20 5 21 6 19 7 17 8 18 9 16 11 15 12 14 13
REMARK SMILES IDX 7 14 8 15 96 16 9 17 12 18 95 19 10 20 11 21 13 22 94 23
REMARK SMILES IDX 6 24 3 25 4 26 98 27 5 28 97 29 2 30 1 31 25 32 26 33 27 34
REMARK SMILES IDX 28 35 29 36 30 38 31 39 32 40 93 41 33 42 92 43 34 44 35 45
REMARK SMILES IDX 36 46 86 47 37 48 91 49 85 50 87 51 38 52 90 53 84 54 83 55
REMARK SMILES IDX 39 57 71 58 51 59 70 60 52 61 55 62 69 63 88 64 53 65 54 66
REMARK SMILES IDX 68 68 89 69 56 70 40 71 41 72 49 73 42 74 43 75 47 76 50 77
REMARK SMILES IDX 44 78 45 79 48 80 46 81 72 82 73 83 81 84 74 85 75 86 79 87
REMARK SMILES IDX 82 88 76 89 77 90 80 91 78 92 57 93 58 94 66 95 59 96 60 97
REMARK SMILES IDX 64 98 67 99 61 100 62 101 65 102 63 103
REMARK H PARENT 24 4 19 10 28 37 87 56 55 67
REMARK Flexibility Score: inf
ROOT
ATOM      1  C   UNL A   1      32.933  36.371  30.682  1.00  0.00     0.242 C 
ATOM      2  O   UNL A   1      32.872  37.601  30.737  1.00  0.00    -0.273 OA
ATOM      3  N   UNL A   1      33.150  35.796  29.461  1.00  0.00    -0.354 N 
ATOM      4  H   UNL A   1      33.134  36.428  28.705  1.00  0.00     0.163 HD
ENDROOT
BRANCH   1   5
ATOM      5  C   UNL A   1      32.857  35.514  31.956  1.00  0.00     0.168 C 
ATOM      6  C   UNL A   1      31.532  35.792  32.669  1.00  0.00     0.041 C 
BRANCH   5   7
ATOM      7  N   UNL A   1      34.066  35.759  32.750  1.00  0.00    -0.342 N 
ATOM      8  C   UNL A   1      35.030  34.878  33.155  1.00  0.00     0.258 C 
ATOM      9  O   UNL A   1      36.072  35.328  33.635  1.00  0.00    -0.271 OA
ATOM     10  H   UNL A   1      34.203  36.692  33.032  1.00  0.00     0.164 HD
BRANCH   8  11
ATOM     11  C   UNL A   1      34.796  33.388  33.012  1.00  0.00     0.329 C 
BRANCH  11  12
ATOM     12  O   UNL A   1      36.066  32.899  32.620  1.00  0.00    -0.484 OA
BRANCH  12  13
ATOM     13  C   UNL A   1      36.739  32.056  33.442  1.00  0.00     0.123 A 
ATOM     14  C   UNL A   1      40.343  30.912  34.720  1.00  0.00    -0.000 A 
ATOM     15  C   UNL A   1      41.060  29.979  34.075  1.00  0.00     0.103 A 
ATOM     16  C   UNL A   1      38.868  30.819  34.632  1.00  0.00     0.026 A 
ATOM     17  C   UNL A   1      40.376  28.970  33.238  1.00  0.00     0.336 A 
ATOM     18  C   UNL A   1      38.413  30.345  33.412  1.00  0.00     0.142 A 
ATOM     19  C   UNL A   1      38.075  31.691  35.393  1.00  0.00     0.016 A 
ATOM     20  O   UNL A   1      40.946  27.946  32.880  1.00  0.00    -0.246 OA
ATOM     21  O   UNL A   1      39.133  29.352  32.732  1.00  0.00    -0.423 OA
ATOM     22  C   UNL A   1      37.361  30.986  32.787  1.00  0.00     0.094 A 
ATOM     23  C   UNL A   1      37.010  32.339  34.778  1.00  0.00     0.047 A 
BRANCH  14  24
ATOM     24  C   UNL A   1      40.955  32.248  34.929  1.00  0.00    -0.017 A 
ATOM     25  C   UNL A   1      41.199  34.969  35.414  1.00  0.00     0.118 A 
ATOM     26  C   UNL A   1      41.597  34.049  36.388  1.00  0.00     0.047 A 
ATOM     27  C   UNL A   1      40.816  34.552  34.148  1.00  0.00     0.047 A 
ATOM     28  C   UNL A   1      41.463  32.676  36.152  1.00  0.00     0.012 A 
ATOM     29  C   UNL A   1      40.702  33.191  33.904  1.00  0.00     0.012 A 
BRANCH  25  30
ATOM     30  O   UNL A   1      41.149  36.301  35.725  1.00  0.00    -0.497 OA
ATOM     31  C   UNL A   1      40.528  36.460  37.008  1.00  0.00     0.278 C 
ENDBRANCH  25  30
ENDBRANCH  14  24
ENDBRANCH  12  13
ENDBRANCH  11  12
ENDBRANCH   8  11
ENDBRANCH   5   7
ENDBRANCH   1   5
BRANCH   3  32
ATOM     32  C   UNL A   1      33.403  34.412  29.084  1.00  0.00     0.117 C 
BRANCH  32  33
ATOM     33  C   UNL A   1      34.888  34.109  28.942  1.00  0.00     0.042 C 
BRANCH  33  34
ATOM     34  C   UNL A   1      35.266  32.692  29.339  1.00  0.00     0.118 C 
BRANCH  34  35
ATOM     35  N   UNL A   1      34.470  31.686  28.652  1.00  0.00    -0.352 N 
ATOM     36  C   UNL A   1      34.854  30.490  28.099  1.00  0.00     0.251 C 
ATOM     37  H   UNL A   1      33.511  31.894  28.573  1.00  0.00     0.163 HD
ATOM     38  O   UNL A   1      34.067  29.861  27.398  1.00  0.00    -0.269 OA
BRANCH  36  39
ATOM     39  C   UNL A   1      36.218  29.971  28.326  1.00  0.00     0.039 A 
ATOM     40  C   UNL A   1      37.176  30.128  27.321  1.00  0.00     0.014 A 
ATOM     41  C   UNL A   1      36.552  29.324  29.517  1.00  0.00     0.014 A 
ATOM     42  C   UNL A   1      38.484  29.695  27.538  1.00  0.00     0.010 A 
ATOM     43  C   UNL A   1      37.873  28.970  29.768  1.00  0.00     0.010 A 
ATOM     44  C   UNL A   1      38.851  29.146  28.777  1.00  0.00    -0.014 A 
BRANCH  44  45
ATOM     45  C   UNL A   1      40.247  28.729  29.057  1.00  0.00     0.031 A 
ATOM     46  C   UNL A   1      41.182  29.672  29.761  1.00  0.00     0.074 A 
ATOM     47  C   UNL A   1      40.691  27.540  28.611  1.00  0.00     0.049 A 
ATOM     48  N   UNL A   1      42.462  29.543  30.004  1.00  0.00    -0.248 NA
ATOM     49  C   UNL A   1      40.609  30.947  30.225  1.00  0.00     0.031 C 
ATOM     50  C   UNL A   1      39.893  26.561  27.871  1.00  0.00     0.029 A 
ATOM     51  N   UNL A   1      41.929  26.958  28.703  1.00  0.00    -0.354 N 
ATOM     52  C   UNL A   1      42.848  30.723  30.624  1.00  0.00     0.074 A 
ATOM     53  C   UNL A   1      41.682  31.577  30.679  1.00  0.00     0.031 C 
ATOM     54  C   UNL A   1      40.657  25.492  27.593  1.00  0.00     0.029 A 
ATOM     55  C   UNL A   1      42.004  25.725  28.104  1.00  0.00     0.049 A 
ATOM     56  H   UNL A   1      42.694  27.384  29.155  1.00  0.00     0.167 HD
ATOM     57  C   UNL A   1      44.062  31.056  31.122  1.00  0.00     0.037 A 
ATOM     58  C   UNL A   1      43.045  24.881  27.977  1.00  0.00     0.037 A 
ATOM     59  C   UNL A   1      45.210  30.189  31.104  1.00  0.00     0.049 A 
ATOM     60  C   UNL A   1      44.376  25.263  28.563  1.00  0.00     0.074 A 
ATOM     61  C   UNL A   1      46.468  30.407  31.637  1.00  0.00     0.029 A 
ATOM     62  N   UNL A   1      45.234  28.928  30.524  1.00  0.00    -0.354 N 
ATOM     63  N   UNL A   1      44.717  26.359  29.194  1.00  0.00    -0.248 NA
ATOM     64  C   UNL A   1      45.465  24.286  28.424  1.00  0.00     0.031 C 
ATOM     65  C   UNL A   1      47.262  29.292  31.355  1.00  0.00     0.029 A 
ATOM     66  C   UNL A   1      46.489  28.363  30.678  1.00  0.00     0.049 A 
ATOM     67  H   UNL A   1      44.474  28.501  30.069  1.00  0.00     0.167 HD
ATOM     68  C   UNL A   1      46.049  26.197  29.548  1.00  0.00     0.074 A 
ATOM     69  C   UNL A   1      46.452  24.890  29.072  1.00  0.00     0.031 C 
ATOM     70  C   UNL A   1      46.865  27.056  30.206  1.00  0.00     0.037 A 
BRANCH  57  71
ATOM     71  C   UNL A   1      44.206  32.414  31.741  1.00  0.00     0.064 A 
ATOM     72  C   UNL A   1      44.227  32.586  33.134  1.00  0.00     0.173 A 
ATOM     73  C   UNL A   1      44.352  33.553  30.936  1.00  0.00     0.173 A 
ATOM     74  F   UNL A   1      44.077  31.530  33.947  1.00  0.00    -0.203 F 
ATOM     75  C   UNL A   1      44.360  33.853  33.697  1.00  0.00     0.198 A 
ATOM     76  C   UNL A   1      44.513  34.815  31.503  1.00  0.00     0.198 A 
ATOM     77  F   UNL A   1      44.341  33.443  29.599  1.00  0.00    -0.203 F 
ATOM     78  F   UNL A   1      44.329  33.998  35.029  1.00  0.00    -0.200 F 
ATOM     79  C   UNL A   1      44.510  34.964  32.882  1.00  0.00     0.200 A 
ATOM     80  F   UNL A   1      44.666  35.888  30.715  1.00  0.00    -0.200 F 
ATOM     81  F   UNL A   1      44.643  36.182  33.426  1.00  0.00    -0.200 F 
ENDBRANCH  57  71
BRANCH  58  82
ATOM     82  C   UNL A   1      42.860  23.576  27.292  1.00  0.00     0.064 A 
ATOM     83  C   UNL A   1      42.266  22.497  27.960  1.00  0.00     0.173 A 
ATOM     84  C   UNL A   1      43.264  23.384  25.964  1.00  0.00     0.173 A 
ATOM     85  F   UNL A   1      41.882  22.629  29.238  1.00  0.00    -0.203 F 
ATOM     86  C   UNL A   1      42.099  21.266  27.329  1.00  0.00     0.198 A 
ATOM     87  C   UNL A   1      43.074  22.159  25.327  1.00  0.00     0.198 A 
ATOM     88  F   UNL A   1      43.832  24.389  25.282  1.00  0.00    -0.203 F 
ATOM     89  F   UNL A   1      41.563  20.238  28.002  1.00  0.00    -0.200 F 
ATOM     90  C   UNL A   1      42.498  21.099  26.011  1.00  0.00     0.200 A 
ATOM     91  F   UNL A   1      43.451  22.006  24.050  1.00  0.00    -0.200 F 
ATOM     92  F   UNL A   1      42.334  19.917  25.404  1.00  0.00    -0.200 F 
ENDBRANCH  58  82
BRANCH  70  93
ATOM     93  C   UNL A   1      48.266  26.595  30.477  1.00  0.00     0.064 A 
ATOM     94  C   UNL A   1      48.580  25.843  31.617  1.00  0.00     0.173 A 
ATOM     95  C   UNL A   1      49.293  26.874  29.565  1.00  0.00     0.173 A 
ATOM     96  F   UNL A   1      47.634  25.564  32.526  1.00  0.00    -0.203 F 
ATOM     97  C   UNL A   1      49.882  25.402  31.844  1.00  0.00     0.198 A 
ATOM     98  C   UNL A   1      50.588  26.412  29.783  1.00  0.00     0.198 A 
ATOM     99  F   UNL A   1      49.039  27.586  28.456  1.00  0.00    -0.203 F 
ATOM    100  F   UNL A   1      50.171  24.718  32.960  1.00  0.00    -0.200 F 
ATOM    101  C   UNL A   1      50.882  25.681  30.924  1.00  0.00     0.200 A 
ATOM    102  F   UNL A   1      51.551  26.674  28.888  1.00  0.00    -0.200 F 
ATOM    103  F   UNL A   1      52.133  25.252  31.141  1.00  0.00    -0.200 F 
ENDBRANCH  70  93
ENDBRANCH  44  45
ENDBRANCH  36  39
ENDBRANCH  34  35
ENDBRANCH  33  34
ENDBRANCH  32  33
ENDBRANCH   3  32
TORSDOF 16
ENDMDL
MODEL 3
REMARK VINA RESULT:     -12.6      3.964      6.942
REMARK SMILES COc1ccc(-c2cc(=O)oc3cc(OCC(=O)N[C@@H](C)C(=O)NCCCNC(=O)c4ccc(-c5c6nc(c(-c7c(F)c(F)c(F)c(F)c7F)c7ccc([nH]7)c(-c7c(F)c(F)c(F)c(F)c7F)c7nc(c(-c8c(F)c(F)c(F)c(F)c8F)c8ccc5[nH]8)C=C7)C=C6)cc4)ccc23)cc1
REMARK SMILES IDX 22 1 23 2 24 3 20 5 21 6 19 7 17 8 18 9 16 11 15 12 14 13
REMARK SMILES IDX 7 14 8 15 96 16 9 17 12 18 95 19 10 20 11 21 13 22 94 23
REMARK SMILES IDX 6 24 3 25 4 26 98 27 5 28 97 29 2 30 1 31 25 32 26 33 27 34
REMARK SMILES IDX 28 35 29 36 30 38 31 39 32 40 93 41 33 42 92 43 34 44 35 45
REMARK SMILES IDX 36 46 86 47 37 48 91 49 85 50 87 51 38 52 90 53 84 54 83 55
REMARK SMILES IDX 39 57 71 58 51 59 70 60 52 61 55 62 69 63 88 64 53 65 54 66
REMARK SMILES IDX 68 68 89 69 56 70 40 71 41 72 49 73 42 74 43 75 47 76 50 77
REMARK SMILES IDX 44 78 45 79 48 80 46 81 72 82 73 83 81 84 74 85 75 86 79 87
REMARK SMILES IDX 82 88 76 89 77 90 80 91 78 92 57 93 58 94 66 95 59 96 60 97
REMARK SMILES IDX 64 98 67 99 61 100 62 101 65 102 63 103
REMARK H PARENT 24 4 19 10 28 37 87 56 55 67
REMARK Flexibility Score: inf
ROOT
ATOM      1  C   UNL A   1      36.257  33.922  28.813  1.00  0.00     0.242 C 
ATOM      2  O   UNL A   1      37.387  33.958  29.302  1.00  0.00    -0.273 OA
ATOM      3  N   UNL A   1      35.636  35.111  28.552  1.00  0.00    -0.354 N 
ATOM      4  H   UNL A   1      36.118  35.904  28.883  1.00  0.00     0.163 HD
ENDROOT
BRANCH   1   5
ATOM      5  C   UNL A   1      35.601  32.587  28.425  1.00  0.00     0.168 C 
ATOM      6  C   UNL A   1      34.641  32.157  29.537  1.00  0.00     0.041 C 
BRANCH   5   7
ATOM      7  N   UNL A   1      36.662  31.628  28.100  1.00  0.00    -0.342 N 
ATOM      8  C   UNL A   1      36.563  30.303  27.776  1.00  0.00     0.258 C 
ATOM      9  O   UNL A   1      37.561  29.732  27.332  1.00  0.00    -0.271 OA
ATOM     10  H   UNL A   1      37.577  31.990  28.118  1.00  0.00     0.164 HD
BRANCH   8  11
ATOM     11  C   UNL A   1      35.250  29.576  27.973  1.00  0.00     0.329 C 
BRANCH  11  12
ATOM     12  O   UNL A   1      34.612  29.718  26.717  1.00  0.00    -0.484 OA
BRANCH  12  13
ATOM     13  C   UNL A   1      33.324  29.315  26.573  1.00  0.00     0.123 A 
ATOM     14  C   UNL A   1      30.909  26.607  24.910  1.00  0.00    -0.000 A 
ATOM     15  C   UNL A   1      30.427  26.756  23.667  1.00  0.00     0.103 A 
ATOM     16  C   UNL A   1      31.203  27.838  25.679  1.00  0.00     0.026 A 
ATOM     17  C   UNL A   1      30.300  28.107  23.081  1.00  0.00     0.336 A 
ATOM     18  C   UNL A   1      31.670  28.882  24.897  1.00  0.00     0.142 A 
ATOM     19  C   UNL A   1      31.584  27.735  27.025  1.00  0.00     0.016 A 
ATOM     20  O   UNL A   1      29.606  28.311  22.092  1.00  0.00    -0.246 OA
ATOM     21  O   UNL A   1      31.163  29.072  23.604  1.00  0.00    -0.423 OA
ATOM     22  C   UNL A   1      32.764  29.610  25.325  1.00  0.00     0.094 A 
ATOM     23  C   UNL A   1      32.680  28.467  27.470  1.00  0.00     0.047 A 
BRANCH  14  24
ATOM     24  C   UNL A   1      31.681  25.378  25.222  1.00  0.00    -0.017 A 
ATOM     25  C   UNL A   1      33.550  23.683  26.376  1.00  0.00     0.118 A 
ATOM     26  C   UNL A   1      32.197  23.550  26.697  1.00  0.00     0.047 A 
ATOM     27  C   UNL A   1      33.968  24.552  25.379  1.00  0.00     0.047 A 
ATOM     28  C   UNL A   1      31.253  24.412  26.128  1.00  0.00     0.012 A 
ATOM     29  C   UNL A   1      33.031  25.393  24.797  1.00  0.00     0.012 A 
BRANCH  25  30
ATOM     30  O   UNL A   1      34.484  22.971  27.080  1.00  0.00    -0.497 OA
ATOM     31  C   UNL A   1      33.882  21.766  27.570  1.00  0.00     0.278 C 
ENDBRANCH  25  30
ENDBRANCH  14  24
ENDBRANCH  12  13
ENDBRANCH  11  12
ENDBRANCH   8  11
ENDBRANCH   5   7
ENDBRANCH   1   5
BRANCH   3  32
ATOM     32  C   UNL A   1      34.384  35.410  27.869  1.00  0.00     0.117 C 
BRANCH  32  33
ATOM     33  C   UNL A   1      33.346  36.023  28.799  1.00  0.00     0.042 C 
BRANCH  33  34
ATOM     34  C   UNL A   1      32.947  35.121  29.955  1.00  0.00     0.118 C 
BRANCH  34  35
ATOM     35  N   UNL A   1      32.385  35.861  31.075  1.00  0.00    -0.352 N 
ATOM     36  C   UNL A   1      32.725  35.834  32.404  1.00  0.00     0.251 C 
ATOM     37  H   UNL A   1      31.649  36.473  30.844  1.00  0.00     0.163 HD
ATOM     38  O   UNL A   1      32.010  36.395  33.229  1.00  0.00    -0.269 OA
BRANCH  36  39
ATOM     39  C   UNL A   1      33.936  35.113  32.846  1.00  0.00     0.039 A 
ATOM     40  C   UNL A   1      33.805  33.810  33.334  1.00  0.00     0.014 A 
ATOM     41  C   UNL A   1      35.193  35.718  32.791  1.00  0.00     0.014 A 
ATOM     42  C   UNL A   1      34.944  33.092  33.703  1.00  0.00     0.010 A 
ATOM     43  C   UNL A   1      36.333  34.976  33.077  1.00  0.00     0.010 A 
ATOM     44  C   UNL A   1      36.219  33.657  33.543  1.00  0.00    -0.014 A 
BRANCH  44  45
ATOM     45  C   UNL A   1      37.449  32.897  33.873  1.00  0.00     0.031 A 
ATOM     46  C   UNL A   1      38.191  33.190  35.147  1.00  0.00     0.074 A 
ATOM     47  C   UNL A   1      37.938  32.004  32.993  1.00  0.00     0.049 A 
ATOM     48  N   UNL A   1      39.336  32.716  35.567  1.00  0.00    -0.248 NA
ATOM     49  C   UNL A   1      37.579  34.172  36.057  1.00  0.00     0.031 C 
ATOM     50  C   UNL A   1      37.336  31.671  31.700  1.00  0.00     0.029 A 
ATOM     51  N   UNL A   1      39.064  31.223  33.046  1.00  0.00    -0.354 N 
ATOM     52  C   UNL A   1      39.591  33.358  36.770  1.00  0.00     0.074 A 
ATOM     53  C   UNL A   1      38.507  34.289  36.994  1.00  0.00     0.031 C 
ATOM     54  C   UNL A   1      38.089  30.740  31.092  1.00  0.00     0.029 A 
ATOM     55  C   UNL A   1      39.241  30.437  31.935  1.00  0.00     0.049 A 
ATOM     56  H   UNL A   1      39.687  31.225  33.809  1.00  0.00     0.167 HD
ATOM     57  C   UNL A   1      40.625  33.172  37.624  1.00  0.00     0.037 A 
ATOM     58  C   UNL A   1      40.227  29.572  31.629  1.00  0.00     0.037 A 
ATOM     59  C   UNL A   1      41.680  32.215  37.421  1.00  0.00     0.049 A 
ATOM     60  C   UNL A   1      41.351  29.363  32.607  1.00  0.00     0.074 A 
ATOM     61  C   UNL A   1      42.740  31.906  38.254  1.00  0.00     0.029 A 
ATOM     62  N   UNL A   1      41.803  31.407  36.299  1.00  0.00    -0.354 N 
ATOM     63  N   UNL A   1      41.553  29.937  33.767  1.00  0.00    -0.248 NA
ATOM     64  C   UNL A   1      42.378  28.382  32.233  1.00  0.00     0.031 C 
ATOM     65  C   UNL A   1      43.521  30.931  37.626  1.00  0.00     0.029 A 
ATOM     66  C   UNL A   1      42.926  30.606  36.416  1.00  0.00     0.049 A 
ATOM     67  H   UNL A   1      41.184  31.403  35.535  1.00  0.00     0.167 HD
ATOM     68  C   UNL A   1      42.715  29.373  34.273  1.00  0.00     0.074 A 
ATOM     69  C   UNL A   1      43.167  28.400  33.300  1.00  0.00     0.031 C 
ATOM     70  C   UNL A   1      43.352  29.638  35.440  1.00  0.00     0.037 A 
BRANCH  57  71
ATOM     71  C   UNL A   1      40.657  34.014  38.864  1.00  0.00     0.064 A 
ATOM     72  C   UNL A   1      41.317  35.252  38.893  1.00  0.00     0.173 A 
ATOM     73  C   UNL A   1      39.998  33.594  40.029  1.00  0.00     0.173 A 
ATOM     74  F   UNL A   1      41.974  35.691  37.809  1.00  0.00    -0.203 F 
ATOM     75  C   UNL A   1      41.341  36.025  40.051  1.00  0.00     0.198 A 
ATOM     76  C   UNL A   1      40.000  34.382  41.177  1.00  0.00     0.198 A 
ATOM     77  F   UNL A   1      39.349  32.420  40.054  1.00  0.00    -0.203 F 
ATOM     78  F   UNL A   1      42.018  37.181  40.069  1.00  0.00    -0.200 F 
ATOM     79  C   UNL A   1      40.676  35.593  41.188  1.00  0.00     0.200 A 
ATOM     80  F   UNL A   1      39.351  33.969  42.274  1.00  0.00    -0.200 F 
ATOM     81  F   UNL A   1      40.696  36.340  42.301  1.00  0.00    -0.200 F 
ENDBRANCH  57  71
BRANCH  58  82
ATOM     82  C   UNL A   1      40.177  28.816  30.352  1.00  0.00     0.064 A 
ATOM     83  C   UNL A   1      39.529  27.575  30.282  1.00  0.00     0.173 A 
ATOM     84  C   UNL A   1      40.767  29.315  29.183  1.00  0.00     0.173 A 
ATOM     85  F   UNL A   1      38.968  27.049  31.380  1.00  0.00    -0.203 F 
ATOM     86  C   UNL A   1      39.487  26.853  29.091  1.00  0.00     0.198 A 
ATOM     87  C   UNL A   1      40.704  28.602  27.987  1.00  0.00     0.198 A 
ATOM     88  F   UNL A   1      41.394  30.500  29.200  1.00  0.00    -0.203 F 
ATOM     89  F   UNL A   1      38.894  25.652  29.059  1.00  0.00    -0.200 F 
ATOM     90  C   UNL A   1      40.070  27.370  27.943  1.00  0.00     0.200 A 
ATOM     91  F   UNL A   1      41.258  29.110  26.877  1.00  0.00    -0.200 F 
ATOM     92  F   UNL A   1      40.027  26.677  26.797  1.00  0.00    -0.200 F 
ENDBRANCH  58  82
BRANCH  70  93
ATOM     93  C   UNL A   1      44.587  28.842  35.741  1.00  0.00     0.064 A 
ATOM     94  C   UNL A   1      45.857  29.286  35.347  1.00  0.00     0.173 A 
ATOM     95  C   UNL A   1      44.500  27.646  36.467  1.00  0.00     0.173 A 
ATOM     96  F   UNL A   1      45.988  30.417  34.638  1.00  0.00    -0.203 F 
ATOM     97  C   UNL A   1      46.997  28.547  35.654  1.00  0.00     0.198 A 
ATOM     98  C   UNL A   1      45.644  26.922  36.792  1.00  0.00     0.198 A 
ATOM     99  F   UNL A   1      43.306  27.183  36.869  1.00  0.00    -0.203 F 
ATOM    100  F   UNL A   1      48.199  28.969  35.235  1.00  0.00    -0.200 F 
ATOM    101  C   UNL A   1      46.890  27.371  36.381  1.00  0.00     0.200 A 
ATOM    102  F   UNL A   1      45.539  25.791  37.503  1.00  0.00    -0.200 F 
ATOM    103  F   UNL A   1      47.989  26.664  36.680  1.00  0.00    -0.200 F 
ENDBRANCH  70  93
ENDBRANCH  44  45
ENDBRANCH  36  39
ENDBRANCH  34  35
ENDBRANCH  33  34
ENDBRANCH  32  33
ENDBRANCH   3  32
TORSDOF 16
ENDMDL
