MODEL 1
REMARK VINA RESULT:     -13.7      0.000      0.000
REMARK SMILES CS(=O)(=O)c1ccc(-c2cc(Cl)cnc2-c2ccc(C(=O)NCCCNC(=O)c3ccc(-c4c5nc(c(-c6c(F)c(F)c(F)c(F)c6F)c6ccc([nH]6)c(-c6c(F)c(F)c(F)c(F)c6F)c6nc(c(-c7c(F)c(F)c(F)c(F)c7F)c7ccc4[nH]7)C=C6)C=C5)cc3)nc2)cc1
REMARK SMILES IDX 23 1 22 2 20 3 21 4 19 6 16 7 17 8 93 9 18 10 92 11 15 12
REMARK SMILES IDX 9 13 10 14 11 15 14 16 12 17 13 18 8 19 5 20 6 21 95 22 7 23
REMARK SMILES IDX 94 24 2 25 1 26 3 27 4 28 24 29 25 30 26 31 27 32 28 34
REMARK SMILES IDX 29 35 30 36 91 37 31 38 90 39 32 40 33 41 34 42 84 43 35 44
REMARK SMILES IDX 89 45 83 46 85 47 36 48 88 49 82 50 81 51 37 53 69 54 49 55
REMARK SMILES IDX 68 56 50 57 53 58 67 59 86 60 51 61 52 62 66 64 87 65 54 66
REMARK SMILES IDX 38 67 39 68 47 69 40 70 41 71 45 72 48 73 42 74 43 75 46 76
REMARK SMILES IDX 44 77 70 78 71 79 79 80 72 81 73 82 77 83 80 84 74 85 75 86
REMARK SMILES IDX 78 87 76 88 55 89 56 90 64 91 57 92 58 93 62 94 65 95 59 96
REMARK SMILES IDX 60 97 63 98 61 99
REMARK H PARENT 22 5 26 33 85 52 53 63
REMARK Flexibility Score: inf
ROOT
ATOM      1  C   UNL A   1      31.757  30.784  26.883  1.00  0.00     0.118 C 
ENDROOT
BRANCH   1   2
ATOM      2  N   UNL A   1      33.025  30.464  27.512  1.00  0.00    -0.351 N 
ATOM      3  C   UNL A   1      33.815  29.336  27.526  1.00  0.00     0.269 C 
ATOM      4  O   UNL A   1      34.868  29.427  28.159  1.00  0.00    -0.268 OA
ATOM      5  H   UNL A   1      33.398  31.207  28.040  1.00  0.00     0.163 HD
BRANCH   3   6
ATOM      6  C   UNL A   1      33.477  28.057  26.802  1.00  0.00     0.128 A 
ATOM      7  C   UNL A   1      32.983  25.810  25.249  1.00  0.00     0.019 A 
ATOM      8  C   UNL A   1      32.087  26.182  26.253  1.00  0.00     0.014 A 
ATOM      9  C   UNL A   1      34.141  26.567  25.139  1.00  0.00     0.122 A 
ATOM     10  C   UNL A   1      32.347  27.294  27.053  1.00  0.00     0.035 A 
ATOM     11  N   UNL A   1      34.392  27.681  25.866  1.00  0.00    -0.250 NA
BRANCH   7  12
ATOM     12  C   UNL A   1      32.680  24.700  24.345  1.00  0.00     0.080 A 
ATOM     13  C   UNL A   1      31.564  24.714  23.475  1.00  0.00     0.010 A 
ATOM     14  C   UNL A   1      31.277  23.523  22.790  1.00  0.00     0.033 A 
ATOM     15  C   UNL A   1      32.089  22.405  22.963  1.00  0.00     0.060 A 
ATOM     16  N   UNL A   1      33.497  23.625  24.496  1.00  0.00    -0.254 NA
ATOM     17  Cl  UNL A   1      31.729  20.933  22.160  1.00  0.00    -0.083 Cl
ATOM     18  C   UNL A   1      33.185  22.506  23.803  1.00  0.00     0.132 A 
BRANCH  13  19
ATOM     19  C   UNL A   1      30.716  25.910  23.290  1.00  0.00    -0.016 A 
ATOM     20  C   UNL A   1      29.189  28.268  23.079  1.00  0.00     0.067 A 
ATOM     21  C   UNL A   1      30.420  28.174  22.428  1.00  0.00     0.021 A 
ATOM     22  C   UNL A   1      28.693  27.186  23.805  1.00  0.00     0.021 A 
ATOM     23  C   UNL A   1      31.169  27.000  22.526  1.00  0.00     0.010 A 
ATOM     24  C   UNL A   1      29.456  26.014  23.906  1.00  0.00     0.010 A 
BRANCH  20  25
ATOM     25  S   UNL A   1      28.322  29.814  22.952  1.00  0.00     0.175 S 
ATOM     26  C   UNL A   1      28.421  30.344  21.268  1.00  0.00     0.163 C 
ATOM     27  O   UNL A   1      29.074  30.771  23.744  1.00  0.00    -0.224 OA
ATOM     28  O   UNL A   1      26.933  29.521  23.241  1.00  0.00    -0.224 OA
ENDBRANCH  20  25
ENDBRANCH  13  19
ENDBRANCH   7  12
ENDBRANCH   3   6
ENDBRANCH   1   2
BRANCH   1  29
ATOM     29  C   UNL A   1      31.533  32.297  26.846  1.00  0.00     0.042 C 
BRANCH  29  30
ATOM     30  C   UNL A   1      32.800  33.095  27.149  1.00  0.00     0.118 C 
BRANCH  30  31
ATOM     31  N   UNL A   1      32.492  34.414  27.687  1.00  0.00    -0.352 N 
ATOM     32  C   UNL A   1      32.960  35.044  28.812  1.00  0.00     0.251 C 
ATOM     33  H   UNL A   1      31.847  34.936  27.159  1.00  0.00     0.163 HD
ATOM     34  O   UNL A   1      32.379  36.036  29.242  1.00  0.00    -0.269 OA
BRANCH  32  35
ATOM     35  C   UNL A   1      34.152  34.531  29.517  1.00  0.00     0.039 A 
ATOM     36  C   UNL A   1      34.003  33.994  30.800  1.00  0.00     0.014 A 
ATOM     37  C   UNL A   1      35.418  34.611  28.933  1.00  0.00     0.014 A 
ATOM     38  C   UNL A   1      35.113  33.473  31.465  1.00  0.00     0.010 A 
ATOM     39  C   UNL A   1      36.509  34.022  29.564  1.00  0.00     0.010 A 
ATOM     40  C   UNL A   1      36.367  33.443  30.834  1.00  0.00    -0.014 A 
BRANCH  40  41
ATOM     41  C   UNL A   1      37.538  32.789  31.468  1.00  0.00     0.031 A 
ATOM     42  C   UNL A   1      38.200  31.615  30.804  1.00  0.00     0.074 A 
ATOM     43  C   UNL A   1      37.945  33.201  32.684  1.00  0.00     0.049 A 
ATOM     44  N   UNL A   1      39.159  30.843  31.251  1.00  0.00    -0.248 NA
ATOM     45  C   UNL A   1      37.700  31.241  29.472  1.00  0.00     0.031 C 
ATOM     46  C   UNL A   1      37.353  34.304  33.443  1.00  0.00     0.029 A 
ATOM     47  N   UNL A   1      38.939  32.729  33.505  1.00  0.00    -0.354 N 
ATOM     48  C   UNL A   1      39.365  29.888  30.265  1.00  0.00     0.074 A 
ATOM     49  C   UNL A   1      38.398  30.144  29.219  1.00  0.00     0.031 C 
ATOM     50  C   UNL A   1      38.004  34.435  34.609  1.00  0.00     0.029 A 
ATOM     51  C   UNL A   1      39.023  33.394  34.704  1.00  0.00     0.049 A 
ATOM     52  H   UNL A   1      39.535  31.985  33.258  1.00  0.00     0.167 HD
ATOM     53  C   UNL A   1      40.291  28.901  30.228  1.00  0.00     0.037 A 
ATOM     54  C   UNL A   1      39.818  33.176  35.769  1.00  0.00     0.037 A 
ATOM     55  C   UNL A   1      41.258  28.663  31.269  1.00  0.00     0.049 A 
ATOM     56  C   UNL A   1      40.815  32.049  35.716  1.00  0.00     0.074 A 
ATOM     57  C   UNL A   1      42.276  27.727  31.303  1.00  0.00     0.029 A 
ATOM     58  N   UNL A   1      41.318  29.363  32.466  1.00  0.00    -0.354 N 
ATOM     59  N   UNL A   1      41.051  31.198  34.749  1.00  0.00    -0.248 NA
ATOM     60  C   UNL A   1      41.657  31.855  36.904  1.00  0.00     0.031 C 
ATOM     61  C   UNL A   1      42.913  27.819  32.544  1.00  0.00     0.029 A 
ATOM     62  C   UNL A   1      42.334  28.855  33.259  1.00  0.00     0.049 A 
ATOM     63  H   UNL A   1      40.725  30.108  32.715  1.00  0.00     0.167 HD
ATOM     64  C   UNL A   1      42.084  30.385  35.197  1.00  0.00     0.074 A 
ATOM     65  C   UNL A   1      42.441  30.858  36.518  1.00  0.00     0.031 C 
ATOM     66  C   UNL A   1      42.682  29.343  34.571  1.00  0.00     0.037 A 
BRANCH  53  67
ATOM     67  C   UNL A   1      40.302  27.997  29.028  1.00  0.00     0.064 A 
ATOM     68  C   UNL A   1      41.033  28.312  27.873  1.00  0.00     0.173 A 
ATOM     69  C   UNL A   1      39.605  26.778  29.048  1.00  0.00     0.173 A 
ATOM     70  F   UNL A   1      41.711  29.467  27.796  1.00  0.00    -0.203 F 
ATOM     71  C   UNL A   1      41.040  27.459  26.771  1.00  0.00     0.198 A 
ATOM     72  C   UNL A   1      39.642  25.912  27.958  1.00  0.00     0.198 A 
ATOM     73  F   UNL A   1      38.894  26.422  30.128  1.00  0.00    -0.203 F 
ATOM     74  F   UNL A   1      41.704  27.807  25.660  1.00  0.00    -0.200 F 
ATOM     75  C   UNL A   1      40.351  26.256  26.818  1.00  0.00     0.200 A 
ATOM     76  F   UNL A   1      38.989  24.742  28.012  1.00  0.00    -0.200 F 
ATOM     77  F   UNL A   1      40.367  25.431  25.762  1.00  0.00    -0.200 F 
ENDBRANCH  53  67
BRANCH  54  78
ATOM     78  C   UNL A   1      39.708  34.046  36.970  1.00  0.00     0.064 A 
ATOM     79  C   UNL A   1      38.933  33.658  38.071  1.00  0.00     0.173 A 
ATOM     80  C   UNL A   1      40.370  35.281  37.042  1.00  0.00     0.173 A 
ATOM     81  F   UNL A   1      38.266  32.494  38.044  1.00  0.00    -0.203 F 
ATOM     82  C   UNL A   1      38.805  34.481  39.188  1.00  0.00     0.198 A 
ATOM     83  C   UNL A   1      40.268  36.089  38.173  1.00  0.00     0.198 A 
ATOM     84  F   UNL A   1      41.131  35.697  36.019  1.00  0.00    -0.203 F 
ATOM     85  F   UNL A   1      38.019  34.107  40.207  1.00  0.00    -0.200 F 
ATOM     86  C   UNL A   1      39.477  35.693  39.241  1.00  0.00     0.200 A 
ATOM     87  F   UNL A   1      40.935  37.249  38.227  1.00  0.00    -0.200 F 
ATOM     88  F   UNL A   1      39.360  36.481  40.318  1.00  0.00    -0.200 F 
ENDBRANCH  54  78
BRANCH  66  89
ATOM     89  C   UNL A   1      43.808  28.659  35.291  1.00  0.00     0.064 A 
ATOM     90  C   UNL A   1      45.143  29.047  35.111  1.00  0.00     0.173 A 
ATOM     91  C   UNL A   1      43.541  27.636  36.216  1.00  0.00     0.173 A 
ATOM     92  F   UNL A   1      45.454  30.008  34.227  1.00  0.00    -0.203 F 
ATOM     93  C   UNL A   1      46.171  28.423  35.813  1.00  0.00     0.198 A 
ATOM     94  C   UNL A   1      44.567  27.038  36.940  1.00  0.00     0.198 A 
ATOM     95  F   UNL A   1      42.280  27.231  36.429  1.00  0.00    -0.203 F 
ATOM     96  F   UNL A   1      47.444  28.779  35.590  1.00  0.00    -0.200 F 
ATOM     97  C   UNL A   1      45.882  27.428  36.734  1.00  0.00     0.200 A 
ATOM     98  F   UNL A   1      44.283  26.088  37.842  1.00  0.00    -0.200 F 
ATOM     99  F   UNL A   1      46.871  26.838  37.419  1.00  0.00    -0.200 F 
ENDBRANCH  66  89
ENDBRANCH  40  41
ENDBRANCH  32  35
ENDBRANCH  30  31
ENDBRANCH  29  30
ENDBRANCH   1  29
TORSDOF 13
ENDMDL
MODEL 2
REMARK VINA RESULT:     -13.3      0.620      7.110
REMARK SMILES CS(=O)(=O)c1ccc(-c2cc(Cl)cnc2-c2ccc(C(=O)NCCCNC(=O)c3ccc(-c4c5nc(c(-c6c(F)c(F)c(F)c(F)c6F)c6ccc([nH]6)c(-c6c(F)c(F)c(F)c(F)c6F)c6nc(c(-c7c(F)c(F)c(F)c(F)c7F)c7ccc4[nH]7)C=C6)C=C5)cc3)nc2)cc1
REMARK SMILES IDX 23 1 22 2 20 3 21 4 19 6 16 7 17 8 93 9 18 10 92 11 15 12
REMARK SMILES IDX 9 13 10 14 11 15 14 16 12 17 13 18 8 19 5 20 6 21 95 22 7 23
REMARK SMILES IDX 94 24 2 25 1 26 3 27 4 28 24 29 25 30 26 31 27 32 28 34
REMARK SMILES IDX 29 35 30 36 91 37 31 38 90 39 32 40 33 41 34 42 84 43 35 44
REMARK SMILES IDX 89 45 83 46 85 47 36 48 88 49 82 50 81 51 37 53 69 54 49 55
REMARK SMILES IDX 68 56 50 57 53 58 67 59 86 60 51 61 52 62 66 64 87 65 54 66
REMARK SMILES IDX 38 67 39 68 47 69 40 70 41 71 45 72 48 73 42 74 43 75 46 76
REMARK SMILES IDX 44 77 70 78 71 79 79 80 72 81 73 82 77 83 80 84 74 85 75 86
REMARK SMILES IDX 78 87 76 88 55 89 56 90 64 91 57 92 58 93 62 94 65 95 59 96
REMARK SMILES IDX 60 97 63 98 61 99
REMARK H PARENT 22 5 26 33 85 52 53 63
REMARK Flexibility Score: inf
ROOT
ATOM      1  C   UNL A   1      31.751  30.796  26.831  1.00  0.00     0.118 C 
ENDROOT
BRANCH   1   2
ATOM      2  N   UNL A   1      32.994  30.465  27.500  1.00  0.00    -0.351 N 
ATOM      3  C   UNL A   1      33.762  29.323  27.557  1.00  0.00     0.269 C 
ATOM      4  O   UNL A   1      34.800  29.407  28.217  1.00  0.00    -0.268 OA
ATOM      5  H   UNL A   1      33.367  31.212  28.023  1.00  0.00     0.163 HD
BRANCH   3   6
ATOM      6  C   UNL A   1      33.419  28.036  26.850  1.00  0.00     0.128 A 
ATOM      7  C   UNL A   1      32.943  25.758  25.337  1.00  0.00     0.019 A 
ATOM      8  C   UNL A   1      31.978  26.223  26.233  1.00  0.00     0.014 A 
ATOM      9  C   UNL A   1      34.150  26.442  25.316  1.00  0.00     0.122 A 
ATOM     10  C   UNL A   1      32.225  27.350  27.014  1.00  0.00     0.035 A 
ATOM     11  N   UNL A   1      34.396  27.570  26.024  1.00  0.00    -0.250 NA
BRANCH   7  12
ATOM     12  C   UNL A   1      32.662  24.630  24.448  1.00  0.00     0.080 A 
ATOM     13  C   UNL A   1      31.589  24.641  23.527  1.00  0.00     0.010 A 
ATOM     14  C   UNL A   1      31.313  23.437  22.859  1.00  0.00     0.033 A 
ATOM     15  C   UNL A   1      32.095  22.311  23.098  1.00  0.00     0.060 A 
ATOM     16  N   UNL A   1      33.452  23.546  24.665  1.00  0.00    -0.254 NA
ATOM     17  Cl  UNL A   1      31.746  20.825  22.317  1.00  0.00    -0.083 Cl
ATOM     18  C   UNL A   1      33.152  22.415  23.986  1.00  0.00     0.132 A 
BRANCH  13  19
ATOM     19  C   UNL A   1      30.772  25.845  23.271  1.00  0.00    -0.016 A 
ATOM     20  C   UNL A   1      29.302  28.224  22.927  1.00  0.00     0.067 A 
ATOM     21  C   UNL A   1      30.549  28.080  22.315  1.00  0.00     0.021 A 
ATOM     22  C   UNL A   1      28.763  27.182  23.679  1.00  0.00     0.021 A 
ATOM     23  C   UNL A   1      31.270  26.895  22.480  1.00  0.00     0.010 A 
ATOM     24  C   UNL A   1      29.498  25.999  23.847  1.00  0.00     0.010 A 
BRANCH  20  25
ATOM     25  S   UNL A   1      28.473  29.781  22.716  1.00  0.00     0.175 S 
ATOM     26  C   UNL A   1      29.318  30.975  23.710  1.00  0.00     0.163 C 
ATOM     27  O   UNL A   1      27.146  29.618  23.283  1.00  0.00    -0.224 OA
ATOM     28  O   UNL A   1      28.660  30.152  21.328  1.00  0.00    -0.224 OA
ENDBRANCH  20  25
ENDBRANCH  13  19
ENDBRANCH   7  12
ENDBRANCH   3   6
ENDBRANCH   1   2
BRANCH   1  29
ATOM     29  C   UNL A   1      31.523  32.309  26.817  1.00  0.00     0.042 C 
BRANCH  29  30
ATOM     30  C   UNL A   1      32.806  33.107  27.050  1.00  0.00     0.118 C 
BRANCH  30  31
ATOM     31  N   UNL A   1      32.534  34.397  27.670  1.00  0.00    -0.352 N 
ATOM     32  C   UNL A   1      32.993  34.929  28.848  1.00  0.00     0.251 C 
ATOM     33  H   UNL A   1      31.926  34.980  27.163  1.00  0.00     0.163 HD
ATOM     34  O   UNL A   1      32.439  35.913  29.330  1.00  0.00    -0.269 OA
BRANCH  32  35
ATOM     35  C   UNL A   1      34.143  34.320  29.547  1.00  0.00     0.039 A 
ATOM     36  C   UNL A   1      33.919  33.614  30.733  1.00  0.00     0.014 A 
ATOM     37  C   UNL A   1      35.442  34.475  29.058  1.00  0.00     0.014 A 
ATOM     38  C   UNL A   1      34.990  33.003  31.387  1.00  0.00     0.010 A 
ATOM     39  C   UNL A   1      36.495  33.802  29.666  1.00  0.00     0.010 A 
ATOM     40  C   UNL A   1      36.280  33.055  30.835  1.00  0.00    -0.014 A 
BRANCH  40  41
ATOM     41  C   UNL A   1      37.413  32.316  31.443  1.00  0.00     0.031 A 
ATOM     42  C   UNL A   1      37.938  32.713  32.793  1.00  0.00     0.074 A 
ATOM     43  C   UNL A   1      38.023  31.346  30.735  1.00  0.00     0.049 A 
ATOM     44  N   UNL A   1      38.986  32.266  33.439  1.00  0.00    -0.248 NA
ATOM     45  C   UNL A   1      37.203  33.773  33.502  1.00  0.00     0.031 C 
ATOM     46  C   UNL A   1      37.628  30.902  29.397  1.00  0.00     0.029 A 
ATOM     47  N   UNL A   1      39.118  30.572  31.032  1.00  0.00    -0.354 N 
ATOM     48  C   UNL A   1      39.043  32.998  34.618  1.00  0.00     0.074 A 
ATOM     49  C   UNL A   1      37.957  33.953  34.576  1.00  0.00     0.031 C 
ATOM     50  C   UNL A   1      38.455  29.924  28.996  1.00  0.00     0.029 A 
ATOM     51  C   UNL A   1      39.469  29.709  30.023  1.00  0.00     0.049 A 
ATOM     52  H   UNL A   1      39.603  30.630  31.886  1.00  0.00     0.167 HD
ATOM     53  C   UNL A   1      39.912  32.869  35.648  1.00  0.00     0.037 A 
ATOM     54  C   UNL A   1      40.506  28.854  29.927  1.00  0.00     0.037 A 
ATOM     55  C   UNL A   1      40.982  31.905  35.685  1.00  0.00     0.049 A 
ATOM     56  C   UNL A   1      41.478  28.755  31.073  1.00  0.00     0.074 A 
ATOM     57  C   UNL A   1      41.881  31.654  36.706  1.00  0.00     0.029 A 
ATOM     58  N   UNL A   1      41.303  31.042  34.647  1.00  0.00    -0.354 N 
ATOM     59  N   UNL A   1      41.480  29.401  32.213  1.00  0.00    -0.248 NA
ATOM     60  C   UNL A   1      42.590  27.808  30.917  1.00  0.00     0.031 C 
ATOM     61  C   UNL A   1      42.783  30.681  36.264  1.00  0.00     0.029 A 
ATOM     62  C   UNL A   1      42.408  30.280  34.991  1.00  0.00     0.049 A 
ATOM     63  H   UNL A   1      40.818  30.981  33.792  1.00  0.00     0.167 HD
ATOM     64  C   UNL A   1      42.573  28.920  32.922  1.00  0.00     0.074 A 
ATOM     65  C   UNL A   1      43.200  27.916  32.089  1.00  0.00     0.031 C 
ATOM     66  C   UNL A   1      43.017  29.279  34.151  1.00  0.00     0.037 A 
BRANCH  53  67
ATOM     67  C   UNL A   1      39.749  33.795  36.820  1.00  0.00     0.064 A 
ATOM     68  C   UNL A   1      40.365  35.055  36.857  1.00  0.00     0.173 A 
ATOM     69  C   UNL A   1      38.931  33.436  37.903  1.00  0.00     0.173 A 
ATOM     70  F   UNL A   1      41.163  35.447  35.852  1.00  0.00    -0.203 F 
ATOM     71  C   UNL A   1      40.196  35.907  37.947  1.00  0.00     0.198 A 
ATOM     72  C   UNL A   1      38.737  34.303  38.975  1.00  0.00     0.198 A 
ATOM     73  F   UNL A   1      38.312  32.246  37.918  1.00  0.00    -0.203 F 
ATOM     74  F   UNL A   1      40.837  37.083  37.982  1.00  0.00    -0.200 F 
ATOM     75  C   UNL A   1      39.375  35.533  39.001  1.00  0.00     0.200 A 
ATOM     76  F   UNL A   1      37.931  33.947  39.985  1.00  0.00    -0.200 F 
ATOM     77  F   UNL A   1      39.206  36.357  40.044  1.00  0.00    -0.200 F 
ENDBRANCH  53  67
BRANCH  54  78
ATOM     78  C   UNL A   1      40.673  28.021  28.707  1.00  0.00     0.064 A 
ATOM     79  C   UNL A   1      41.447  28.471  27.629  1.00  0.00     0.173 A 
ATOM     80  C   UNL A   1      40.063  26.764  28.590  1.00  0.00     0.173 A 
ATOM     81  F   UNL A   1      42.037  29.675  27.684  1.00  0.00    -0.203 F 
ATOM     82  C   UNL A   1      41.586  27.707  26.472  1.00  0.00     0.198 A 
ATOM     83  C   UNL A   1      40.230  25.985  27.446  1.00  0.00     0.198 A 
ATOM     84  F   UNL A   1      39.317  26.281  29.595  1.00  0.00    -0.203 F 
ATOM     85  F   UNL A   1      42.293  28.183  25.437  1.00  0.00    -0.200 F 
ATOM     86  C   UNL A   1      40.983  26.461  26.384  1.00  0.00     0.200 A 
ATOM     87  F   UNL A   1      39.660  24.774  27.375  1.00  0.00    -0.200 F 
ATOM     88  F   UNL A   1      41.122  25.723  25.275  1.00  0.00    -0.200 F 
ENDBRANCH  54  78
BRANCH  66  89
ATOM     89  C   UNL A   1      44.220  28.559  34.688  1.00  0.00     0.064 A 
ATOM     90  C   UNL A   1      45.518  29.065  34.524  1.00  0.00     0.173 A 
ATOM     91  C   UNL A   1      44.067  27.373  35.425  1.00  0.00     0.173 A 
ATOM     92  F   UNL A   1      45.720  30.186  33.814  1.00  0.00    -0.203 F 
ATOM     93  C   UNL A   1      46.618  28.400  35.058  1.00  0.00     0.198 A 
ATOM     94  C   UNL A   1      45.165  26.730  35.987  1.00  0.00     0.198 A 
ATOM     95  F   UNL A   1      42.846  26.849  35.616  1.00  0.00    -0.203 F 
ATOM     96  F   UNL A   1      47.853  28.878  34.849  1.00  0.00    -0.200 F 
ATOM     97  C   UNL A   1      46.441  27.241  35.798  1.00  0.00     0.200 A 
ATOM     98  F   UNL A   1      44.990  25.619  36.714  1.00  0.00    -0.200 F 
ATOM     99  F   UNL A   1      47.500  26.610  36.323  1.00  0.00    -0.200 F 
ENDBRANCH  66  89
ENDBRANCH  40  41
ENDBRANCH  32  35
ENDBRANCH  30  31
ENDBRANCH  29  30
ENDBRANCH   1  29
TORSDOF 13
ENDMDL
MODEL 3
REMARK VINA RESULT:     -13.2      6.373     11.403
REMARK SMILES CS(=O)(=O)c1ccc(-c2cc(Cl)cnc2-c2ccc(C(=O)NCCCNC(=O)c3ccc(-c4c5nc(c(-c6c(F)c(F)c(F)c(F)c6F)c6ccc([nH]6)c(-c6c(F)c(F)c(F)c(F)c6F)c6nc(c(-c7c(F)c(F)c(F)c(F)c7F)c7ccc4[nH]7)C=C6)C=C5)cc3)nc2)cc1
REMARK SMILES IDX 23 1 22 2 20 3 21 4 19 6 16 7 17 8 93 9 18 10 92 11 15 12
REMARK SMILES IDX 9 13 10 14 11 15 14 16 12 17 13 18 8 19 5 20 6 21 95 22 7 23
REMARK SMILES IDX 94 24 2 25 1 26 3 27 4 28 24 29 25 30 26 31 27 32 28 34
REMARK SMILES IDX 29 35 30 36 91 37 31 38 90 39 32 40 33 41 34 42 84 43 35 44
REMARK SMILES IDX 89 45 83 46 85 47 36 48 88 49 82 50 81 51 37 53 69 54 49 55
REMARK SMILES IDX 68 56 50 57 53 58 67 59 86 60 51 61 52 62 66 64 87 65 54 66
REMARK SMILES IDX 38 67 39 68 47 69 40 70 41 71 45 72 48 73 42 74 43 75 46 76
REMARK SMILES IDX 44 77 70 78 71 79 79 80 72 81 73 82 77 83 80 84 74 85 75 86
REMARK SMILES IDX 78 87 76 88 55 89 56 90 64 91 57 92 58 93 62 94 65 95 59 96
REMARK SMILES IDX 60 97 63 98 61 99
REMARK H PARENT 22 5 26 33 85 52 53 63
REMARK Flexibility Score: inf
ROOT
ATOM      1  C   UNL A   1      38.143  20.705  24.893  1.00  0.00     0.118 C 
ENDROOT
BRANCH   1   2
ATOM      2  N   UNL A   1      38.666  21.898  25.531  1.00  0.00    -0.351 N 
ATOM      3  C   UNL A   1      38.098  23.096  25.904  1.00  0.00     0.269 C 
ATOM      4  O   UNL A   1      38.853  23.896  26.462  1.00  0.00    -0.268 OA
ATOM      5  H   UNL A   1      39.627  21.840  25.740  1.00  0.00     0.163 HD
BRANCH   3   6
ATOM      6  C   UNL A   1      36.647  23.446  25.697  1.00  0.00     0.128 A 
ATOM      7  C   UNL A   1      34.058  24.261  25.115  1.00  0.00     0.019 A 
ATOM      8  C   UNL A   1      34.404  23.894  26.416  1.00  0.00     0.014 A 
ATOM      9  C   UNL A   1      35.042  24.116  24.146  1.00  0.00     0.122 A 
ATOM     10  C   UNL A   1      35.696  23.458  26.706  1.00  0.00     0.035 A 
ATOM     11  N   UNL A   1      36.317  23.746  24.410  1.00  0.00    -0.250 NA
BRANCH   7  12
ATOM     12  C   UNL A   1      32.732  24.804  24.814  1.00  0.00     0.080 A 
ATOM     13  C   UNL A   1      31.705  24.019  24.241  1.00  0.00     0.010 A 
ATOM     14  C   UNL A   1      30.542  24.692  23.835  1.00  0.00     0.033 A 
ATOM     15  C   UNL A   1      30.429  26.067  24.025  1.00  0.00     0.060 A 
ATOM     16  N   UNL A   1      32.619  26.140  25.033  1.00  0.00    -0.254 NA
ATOM     17  Cl  UNL A   1      29.029  26.907  23.501  1.00  0.00    -0.083 Cl
ATOM     18  C   UNL A   1      31.473  26.739  24.637  1.00  0.00     0.132 A 
BRANCH  13  19
ATOM     19  C   UNL A   1      31.830  22.558  24.055  1.00  0.00    -0.016 A 
ATOM     20  C   UNL A   1      32.254  19.793  23.720  1.00  0.00     0.067 A 
ATOM     21  C   UNL A   1      32.109  20.326  25.002  1.00  0.00     0.021 A 
ATOM     22  C   UNL A   1      32.153  20.617  22.600  1.00  0.00     0.021 A 
ATOM     23  C   UNL A   1      31.890  21.696  25.164  1.00  0.00     0.010 A 
ATOM     24  C   UNL A   1      31.941  21.993  22.772  1.00  0.00     0.010 A 
BRANCH  20  25
ATOM     25  S   UNL A   1      32.586  18.052  23.601  1.00  0.00     0.175 S 
ATOM     26  C   UNL A   1      34.285  17.802  24.026  1.00  0.00     0.163 C 
ATOM     27  O   UNL A   1      32.444  17.703  22.198  1.00  0.00    -0.224 OA
ATOM     28  O   UNL A   1      31.778  17.417  24.622  1.00  0.00    -0.224 OA
ENDBRANCH  20  25
ENDBRANCH  13  19
ENDBRANCH   7  12
ENDBRANCH   3   6
ENDBRANCH   1   2
BRANCH   1  29
ATOM     29  C   UNL A   1      38.884  19.457  25.376  1.00  0.00     0.042 C 
BRANCH  29  30
ATOM     30  C   UNL A   1      40.029  19.778  26.335  1.00  0.00     0.118 C 
BRANCH  30  31
ATOM     31  N   UNL A   1      41.172  18.899  26.126  1.00  0.00    -0.352 N 
ATOM     32  C   UNL A   1      42.501  19.196  25.960  1.00  0.00     0.251 C 
ATOM     33  H   UNL A   1      40.957  17.939  26.100  1.00  0.00     0.163 HD
ATOM     34  O   UNL A   1      43.268  18.341  25.526  1.00  0.00    -0.269 OA
BRANCH  32  35
ATOM     35  C   UNL A   1      43.015  20.541  26.291  1.00  0.00     0.039 A 
ATOM     36  C   UNL A   1      43.689  21.270  25.307  1.00  0.00     0.014 A 
ATOM     37  C   UNL A   1      42.867  21.067  27.577  1.00  0.00     0.014 A 
ATOM     38  C   UNL A   1      44.150  22.556  25.593  1.00  0.00     0.010 A 
ATOM     39  C   UNL A   1      43.256  22.376  27.837  1.00  0.00     0.010 A 
ATOM     40  C   UNL A   1      43.898  23.136  26.846  1.00  0.00    -0.014 A 
BRANCH  40  41
ATOM     41  C   UNL A   1      44.270  24.542  27.139  1.00  0.00     0.031 A 
ATOM     42  C   UNL A   1      43.224  25.524  27.583  1.00  0.00     0.074 A 
ATOM     43  C   UNL A   1      45.536  24.949  26.917  1.00  0.00     0.049 A 
ATOM     44  N   UNL A   1      43.331  26.815  27.776  1.00  0.00    -0.248 NA
ATOM     45  C   UNL A   1      41.873  24.992  27.812  1.00  0.00     0.031 C 
ATOM     46  C   UNL A   1      46.626  24.094  26.447  1.00  0.00     0.029 A 
ATOM     47  N   UNL A   1      46.113  26.188  27.037  1.00  0.00    -0.354 N 
ATOM     48  C   UNL A   1      42.061  27.248  28.136  1.00  0.00     0.074 A 
ATOM     49  C   UNL A   1      41.189  26.094  28.083  1.00  0.00     0.031 C 
ATOM     50  C   UNL A   1      47.744  24.828  26.335  1.00  0.00     0.029 A 
ATOM     51  C   UNL A   1      47.437  26.214  26.674  1.00  0.00     0.049 A 
ATOM     52  H   UNL A   1      45.625  26.982  27.355  1.00  0.00     0.167 HD
ATOM     53  C   UNL A   1      41.666  28.492  28.496  1.00  0.00     0.037 A 
ATOM     54  C   UNL A   1      48.302  27.244  26.601  1.00  0.00     0.037 A 
ATOM     55  C   UNL A   1      42.544  29.631  28.559  1.00  0.00     0.049 A 
ATOM     56  C   UNL A   1      47.827  28.623  26.974  1.00  0.00     0.074 A 
ATOM     57  C   UNL A   1      42.256  30.921  28.968  1.00  0.00     0.029 A 
ATOM     58  N   UNL A   1      43.882  29.617  28.190  1.00  0.00    -0.354 N 
ATOM     59  N   UNL A   1      46.643  29.008  27.382  1.00  0.00    -0.248 NA
ATOM     60  C   UNL A   1      48.811  29.710  26.876  1.00  0.00     0.031 C 
ATOM     61  C   UNL A   1      43.402  31.702  28.790  1.00  0.00     0.029 A 
ATOM     62  C   UNL A   1      44.424  30.886  28.331  1.00  0.00     0.049 A 
ATOM     63  H   UNL A   1      44.373  28.825  27.875  1.00  0.00     0.167 HD
ATOM     64  C   UNL A   1      46.744  30.373  27.616  1.00  0.00     0.074 A 
ATOM     65  C   UNL A   1      48.112  30.745  27.321  1.00  0.00     0.031 C 
ATOM     66  C   UNL A   1      45.791  31.238  28.038  1.00  0.00     0.037 A 
BRANCH  53  67
ATOM     67  C   UNL A   1      40.218  28.691  28.846  1.00  0.00     0.064 A 
ATOM     68  C   UNL A   1      39.740  28.498  30.151  1.00  0.00     0.173 A 
ATOM     69  C   UNL A   1      39.302  29.121  27.873  1.00  0.00     0.173 A 
ATOM     70  F   UNL A   1      40.569  28.080  31.119  1.00  0.00    -0.203 F 
ATOM     71  C   UNL A   1      38.396  28.695  30.461  1.00  0.00     0.198 A 
ATOM     72  C   UNL A   1      37.967  29.350  28.194  1.00  0.00     0.198 A 
ATOM     73  F   UNL A   1      39.705  29.328  26.610  1.00  0.00    -0.203 F 
ATOM     74  F   UNL A   1      37.954  28.453  31.704  1.00  0.00    -0.200 F 
ATOM     75  C   UNL A   1      37.513  29.129  29.485  1.00  0.00     0.200 A 
ATOM     76  F   UNL A   1      37.118  29.785  27.252  1.00  0.00    -0.200 F 
ATOM     77  F   UNL A   1      36.222  29.328  29.786  1.00  0.00    -0.200 F 
ENDBRANCH  53  67
BRANCH  54  78
ATOM     78  C   UNL A   1      49.704  27.009  26.164  1.00  0.00     0.064 A 
ATOM     79  C   UNL A   1      50.712  26.730  27.097  1.00  0.00     0.173 A 
ATOM     80  C   UNL A   1      50.068  27.061  24.811  1.00  0.00     0.173 A 
ATOM     81  F   UNL A   1      50.419  26.686  28.406  1.00  0.00    -0.203 F 
ATOM     82  C   UNL A   1      52.032  26.535  26.697  1.00  0.00     0.198 A 
ATOM     83  C   UNL A   1      51.382  26.834  24.407  1.00  0.00     0.198 A 
ATOM     84  F   UNL A   1      49.142  27.317  23.874  1.00  0.00    -0.203 F 
ATOM     85  F   UNL A   1      52.984  26.317  27.615  1.00  0.00    -0.200 F 
ATOM     86  C   UNL A   1      52.365  26.581  25.352  1.00  0.00     0.200 A 
ATOM     87  F   UNL A   1      51.695  26.860  23.104  1.00  0.00    -0.200 F 
ATOM     88  F   UNL A   1      53.634  26.386  24.966  1.00  0.00    -0.200 F 
ENDBRANCH  54  78
BRANCH  66  89
ATOM     89  C   UNL A   1      46.197  32.670  28.238  1.00  0.00     0.064 A 
ATOM     90  C   UNL A   1      46.035  33.632  27.231  1.00  0.00     0.173 A 
ATOM     91  C   UNL A   1      46.707  33.095  29.477  1.00  0.00     0.173 A 
ATOM     92  F   UNL A   1      45.569  33.274  26.025  1.00  0.00    -0.203 F 
ATOM     93  C   UNL A   1      46.388  34.961  27.448  1.00  0.00     0.198 A 
ATOM     94  C   UNL A   1      47.025  34.430  29.700  1.00  0.00     0.198 A 
ATOM     95  F   UNL A   1      46.876  32.215  30.476  1.00  0.00    -0.203 F 
ATOM     96  F   UNL A   1      46.268  35.854  26.456  1.00  0.00    -0.200 F 
ATOM     97  C   UNL A   1      46.871  35.362  28.684  1.00  0.00     0.200 A 
ATOM     98  F   UNL A   1      47.477  34.818  30.901  1.00  0.00    -0.200 F 
ATOM     99  F   UNL A   1      47.196  36.644  28.896  1.00  0.00    -0.200 F 
ENDBRANCH  66  89
ENDBRANCH  40  41
ENDBRANCH  32  35
ENDBRANCH  30  31
ENDBRANCH  29  30
ENDBRANCH   1  29
TORSDOF 13
ENDMDL
