MODEL 1
REMARK VINA RESULT:     -12.1      0.000      0.000
REMARK SMILES CC[C@@H](C)[C@H](NC(=O)CCc1ccc(F)c(F)c1)C(=O)NCCCNC(=O)c1ccc(-c2c3nc(c(-c4c(F)c(F)c(F)c(F)c4F)c4ccc([nH]4)c(-c4c(F)c(F)c(F)c(F)c4F)c4nc(c(-c5c(F)c(F)c(F)c(F)c5F)c5ccc2[nH]5)C=C4)C=C3)cc1
REMARK SMILES IDX 22 1 21 2 19 3 20 4 5 6 3 7 4 8 2 9 1 10 6 11 7 12 8 14 9 15
REMARK SMILES IDX 10 16 11 17 12 18 18 19 13 20 16 21 14 22 17 23 15 24 23 25
REMARK SMILES IDX 24 26 25 27 26 28 27 30 28 31 29 32 90 33 30 34 89 35 31 36
REMARK SMILES IDX 32 37 33 38 83 39 34 40 88 41 82 42 84 43 35 44 87 45 81 46
REMARK SMILES IDX 80 47 36 49 68 50 48 51 67 52 49 53 52 54 66 55 85 56 50 57
REMARK SMILES IDX 51 58 65 60 86 61 53 62 37 63 38 64 46 65 39 66 40 67 44 68
REMARK SMILES IDX 47 69 41 70 42 71 45 72 43 73 69 74 70 75 78 76 71 77 72 78
REMARK SMILES IDX 76 79 79 80 73 81 74 82 77 83 75 84 54 85 55 86 63 87 56 88
REMARK SMILES IDX 57 89 61 90 64 91 58 92 59 93 62 94 60 95
REMARK H PARENT 21 5 6 13 25 29 84 48 52 59
REMARK Flexibility Score: inf
ROOT
ATOM      1  C   UNL A   1      31.643  30.780  26.253  1.00  0.00     0.117 C 
ENDROOT
BRANCH   1   2
ATOM      2  N   UNL A   1      32.936  30.265  26.637  1.00  0.00    -0.354 N 
ATOM      3  C   UNL A   1      33.555  29.121  26.265  1.00  0.00     0.242 C 
ATOM      4  O   UNL A   1      34.695  28.930  26.700  1.00  0.00    -0.273 OA
ATOM      5  H   UNL A   1      33.443  30.831  27.263  1.00  0.00     0.163 HD
BRANCH   3   6
ATOM      6  C   UNL A   1      32.896  28.127  25.291  1.00  0.00     0.174 C 
BRANCH   6   7
ATOM      7  C   UNL A   1      32.309  26.852  26.012  1.00  0.00     0.018 C 
ATOM      8  C   UNL A   1      33.256  25.641  25.937  1.00  0.00     0.010 C 
BRANCH   7   9
ATOM      9  C   UNL A   1      30.827  26.507  25.698  1.00  0.00     0.002 C 
ATOM     10  C   UNL A   1      30.358  25.131  26.156  1.00  0.00     0.004 C 
ENDBRANCH   7   9
ENDBRANCH   6   7
BRANCH   6  11
ATOM     11  N   UNL A   1      33.702  27.856  24.089  1.00  0.00    -0.344 N 
ATOM     12  C   UNL A   1      33.342  27.904  22.772  1.00  0.00     0.220 C 
ATOM     13  H   UNL A   1      34.638  27.604  24.259  1.00  0.00     0.164 HD
ATOM     14  O   UNL A   1      34.027  27.262  21.972  1.00  0.00    -0.275 OA
BRANCH  12  15
ATOM     15  C   UNL A   1      32.189  28.758  22.278  1.00  0.00     0.105 C 
BRANCH  15  16
ATOM     16  C   UNL A   1      30.815  28.109  22.449  1.00  0.00     0.045 C 
BRANCH  16  17
ATOM     17  C   UNL A   1      29.715  29.100  22.741  1.00  0.00    -0.044 A 
ATOM     18  C   UNL A   1      28.371  28.704  22.655  1.00  0.00     0.007 A 
ATOM     19  C   UNL A   1      30.018  30.400  23.179  1.00  0.00     0.046 A 
ATOM     20  C   UNL A   1      27.351  29.562  23.074  1.00  0.00     0.043 A 
ATOM     21  C   UNL A   1      28.994  31.257  23.572  1.00  0.00     0.159 A 
ATOM     22  C   UNL A   1      27.672  30.832  23.541  1.00  0.00     0.158 A 
ATOM     23  F   UNL A   1      29.296  32.490  24.002  1.00  0.00    -0.204 F 
ATOM     24  F   UNL A   1      26.692  31.636  23.978  1.00  0.00    -0.204 F 
ENDBRANCH  16  17
ENDBRANCH  15  16
ENDBRANCH  12  15
ENDBRANCH   6  11
ENDBRANCH   3   6
ENDBRANCH   1   2
BRANCH   1  25
ATOM     25  C   UNL A   1      31.426  32.198  26.741  1.00  0.00     0.042 C 
BRANCH  25  26
ATOM     26  C   UNL A   1      32.684  32.798  27.348  1.00  0.00     0.118 C 
BRANCH  26  27
ATOM     27  N   UNL A   1      32.545  34.233  27.588  1.00  0.00    -0.352 N 
ATOM     28  C   UNL A   1      33.052  35.008  28.597  1.00  0.00     0.251 C 
ATOM     29  H   UNL A   1      32.005  34.716  26.921  1.00  0.00     0.163 HD
ATOM     30  O   UNL A   1      32.577  36.112  28.832  1.00  0.00    -0.269 OA
BRANCH  28  31
ATOM     31  C   UNL A   1      34.169  34.487  29.401  1.00  0.00     0.039 A 
ATOM     32  C   UNL A   1      33.911  33.871  30.626  1.00  0.00     0.014 A 
ATOM     33  C   UNL A   1      35.474  34.601  28.920  1.00  0.00     0.014 A 
ATOM     34  C   UNL A   1      34.967  33.303  31.335  1.00  0.00     0.010 A 
ATOM     35  C   UNL A   1      36.500  33.931  29.561  1.00  0.00     0.010 A 
ATOM     36  C   UNL A   1      36.261  33.294  30.785  1.00  0.00    -0.014 A 
BRANCH  36  37
ATOM     37  C   UNL A   1      37.395  32.645  31.478  1.00  0.00     0.031 A 
ATOM     38  C   UNL A   1      38.120  31.509  30.812  1.00  0.00     0.074 A 
ATOM     39  C   UNL A   1      37.712  33.026  32.729  1.00  0.00     0.049 A 
ATOM     40  N   UNL A   1      39.080  30.755  31.281  1.00  0.00    -0.248 NA
ATOM     41  C   UNL A   1      37.681  31.144  29.455  1.00  0.00     0.031 C 
ATOM     42  C   UNL A   1      37.029  34.072  33.493  1.00  0.00     0.029 A 
ATOM     43  N   UNL A   1      38.686  32.575  33.582  1.00  0.00    -0.354 N 
ATOM     44  C   UNL A   1      39.340  29.821  30.287  1.00  0.00     0.074 A 
ATOM     45  C   UNL A   1      38.392  30.053  29.222  1.00  0.00     0.031 C 
ATOM     46  C   UNL A   1      37.634  34.214  34.681  1.00  0.00     0.029 A 
ATOM     47  C   UNL A   1      38.718  33.241  34.781  1.00  0.00     0.049 A 
ATOM     48  H   UNL A   1      39.304  31.842  33.356  1.00  0.00     0.167 HD
ATOM     49  C   UNL A   1      40.311  28.880  30.253  1.00  0.00     0.037 A 
ATOM     50  C   UNL A   1      39.535  33.086  35.840  1.00  0.00     0.037 A 
ATOM     51  C   UNL A   1      41.274  28.691  31.303  1.00  0.00     0.049 A 
ATOM     52  C   UNL A   1      40.616  32.044  35.774  1.00  0.00     0.074 A 
ATOM     53  C   UNL A   1      42.340  27.813  31.344  1.00  0.00     0.029 A 
ATOM     54  N   UNL A   1      41.288  29.400  32.496  1.00  0.00    -0.354 N 
ATOM     55  N   UNL A   1      40.897  31.208  34.804  1.00  0.00    -0.248 NA
ATOM     56  C   UNL A   1      41.495  31.924  36.944  1.00  0.00     0.031 C 
ATOM     57  C   UNL A   1      42.973  27.956  32.581  1.00  0.00     0.029 A 
ATOM     58  C   UNL A   1      42.335  28.964  33.290  1.00  0.00     0.049 A 
ATOM     59  H   UNL A   1      40.649  30.108  32.741  1.00  0.00     0.167 HD
ATOM     60  C   UNL A   1      41.997  30.479  35.232  1.00  0.00     0.074 A 
ATOM     61  C   UNL A   1      42.340  30.979  36.548  1.00  0.00     0.031 C 
ATOM     62  C   UNL A   1      42.661  29.485  34.593  1.00  0.00     0.037 A 
BRANCH  49  63
ATOM     63  C   UNL A   1      40.392  28.003  29.038  1.00  0.00     0.064 A 
ATOM     64  C   UNL A   1      41.150  28.395  27.925  1.00  0.00     0.173 A 
ATOM     65  C   UNL A   1      39.682  26.796  28.954  1.00  0.00     0.173 A 
ATOM     66  F   UNL A   1      41.847  29.542  27.950  1.00  0.00    -0.203 F 
ATOM     67  C   UNL A   1      41.188  27.616  26.771  1.00  0.00     0.198 A 
ATOM     68  C   UNL A   1      39.750  26.000  27.813  1.00  0.00     0.198 A 
ATOM     69  F   UNL A   1      38.953  26.367  29.995  1.00  0.00    -0.203 F 
ATOM     70  F   UNL A   1      41.897  28.025  25.710  1.00  0.00    -0.200 F 
ATOM     71  C   UNL A   1      40.494  26.416  26.719  1.00  0.00     0.200 A 
ATOM     72  F   UNL A   1      39.103  24.828  27.776  1.00  0.00    -0.200 F 
ATOM     73  F   UNL A   1      40.546  25.658  25.615  1.00  0.00    -0.200 F 
ENDBRANCH  49  63
BRANCH  50  74
ATOM     74  C   UNL A   1      39.389  33.988  37.011  1.00  0.00     0.064 A 
ATOM     75  C   UNL A   1      40.016  35.241  37.056  1.00  0.00     0.173 A 
ATOM     76  C   UNL A   1      38.671  33.576  38.142  1.00  0.00     0.173 A 
ATOM     77  F   UNL A   1      40.726  35.676  36.004  1.00  0.00    -0.203 F 
ATOM     78  C   UNL A   1      39.952  36.037  38.198  1.00  0.00     0.198 A 
ATOM     79  C   UNL A   1      38.585  34.384  39.274  1.00  0.00     0.198 A 
ATOM     80  F   UNL A   1      38.043  32.392  38.141  1.00  0.00    -0.203 F 
ATOM     81  F   UNL A   1      40.597  37.212  38.232  1.00  0.00    -0.200 F 
ATOM     82  C   UNL A   1      39.235  35.609  39.305  1.00  0.00     0.200 A 
ATOM     83  F   UNL A   1      37.878  33.974  40.335  1.00  0.00    -0.200 F 
ATOM     84  F   UNL A   1      39.172  36.375  40.403  1.00  0.00    -0.200 F 
ENDBRANCH  50  74
BRANCH  62  85
ATOM     85  C   UNL A   1      43.841  28.876  35.290  1.00  0.00     0.064 A 
ATOM     86  C   UNL A   1      43.657  27.842  36.221  1.00  0.00     0.173 A 
ATOM     87  C   UNL A   1      45.136  29.386  35.117  1.00  0.00     0.173 A 
ATOM     88  F   UNL A   1      42.436  27.329  36.429  1.00  0.00    -0.203 F 
ATOM     89  C   UNL A   1      44.724  27.358  36.971  1.00  0.00     0.198 A 
ATOM     90  C   UNL A   1      46.205  28.878  35.848  1.00  0.00     0.198 A 
ATOM     91  F   UNL A   1      45.362  30.366  34.230  1.00  0.00    -0.203 F 
ATOM     92  F   UNL A   1      44.517  26.402  37.888  1.00  0.00    -0.200 F 
ATOM     93  C   UNL A   1      45.996  27.874  36.783  1.00  0.00     0.200 A 
ATOM     94  F   UNL A   1      47.440  29.362  35.650  1.00  0.00    -0.200 F 
ATOM     95  F   UNL A   1      47.023  27.406  37.505  1.00  0.00    -0.200 F 
ENDBRANCH  62  85
ENDBRANCH  36  37
ENDBRANCH  28  31
ENDBRANCH  26  27
ENDBRANCH  25  26
ENDBRANCH   1  25
TORSDOF 16
ENDMDL
MODEL 2
REMARK VINA RESULT:     -11.9      1.046      7.497
REMARK SMILES CC[C@@H](C)[C@H](NC(=O)CCc1ccc(F)c(F)c1)C(=O)NCCCNC(=O)c1ccc(-c2c3nc(c(-c4c(F)c(F)c(F)c(F)c4F)c4ccc([nH]4)c(-c4c(F)c(F)c(F)c(F)c4F)c4nc(c(-c5c(F)c(F)c(F)c(F)c5F)c5ccc2[nH]5)C=C4)C=C3)cc1
REMARK SMILES IDX 22 1 21 2 19 3 20 4 5 6 3 7 4 8 2 9 1 10 6 11 7 12 8 14 9 15
REMARK SMILES IDX 10 16 11 17 12 18 18 19 13 20 16 21 14 22 17 23 15 24 23 25
REMARK SMILES IDX 24 26 25 27 26 28 27 30 28 31 29 32 90 33 30 34 89 35 31 36
REMARK SMILES IDX 32 37 33 38 83 39 34 40 88 41 82 42 84 43 35 44 87 45 81 46
REMARK SMILES IDX 80 47 36 49 68 50 48 51 67 52 49 53 52 54 66 55 85 56 50 57
REMARK SMILES IDX 51 58 65 60 86 61 53 62 37 63 38 64 46 65 39 66 40 67 44 68
REMARK SMILES IDX 47 69 41 70 42 71 45 72 43 73 69 74 70 75 78 76 71 77 72 78
REMARK SMILES IDX 76 79 79 80 73 81 74 82 77 83 75 84 54 85 55 86 63 87 56 88
REMARK SMILES IDX 57 89 61 90 64 91 58 92 59 93 62 94 60 95
REMARK H PARENT 21 5 6 13 25 29 84 48 52 59
REMARK Flexibility Score: inf
ROOT
ATOM      1  C   UNL A   1      31.406  31.048  26.281  1.00  0.00     0.117 C 
ENDROOT
BRANCH   1   2
ATOM      2  N   UNL A   1      32.430  30.374  27.044  1.00  0.00    -0.354 N 
ATOM      3  C   UNL A   1      33.140  29.262  26.743  1.00  0.00     0.242 C 
ATOM      4  O   UNL A   1      34.004  28.910  27.551  1.00  0.00    -0.273 OA
ATOM      5  H   UNL A   1      32.643  30.785  27.913  1.00  0.00     0.163 HD
BRANCH   3   6
ATOM      6  C   UNL A   1      32.925  28.502  25.421  1.00  0.00     0.174 C 
BRANCH   6   7
ATOM      7  C   UNL A   1      32.599  26.972  25.634  1.00  0.00     0.018 C 
ATOM      8  C   UNL A   1      31.491  26.743  26.679  1.00  0.00     0.010 C 
BRANCH   7   9
ATOM      9  C   UNL A   1      33.820  26.026  25.802  1.00  0.00     0.002 C 
ATOM     10  C   UNL A   1      34.208  25.223  24.567  1.00  0.00     0.004 C 
ENDBRANCH   7   9
ENDBRANCH   6   7
BRANCH   6  11
ATOM     11  N   UNL A   1      33.947  28.792  24.401  1.00  0.00    -0.344 N 
ATOM     12  C   UNL A   1      33.863  28.715  23.040  1.00  0.00     0.220 C 
ATOM     13  H   UNL A   1      34.819  29.085  24.751  1.00  0.00     0.164 HD
ATOM     14  O   UNL A   1      34.917  28.605  22.410  1.00  0.00    -0.275 OA
BRANCH  12  15
ATOM     15  C   UNL A   1      32.540  28.825  22.304  1.00  0.00     0.105 C 
BRANCH  15  16
ATOM     16  C   UNL A   1      31.668  27.573  22.400  1.00  0.00     0.045 C 
BRANCH  16  17
ATOM     17  C   UNL A   1      30.244  27.864  22.808  1.00  0.00    -0.044 A 
ATOM     18  C   UNL A   1      29.630  29.062  22.408  1.00  0.00     0.007 A 
ATOM     19  C   UNL A   1      29.492  26.914  23.517  1.00  0.00     0.046 A 
ATOM     20  C   UNL A   1      28.269  29.273  22.643  1.00  0.00     0.043 A 
ATOM     21  C   UNL A   1      28.141  27.143  23.767  1.00  0.00     0.159 A 
ATOM     22  C   UNL A   1      27.530  28.305  23.314  1.00  0.00     0.158 A 
ATOM     23  F   UNL A   1      27.429  26.223  24.432  1.00  0.00    -0.204 F 
ATOM     24  F   UNL A   1      26.216  28.496  23.500  1.00  0.00    -0.204 F 
ENDBRANCH  16  17
ENDBRANCH  15  16
ENDBRANCH  12  15
ENDBRANCH   6  11
ENDBRANCH   3   6
ENDBRANCH   1   2
BRANCH   1  25
ATOM     25  C   UNL A   1      31.390  32.540  26.542  1.00  0.00     0.042 C 
BRANCH  25  26
ATOM     26  C   UNL A   1      32.602  33.000  27.338  1.00  0.00     0.118 C 
BRANCH  26  27
ATOM     27  N   UNL A   1      32.495  34.402  27.737  1.00  0.00    -0.352 N 
ATOM     28  C   UNL A   1      33.054  35.057  28.802  1.00  0.00     0.251 C 
ATOM     29  H   UNL A   1      31.935  34.960  27.150  1.00  0.00     0.163 HD
ATOM     30  O   UNL A   1      32.607  36.134  29.174  1.00  0.00    -0.269 OA
BRANCH  28  31
ATOM     31  C   UNL A   1      34.195  34.440  29.496  1.00  0.00     0.039 A 
ATOM     32  C   UNL A   1      33.970  33.612  30.597  1.00  0.00     0.014 A 
ATOM     33  C   UNL A   1      35.491  34.676  29.034  1.00  0.00     0.014 A 
ATOM     34  C   UNL A   1      35.051  32.963  31.190  1.00  0.00     0.010 A 
ATOM     35  C   UNL A   1      36.544  33.937  29.543  1.00  0.00     0.010 A 
ATOM     36  C   UNL A   1      36.338  33.090  30.639  1.00  0.00    -0.014 A 
BRANCH  36  37
ATOM     37  C   UNL A   1      37.499  32.367  31.202  1.00  0.00     0.031 A 
ATOM     38  C   UNL A   1      38.024  32.748  32.558  1.00  0.00     0.074 A 
ATOM     39  C   UNL A   1      38.119  31.432  30.461  1.00  0.00     0.049 A 
ATOM     40  N   UNL A   1      39.076  32.298  33.192  1.00  0.00    -0.248 NA
ATOM     41  C   UNL A   1      37.296  33.804  33.282  1.00  0.00     0.031 C 
ATOM     42  C   UNL A   1      37.732  31.033  29.106  1.00  0.00     0.029 A 
ATOM     43  N   UNL A   1      39.210  30.650  30.737  1.00  0.00    -0.354 N 
ATOM     44  C   UNL A   1      39.143  33.029  34.370  1.00  0.00     0.074 A 
ATOM     45  C   UNL A   1      38.074  34.000  34.334  1.00  0.00     0.031 C 
ATOM     46  C   UNL A   1      38.543  30.051  28.688  1.00  0.00     0.029 A 
ATOM     47  C   UNL A   1      39.533  29.780  29.726  1.00  0.00     0.049 A 
ATOM     48  H   UNL A   1      39.715  30.707  31.580  1.00  0.00     0.167 HD
ATOM     49  C   UNL A   1      39.998  32.874  35.406  1.00  0.00     0.037 A 
ATOM     50  C   UNL A   1      40.515  28.862  29.650  1.00  0.00     0.037 A 
ATOM     51  C   UNL A   1      41.029  31.874  35.445  1.00  0.00     0.049 A 
ATOM     52  C   UNL A   1      41.445  28.698  30.819  1.00  0.00     0.074 A 
ATOM     53  C   UNL A   1      41.909  31.585  36.471  1.00  0.00     0.029 A 
ATOM     54  N   UNL A   1      41.313  30.994  34.410  1.00  0.00    -0.354 N 
ATOM     55  N   UNL A   1      41.462  29.348  31.958  1.00  0.00    -0.248 NA
ATOM     56  C   UNL A   1      42.489  27.671  30.699  1.00  0.00     0.031 C 
ATOM     57  C   UNL A   1      42.756  30.562  36.040  1.00  0.00     0.029 A 
ATOM     58  C   UNL A   1      42.369  30.174  34.766  1.00  0.00     0.049 A 
ATOM     59  H   UNL A   1      40.834  30.959  33.550  1.00  0.00     0.167 HD
ATOM     60  C   UNL A   1      42.497  28.799  32.698  1.00  0.00     0.074 A 
ATOM     61  C   UNL A   1      43.081  27.752  31.884  1.00  0.00     0.031 C 
ATOM     62  C   UNL A   1      42.926  29.132  33.940  1.00  0.00     0.037 A 
BRANCH  49  63
ATOM     63  C   UNL A   1      39.839  33.788  36.586  1.00  0.00     0.064 A 
ATOM     64  C   UNL A   1      38.991  33.443  37.648  1.00  0.00     0.173 A 
ATOM     65  C   UNL A   1      40.491  35.030  36.647  1.00  0.00     0.173 A 
ATOM     66  F   UNL A   1      38.340  32.269  37.640  1.00  0.00    -0.203 F 
ATOM     67  C   UNL A   1      38.794  34.309  38.720  1.00  0.00     0.198 A 
ATOM     68  C   UNL A   1      40.321  35.879  37.737  1.00  0.00     0.198 A 
ATOM     69  F   UNL A   1      41.326  35.403  35.665  1.00  0.00    -0.203 F 
ATOM     70  F   UNL A   1      37.957  33.969  39.710  1.00  0.00    -0.200 F 
ATOM     71  C   UNL A   1      39.464  35.522  38.768  1.00  0.00     0.200 A 
ATOM     72  F   UNL A   1      40.993  37.036  37.795  1.00  0.00    -0.200 F 
ATOM     73  F   UNL A   1      39.289  36.346  39.810  1.00  0.00    -0.200 F 
ENDBRANCH  49  63
BRANCH  50  74
ATOM     74  C   UNL A   1      40.613  27.998  28.445  1.00  0.00     0.064 A 
ATOM     75  C   UNL A   1      40.006  26.735  28.397  1.00  0.00     0.173 A 
ATOM     76  C   UNL A   1      41.381  28.396  27.343  1.00  0.00     0.173 A 
ATOM     77  F   UNL A   1      39.270  26.302  29.432  1.00  0.00    -0.203 F 
ATOM     78  C   UNL A   1      40.184  25.893  27.301  1.00  0.00     0.198 A 
ATOM     79  C   UNL A   1      41.537  27.563  26.236  1.00  0.00     0.198 A 
ATOM     80  F   UNL A   1      41.970  29.600  27.338  1.00  0.00    -0.203 F 
ATOM     81  F   UNL A   1      39.629  24.672  27.298  1.00  0.00    -0.200 F 
ATOM     82  C   UNL A   1      40.948  26.308  26.221  1.00  0.00     0.200 A 
ATOM     83  F   UNL A   1      42.262  27.976  25.188  1.00  0.00    -0.200 F 
ATOM     84  F   UNL A   1      41.119  25.499  25.167  1.00  0.00    -0.200 F 
ENDBRANCH  50  74
BRANCH  62  85
ATOM     85  C   UNL A   1      44.070  28.351  34.515  1.00  0.00     0.064 A 
ATOM     86  C   UNL A   1      43.827  27.187  35.261  1.00  0.00     0.173 A 
ATOM     87  C   UNL A   1      45.392  28.810  34.420  1.00  0.00     0.173 A 
ATOM     88  F   UNL A   1      42.579  26.715  35.390  1.00  0.00    -0.203 F 
ATOM     89  C   UNL A   1      44.864  26.525  35.910  1.00  0.00     0.198 A 
ATOM     90  C   UNL A   1      46.429  28.128  35.046  1.00  0.00     0.198 A 
ATOM     91  F   UNL A   1      45.673  29.912  33.708  1.00  0.00    -0.203 F 
ATOM     92  F   UNL A   1      44.603  25.441  36.655  1.00  0.00    -0.200 F 
ATOM     93  C   UNL A   1      46.164  26.995  35.801  1.00  0.00     0.200 A 
ATOM     94  F   UNL A   1      47.689  28.570  34.923  1.00  0.00    -0.200 F 
ATOM     95  F   UNL A   1      47.162  26.355  36.426  1.00  0.00    -0.200 F 
ENDBRANCH  62  85
ENDBRANCH  36  37
ENDBRANCH  28  31
ENDBRANCH  26  27
ENDBRANCH  25  26
ENDBRANCH   1  25
TORSDOF 16
ENDMDL
MODEL 3
REMARK VINA RESULT:     -11.9      5.939     10.766
REMARK SMILES CC[C@@H](C)[C@H](NC(=O)CCc1ccc(F)c(F)c1)C(=O)NCCCNC(=O)c1ccc(-c2c3nc(c(-c4c(F)c(F)c(F)c(F)c4F)c4ccc([nH]4)c(-c4c(F)c(F)c(F)c(F)c4F)c4nc(c(-c5c(F)c(F)c(F)c(F)c5F)c5ccc2[nH]5)C=C4)C=C3)cc1
REMARK SMILES IDX 22 1 21 2 19 3 20 4 5 6 3 7 4 8 2 9 1 10 6 11 7 12 8 14 9 15
REMARK SMILES IDX 10 16 11 17 12 18 18 19 13 20 16 21 14 22 17 23 15 24 23 25
REMARK SMILES IDX 24 26 25 27 26 28 27 30 28 31 29 32 90 33 30 34 89 35 31 36
REMARK SMILES IDX 32 37 33 38 83 39 34 40 88 41 82 42 84 43 35 44 87 45 81 46
REMARK SMILES IDX 80 47 36 49 68 50 48 51 67 52 49 53 52 54 66 55 85 56 50 57
REMARK SMILES IDX 51 58 65 60 86 61 53 62 37 63 38 64 46 65 39 66 40 67 44 68
REMARK SMILES IDX 47 69 41 70 42 71 45 72 43 73 69 74 70 75 78 76 71 77 72 78
REMARK SMILES IDX 76 79 79 80 73 81 74 82 77 83 75 84 54 85 55 86 63 87 56 88
REMARK SMILES IDX 57 89 61 90 64 91 58 92 59 93 62 94 60 95
REMARK H PARENT 21 5 6 13 25 29 84 48 52 59
REMARK Flexibility Score: inf
ROOT
ATOM      1  C   UNL A   1      36.745  20.663  25.238  1.00  0.00     0.117 C 
ENDROOT
BRANCH   1   2
ATOM      2  N   UNL A   1      35.540  19.892  25.046  1.00  0.00    -0.354 N 
ATOM      3  C   UNL A   1      34.283  20.309  24.768  1.00  0.00     0.242 C 
ATOM      4  O   UNL A   1      33.425  19.438  24.600  1.00  0.00    -0.273 OA
ATOM      5  H   UNL A   1      35.649  18.917  25.131  1.00  0.00     0.163 HD
BRANCH   3   6
ATOM      6  C   UNL A   1      33.947  21.803  24.603  1.00  0.00     0.174 C 
BRANCH   6   7
ATOM      7  C   UNL A   1      32.818  22.294  25.590  1.00  0.00     0.018 C 
ATOM      8  C   UNL A   1      31.455  22.465  24.893  1.00  0.00     0.010 C 
BRANCH   7   9
ATOM      9  C   UNL A   1      33.191  23.475  26.528  1.00  0.00     0.002 C 
ATOM     10  C   UNL A   1      34.681  23.683  26.768  1.00  0.00     0.004 C 
ENDBRANCH   7   9
ENDBRANCH   6   7
BRANCH   6  11
ATOM     11  N   UNL A   1      33.784  22.220  23.201  1.00  0.00    -0.344 N 
ATOM     12  C   UNL A   1      33.729  23.477  22.668  1.00  0.00     0.220 C 
ATOM     13  H   UNL A   1      33.703  21.485  22.550  1.00  0.00     0.164 HD
ATOM     14  O   UNL A   1      33.191  23.604  21.565  1.00  0.00    -0.275 OA
BRANCH  12  15
ATOM     15  C   UNL A   1      34.355  24.676  23.357  1.00  0.00     0.105 C 
BRANCH  15  16
ATOM     16  C   UNL A   1      33.618  25.992  23.107  1.00  0.00     0.045 C 
BRANCH  16  17
ATOM     17  C   UNL A   1      33.027  26.595  24.358  1.00  0.00    -0.044 A 
ATOM     18  C   UNL A   1      31.690  26.335  24.699  1.00  0.00     0.007 A 
ATOM     19  C   UNL A   1      33.822  27.351  25.235  1.00  0.00     0.046 A 
ATOM     20  C   UNL A   1      31.179  26.754  25.930  1.00  0.00     0.043 A 
ATOM     21  C   UNL A   1      33.297  27.785  26.449  1.00  0.00     0.159 A 
ATOM     22  C   UNL A   1      31.991  27.470  26.803  1.00  0.00     0.158 A 
ATOM     23  F   UNL A   1      34.069  28.494  27.285  1.00  0.00    -0.204 F 
ATOM     24  F   UNL A   1      31.507  27.835  27.998  1.00  0.00    -0.204 F 
ENDBRANCH  16  17
ENDBRANCH  15  16
ENDBRANCH  12  15
ENDBRANCH   6  11
ENDBRANCH   3   6
ENDBRANCH   1   2
BRANCH   1  25
ATOM     25  C   UNL A   1      37.994  19.839  24.996  1.00  0.00     0.042 C 
BRANCH  25  26
ATOM     26  C   UNL A   1      39.166  20.307  25.845  1.00  0.00     0.118 C 
BRANCH  26  27
ATOM     27  N   UNL A   1      40.179  19.264  25.999  1.00  0.00    -0.352 N 
ATOM     28  C   UNL A   1      41.542  19.370  26.082  1.00  0.00     0.251 C 
ATOM     29  H   UNL A   1      39.827  18.346  26.053  1.00  0.00     0.163 HD
ATOM     30  O   UNL A   1      42.255  18.395  25.880  1.00  0.00    -0.269 OA
BRANCH  28  31
ATOM     31  C   UNL A   1      42.135  20.676  26.408  1.00  0.00     0.039 A 
ATOM     32  C   UNL A   1      42.505  21.543  25.379  1.00  0.00     0.014 A 
ATOM     33  C   UNL A   1      42.306  21.040  27.744  1.00  0.00     0.014 A 
ATOM     34  C   UNL A   1      42.983  22.813  25.700  1.00  0.00     0.010 A 
ATOM     35  C   UNL A   1      42.660  22.340  28.059  1.00  0.00     0.010 A 
ATOM     36  C   UNL A   1      43.023  23.231  27.041  1.00  0.00    -0.014 A 
BRANCH  36  37
ATOM     37  C   UNL A   1      43.463  24.592  27.417  1.00  0.00     0.031 A 
ATOM     38  C   UNL A   1      42.440  25.623  27.805  1.00  0.00     0.074 A 
ATOM     39  C   UNL A   1      44.767  24.915  27.330  1.00  0.00     0.049 A 
ATOM     40  N   UNL A   1      42.609  26.889  28.086  1.00  0.00    -0.248 NA
ATOM     41  C   UNL A   1      41.034  25.184  27.842  1.00  0.00     0.031 C 
ATOM     42  C   UNL A   1      45.834  24.009  26.900  1.00  0.00     0.029 A 
ATOM     43  N   UNL A   1      45.417  26.092  27.593  1.00  0.00    -0.354 N 
ATOM     44  C   UNL A   1      41.336  27.394  28.310  1.00  0.00     0.074 A 
ATOM     45  C   UNL A   1      40.399  26.323  28.062  1.00  0.00     0.031 C 
ATOM     46  C   UNL A   1      47.010  24.650  26.973  1.00  0.00     0.029 A 
ATOM     47  C   UNL A   1      46.775  26.022  27.412  1.00  0.00     0.049 A 
ATOM     48  H   UNL A   1      44.953  26.911  27.884  1.00  0.00     0.167 HD
ATOM     49  C   UNL A   1      40.986  28.634  28.724  1.00  0.00     0.037 A 
ATOM     50  C   UNL A   1      47.725  26.960  27.588  1.00  0.00     0.037 A 
ATOM     51  C   UNL A   1      41.934  29.676  29.007  1.00  0.00     0.049 A 
ATOM     52  C   UNL A   1      47.314  28.326  28.063  1.00  0.00     0.074 A 
ATOM     53  C   UNL A   1      41.694  30.946  29.495  1.00  0.00     0.029 A 
ATOM     54  N   UNL A   1      43.306  29.561  28.834  1.00  0.00    -0.354 N 
ATOM     55  N   UNL A   1      46.114  28.778  28.336  1.00  0.00    -0.248 NA
ATOM     56  C   UNL A   1      48.386  29.311  28.259  1.00  0.00     0.031 C 
ATOM     57  C   UNL A   1      42.917  31.618  29.573  1.00  0.00     0.029 A 
ATOM     58  C   UNL A   1      43.925  30.748  29.186  1.00  0.00     0.049 A 
ATOM     59  H   UNL A   1      43.770  28.756  28.507  1.00  0.00     0.167 HD
ATOM     60  C   UNL A   1      46.284  30.089  28.757  1.00  0.00     0.074 A 
ATOM     61  C   UNL A   1      47.707  30.358  28.714  1.00  0.00     0.031 C 
ATOM     62  C   UNL A   1      45.346  30.988  29.143  1.00  0.00     0.037 A 
BRANCH  49  63
ATOM     63  C   UNL A   1      39.525  28.920  28.916  1.00  0.00     0.064 A 
ATOM     64  C   UNL A   1      38.732  29.341  27.838  1.00  0.00     0.173 A 
ATOM     65  C   UNL A   1      38.916  28.821  30.177  1.00  0.00     0.173 A 
ATOM     66  F   UNL A   1      39.264  29.455  26.611  1.00  0.00    -0.203 F 
ATOM     67  C   UNL A   1      37.389  29.661  28.017  1.00  0.00     0.198 A 
ATOM     68  C   UNL A   1      37.565  29.108  30.346  1.00  0.00     0.198 A 
ATOM     69  F   UNL A   1      39.625  28.409  31.239  1.00  0.00    -0.203 F 
ATOM     70  F   UNL A   1      36.659  30.089  26.978  1.00  0.00    -0.200 F 
ATOM     71  C   UNL A   1      36.805  29.538  29.268  1.00  0.00     0.200 A 
ATOM     72  F   UNL A   1      36.995  28.959  31.550  1.00  0.00    -0.200 F 
ATOM     73  F   UNL A   1      35.507  29.828  29.436  1.00  0.00    -0.200 F 
ENDBRANCH  49  63
BRANCH  50  74
ATOM     74  C   UNL A   1      49.150  26.604  27.371  1.00  0.00     0.064 A 
ATOM     75  C   UNL A   1      49.695  26.506  26.082  1.00  0.00     0.173 A 
ATOM     76  C   UNL A   1      49.978  26.285  28.456  1.00  0.00     0.173 A 
ATOM     77  F   UNL A   1      48.940  26.789  25.010  1.00  0.00    -0.203 F 
ATOM     78  C   UNL A   1      51.006  26.078  25.887  1.00  0.00     0.198 A 
ATOM     79  C   UNL A   1      51.298  25.881  28.260  1.00  0.00     0.198 A 
ATOM     80  F   UNL A   1      49.506  26.376  29.707  1.00  0.00    -0.203 F 
ATOM     81  F   UNL A   1      51.490  25.950  24.643  1.00  0.00    -0.200 F 
ATOM     82  C   UNL A   1      51.807  25.767  26.975  1.00  0.00     0.200 A 
ATOM     83  F   UNL A   1      52.073  25.599  29.315  1.00  0.00    -0.200 F 
ATOM     84  F   UNL A   1      53.068  25.356  26.787  1.00  0.00    -0.200 F 
ENDBRANCH  50  74
BRANCH  62  85
ATOM     85  C   UNL A   1      45.817  32.345  29.572  1.00  0.00     0.064 A 
ATOM     86  C   UNL A   1      46.096  32.602  30.924  1.00  0.00     0.173 A 
ATOM     87  C   UNL A   1      45.889  33.415  28.668  1.00  0.00     0.173 A 
ATOM     88  F   UNL A   1      46.030  31.614  31.827  1.00  0.00    -0.203 F 
ATOM     89  C   UNL A   1      46.406  33.887  31.357  1.00  0.00     0.198 A 
ATOM     90  C   UNL A   1      46.228  34.692  29.102  1.00  0.00     0.198 A 
ATOM     91  F   UNL A   1      45.641  33.214  27.365  1.00  0.00    -0.203 F 
ATOM     92  F   UNL A   1      46.624  34.119  32.660  1.00  0.00    -0.200 F 
ATOM     93  C   UNL A   1      46.474  34.930  30.446  1.00  0.00     0.200 A 
ATOM     94  F   UNL A   1      46.315  35.696  28.218  1.00  0.00    -0.200 F 
ATOM     95  F   UNL A   1      46.774  36.167  30.865  1.00  0.00    -0.200 F 
ENDBRANCH  62  85
ENDBRANCH  36  37
ENDBRANCH  28  31
ENDBRANCH  26  27
ENDBRANCH  25  26
ENDBRANCH   1  25
TORSDOF 16
ENDMDL
