MODEL 1
REMARK VINA RESULT:     -11.0      0.000      0.000
REMARK SMILES C=CC[N@H+](CC(=O)NCCCNC(=O)c1ccc(-c2c3nc(c(-c4c(F)c(F)c(F)c(F)c4F)c4ccc([nH]4)c(-c4c(F)c(F)c(F)c(F)c4F)c4nc(c(-c5c(F)c(F)c(F)c(F)c5F)c5ccc2[nH]5)C=C4)C=C3)cc1)CC(=O)NC(=O)NC
REMARK SMILES IDX 9 1 8 2 6 3 7 4 5 6 4 7 3 9 2 10 1 11 78 12 79 13 80 14
REMARK SMILES IDX 81 15 82 16 83 18 84 19 85 20 10 22 11 23 12 24 13 25 14 27
REMARK SMILES IDX 15 28 16 29 77 30 17 31 76 32 18 33 19 34 20 35 70 36 21 37
REMARK SMILES IDX 75 38 69 39 71 40 22 41 74 42 68 43 67 44 23 46 55 47 35 48
REMARK SMILES IDX 54 49 36 50 39 51 53 52 72 53 37 54 38 55 52 57 73 58 40 59
REMARK SMILES IDX 24 60 25 61 33 62 26 63 27 64 31 65 34 66 28 67 29 68 32 69
REMARK SMILES IDX 30 70 56 71 57 72 65 73 58 74 59 75 63 76 66 77 60 78 61 79
REMARK SMILES IDX 64 80 62 81 41 82 42 83 50 84 43 85 44 86 48 87 51 88 45 89
REMARK SMILES IDX 46 90 49 91 47 92
REMARK H PARENT 8 5 4 8 81 17 84 21 12 26 71 45 39 56
REMARK Flexibility Score: inf
ROOT
ATOM      1  C   UNL A   1      32.379  27.932  22.844  1.00  0.00     0.118 C 
ENDROOT
BRANCH   1   2
ATOM      2  N   UNL A   1      32.798  27.183  21.676  1.00  0.00    -0.351 N 
ATOM      3  C   UNL A   1      32.990  25.835  21.564  1.00  0.00     0.275 C 
ATOM      4  O   UNL A   1      33.263  25.359  20.462  1.00  0.00    -0.269 OA
ATOM      5  H   UNL A   1      32.964  27.711  20.862  1.00  0.00     0.163 HD
BRANCH   3   6
ATOM      6  C   UNL A   1      32.805  24.946  22.790  1.00  0.00     0.364 C 
BRANCH   6   7
ATOM      7  N   UNL A   1      34.106  24.530  23.357  1.00  0.00    -0.316 N 
ATOM      8  H   UNL A   1      34.855  24.875  22.757  1.00  0.00     0.349 HD
BRANCH   7   9
ATOM      9  C   UNL A   1      34.318  25.168  24.661  1.00  0.00     0.291 C 
BRANCH   9  10
ATOM     10  C   UNL A   1      33.131  25.296  25.570  1.00  0.00     0.025 C 
ATOM     11  C   UNL A   1      32.524  24.282  26.202  1.00  0.00     0.010 C 
ENDBRANCH   9  10
ENDBRANCH   7   9
BRANCH   7  12
ATOM     12  C   UNL A   1      34.309  23.073  23.320  1.00  0.00     0.364 C 
BRANCH  12  13
ATOM     13  C   UNL A   1      35.768  22.653  23.517  1.00  0.00     0.283 C 
ATOM     14  O   UNL A   1      36.646  22.955  22.703  1.00  0.00    -0.268 OA
ATOM     15  N   UNL A   1      36.128  22.074  24.715  1.00  0.00    -0.273 N 
ATOM     16  C   UNL A   1      35.970  20.757  25.000  1.00  0.00     0.321 C 
ATOM     17  H   UNL A   1      36.524  22.651  25.407  1.00  0.00     0.175 HD
ATOM     18  O   UNL A   1      36.949  20.012  25.003  1.00  0.00    -0.248 OA
ATOM     19  N   UNL A   1      34.776  20.261  25.383  1.00  0.00    -0.341 N 
ATOM     20  C   UNL A   1      33.618  20.924  25.924  1.00  0.00     0.144 C 
ATOM     21  H   UNL A   1      34.681  19.288  25.275  1.00  0.00     0.165 HD
ENDBRANCH  12  13
ENDBRANCH   7  12
ENDBRANCH   6   7
ENDBRANCH   3   6
ENDBRANCH   1   2
BRANCH   1  22
ATOM     22  C   UNL A   1      33.462  28.859  23.386  1.00  0.00     0.042 C 
BRANCH  22  23
ATOM     23  C   UNL A   1      33.502  28.911  24.905  1.00  0.00     0.118 C 
BRANCH  23  24
ATOM     24  N   UNL A   1      32.886  30.126  25.419  1.00  0.00    -0.352 N 
ATOM     25  C   UNL A   1      33.087  30.809  26.592  1.00  0.00     0.251 C 
ATOM     26  H   UNL A   1      32.210  30.526  24.824  1.00  0.00     0.163 HD
ATOM     27  O   UNL A   1      32.255  31.637  26.954  1.00  0.00    -0.269 OA
BRANCH  25  28
ATOM     28  C   UNL A   1      34.281  30.564  27.434  1.00  0.00     0.039 A 
ATOM     29  C   UNL A   1      35.195  31.606  27.626  1.00  0.00     0.014 A 
ATOM     30  C   UNL A   1      34.562  29.300  27.955  1.00  0.00     0.014 A 
ATOM     31  C   UNL A   1      36.361  31.389  28.367  1.00  0.00     0.010 A 
ATOM     32  C   UNL A   1      35.673  29.109  28.773  1.00  0.00     0.010 A 
ATOM     33  C   UNL A   1      36.599  30.143  28.965  1.00  0.00    -0.014 A 
BRANCH  33  34
ATOM     34  C   UNL A   1      37.835  29.881  29.748  1.00  0.00     0.031 A 
ATOM     35  C   UNL A   1      38.898  28.969  29.193  1.00  0.00     0.074 A 
ATOM     36  C   UNL A   1      37.976  30.410  30.979  1.00  0.00     0.049 A 
ATOM     37  N   UNL A   1      40.002  28.542  29.754  1.00  0.00    -0.248 NA
ATOM     38  C   UNL A   1      38.671  28.437  27.840  1.00  0.00     0.031 C 
ATOM     39  C   UNL A   1      36.999  31.268  31.648  1.00  0.00     0.029 A 
ATOM     40  N   UNL A   1      38.996  30.293  31.891  1.00  0.00    -0.354 N 
ATOM     41  C   UNL A   1      40.579  27.673  28.836  1.00  0.00     0.074 A 
ATOM     42  C   UNL A   1      39.682  27.593  27.705  1.00  0.00     0.031 C 
ATOM     43  C   UNL A   1      37.475  31.619  32.854  1.00  0.00     0.029 A 
ATOM     44  C   UNL A   1      38.773  30.982  33.057  1.00  0.00     0.049 A 
ATOM     45  H   UNL A   1      39.809  29.764  31.725  1.00  0.00     0.167 HD
ATOM     46  C   UNL A   1      41.764  27.021  28.918  1.00  0.00     0.037 A 
ATOM     47  C   UNL A   1      39.529  31.085  34.167  1.00  0.00     0.037 A 
ATOM     48  C   UNL A   1      42.678  27.141  30.022  1.00  0.00     0.049 A 
ATOM     49  C   UNL A   1      40.854  30.375  34.221  1.00  0.00     0.074 A 
ATOM     50  C   UNL A   1      43.935  26.582  30.169  1.00  0.00     0.029 A 
ATOM     51  N   UNL A   1      42.432  27.881  31.170  1.00  0.00    -0.354 N 
ATOM     52  N   UNL A   1      41.419  29.608  33.321  1.00  0.00    -0.248 NA
ATOM     53  C   UNL A   1      41.651  30.553  35.443  1.00  0.00     0.031 C 
ATOM     54  C   UNL A   1      44.436  26.954  31.421  1.00  0.00     0.029 A 
ATOM     55  C   UNL A   1      43.508  27.780  32.036  1.00  0.00     0.049 A 
ATOM     56  H   UNL A   1      41.614  28.400  31.343  1.00  0.00     0.167 HD
ATOM     57  C   UNL A   1      42.644  29.232  33.854  1.00  0.00     0.074 A 
ATOM     58  C   UNL A   1      42.748  29.868  35.151  1.00  0.00     0.031 C 
ATOM     59  C   UNL A   1      43.596  28.429  33.318  1.00  0.00     0.037 A 
BRANCH  46  60
ATOM     60  C   UNL A   1      42.144  26.123  27.775  1.00  0.00     0.064 A 
ATOM     61  C   UNL A   1      43.026  26.547  26.769  1.00  0.00     0.173 A 
ATOM     62  C   UNL A   1      41.646  24.814  27.701  1.00  0.00     0.173 A 
ATOM     63  F   UNL A   1      43.522  27.793  26.786  1.00  0.00    -0.203 F 
ATOM     64  C   UNL A   1      43.369  25.704  25.714  1.00  0.00     0.198 A 
ATOM     65  C   UNL A   1      42.015  23.964  26.661  1.00  0.00     0.198 A 
ATOM     66  F   UNL A   1      40.806  24.355  28.641  1.00  0.00    -0.203 F 
ATOM     67  F   UNL A   1      44.172  26.148  24.738  1.00  0.00    -0.200 F 
ATOM     68  C   UNL A   1      42.869  24.412  25.665  1.00  0.00     0.200 A 
ATOM     69  F   UNL A   1      41.541  22.711  26.623  1.00  0.00    -0.200 F 
ATOM     70  F   UNL A   1      43.204  23.600  24.653  1.00  0.00    -0.200 F 
ENDBRANCH  46  60
BRANCH  47  71
ATOM     71  C   UNL A   1      39.064  31.920  35.304  1.00  0.00     0.064 A 
ATOM     72  C   UNL A   1      39.376  33.285  35.367  1.00  0.00     0.173 A 
ATOM     73  C   UNL A   1      38.295  31.377  36.344  1.00  0.00     0.173 A 
ATOM     74  F   UNL A   1      40.126  33.844  34.406  1.00  0.00    -0.203 F 
ATOM     75  C   UNL A   1      38.956  34.072  36.436  1.00  0.00     0.198 A 
ATOM     76  C   UNL A   1      37.852  32.171  37.400  1.00  0.00     0.198 A 
ATOM     77  F   UNL A   1      37.963  30.079  36.327  1.00  0.00    -0.203 F 
ATOM     78  F   UNL A   1      39.303  35.365  36.493  1.00  0.00    -0.200 F 
ATOM     79  C   UNL A   1      38.188  33.516  37.449  1.00  0.00     0.200 A 
ATOM     80  F   UNL A   1      37.098  31.634  38.368  1.00  0.00    -0.200 F 
ATOM     81  F   UNL A   1      37.777  34.274  38.475  1.00  0.00    -0.200 F 
ENDBRANCH  47  71
BRANCH  59  82
ATOM     82  C   UNL A   1      44.846  28.219  34.121  1.00  0.00     0.064 A 
ATOM     83  C   UNL A   1      44.941  27.200  35.079  1.00  0.00     0.173 A 
ATOM     84  C   UNL A   1      45.976  29.020  33.895  1.00  0.00     0.173 A 
ATOM     85  F   UNL A   1      43.882  26.419  35.341  1.00  0.00    -0.203 F 
ATOM     86  C   UNL A   1      46.116  27.004  35.799  1.00  0.00     0.198 A 
ATOM     87  C   UNL A   1      47.158  28.803  34.598  1.00  0.00     0.198 A 
ATOM     88  F   UNL A   1      45.937  30.004  32.984  1.00  0.00    -0.203 F 
ATOM     89  F   UNL A   1      46.172  26.052  36.740  1.00  0.00    -0.200 F 
ATOM     90  C   UNL A   1      47.225  27.800  35.553  1.00  0.00     0.200 A 
ATOM     91  F   UNL A   1      48.232  29.565  34.351  1.00  0.00    -0.200 F 
ATOM     92  F   UNL A   1      48.358  27.605  36.242  1.00  0.00    -0.200 F 
ENDBRANCH  59  82
ENDBRANCH  33  34
ENDBRANCH  25  28
ENDBRANCH  23  24
ENDBRANCH  22  23
ENDBRANCH   1  22
TORSDOF 15
ENDMDL
MODEL 2
REMARK VINA RESULT:     -11.0      2.598      8.276
REMARK SMILES C=CC[N@H+](CC(=O)NCCCNC(=O)c1ccc(-c2c3nc(c(-c4c(F)c(F)c(F)c(F)c4F)c4ccc([nH]4)c(-c4c(F)c(F)c(F)c(F)c4F)c4nc(c(-c5c(F)c(F)c(F)c(F)c5F)c5ccc2[nH]5)C=C4)C=C3)cc1)CC(=O)NC(=O)NC
REMARK SMILES IDX 9 1 8 2 6 3 7 4 5 6 4 7 3 9 2 10 1 11 78 12 79 13 80 14
REMARK SMILES IDX 81 15 82 16 83 18 84 19 85 20 10 22 11 23 12 24 13 25 14 27
REMARK SMILES IDX 15 28 16 29 77 30 17 31 76 32 18 33 19 34 20 35 70 36 21 37
REMARK SMILES IDX 75 38 69 39 71 40 22 41 74 42 68 43 67 44 23 46 55 47 35 48
REMARK SMILES IDX 54 49 36 50 39 51 53 52 72 53 37 54 38 55 52 57 73 58 40 59
REMARK SMILES IDX 24 60 25 61 33 62 26 63 27 64 31 65 34 66 28 67 29 68 32 69
REMARK SMILES IDX 30 70 56 71 57 72 65 73 58 74 59 75 63 76 66 77 60 78 61 79
REMARK SMILES IDX 64 80 62 81 41 82 42 83 50 84 43 85 44 86 48 87 51 88 45 89
REMARK SMILES IDX 46 90 49 91 47 92
REMARK H PARENT 8 5 4 8 81 17 84 21 12 26 71 45 39 56
REMARK Flexibility Score: inf
ROOT
ATOM      1  C   UNL A   1      31.310  30.847  26.367  1.00  0.00     0.118 C 
ENDROOT
BRANCH   1   2
ATOM      2  N   UNL A   1      32.567  30.172  26.625  1.00  0.00    -0.351 N 
ATOM      3  C   UNL A   1      33.298  29.398  25.770  1.00  0.00     0.275 C 
ATOM      4  O   UNL A   1      34.394  28.973  26.137  1.00  0.00    -0.269 OA
ATOM      5  H   UNL A   1      32.939  30.285  27.529  1.00  0.00     0.163 HD
BRANCH   3   6
ATOM      6  C   UNL A   1      32.769  29.126  24.365  1.00  0.00     0.364 C 
BRANCH   6   7
ATOM      7  N   UNL A   1      31.552  28.286  24.399  1.00  0.00    -0.316 N 
ATOM      8  H   UNL A   1      30.907  28.665  25.091  1.00  0.00     0.349 HD
BRANCH   7   9
ATOM      9  C   UNL A   1      30.847  28.363  23.115  1.00  0.00     0.291 C 
BRANCH   9  10
ATOM     10  C   UNL A   1      29.362  28.148  23.127  1.00  0.00     0.025 C 
ATOM     11  C   UNL A   1      28.444  29.049  22.751  1.00  0.00     0.010 C 
ENDBRANCH   9  10
ENDBRANCH   7   9
BRANCH   7  12
ATOM     12  C   UNL A   1      31.806  26.927  24.906  1.00  0.00     0.364 C 
BRANCH  12  13
ATOM     13  C   UNL A   1      31.030  26.595  26.182  1.00  0.00     0.283 C 
ATOM     14  O   UNL A   1      31.158  27.265  27.212  1.00  0.00    -0.268 OA
ATOM     15  N   UNL A   1      30.044  25.634  26.120  1.00  0.00    -0.273 N 
ATOM     16  C   UNL A   1      30.277  24.301  26.212  1.00  0.00     0.321 C 
ATOM     17  H   UNL A   1      29.114  25.933  26.002  1.00  0.00     0.175 HD
ATOM     18  O   UNL A   1      29.996  23.703  27.250  1.00  0.00    -0.248 OA
ATOM     19  N   UNL A   1      30.715  23.592  25.152  1.00  0.00    -0.341 N 
ATOM     20  C   UNL A   1      30.668  23.888  23.744  1.00  0.00     0.144 C 
ATOM     21  H   UNL A   1      31.134  22.731  25.378  1.00  0.00     0.165 HD
ENDBRANCH  12  13
ENDBRANCH   7  12
ENDBRANCH   6   7
ENDBRANCH   3   6
ENDBRANCH   1   2
BRANCH   1  22
ATOM     22  C   UNL A   1      31.384  32.357  26.571  1.00  0.00     0.042 C 
BRANCH  22  23
ATOM     23  C   UNL A   1      32.751  32.834  27.034  1.00  0.00     0.118 C 
BRANCH  23  24
ATOM     24  N   UNL A   1      32.686  34.163  27.626  1.00  0.00    -0.352 N 
ATOM     25  C   UNL A   1      33.280  34.674  28.752  1.00  0.00     0.251 C 
ATOM     26  H   UNL A   1      32.122  34.803  27.135  1.00  0.00     0.163 HD
ATOM     27  O   UNL A   1      32.857  35.725  29.228  1.00  0.00    -0.269 OA
BRANCH  25  28
ATOM     28  C   UNL A   1      34.413  33.983  29.410  1.00  0.00     0.039 A 
ATOM     29  C   UNL A   1      35.718  34.333  29.045  1.00  0.00     0.014 A 
ATOM     30  C   UNL A   1      34.209  32.934  30.308  1.00  0.00     0.014 A 
ATOM     31  C   UNL A   1      36.807  33.659  29.606  1.00  0.00     0.010 A 
ATOM     32  C   UNL A   1      35.293  32.329  30.938  1.00  0.00     0.010 A 
ATOM     33  C   UNL A   1      36.604  32.664  30.574  1.00  0.00    -0.014 A 
BRANCH  33  34
ATOM     34  C   UNL A   1      37.742  31.924  31.177  1.00  0.00     0.031 A 
ATOM     35  C   UNL A   1      38.194  32.251  32.577  1.00  0.00     0.074 A 
ATOM     36  C   UNL A   1      38.408  31.005  30.452  1.00  0.00     0.049 A 
ATOM     37  N   UNL A   1      39.217  31.786  33.250  1.00  0.00    -0.248 NA
ATOM     38  C   UNL A   1      37.410  33.261  33.305  1.00  0.00     0.031 C 
ATOM     39  C   UNL A   1      38.101  30.633  29.071  1.00  0.00     0.029 A 
ATOM     40  N   UNL A   1      39.490  30.223  30.774  1.00  0.00    -0.354 N 
ATOM     41  C   UNL A   1      39.215  32.469  34.460  1.00  0.00     0.074 A 
ATOM     42  C   UNL A   1      38.122  33.413  34.411  1.00  0.00     0.031 C 
ATOM     43  C   UNL A   1      38.958  29.680  28.671  1.00  0.00     0.029 A 
ATOM     44  C   UNL A   1      39.897  29.400  29.754  1.00  0.00     0.049 A 
ATOM     45  H   UNL A   1      39.932  30.251  31.653  1.00  0.00     0.167 HD
ATOM     46  C   UNL A   1      40.035  32.304  35.526  1.00  0.00     0.037 A 
ATOM     47  C   UNL A   1      40.915  28.520  29.697  1.00  0.00     0.037 A 
ATOM     48  C   UNL A   1      41.090  31.328  35.591  1.00  0.00     0.049 A 
ATOM     49  C   UNL A   1      41.793  28.334  30.905  1.00  0.00     0.074 A 
ATOM     50  C   UNL A   1      41.928  31.030  36.651  1.00  0.00     0.029 A 
ATOM     51  N   UNL A   1      41.447  30.485  34.549  1.00  0.00    -0.354 N 
ATOM     52  N   UNL A   1      41.741  28.940  32.067  1.00  0.00    -0.248 NA
ATOM     53  C   UNL A   1      42.866  27.336  30.797  1.00  0.00     0.031 C 
ATOM     54  C   UNL A   1      42.816  30.032  36.238  1.00  0.00     0.029 A 
ATOM     55  C   UNL A   1      42.503  29.677  34.936  1.00  0.00     0.049 A 
ATOM     56  H   UNL A   1      41.014  30.465  33.665  1.00  0.00     0.167 HD
ATOM     57  C   UNL A   1      42.754  28.381  32.834  1.00  0.00     0.074 A 
ATOM     58  C   UNL A   1      43.395  27.376  32.011  1.00  0.00     0.031 C 
ATOM     59  C   UNL A   1      43.121  28.677  34.105  1.00  0.00     0.037 A 
BRANCH  46  60
ATOM     60  C   UNL A   1      39.816  33.195  36.716  1.00  0.00     0.064 A 
ATOM     61  C   UNL A   1      38.889  32.869  37.718  1.00  0.00     0.173 A 
ATOM     62  C   UNL A   1      40.563  34.371  36.871  1.00  0.00     0.173 A 
ATOM     63  F   UNL A   1      38.141  31.761  37.611  1.00  0.00    -0.203 F 
ATOM     64  C   UNL A   1      38.695  33.705  38.815  1.00  0.00     0.198 A 
ATOM     65  C   UNL A   1      40.388  35.190  37.985  1.00  0.00     0.198 A 
ATOM     66  F   UNL A   1      41.468  34.726  35.947  1.00  0.00    -0.203 F 
ATOM     67  F   UNL A   1      37.768  33.399  39.733  1.00  0.00    -0.200 F 
ATOM     68  C   UNL A   1      39.450  34.860  38.951  1.00  0.00     0.200 A 
ATOM     69  F   UNL A   1      41.128  36.299  38.122  1.00  0.00    -0.200 F 
ATOM     70  F   UNL A   1      39.267  35.660  40.010  1.00  0.00    -0.200 F 
ENDBRANCH  46  60
BRANCH  47  71
ATOM     71  C   UNL A   1      41.139  27.725  28.462  1.00  0.00     0.064 A 
ATOM     72  C   UNL A   1      42.032  28.167  27.477  1.00  0.00     0.173 A 
ATOM     73  C   UNL A   1      40.473  26.510  28.244  1.00  0.00     0.173 A 
ATOM     74  F   UNL A   1      42.676  29.333  27.632  1.00  0.00    -0.203 F 
ATOM     75  C   UNL A   1      42.237  27.434  26.310  1.00  0.00     0.198 A 
ATOM     76  C   UNL A   1      40.699  25.764  27.089  1.00  0.00     0.198 A 
ATOM     77  F   UNL A   1      39.614  26.040  29.160  1.00  0.00    -0.203 F 
ATOM     78  F   UNL A   1      43.065  27.900  25.365  1.00  0.00    -0.200 F 
ATOM     79  C   UNL A   1      41.576  26.230  26.120  1.00  0.00     0.200 A 
ATOM     80  F   UNL A   1      40.069  24.595  26.916  1.00  0.00    -0.200 F 
ATOM     81  F   UNL A   1      41.777  25.522  25.001  1.00  0.00    -0.200 F 
ENDBRANCH  47  71
BRANCH  59  82
ATOM     82  C   UNL A   1      44.249  27.881  34.695  1.00  0.00     0.064 A 
ATOM     83  C   UNL A   1      45.574  28.336  34.641  1.00  0.00     0.173 A 
ATOM     84  C   UNL A   1      43.992  26.673  35.359  1.00  0.00     0.173 A 
ATOM     85  F   UNL A   1      45.871  29.478  34.003  1.00  0.00    -0.203 F 
ATOM     86  C   UNL A   1      46.606  27.597  35.213  1.00  0.00     0.198 A 
ATOM     87  C   UNL A   1      45.023  25.951  35.954  1.00  0.00     0.198 A 
ATOM     88  F   UNL A   1      42.740  26.200  35.443  1.00  0.00    -0.203 F 
ATOM     89  F   UNL A   1      47.871  28.028  35.114  1.00  0.00    -0.200 F 
ATOM     90  C   UNL A   1      46.329  26.410  35.875  1.00  0.00     0.200 A 
ATOM     91  F   UNL A   1      44.752  24.810  36.603  1.00  0.00    -0.200 F 
ATOM     92  F   UNL A   1      47.323  25.704  36.432  1.00  0.00    -0.200 F 
ENDBRANCH  59  82
ENDBRANCH  33  34
ENDBRANCH  25  28
ENDBRANCH  23  24
ENDBRANCH  22  23
ENDBRANCH   1  22
TORSDOF 15
ENDMDL
MODEL 3
REMARK VINA RESULT:     -10.9      2.623      3.863
REMARK SMILES C=CC[N@H+](CC(=O)NCCCNC(=O)c1ccc(-c2c3nc(c(-c4c(F)c(F)c(F)c(F)c4F)c4ccc([nH]4)c(-c4c(F)c(F)c(F)c(F)c4F)c4nc(c(-c5c(F)c(F)c(F)c(F)c5F)c5ccc2[nH]5)C=C4)C=C3)cc1)CC(=O)NC(=O)NC
REMARK SMILES IDX 9 1 8 2 6 3 7 4 5 6 4 7 3 9 2 10 1 11 78 12 79 13 80 14
REMARK SMILES IDX 81 15 82 16 83 18 84 19 85 20 10 22 11 23 12 24 13 25 14 27
REMARK SMILES IDX 15 28 16 29 77 30 17 31 76 32 18 33 19 34 20 35 70 36 21 37
REMARK SMILES IDX 75 38 69 39 71 40 22 41 74 42 68 43 67 44 23 46 55 47 35 48
REMARK SMILES IDX 54 49 36 50 39 51 53 52 72 53 37 54 38 55 52 57 73 58 40 59
REMARK SMILES IDX 24 60 25 61 33 62 26 63 27 64 31 65 34 66 28 67 29 68 32 69
REMARK SMILES IDX 30 70 56 71 57 72 65 73 58 74 59 75 63 76 66 77 60 78 61 79
REMARK SMILES IDX 64 80 62 81 41 82 42 83 50 84 43 85 44 86 48 87 51 88 45 89
REMARK SMILES IDX 46 90 49 91 47 92
REMARK H PARENT 8 5 4 8 81 17 84 21 12 26 71 45 39 56
REMARK Flexibility Score: inf
ROOT
ATOM      1  C   UNL A   1      31.507  30.594  25.757  1.00  0.00     0.118 C 
ENDROOT
BRANCH   1   2
ATOM      2  N   UNL A   1      30.634  30.451  24.608  1.00  0.00    -0.351 N 
ATOM      3  C   UNL A   1      30.658  29.481  23.647  1.00  0.00     0.275 C 
ATOM      4  O   UNL A   1      29.777  29.468  22.788  1.00  0.00    -0.269 OA
ATOM      5  H   UNL A   1      29.936  31.138  24.509  1.00  0.00     0.163 HD
BRANCH   3   6
ATOM      6  C   UNL A   1      31.739  28.404  23.695  1.00  0.00     0.364 C 
BRANCH   6   7
ATOM      7  N   UNL A   1      31.156  27.062  23.905  1.00  0.00    -0.316 N 
ATOM      8  H   UNL A   1      30.185  27.164  24.201  1.00  0.00     0.349 HD
BRANCH   7   9
ATOM      9  C   UNL A   1      31.109  26.326  22.637  1.00  0.00     0.291 C 
BRANCH   9  10
ATOM     10  C   UNL A   1      32.374  26.251  21.833  1.00  0.00     0.025 C 
ATOM     11  C   UNL A   1      32.525  25.578  20.684  1.00  0.00     0.010 C 
ENDBRANCH   9  10
ENDBRANCH   7   9
BRANCH   7  12
ATOM     12  C   UNL A   1      31.762  26.343  25.037  1.00  0.00     0.364 C 
BRANCH  12  13
ATOM     13  C   UNL A   1      30.796  26.106  26.201  1.00  0.00     0.283 C 
ATOM     14  O   UNL A   1      30.654  26.936  27.104  1.00  0.00    -0.268 OA
ATOM     15  N   UNL A   1      29.947  25.022  26.140  1.00  0.00    -0.273 N 
ATOM     16  C   UNL A   1      30.298  23.762  26.501  1.00  0.00     0.321 C 
ATOM     17  H   UNL A   1      29.031  25.171  25.814  1.00  0.00     0.175 HD
ATOM     18  O   UNL A   1      29.889  23.297  27.563  1.00  0.00    -0.248 OA
ATOM     19  N   UNL A   1      31.002  22.966  25.671  1.00  0.00    -0.341 N 
ATOM     20  C   UNL A   1      31.195  23.036  24.246  1.00  0.00     0.144 C 
ATOM     21  H   UNL A   1      31.459  22.215  26.112  1.00  0.00     0.165 HD
ENDBRANCH  12  13
ENDBRANCH   7  12
ENDBRANCH   6   7
ENDBRANCH   3   6
ENDBRANCH   1   2
BRANCH   1  22
ATOM     22  C   UNL A   1      31.326  31.919  26.490  1.00  0.00     0.042 C 
BRANCH  22  23
ATOM     23  C   UNL A   1      32.600  32.416  27.154  1.00  0.00     0.118 C 
BRANCH  23  24
ATOM     24  N   UNL A   1      32.519  33.832  27.484  1.00  0.00    -0.352 N 
ATOM     25  C   UNL A   1      33.101  34.554  28.496  1.00  0.00     0.251 C 
ATOM     26  H   UNL A   1      31.952  34.362  26.878  1.00  0.00     0.163 HD
ATOM     27  O   UNL A   1      32.666  35.671  28.762  1.00  0.00    -0.269 OA
BRANCH  25  28
ATOM     28  C   UNL A   1      34.237  34.012  29.277  1.00  0.00     0.039 A 
ATOM     29  C   UNL A   1      35.539  34.355  28.898  1.00  0.00     0.014 A 
ATOM     30  C   UNL A   1      34.042  33.098  30.314  1.00  0.00     0.014 A 
ATOM     31  C   UNL A   1      36.634  33.814  29.579  1.00  0.00     0.010 A 
ATOM     32  C   UNL A   1      35.128  32.635  31.054  1.00  0.00     0.010 A 
ATOM     33  C   UNL A   1      36.436  32.965  30.678  1.00  0.00    -0.014 A 
BRANCH  33  34
ATOM     34  C   UNL A   1      37.581  32.367  31.413  1.00  0.00     0.031 A 
ATOM     35  C   UNL A   1      38.349  31.222  30.805  1.00  0.00     0.074 A 
ATOM     36  C   UNL A   1      37.891  32.806  32.647  1.00  0.00     0.049 A 
ATOM     37  N   UNL A   1      39.317  30.505  31.319  1.00  0.00    -0.248 NA
ATOM     38  C   UNL A   1      37.953  30.805  29.450  1.00  0.00     0.031 C 
ATOM     39  C   UNL A   1      37.194  33.873  33.365  1.00  0.00     0.029 A 
ATOM     40  N   UNL A   1      38.869  32.401  33.521  1.00  0.00    -0.354 N 
ATOM     41  C   UNL A   1      39.619  29.540  30.367  1.00  0.00     0.074 A 
ATOM     42  C   UNL A   1      38.701  29.729  29.266  1.00  0.00     0.031 C 
ATOM     43  C   UNL A   1      37.779  34.054  34.560  1.00  0.00     0.029 A 
ATOM     44  C   UNL A   1      38.869  33.093  34.708  1.00  0.00     0.049 A 
ATOM     45  H   UNL A   1      39.509  31.682  33.318  1.00  0.00     0.167 HD
ATOM     46  C   UNL A   1      40.592  28.598  30.396  1.00  0.00     0.037 A 
ATOM     47  C   UNL A   1      39.656  32.964  35.792  1.00  0.00     0.037 A 
ATOM     48  C   UNL A   1      41.537  28.444  31.470  1.00  0.00     0.049 A 
ATOM     49  C   UNL A   1      40.749  31.929  35.788  1.00  0.00     0.074 A 
ATOM     50  C   UNL A   1      42.606  27.570  31.563  1.00  0.00     0.029 A 
ATOM     51  N   UNL A   1      41.527  29.191  32.639  1.00  0.00    -0.354 N 
ATOM     52  N   UNL A   1      41.066  31.065  34.855  1.00  0.00    -0.248 NA
ATOM     53  C   UNL A   1      41.598  31.858  36.984  1.00  0.00     0.031 C 
ATOM     54  C   UNL A   1      43.221  27.764  32.804  1.00  0.00     0.029 A 
ATOM     55  C   UNL A   1      42.562  28.788  33.465  1.00  0.00     0.049 A 
ATOM     56  H   UNL A   1      40.879  29.902  32.850  1.00  0.00     0.167 HD
ATOM     57  C   UNL A   1      42.163  30.366  35.338  1.00  0.00     0.074 A 
ATOM     58  C   UNL A   1      42.467  30.918  36.643  1.00  0.00     0.031 C 
ATOM     59  C   UNL A   1      42.854  29.356  34.756  1.00  0.00     0.037 A 
BRANCH  46  60
ATOM     60  C   UNL A   1      40.690  27.663  29.224  1.00  0.00     0.064 A 
ATOM     61  C   UNL A   1      41.648  27.845  28.214  1.00  0.00     0.173 A 
ATOM     62  C   UNL A   1      39.837  26.553  29.125  1.00  0.00     0.173 A 
ATOM     63  F   UNL A   1      42.480  28.897  28.256  1.00  0.00    -0.203 F 
ATOM     64  C   UNL A   1      41.726  26.971  27.133  1.00  0.00     0.198 A 
ATOM     65  C   UNL A   1      39.938  25.664  28.057  1.00  0.00     0.198 A 
ATOM     66  F   UNL A   1      38.909  26.326  30.066  1.00  0.00    -0.203 F 
ATOM     67  F   UNL A   1      42.614  27.196  26.156  1.00  0.00    -0.200 F 
ATOM     68  C   UNL A   1      40.876  25.878  27.059  1.00  0.00     0.200 A 
ATOM     69  F   UNL A   1      39.125  24.600  27.995  1.00  0.00    -0.200 F 
ATOM     70  F   UNL A   1      40.957  25.035  26.021  1.00  0.00    -0.200 F 
ENDBRANCH  46  60
BRANCH  47  71
ATOM     71  C   UNL A   1      39.460  33.861  36.960  1.00  0.00     0.064 A 
ATOM     72  C   UNL A   1      38.723  33.437  38.074  1.00  0.00     0.173 A 
ATOM     73  C   UNL A   1      40.006  35.152  36.990  1.00  0.00     0.173 A 
ATOM     74  F   UNL A   1      38.165  32.217  38.082  1.00  0.00    -0.203 F 
ATOM     75  C   UNL A   1      38.523  34.276  39.168  1.00  0.00     0.198 A 
ATOM     76  C   UNL A   1      39.828  35.982  38.096  1.00  0.00     0.198 A 
ATOM     77  F   UNL A   1      40.725  35.603  35.953  1.00  0.00    -0.203 F 
ATOM     78  F   UNL A   1      37.780  33.861  40.203  1.00  0.00    -0.200 F 
ATOM     79  C   UNL A   1      39.081  35.546  39.181  1.00  0.00     0.200 A 
ATOM     80  F   UNL A   1      40.380  37.202  38.111  1.00  0.00    -0.200 F 
ATOM     81  F   UNL A   1      38.894  36.352  40.235  1.00  0.00    -0.200 F 
ENDBRANCH  47  71
BRANCH  59  82
ATOM     82  C   UNL A   1      44.027  28.804  35.511  1.00  0.00     0.064 A 
ATOM     83  C   UNL A   1      45.321  29.310  35.329  1.00  0.00     0.173 A 
ATOM     84  C   UNL A   1      43.844  27.787  36.460  1.00  0.00     0.173 A 
ATOM     85  F   UNL A   1      45.549  30.273  34.422  1.00  0.00    -0.203 F 
ATOM     86  C   UNL A   1      46.396  28.803  36.055  1.00  0.00     0.198 A 
ATOM     87  C   UNL A   1      44.916  27.300  37.203  1.00  0.00     0.198 A 
ATOM     88  F   UNL A   1      42.623  27.273  36.674  1.00  0.00    -0.203 F 
ATOM     89  F   UNL A   1      47.631  29.272  35.836  1.00  0.00    -0.200 F 
ATOM     90  C   UNL A   1      46.191  27.805  36.996  1.00  0.00     0.200 A 
ATOM     91  F   UNL A   1      44.714  26.344  38.120  1.00  0.00    -0.200 F 
ATOM     92  F   UNL A   1      47.225  27.322  37.699  1.00  0.00    -0.200 F 
ENDBRANCH  59  82
ENDBRANCH  33  34
ENDBRANCH  25  28
ENDBRANCH  23  24
ENDBRANCH  22  23
ENDBRANCH   1  22
TORSDOF 15
ENDMDL
