MODEL 1
REMARK VINA RESULT:     -14.7      0.000      0.000
REMARK SMILES Cc1ccc(C(=O)NC2(CC(=O)NCCCNC(=O)c3ccc(-c4c5nc(c(-c6c(F)c(F)c(F)c(F)c6F)c6ccc([nH]6)c(-c6c(F)c(F)c(F)c(F)c6F)c6nc(c(-c7c(F)c(F)c(F)c(F)c7F)c7ccc4[nH]7)C=C6)C=C5)cc3)CCC2)cc1
REMARK SMILES IDX 14 1 13 2 11 3 12 4 10 6 9 7 83 8 85 9 84 10 8 11 6 12 7 13
REMARK SMILES IDX 5 15 1 16 2 17 3 18 87 19 4 20 86 21 15 22 16 23 17 24 18 25
REMARK SMILES IDX 19 27 20 28 21 29 82 30 22 31 81 32 23 33 24 34 25 35 75 36
REMARK SMILES IDX 26 37 80 38 74 39 76 40 27 41 79 42 73 43 72 44 28 46 60 47
REMARK SMILES IDX 40 48 59 49 41 50 44 51 58 52 77 53 42 54 43 55 57 57 78 58
REMARK SMILES IDX 45 59 29 60 30 61 38 62 31 63 32 64 36 65 39 66 33 67 34 68
REMARK SMILES IDX 37 69 35 70 61 71 62 72 70 73 63 74 64 75 68 76 71 77 65 78
REMARK SMILES IDX 66 79 69 80 67 81 46 82 47 83 55 84 48 85 49 86 53 87 56 88
REMARK SMILES IDX 50 89 51 90 54 91 52 92
REMARK H PARENT 13 5 8 14 17 26 76 45 44 56
REMARK Flexibility Score: inf
ROOT
ATOM      1  C   UNL A   1      31.417  30.229  25.760  1.00  0.00     0.117 C 
ENDROOT
BRANCH   1   2
ATOM      2  N   UNL A   1      30.642  30.307  24.267  1.00  0.00    -0.356 N 
ATOM      3  C   UNL A   1      30.059  29.052  22.856  1.00  0.00     0.222 C 
ATOM      4  O   UNL A   1      29.082  29.104  22.062  1.00  0.00    -0.275 OA
ATOM      5  H   UNL A   1      30.418  31.236  24.032  1.00  0.00     0.163 HD
BRANCH   3   6
ATOM      6  C   UNL A   1      31.029  27.498  22.378  1.00  0.00     0.128 C 
BRANCH   6   7
ATOM      7  C   UNL A   1      32.706  27.384  22.398  1.00  0.00     0.049 C 
ATOM      8  C   UNL A   1      33.384  27.155  23.796  1.00  0.00     0.029 C 
ATOM      9  C   UNL A   1      34.028  28.438  22.232  1.00  0.00     0.029 C 
ATOM     10  C   UNL A   1      34.022  28.578  23.734  1.00  0.00     0.005 C 
BRANCH   7  11
ATOM     11  N   UNL A   1      33.007  26.501  21.282  1.00  0.00    -0.346 N 
ATOM     12  C   UNL A   1      32.983  25.168  21.596  1.00  0.00     0.251 C 
ATOM     13  O   UNL A   1      33.046  24.278  20.763  1.00  0.00    -0.269 OA
ATOM     14  H   UNL A   1      33.211  26.833  20.378  1.00  0.00     0.164 HD
BRANCH  12  15
ATOM     15  C   UNL A   1      33.081  24.903  23.080  1.00  0.00     0.039 A 
ATOM     16  C   UNL A   1      32.525  22.623  27.494  1.00  0.00     0.044 C 
ATOM     17  C   UNL A   1      32.823  22.763  26.013  1.00  0.00    -0.051 A 
ATOM     18  C   UNL A   1      31.365  23.122  25.013  1.00  0.00     0.004 A 
ATOM     19  C   UNL A   1      34.463  23.366  25.552  1.00  0.00     0.004 A 
ATOM     20  C   UNL A   1      31.497  24.169  23.562  1.00  0.00     0.014 A 
ATOM     21  C   UNL A   1      34.616  24.523  24.118  1.00  0.00     0.014 A 
ENDBRANCH  12  15
ENDBRANCH   7  11
ENDBRANCH   6   7
ENDBRANCH   3   6
ENDBRANCH   1   2
BRANCH   1  22
ATOM     22  C   UNL A   1      31.505  31.572  26.454  1.00  0.00     0.042 C 
BRANCH  22  23
ATOM     23  C   UNL A   1      32.766  31.599  27.245  1.00  0.00     0.118 C 
BRANCH  23  24
ATOM     24  N   UNL A   1      33.472  30.332  27.107  1.00  0.00    -0.352 N 
ATOM     25  C   UNL A   1      34.773  30.014  27.408  1.00  0.00     0.251 C 
ATOM     26  H   UNL A   1      32.934  29.592  26.743  1.00  0.00     0.163 HD
ATOM     27  O   UNL A   1      35.293  29.040  26.874  1.00  0.00    -0.269 OA
BRANCH  25  28
ATOM     28  C   UNL A   1      35.409  30.667  28.584  1.00  0.00     0.039 A 
ATOM     29  C   UNL A   1      36.250  31.716  28.183  1.00  0.00     0.014 A 
ATOM     30  C   UNL A   1      35.779  29.855  29.643  1.00  0.00     0.014 A 
ATOM     31  C   UNL A   1      37.581  31.678  28.553  1.00  0.00     0.010 A 
ATOM     32  C   UNL A   1      37.119  29.632  29.782  1.00  0.00     0.010 A 
ATOM     33  C   UNL A   1      38.013  30.541  29.215  1.00  0.00    -0.014 A 
BRANCH  33  34
ATOM     34  C   UNL A   1      39.367  30.290  29.626  1.00  0.00     0.031 A 
ATOM     35  C   UNL A   1      39.907  29.037  29.066  1.00  0.00     0.074 A 
ATOM     36  C   UNL A   1      40.026  31.304  30.232  1.00  0.00     0.049 A 
ATOM     37  N   UNL A   1      40.806  28.316  29.620  1.00  0.00    -0.248 NA
ATOM     38  C   UNL A   1      39.384  28.414  27.837  1.00  0.00     0.031 C 
ATOM     39  C   UNL A   1      41.457  31.509  30.414  1.00  0.00     0.029 A 
ATOM     40  N   UNL A   1      39.445  32.361  30.963  1.00  0.00    -0.354 N 
ATOM     41  C   UNL A   1      41.263  27.453  28.642  1.00  0.00     0.074 A 
ATOM     42  C   UNL A   1      40.240  27.412  27.639  1.00  0.00     0.031 C 
ATOM     43  C   UNL A   1      41.647  32.367  31.438  1.00  0.00     0.029 A 
ATOM     44  C   UNL A   1      40.342  32.627  32.026  1.00  0.00     0.049 A 
ATOM     45  H   UNL A   1      38.594  32.819  30.773  1.00  0.00     0.167 HD
ATOM     46  C   UNL A   1      42.569  27.077  28.689  1.00  0.00     0.037 A 
ATOM     47  C   UNL A   1      39.985  32.308  33.310  1.00  0.00     0.037 A 
ATOM     48  C   UNL A   1      43.198  27.731  29.830  1.00  0.00     0.049 A 
ATOM     49  C   UNL A   1      40.823  31.177  33.858  1.00  0.00     0.074 A 
ATOM     50  C   UNL A   1      43.909  28.916  29.934  1.00  0.00     0.029 A 
ATOM     51  N   UNL A   1      42.731  27.439  31.102  1.00  0.00    -0.354 N 
ATOM     52  N   UNL A   1      41.363  30.251  33.113  1.00  0.00    -0.248 NA
ATOM     53  C   UNL A   1      41.135  31.021  35.273  1.00  0.00     0.031 C 
ATOM     54  C   UNL A   1      43.855  29.336  31.288  1.00  0.00     0.029 A 
ATOM     55  C   UNL A   1      43.103  28.416  31.999  1.00  0.00     0.049 A 
ATOM     56  H   UNL A   1      42.203  26.641  31.333  1.00  0.00     0.167 HD
ATOM     57  C   UNL A   1      42.072  29.389  33.908  1.00  0.00     0.074 A 
ATOM     58  C   UNL A   1      41.908  29.921  35.247  1.00  0.00     0.031 C 
ATOM     59  C   UNL A   1      42.729  28.303  33.399  1.00  0.00     0.037 A 
BRANCH  46  60
ATOM     60  C   UNL A   1      43.349  26.415  27.583  1.00  0.00     0.064 A 
ATOM     61  C   UNL A   1      43.349  25.006  27.473  1.00  0.00     0.173 A 
ATOM     62  C   UNL A   1      44.094  27.086  26.595  1.00  0.00     0.173 A 
ATOM     63  F   UNL A   1      42.646  24.235  28.312  1.00  0.00    -0.203 F 
ATOM     64  C   UNL A   1      44.067  24.326  26.490  1.00  0.00     0.198 A 
ATOM     65  C   UNL A   1      44.839  26.400  25.626  1.00  0.00     0.198 A 
ATOM     66  F   UNL A   1      44.087  28.420  26.496  1.00  0.00    -0.203 F 
ATOM     67  F   UNL A   1      44.014  22.988  26.441  1.00  0.00    -0.200 F 
ATOM     68  C   UNL A   1      44.823  25.021  25.574  1.00  0.00     0.200 A 
ATOM     69  F   UNL A   1      45.561  27.091  24.731  1.00  0.00    -0.200 F 
ATOM     70  F   UNL A   1      45.511  24.367  24.629  1.00  0.00    -0.200 F 
ENDBRANCH  46  60
BRANCH  47  71
ATOM     71  C   UNL A   1      38.512  32.462  33.523  1.00  0.00     0.064 A 
ATOM     72  C   UNL A   1      37.997  33.776  33.534  1.00  0.00     0.173 A 
ATOM     73  C   UNL A   1      37.625  31.425  33.211  1.00  0.00     0.173 A 
ATOM     74  F   UNL A   1      38.794  34.804  33.869  1.00  0.00    -0.203 F 
ATOM     75  C   UNL A   1      36.726  34.054  33.039  1.00  0.00     0.198 A 
ATOM     76  C   UNL A   1      36.331  31.708  32.763  1.00  0.00     0.198 A 
ATOM     77  F   UNL A   1      38.043  30.152  33.197  1.00  0.00    -0.203 F 
ATOM     78  F   UNL A   1      36.335  35.328  32.879  1.00  0.00    -0.200 F 
ATOM     79  C   UNL A   1      35.909  33.021  32.615  1.00  0.00     0.200 A 
ATOM     80  F   UNL A   1      35.527  30.708  32.372  1.00  0.00    -0.200 F 
ATOM     81  F   UNL A   1      34.738  33.294  32.023  1.00  0.00    -0.200 F 
ENDBRANCH  47  71
BRANCH  59  82
ATOM     82  C   UNL A   1      43.162  27.076  34.177  1.00  0.00     0.064 A 
ATOM     83  C   UNL A   1      44.497  26.783  34.496  1.00  0.00     0.173 A 
ATOM     84  C   UNL A   1      42.206  26.203  34.764  1.00  0.00     0.173 A 
ATOM     85  F   UNL A   1      45.498  27.611  34.175  1.00  0.00    -0.203 F 
ATOM     86  C   UNL A   1      44.855  25.646  35.223  1.00  0.00     0.198 A 
ATOM     87  C   UNL A   1      42.563  25.131  35.577  1.00  0.00     0.198 A 
ATOM     88  F   UNL A   1      40.887  26.367  34.601  1.00  0.00    -0.203 F 
ATOM     89  F   UNL A   1      46.151  25.367  35.412  1.00  0.00    -0.200 F 
ATOM     90  C   UNL A   1      43.889  24.825  35.771  1.00  0.00     0.200 A 
ATOM     91  F   UNL A   1      41.607  24.407  36.177  1.00  0.00    -0.200 F 
ATOM     92  F   UNL A   1      44.237  23.760  36.503  1.00  0.00    -0.200 F 
ENDBRANCH  59  82
ENDBRANCH  33  34
ENDBRANCH  25  28
ENDBRANCH  23  24
ENDBRANCH  22  23
ENDBRANCH   1  22
TORSDOF 13
ENDMDL
MODEL 2
REMARK VINA RESULT:     -14.6      1.632      2.315
REMARK SMILES Cc1ccc(C(=O)NC2(CC(=O)NCCCNC(=O)c3ccc(-c4c5nc(c(-c6c(F)c(F)c(F)c(F)c6F)c6ccc([nH]6)c(-c6c(F)c(F)c(F)c(F)c6F)c6nc(c(-c7c(F)c(F)c(F)c(F)c7F)c7ccc4[nH]7)C=C6)C=C5)cc3)CCC2)cc1
REMARK SMILES IDX 14 1 13 2 11 3 12 4 10 6 9 7 83 8 85 9 84 10 8 11 6 12 7 13
REMARK SMILES IDX 5 15 1 16 2 17 3 18 87 19 4 20 86 21 15 22 16 23 17 24 18 25
REMARK SMILES IDX 19 27 20 28 21 29 82 30 22 31 81 32 23 33 24 34 25 35 75 36
REMARK SMILES IDX 26 37 80 38 74 39 76 40 27 41 79 42 73 43 72 44 28 46 60 47
REMARK SMILES IDX 40 48 59 49 41 50 44 51 58 52 77 53 42 54 43 55 57 57 78 58
REMARK SMILES IDX 45 59 29 60 30 61 38 62 31 63 32 64 36 65 39 66 33 67 34 68
REMARK SMILES IDX 37 69 35 70 61 71 62 72 70 73 63 74 64 75 68 76 71 77 65 78
REMARK SMILES IDX 66 79 69 80 67 81 46 82 47 83 55 84 48 85 49 86 53 87 56 88
REMARK SMILES IDX 50 89 51 90 54 91 52 92
REMARK H PARENT 13 5 8 14 17 26 76 45 44 56
REMARK Flexibility Score: inf
ROOT
ATOM      1  C   UNL A   1      31.298  31.084  26.104  1.00  0.00     0.117 C 
ENDROOT
BRANCH   1   2
ATOM      2  N   UNL A   1      30.670  30.620  24.612  1.00  0.00    -0.356 N 
ATOM      3  C   UNL A   1      30.175  28.942  23.693  1.00  0.00     0.222 C 
ATOM      4  O   UNL A   1      29.278  28.704  22.840  1.00  0.00    -0.275 OA
ATOM      5  H   UNL A   1      30.503  31.402  24.038  1.00  0.00     0.163 HD
BRANCH   3   6
ATOM      6  C   UNL A   1      31.127  27.319  23.904  1.00  0.00     0.128 C 
BRANCH   6   7
ATOM      7  C   UNL A   1      32.803  27.204  23.963  1.00  0.00     0.049 C 
ATOM      8  C   UNL A   1      33.406  26.160  24.970  1.00  0.00     0.029 C 
ATOM      9  C   UNL A   1      34.094  28.128  24.568  1.00  0.00     0.029 C 
ATOM     10  C   UNL A   1      33.996  27.317  25.836  1.00  0.00     0.005 C 
BRANCH   7  11
ATOM     11  N   UNL A   1      33.200  27.189  22.564  1.00  0.00    -0.346 N 
ATOM     12  C   UNL A   1      33.259  25.939  22.008  1.00  0.00     0.251 C 
ATOM     13  O   UNL A   1      33.410  25.737  20.813  1.00  0.00    -0.269 OA
ATOM     14  H   UNL A   1      33.408  28.007  22.059  1.00  0.00     0.164 HD
BRANCH  12  15
ATOM     15  C   UNL A   1      33.329  24.833  23.035  1.00  0.00     0.039 A 
ATOM     16  C   UNL A   1      32.767  20.334  25.143  1.00  0.00     0.044 C 
ATOM     17  C   UNL A   1      33.100  21.348  24.066  1.00  0.00    -0.051 A 
ATOM     18  C   UNL A   1      31.654  22.202  23.406  1.00  0.00     0.004 A 
ATOM     19  C   UNL A   1      34.718  22.148  24.151  1.00  0.00     0.004 A 
ATOM     20  C   UNL A   1      31.772  23.917  22.889  1.00  0.00     0.014 A 
ATOM     21  C   UNL A   1      34.851  23.940  23.716  1.00  0.00     0.014 A 
ENDBRANCH  12  15
ENDBRANCH   7  11
ENDBRANCH   6   7
ENDBRANCH   3   6
ENDBRANCH   1   2
BRANCH   1  22
ATOM     22  C   UNL A   1      32.772  30.771  26.250  1.00  0.00     0.042 C 
BRANCH  22  23
ATOM     23  C   UNL A   1      33.145  30.967  27.677  1.00  0.00     0.118 C 
BRANCH  23  24
ATOM     24  N   UNL A   1      34.349  31.783  27.774  1.00  0.00    -0.352 N 
ATOM     25  C   UNL A   1      35.554  31.503  28.369  1.00  0.00     0.251 C 
ATOM     26  H   UNL A   1      34.288  32.668  27.349  1.00  0.00     0.163 HD
ATOM     27  O   UNL A   1      36.294  32.426  28.691  1.00  0.00    -0.269 OA
BRANCH  25  28
ATOM     28  C   UNL A   1      36.057  30.103  28.329  1.00  0.00     0.039 A 
ATOM     29  C   UNL A   1      36.289  29.615  29.624  1.00  0.00     0.014 A 
ATOM     30  C   UNL A   1      36.919  29.763  27.301  1.00  0.00     0.014 A 
ATOM     31  C   UNL A   1      37.555  29.163  29.946  1.00  0.00     0.010 A 
ATOM     32  C   UNL A   1      38.229  29.602  27.651  1.00  0.00     0.010 A 
ATOM     33  C   UNL A   1      38.538  29.321  28.982  1.00  0.00    -0.014 A 
BRANCH  33  34
ATOM     34  C   UNL A   1      39.921  28.970  29.151  1.00  0.00     0.031 A 
ATOM     35  C   UNL A   1      40.192  27.557  28.826  1.00  0.00     0.074 A 
ATOM     36  C   UNL A   1      40.797  29.984  29.332  1.00  0.00     0.049 A 
ATOM     37  N   UNL A   1      41.124  26.852  29.344  1.00  0.00    -0.248 NA
ATOM     38  C   UNL A   1      39.335  26.760  27.930  1.00  0.00     0.031 C 
ATOM     39  C   UNL A   1      42.244  30.009  29.155  1.00  0.00     0.029 A 
ATOM     40  N   UNL A   1      40.510  31.252  29.877  1.00  0.00    -0.354 N 
ATOM     41  C   UNL A   1      41.252  25.734  28.542  1.00  0.00     0.074 A 
ATOM     42  C   UNL A   1      40.021  25.622  27.817  1.00  0.00     0.031 C 
ATOM     43  C   UNL A   1      42.752  31.036  29.867  1.00  0.00     0.029 A 
ATOM     44  C   UNL A   1      41.655  31.613  30.628  1.00  0.00     0.049 A 
ATOM     45  H   UNL A   1      39.685  31.777  29.759  1.00  0.00     0.167 HD
ATOM     46  C   UNL A   1      42.490  25.188  28.409  1.00  0.00     0.037 A 
ATOM     47  C   UNL A   1      41.585  31.646  31.996  1.00  0.00     0.037 A 
ATOM     48  C   UNL A   1      43.432  25.980  29.192  1.00  0.00     0.049 A 
ATOM     49  C   UNL A   1      42.419  30.555  32.624  1.00  0.00     0.074 A 
ATOM     50  C   UNL A   1      44.256  27.039  28.844  1.00  0.00     0.029 A 
ATOM     51  N   UNL A   1      43.255  26.053  30.565  1.00  0.00    -0.354 N 
ATOM     52  N   UNL A   1      42.677  29.416  32.042  1.00  0.00    -0.248 NA
ATOM     53  C   UNL A   1      43.043  30.675  33.937  1.00  0.00     0.031 C 
ATOM     54  C   UNL A   1      44.565  27.754  30.029  1.00  0.00     0.029 A 
ATOM     55  C   UNL A   1      43.921  27.139  31.089  1.00  0.00     0.049 A 
ATOM     56  H   UNL A   1      42.724  25.415  31.094  1.00  0.00     0.167 HD
ATOM     57  C   UNL A   1      43.470  28.657  32.862  1.00  0.00     0.074 A 
ATOM     58  C   UNL A   1      43.680  29.494  34.028  1.00  0.00     0.031 C 
ATOM     59  C   UNL A   1      43.882  27.400  32.519  1.00  0.00     0.037 A 
BRANCH  46  60
ATOM     60  C   UNL A   1      42.919  24.186  27.369  1.00  0.00     0.064 A 
ATOM     61  C   UNL A   1      42.606  22.819  27.542  1.00  0.00     0.173 A 
ATOM     62  C   UNL A   1      43.612  24.489  26.181  1.00  0.00     0.173 A 
ATOM     63  F   UNL A   1      41.907  22.386  28.599  1.00  0.00    -0.203 F 
ATOM     64  C   UNL A   1      42.991  21.835  26.632  1.00  0.00     0.198 A 
ATOM     65  C   UNL A   1      44.025  23.496  25.283  1.00  0.00     0.198 A 
ATOM     66  F   UNL A   1      43.868  25.752  25.820  1.00  0.00    -0.203 F 
ATOM     67  F   UNL A   1      42.652  20.559  26.858  1.00  0.00    -0.200 F 
ATOM     68  C   UNL A   1      43.712  22.171  25.509  1.00  0.00     0.200 A 
ATOM     69  F   UNL A   1      44.716  23.838  24.185  1.00  0.00    -0.200 F 
ATOM     70  F   UNL A   1      44.080  21.225  24.634  1.00  0.00    -0.200 F 
ENDBRANCH  46  60
BRANCH  47  71
ATOM     71  C   UNL A   1      40.227  32.062  32.466  1.00  0.00     0.064 A 
ATOM     72  C   UNL A   1      39.778  33.344  32.083  1.00  0.00     0.173 A 
ATOM     73  C   UNL A   1      39.253  31.110  32.794  1.00  0.00     0.173 A 
ATOM     74  F   UNL A   1      40.670  34.308  31.799  1.00  0.00    -0.203 F 
ATOM     75  C   UNL A   1      38.432  33.588  31.826  1.00  0.00     0.198 A 
ATOM     76  C   UNL A   1      37.898  31.379  32.582  1.00  0.00     0.198 A 
ATOM     77  F   UNL A   1      39.610  29.878  33.180  1.00  0.00    -0.203 F 
ATOM     78  F   UNL A   1      38.057  34.753  31.278  1.00  0.00    -0.200 F 
ATOM     79  C   UNL A   1      37.498  32.589  32.037  1.00  0.00     0.200 A 
ATOM     80  F   UNL A   1      36.985  30.422  32.807  1.00  0.00    -0.200 F 
ATOM     81  F   UNL A   1      36.222  32.780  31.672  1.00  0.00    -0.200 F 
ENDBRANCH  47  71
BRANCH  59  82
ATOM     82  C   UNL A   1      44.369  26.328  33.473  1.00  0.00     0.064 A 
ATOM     83  C   UNL A   1      43.564  25.730  34.455  1.00  0.00     0.173 A 
ATOM     84  C   UNL A   1      45.660  25.751  33.333  1.00  0.00     0.173 A 
ATOM     85  F   UNL A   1      42.267  26.032  34.585  1.00  0.00    -0.203 F 
ATOM     86  C   UNL A   1      44.048  24.737  35.309  1.00  0.00     0.198 A 
ATOM     87  C   UNL A   1      46.102  24.690  34.118  1.00  0.00     0.198 A 
ATOM     88  F   UNL A   1      46.539  26.170  32.413  1.00  0.00    -0.203 F 
ATOM     89  F   UNL A   1      43.262  24.274  36.291  1.00  0.00    -0.200 F 
ATOM     90  C   UNL A   1      45.312  24.211  35.136  1.00  0.00     0.200 A 
ATOM     91  F   UNL A   1      47.295  24.131  33.867  1.00  0.00    -0.200 F 
ATOM     92  F   UNL A   1      45.756  23.231  35.931  1.00  0.00    -0.200 F 
ENDBRANCH  59  82
ENDBRANCH  33  34
ENDBRANCH  25  28
ENDBRANCH  23  24
ENDBRANCH  22  23
ENDBRANCH   1  22
TORSDOF 13
ENDMDL
MODEL 3
REMARK VINA RESULT:     -14.6      1.721      2.665
REMARK SMILES Cc1ccc(C(=O)NC2(CC(=O)NCCCNC(=O)c3ccc(-c4c5nc(c(-c6c(F)c(F)c(F)c(F)c6F)c6ccc([nH]6)c(-c6c(F)c(F)c(F)c(F)c6F)c6nc(c(-c7c(F)c(F)c(F)c(F)c7F)c7ccc4[nH]7)C=C6)C=C5)cc3)CCC2)cc1
REMARK SMILES IDX 14 1 13 2 11 3 12 4 10 6 9 7 83 8 85 9 84 10 8 11 6 12 7 13
REMARK SMILES IDX 5 15 1 16 2 17 3 18 87 19 4 20 86 21 15 22 16 23 17 24 18 25
REMARK SMILES IDX 19 27 20 28 21 29 82 30 22 31 81 32 23 33 24 34 25 35 75 36
REMARK SMILES IDX 26 37 80 38 74 39 76 40 27 41 79 42 73 43 72 44 28 46 60 47
REMARK SMILES IDX 40 48 59 49 41 50 44 51 58 52 77 53 42 54 43 55 57 57 78 58
REMARK SMILES IDX 45 59 29 60 30 61 38 62 31 63 32 64 36 65 39 66 33 67 34 68
REMARK SMILES IDX 37 69 35 70 61 71 62 72 70 73 63 74 64 75 68 76 71 77 65 78
REMARK SMILES IDX 66 79 69 80 67 81 46 82 47 83 55 84 48 85 49 86 53 87 56 88
REMARK SMILES IDX 50 89 51 90 54 91 52 92
REMARK H PARENT 13 5 8 14 17 26 76 45 44 56
REMARK Flexibility Score: inf
ROOT
ATOM      1  C   UNL A   1      31.295  31.060  26.177  1.00  0.00     0.117 C 
ENDROOT
BRANCH   1   2
ATOM      2  N   UNL A   1      30.664  30.771  24.642  1.00  0.00    -0.356 N 
ATOM      3  C   UNL A   1      30.166  29.211  23.537  1.00  0.00     0.222 C 
ATOM      4  O   UNL A   1      29.268  29.074  22.663  1.00  0.00    -0.275 OA
ATOM      5  H   UNL A   1      30.498  31.615  24.163  1.00  0.00     0.163 HD
BRANCH   3   6
ATOM      6  C   UNL A   1      31.115  27.573  23.558  1.00  0.00     0.128 C 
BRANCH   6   7
ATOM      7  C   UNL A   1      32.792  27.449  23.516  1.00  0.00     0.049 C 
ATOM      8  C   UNL A   1      33.458  26.495  24.571  1.00  0.00     0.029 C 
ATOM      9  C   UNL A   1      34.123  28.413  23.948  1.00  0.00     0.029 C 
ATOM     10  C   UNL A   1      34.108  27.720  25.287  1.00  0.00     0.005 C 
BRANCH   7  11
ATOM     11  N   UNL A   1      33.094  27.305  22.100  1.00  0.00    -0.346 N 
ATOM     12  C   UNL A   1      33.064  26.013  21.647  1.00  0.00     0.251 C 
ATOM     13  O   UNL A   1      33.127  25.711  20.466  1.00  0.00    -0.269 OA
ATOM     14  H   UNL A   1      33.302  28.070  21.518  1.00  0.00     0.164 HD
BRANCH  12  15
ATOM     15  C   UNL A   1      33.156  24.990  22.755  1.00  0.00     0.039 A 
ATOM     16  C   UNL A   1      32.510  20.721  25.276  1.00  0.00     0.044 C 
ATOM     17  C   UNL A   1      32.808  21.622  24.093  1.00  0.00    -0.051 A 
ATOM     18  C   UNL A   1      31.364  22.517  23.484  1.00  0.00     0.004 A 
ATOM     19  C   UNL A   1      34.473  22.315  23.978  1.00  0.00     0.004 A 
ATOM     20  C   UNL A   1      31.541  24.173  22.816  1.00  0.00     0.014 A 
ATOM     21  C   UNL A   1      34.675  24.054  23.382  1.00  0.00     0.014 A 
ENDBRANCH  12  15
ENDBRANCH   7  11
ENDBRANCH   6   7
ENDBRANCH   3   6
ENDBRANCH   1   2
BRANCH   1  22
ATOM     22  C   UNL A   1      32.781  30.789  26.267  1.00  0.00     0.042 C 
BRANCH  22  23
ATOM     23  C   UNL A   1      33.195  30.963  27.687  1.00  0.00     0.118 C 
BRANCH  23  24
ATOM     24  N   UNL A   1      34.403  31.776  27.762  1.00  0.00    -0.352 N 
ATOM     25  C   UNL A   1      35.611  31.503  28.353  1.00  0.00     0.251 C 
ATOM     26  H   UNL A   1      34.342  32.655  27.322  1.00  0.00     0.163 HD
ATOM     27  O   UNL A   1      36.356  32.428  28.655  1.00  0.00    -0.269 OA
BRANCH  25  28
ATOM     28  C   UNL A   1      36.108  30.100  28.334  1.00  0.00     0.039 A 
ATOM     29  C   UNL A   1      36.356  29.636  29.634  1.00  0.00     0.014 A 
ATOM     30  C   UNL A   1      36.956  29.737  27.301  1.00  0.00     0.014 A 
ATOM     31  C   UNL A   1      37.624  29.186  29.948  1.00  0.00     0.010 A 
ATOM     32  C   UNL A   1      38.270  29.579  27.637  1.00  0.00     0.010 A 
ATOM     33  C   UNL A   1      38.595  29.322  28.969  1.00  0.00    -0.014 A 
BRANCH  33  34
ATOM     34  C   UNL A   1      39.980  28.969  29.126  1.00  0.00     0.031 A 
ATOM     35  C   UNL A   1      40.244  27.553  28.810  1.00  0.00     0.074 A 
ATOM     36  C   UNL A   1      40.860  29.983  29.289  1.00  0.00     0.049 A 
ATOM     37  N   UNL A   1      41.181  26.851  29.325  1.00  0.00    -0.248 NA
ATOM     38  C   UNL A   1      39.376  26.750  27.931  1.00  0.00     0.031 C 
ATOM     39  C   UNL A   1      42.305  30.003  29.096  1.00  0.00     0.029 A 
ATOM     40  N   UNL A   1      40.581  31.257  29.826  1.00  0.00    -0.354 N 
ATOM     41  C   UNL A   1      41.297  25.725  28.532  1.00  0.00     0.074 A 
ATOM     42  C   UNL A   1      40.058  25.610  27.821  1.00  0.00     0.031 C 
ATOM     43  C   UNL A   1      42.822  31.036  29.794  1.00  0.00     0.029 A 
ATOM     44  C   UNL A   1      41.734  31.621  30.562  1.00  0.00     0.049 A 
ATOM     45  H   UNL A   1      39.756  31.783  29.712  1.00  0.00     0.167 HD
ATOM     46  C   UNL A   1      42.533  25.176  28.391  1.00  0.00     0.037 A 
ATOM     47  C   UNL A   1      41.679  31.667  31.930  1.00  0.00     0.037 A 
ATOM     48  C   UNL A   1      43.484  25.973  29.157  1.00  0.00     0.049 A 
ATOM     49  C   UNL A   1      42.517  30.580  32.559  1.00  0.00     0.074 A 
ATOM     50  C   UNL A   1      44.306  27.026  28.791  1.00  0.00     0.029 A 
ATOM     51  N   UNL A   1      43.322  26.058  30.531  1.00  0.00    -0.354 N 
ATOM     52  N   UNL A   1      42.767  29.435  31.983  1.00  0.00    -0.248 NA
ATOM     53  C   UNL A   1      43.155  30.710  33.864  1.00  0.00     0.031 C 
ATOM     54  C   UNL A   1      44.630  27.752  29.966  1.00  0.00     0.029 A 
ATOM     55  C   UNL A   1      43.996  27.147  31.039  1.00  0.00     0.049 A 
ATOM     56  H   UNL A   1      42.796  25.425  31.071  1.00  0.00     0.167 HD
ATOM     57  C   UNL A   1      43.567  28.682  32.803  1.00  0.00     0.074 A 
ATOM     58  C   UNL A   1      43.791  29.529  33.958  1.00  0.00     0.031 C 
ATOM     59  C   UNL A   1      43.972  27.420  32.466  1.00  0.00     0.037 A 
BRANCH  46  60
ATOM     60  C   UNL A   1      42.948  24.164  27.355  1.00  0.00     0.064 A 
ATOM     61  C   UNL A   1      42.649  22.797  27.552  1.00  0.00     0.173 A 
ATOM     62  C   UNL A   1      43.615  24.456  26.150  1.00  0.00     0.173 A 
ATOM     63  F   UNL A   1      41.976  22.372  28.628  1.00  0.00    -0.203 F 
ATOM     64  C   UNL A   1      43.024  21.804  26.647  1.00  0.00     0.198 A 
ATOM     65  C   UNL A   1      44.018  23.454  25.256  1.00  0.00     0.198 A 
ATOM     66  F   UNL A   1      43.854  25.716  25.768  1.00  0.00    -0.203 F 
ATOM     67  F   UNL A   1      42.699  20.528  26.896  1.00  0.00    -0.200 F 
ATOM     68  C   UNL A   1      43.720  22.130  25.505  1.00  0.00     0.200 A 
ATOM     69  F   UNL A   1      44.684  23.787  24.141  1.00  0.00    -0.200 F 
ATOM     70  F   UNL A   1      44.078  21.176  24.636  1.00  0.00    -0.200 F 
ENDBRANCH  46  60
BRANCH  47  71
ATOM     71  C   UNL A   1      40.327  32.090  32.410  1.00  0.00     0.064 A 
ATOM     72  C   UNL A   1      39.501  31.091  32.968  1.00  0.00     0.173 A 
ATOM     73  C   UNL A   1      40.074  33.416  32.781  1.00  0.00     0.173 A 
ATOM     74  F   UNL A   1      39.672  29.807  32.614  1.00  0.00    -0.203 F 
ATOM     75  C   UNL A   1      38.623  31.382  34.009  1.00  0.00     0.198 A 
ATOM     76  C   UNL A   1      39.154  33.708  33.792  1.00  0.00     0.198 A 
ATOM     77  F   UNL A   1      40.810  34.416  32.277  1.00  0.00    -0.203 F 
ATOM     78  F   UNL A   1      37.995  30.386  34.651  1.00  0.00    -0.200 F 
ATOM     79  C   UNL A   1      38.482  32.687  34.448  1.00  0.00     0.200 A 
ATOM     80  F   UNL A   1      38.996  34.974  34.205  1.00  0.00    -0.200 F 
ATOM     81  F   UNL A   1      37.736  32.951  35.529  1.00  0.00    -0.200 F 
ENDBRANCH  47  71
BRANCH  59  82
ATOM     82  C   UNL A   1      44.467  26.356  33.424  1.00  0.00     0.064 A 
ATOM     83  C   UNL A   1      43.666  25.754  34.406  1.00  0.00     0.173 A 
ATOM     84  C   UNL A   1      45.764  25.790  33.288  1.00  0.00     0.173 A 
ATOM     85  F   UNL A   1      42.366  26.045  34.533  1.00  0.00    -0.203 F 
ATOM     86  C   UNL A   1      44.157  24.768  35.265  1.00  0.00     0.198 A 
ATOM     87  C   UNL A   1      46.214  24.736  34.078  1.00  0.00     0.198 A 
ATOM     88  F   UNL A   1      46.641  26.214  32.369  1.00  0.00    -0.203 F 
ATOM     89  F   UNL A   1      43.374  24.302  36.246  1.00  0.00    -0.200 F 
ATOM     90  C   UNL A   1      45.426  24.253  35.096  1.00  0.00     0.200 A 
ATOM     91  F   UNL A   1      47.412  24.187  33.831  1.00  0.00    -0.200 F 
ATOM     92  F   UNL A   1      45.878  23.279  35.895  1.00  0.00    -0.200 F 
ENDBRANCH  59  82
ENDBRANCH  33  34
ENDBRANCH  25  28
ENDBRANCH  23  24
ENDBRANCH  22  23
ENDBRANCH   1  22
TORSDOF 13
ENDMDL
