MODEL 1
REMARK VINA RESULT:     -10.6      0.000      0.000
REMARK SMILES CC(=O)Nc1cccc(-c2ccc(F)c(C(=O)NCCCNC(=O)c3ccc(-c4c5nc(c(-c6c(F)c(F)c(F)c(F)c6F)c6ccc([nH]6)c(-c6c(F)c(F)c(F)c(F)c6F)c6nc(c(-c7c(F)c(F)c(F)c(F)c7F)c7ccc4[nH]7)C=C6)C=C5)cc3)c2)c1
REMARK SMILES IDX 20 1 19 2 18 3 16 4 17 5 15 7 10 8 11 9 88 10 12 11 13 12
REMARK SMILES IDX 14 13 9 14 5 15 6 16 89 17 7 18 8 19 4 20 1 21 2 22 3 23
REMARK SMILES IDX 21 25 22 26 23 27 24 29 25 30 26 31 87 32 27 33 86 34 28 35
REMARK SMILES IDX 29 36 30 37 80 38 31 39 85 40 79 41 81 42 32 43 84 44 78 45
REMARK SMILES IDX 77 46 33 48 65 49 45 50 64 51 46 52 49 53 63 54 82 55 47 56
REMARK SMILES IDX 48 57 62 59 83 60 50 61 34 62 35 63 43 64 36 65 37 66 41 67
REMARK SMILES IDX 44 68 38 69 39 70 42 71 40 72 66 73 67 74 75 75 68 76 69 77
REMARK SMILES IDX 73 78 76 79 70 80 71 81 74 82 72 83 51 84 52 85 60 86 53 87
REMARK SMILES IDX 54 88 58 89 61 90 55 91 56 92 59 93 57 94
REMARK H PARENT 18 6 4 24 22 28 81 47 49 58
REMARK Flexibility Score: inf
ROOT
ATOM      1  C   UNL A   1      34.179  33.756  28.920  1.00  0.00     0.042 C 
ENDROOT
BRANCH   1   2
ATOM      2  C   UNL A   1      34.976  33.202  30.101  1.00  0.00     0.118 C 
BRANCH   2   3
ATOM      3  N   UNL A   1      34.204  33.189  31.333  1.00  0.00    -0.352 N 
ATOM      4  C   UNL A   1      34.455  33.048  32.677  1.00  0.00     0.254 C 
ATOM      5  O   UNL A   1      33.458  33.154  33.393  1.00  0.00    -0.269 OA
ATOM      6  H   UNL A   1      33.244  33.314  31.158  1.00  0.00     0.163 HD
BRANCH   4   7
ATOM      7  C   UNL A   1      35.787  32.787  33.302  1.00  0.00     0.076 A 
ATOM      8  C   UNL A   1      37.788  31.402  33.717  1.00  0.00    -0.017 A 
ATOM      9  C   UNL A   1      38.309  32.392  34.551  1.00  0.00     0.012 A 
ATOM     10  C   UNL A   1      36.528  31.621  33.117  1.00  0.00     0.025 A 
ATOM     11  C   UNL A   1      37.584  33.564  34.768  1.00  0.00     0.041 A 
ATOM     12  C   UNL A   1      36.342  33.754  34.150  1.00  0.00     0.135 A 
ATOM     13  F   UNL A   1      35.701  34.899  34.431  1.00  0.00    -0.206 F 
BRANCH   8  14
ATOM     14  C   UNL A   1      38.440  30.099  33.498  1.00  0.00    -0.016 A 
ATOM     15  C   UNL A   1      40.512  28.816  33.260  1.00  0.00     0.041 A 
ATOM     16  C   UNL A   1      39.790  27.815  32.602  1.00  0.00     0.026 A 
ATOM     17  C   UNL A   1      39.828  29.946  33.710  1.00  0.00     0.034 A 
ATOM     18  C   UNL A   1      38.406  27.915  32.448  1.00  0.00     0.003 A 
ATOM     19  C   UNL A   1      37.735  29.049  32.898  1.00  0.00     0.009 A 
BRANCH  15  20
ATOM     20  N   UNL A   1      41.907  28.656  33.318  1.00  0.00    -0.326 N 
ATOM     21  C   UNL A   1      42.258  27.750  35.617  1.00  0.00     0.114 C 
ATOM     22  C   UNL A   1      42.763  28.331  34.328  1.00  0.00     0.221 C 
ATOM     23  O   UNL A   1      43.974  28.475  34.141  1.00  0.00    -0.275 OA
ATOM     24  H   UNL A   1      42.356  28.808  32.455  1.00  0.00     0.169 HD
ENDBRANCH  15  20
ENDBRANCH   8  14
ENDBRANCH   4   7
ENDBRANCH   2   3
ENDBRANCH   1   2
BRANCH   1  25
ATOM     25  C   UNL A   1      34.395  32.963  27.629  1.00  0.00     0.118 C 
BRANCH  25  26
ATOM     26  N   UNL A   1      33.661  31.701  27.633  1.00  0.00    -0.352 N 
ATOM     27  C   UNL A   1      34.083  30.398  27.620  1.00  0.00     0.251 C 
ATOM     28  H   UNL A   1      32.683  31.806  27.647  1.00  0.00     0.163 HD
ATOM     29  O   UNL A   1      33.274  29.516  27.345  1.00  0.00    -0.269 OA
BRANCH  27  30
ATOM     30  C   UNL A   1      35.476  30.028  27.949  1.00  0.00     0.039 A 
ATOM     31  C   UNL A   1      35.785  29.698  29.274  1.00  0.00     0.014 A 
ATOM     32  C   UNL A   1      36.498  30.110  27.002  1.00  0.00     0.014 A 
ATOM     33  C   UNL A   1      37.105  29.422  29.638  1.00  0.00     0.010 A 
ATOM     34  C   UNL A   1      37.800  29.752  27.343  1.00  0.00     0.010 A 
ATOM     35  C   UNL A   1      38.122  29.429  28.669  1.00  0.00    -0.014 A 
BRANCH  35  36
ATOM     36  C   UNL A   1      39.532  29.145  29.036  1.00  0.00     0.031 A 
ATOM     37  C   UNL A   1      40.320  30.145  29.838  1.00  0.00     0.074 A 
ATOM     38  C   UNL A   1      40.117  28.013  28.599  1.00  0.00     0.049 A 
ATOM     39  N   UNL A   1      41.577  30.109  30.203  1.00  0.00    -0.248 NA
ATOM     40  C   UNL A   1      39.611  31.365  30.257  1.00  0.00     0.031 C 
ATOM     41  C   UNL A   1      39.475  26.996  27.765  1.00  0.00     0.029 A 
ATOM     42  N   UNL A   1      41.388  27.534  28.789  1.00  0.00    -0.354 N 
ATOM     43  C   UNL A   1      41.813  31.308  30.864  1.00  0.00     0.074 A 
ATOM     44  C   UNL A   1      40.586  32.072  30.808  1.00  0.00     0.031 C 
ATOM     45  C   UNL A   1      40.347  26.002  27.535  1.00  0.00     0.029 A 
ATOM     46  C   UNL A   1      41.615  26.324  28.181  1.00  0.00     0.049 A 
ATOM     47  H   UNL A   1      42.072  28.012  29.312  1.00  0.00     0.167 HD
ATOM     48  C   UNL A   1      42.943  31.724  31.484  1.00  0.00     0.037 A 
ATOM     49  C   UNL A   1      42.724  25.561  28.151  1.00  0.00     0.037 A 
ATOM     50  C   UNL A   1      44.147  30.941  31.579  1.00  0.00     0.049 A 
ATOM     51  C   UNL A   1      43.947  26.021  28.895  1.00  0.00     0.074 A 
ATOM     52  C   UNL A   1      45.324  31.239  32.243  1.00  0.00     0.029 A 
ATOM     53  N   UNL A   1      44.321  29.694  30.997  1.00  0.00    -0.354 N 
ATOM     54  N   UNL A   1      44.137  27.127  29.575  1.00  0.00    -0.248 NA
ATOM     55  C   UNL A   1      45.106  25.118  28.883  1.00  0.00     0.031 C 
ATOM     56  C   UNL A   1      46.222  30.187  32.036  1.00  0.00     0.029 A 
ATOM     57  C   UNL A   1      45.589  29.213  31.279  1.00  0.00     0.049 A 
ATOM     58  H   UNL A   1      43.643  29.220  30.462  1.00  0.00     0.167 HD
ATOM     59  C   UNL A   1      45.422  27.041  30.091  1.00  0.00     0.074 A 
ATOM     60  C   UNL A   1      45.959  25.765  29.664  1.00  0.00     0.031 C 
ATOM     61  C   UNL A   1      46.100  27.937  30.849  1.00  0.00     0.037 A 
BRANCH  48  62
ATOM     62  C   UNL A   1      42.928  33.086  32.118  1.00  0.00     0.064 A 
ATOM     63  C   UNL A   1      43.282  34.237  31.400  1.00  0.00     0.173 A 
ATOM     64  C   UNL A   1      42.524  33.245  33.453  1.00  0.00     0.173 A 
ATOM     65  F   UNL A   1      43.687  34.140  30.125  1.00  0.00    -0.203 F 
ATOM     66  C   UNL A   1      43.262  35.493  32.001  1.00  0.00     0.198 A 
ATOM     67  C   UNL A   1      42.477  34.506  34.043  1.00  0.00     0.198 A 
ATOM     68  F   UNL A   1      42.169  32.178  34.184  1.00  0.00    -0.203 F 
ATOM     69  F   UNL A   1      43.654  36.572  31.309  1.00  0.00    -0.200 F 
ATOM     70  C   UNL A   1      42.854  35.627  33.319  1.00  0.00     0.200 A 
ATOM     71  F   UNL A   1      42.069  34.636  35.313  1.00  0.00    -0.200 F 
ATOM     72  F   UNL A   1      42.829  36.838  33.895  1.00  0.00    -0.200 F 
ENDBRANCH  48  62
BRANCH  49  73
ATOM     73  C   UNL A   1      42.712  24.264  27.428  1.00  0.00     0.064 A 
ATOM     74  C   UNL A   1      43.102  24.187  26.084  1.00  0.00     0.173 A 
ATOM     75  C   UNL A   1      42.310  23.079  28.061  1.00  0.00     0.173 A 
ATOM     76  F   UNL A   1      43.478  25.297  25.432  1.00  0.00    -0.203 F 
ATOM     77  C   UNL A   1      43.070  22.978  25.393  1.00  0.00     0.198 A 
ATOM     78  C   UNL A   1      42.304  21.866  27.376  1.00  0.00     0.198 A 
ATOM     79  F   UNL A   1      41.936  23.098  29.349  1.00  0.00    -0.203 F 
ATOM     80  F   UNL A   1      43.405  22.941  24.096  1.00  0.00    -0.200 F 
ATOM     81  C   UNL A   1      42.675  21.818  26.041  1.00  0.00     0.200 A 
ATOM     82  F   UNL A   1      41.937  20.743  28.009  1.00  0.00    -0.200 F 
ATOM     83  F   UNL A   1      42.646  20.654  25.376  1.00  0.00    -0.200 F 
ENDBRANCH  49  73
BRANCH  61  84
ATOM     84  C   UNL A   1      47.481  27.551  31.291  1.00  0.00     0.064 A 
ATOM     85  C   UNL A   1      48.620  27.945  30.573  1.00  0.00     0.173 A 
ATOM     86  C   UNL A   1      47.667  26.792  32.455  1.00  0.00     0.173 A 
ATOM     87  F   UNL A   1      48.492  28.659  29.444  1.00  0.00    -0.203 F 
ATOM     88  C   UNL A   1      49.893  27.564  30.987  1.00  0.00     0.198 A 
ATOM     89  C   UNL A   1      48.943  26.438  32.883  1.00  0.00     0.198 A 
ATOM     90  F   UNL A   1      46.610  26.396  33.180  1.00  0.00    -0.203 F 
ATOM     91  F   UNL A   1      50.963  27.905  30.256  1.00  0.00    -0.200 F 
ATOM     92  C   UNL A   1      50.053  26.816  32.144  1.00  0.00     0.200 A 
ATOM     93  F   UNL A   1      49.097  25.724  34.007  1.00  0.00    -0.200 F 
ATOM     94  F   UNL A   1      51.280  26.450  32.541  1.00  0.00    -0.200 F 
ENDBRANCH  61  84
ENDBRANCH  35  36
ENDBRANCH  27  30
ENDBRANCH  25  26
ENDBRANCH   1  25
TORSDOF 12
ENDMDL
MODEL 2
REMARK VINA RESULT:     -10.4      3.064     10.128
REMARK SMILES CC(=O)Nc1cccc(-c2ccc(F)c(C(=O)NCCCNC(=O)c3ccc(-c4c5nc(c(-c6c(F)c(F)c(F)c(F)c6F)c6ccc([nH]6)c(-c6c(F)c(F)c(F)c(F)c6F)c6nc(c(-c7c(F)c(F)c(F)c(F)c7F)c7ccc4[nH]7)C=C6)C=C5)cc3)c2)c1
REMARK SMILES IDX 20 1 19 2 18 3 16 4 17 5 15 7 10 8 11 9 88 10 12 11 13 12
REMARK SMILES IDX 14 13 9 14 5 15 6 16 89 17 7 18 8 19 4 20 1 21 2 22 3 23
REMARK SMILES IDX 21 25 22 26 23 27 24 29 25 30 26 31 87 32 27 33 86 34 28 35
REMARK SMILES IDX 29 36 30 37 80 38 31 39 85 40 79 41 81 42 32 43 84 44 78 45
REMARK SMILES IDX 77 46 33 48 65 49 45 50 64 51 46 52 49 53 63 54 82 55 47 56
REMARK SMILES IDX 48 57 62 59 83 60 50 61 34 62 35 63 43 64 36 65 37 66 41 67
REMARK SMILES IDX 44 68 38 69 39 70 42 71 40 72 66 73 67 74 75 75 68 76 69 77
REMARK SMILES IDX 73 78 76 79 70 80 71 81 74 82 72 83 51 84 52 85 60 86 53 87
REMARK SMILES IDX 54 88 58 89 61 90 55 91 56 92 59 93 57 94
REMARK H PARENT 18 6 4 24 22 28 81 47 49 58
REMARK Flexibility Score: inf
ROOT
ATOM      1  C   UNL A   1      41.569  22.300  26.645  1.00  0.00     0.042 C 
ENDROOT
BRANCH   1   2
ATOM      2  C   UNL A   1      42.889  21.586  26.359  1.00  0.00     0.118 C 
BRANCH   2   3
ATOM      3  N   UNL A   1      43.302  21.721  24.970  1.00  0.00    -0.352 N 
ATOM      4  C   UNL A   1      44.092  22.571  24.234  1.00  0.00     0.254 C 
ATOM      5  O   UNL A   1      44.197  22.263  23.045  1.00  0.00    -0.269 OA
ATOM      6  H   UNL A   1      42.911  21.016  24.408  1.00  0.00     0.163 HD
BRANCH   4   7
ATOM      7  C   UNL A   1      44.799  23.784  24.745  1.00  0.00     0.076 A 
ATOM      8  C   UNL A   1      44.869  26.131  25.505  1.00  0.00    -0.017 A 
ATOM      9  C   UNL A   1      46.246  26.031  25.709  1.00  0.00     0.012 A 
ATOM     10  C   UNL A   1      44.177  25.001  25.016  1.00  0.00     0.025 A 
ATOM     11  C   UNL A   1      46.900  24.831  25.433  1.00  0.00     0.041 A 
ATOM     12  C   UNL A   1      46.182  23.726  24.959  1.00  0.00     0.135 A 
ATOM     13  F   UNL A   1      46.891  22.617  24.698  1.00  0.00    -0.206 F 
BRANCH   8  14
ATOM     14  C   UNL A   1      44.110  27.381  25.686  1.00  0.00    -0.016 A 
ATOM     15  C   UNL A   1      43.711  29.410  26.998  1.00  0.00     0.041 A 
ATOM     16  C   UNL A   1      42.436  29.500  26.430  1.00  0.00     0.026 A 
ATOM     17  C   UNL A   1      44.540  28.356  26.614  1.00  0.00     0.034 A 
ATOM     18  C   UNL A   1      42.020  28.588  25.458  1.00  0.00     0.003 A 
ATOM     19  C   UNL A   1      42.855  27.538  25.084  1.00  0.00     0.009 A 
BRANCH  15  20
ATOM     20  N   UNL A   1      44.020  30.336  28.008  1.00  0.00    -0.326 N 
ATOM     21  C   UNL A   1      45.127  32.179  26.739  1.00  0.00     0.114 C 
ATOM     22  C   UNL A   1      44.744  31.493  28.018  1.00  0.00     0.221 C 
ATOM     23  O   UNL A   1      45.033  31.995  29.107  1.00  0.00    -0.275 OA
ATOM     24  H   UNL A   1      43.637  30.105  28.885  1.00  0.00     0.169 HD
ENDBRANCH  15  20
ENDBRANCH   8  14
ENDBRANCH   4   7
ENDBRANCH   2   3
ENDBRANCH   1   2
BRANCH   1  25
ATOM     25  C   UNL A   1      40.368  21.351  26.661  1.00  0.00     0.118 C 
BRANCH  25  26
ATOM     26  N   UNL A   1      39.275  21.837  25.824  1.00  0.00    -0.352 N 
ATOM     27  C   UNL A   1      38.530  22.985  25.868  1.00  0.00     0.251 C 
ATOM     28  H   UNL A   1      39.027  21.226  25.094  1.00  0.00     0.163 HD
ATOM     29  O   UNL A   1      37.485  23.039  25.227  1.00  0.00    -0.269 OA
BRANCH  27  30
ATOM     30  C   UNL A   1      38.965  24.165  26.647  1.00  0.00     0.039 A 
ATOM     31  C   UNL A   1      39.769  25.122  26.018  1.00  0.00     0.014 A 
ATOM     32  C   UNL A   1      38.687  24.284  28.010  1.00  0.00     0.014 A 
ATOM     33  C   UNL A   1      40.265  26.207  26.745  1.00  0.00     0.010 A 
ATOM     34  C   UNL A   1      39.109  25.408  28.715  1.00  0.00     0.010 A 
ATOM     35  C   UNL A   1      39.923  26.368  28.097  1.00  0.00    -0.014 A 
BRANCH  35  36
ATOM     36  C   UNL A   1      40.443  27.511  28.889  1.00  0.00     0.031 A 
ATOM     37  C   UNL A   1      41.858  27.492  29.401  1.00  0.00     0.074 A 
ATOM     38  C   UNL A   1      39.626  28.536  29.194  1.00  0.00     0.049 A 
ATOM     39  N   UNL A   1      42.478  28.361  30.160  1.00  0.00    -0.248 NA
ATOM     40  C   UNL A   1      42.678  26.323  29.041  1.00  0.00     0.031 C 
ATOM     41  C   UNL A   1      38.218  28.640  28.806  1.00  0.00     0.029 A 
ATOM     42  N   UNL A   1      39.860  29.684  29.908  1.00  0.00    -0.354 N 
ATOM     43  C   UNL A   1      43.741  27.831  30.390  1.00  0.00     0.074 A 
ATOM     44  C   UNL A   1      43.786  26.542  29.733  1.00  0.00     0.031 C 
ATOM     45  C   UNL A   1      37.720  29.799  29.265  1.00  0.00     0.029 A 
ATOM     46  C   UNL A   1      38.764  30.505  30.002  1.00  0.00     0.049 A 
ATOM     47  H   UNL A   1      40.731  29.898  30.313  1.00  0.00     0.167 HD
ATOM     48  C   UNL A   1      44.778  28.379  31.066  1.00  0.00     0.037 A 
ATOM     49  C   UNL A   1      38.619  31.695  30.615  1.00  0.00     0.037 A 
ATOM     50  C   UNL A   1      44.746  29.682  31.677  1.00  0.00     0.049 A 
ATOM     51  C   UNL A   1      39.804  32.307  31.310  1.00  0.00     0.074 A 
ATOM     52  C   UNL A   1      45.763  30.360  32.325  1.00  0.00     0.029 A 
ATOM     53  N   UNL A   1      43.633  30.509  31.704  1.00  0.00    -0.354 N 
ATOM     54  N   UNL A   1      41.015  31.826  31.463  1.00  0.00    -0.248 NA
ATOM     55  C   UNL A   1      39.607  33.637  31.904  1.00  0.00     0.031 C 
ATOM     56  C   UNL A   1      45.256  31.585  32.773  1.00  0.00     0.029 A 
ATOM     57  C   UNL A   1      43.935  31.687  32.366  1.00  0.00     0.049 A 
ATOM     58  H   UNL A   1      42.756  30.291  31.310  1.00  0.00     0.167 HD
ATOM     59  C   UNL A   1      41.729  32.801  32.144  1.00  0.00     0.074 A 
ATOM     60  C   UNL A   1      40.821  33.910  32.357  1.00  0.00     0.031 C 
ATOM     61  C   UNL A   1      43.019  32.782  32.560  1.00  0.00     0.037 A 
BRANCH  48  62
ATOM     62  C   UNL A   1      46.043  27.574  31.171  1.00  0.00     0.064 A 
ATOM     63  C   UNL A   1      47.053  27.658  30.202  1.00  0.00     0.173 A 
ATOM     64  C   UNL A   1      46.260  26.731  32.272  1.00  0.00     0.173 A 
ATOM     65  F   UNL A   1      46.890  28.440  29.124  1.00  0.00    -0.203 F 
ATOM     66  C   UNL A   1      48.219  26.907  30.313  1.00  0.00     0.198 A 
ATOM     67  C   UNL A   1      47.442  26.003  32.396  1.00  0.00     0.198 A 
ATOM     68  F   UNL A   1      45.330  26.617  33.232  1.00  0.00    -0.203 F 
ATOM     69  F   UNL A   1      49.147  26.965  29.347  1.00  0.00    -0.200 F 
ATOM     70  C   UNL A   1      48.416  26.085  31.412  1.00  0.00     0.200 A 
ATOM     71  F   UNL A   1      47.636  25.219  33.465  1.00  0.00    -0.200 F 
ATOM     72  F   UNL A   1      49.542  25.367  31.522  1.00  0.00    -0.200 F 
ENDBRANCH  48  62
BRANCH  49  73
ATOM     73  C   UNL A   1      37.316  32.405  30.557  1.00  0.00     0.064 A 
ATOM     74  C   UNL A   1      36.353  32.220  31.558  1.00  0.00     0.173 A 
ATOM     75  C   UNL A   1      37.006  33.278  29.505  1.00  0.00     0.173 A 
ATOM     76  F   UNL A   1      36.598  31.381  32.576  1.00  0.00    -0.203 F 
ATOM     77  C   UNL A   1      35.119  32.864  31.498  1.00  0.00     0.198 A 
ATOM     78  C   UNL A   1      35.782  33.943  29.460  1.00  0.00     0.198 A 
ATOM     79  F   UNL A   1      37.898  33.496  28.527  1.00  0.00    -0.203 F 
ATOM     80  F   UNL A   1      34.199  32.634  32.445  1.00  0.00    -0.200 F 
ATOM     81  C   UNL A   1      34.836  33.728  30.451  1.00  0.00     0.200 A 
ATOM     82  F   UNL A   1      35.518  34.789  28.455  1.00  0.00    -0.200 F 
ATOM     83  F   UNL A   1      33.650  34.349  30.395  1.00  0.00    -0.200 F 
ENDBRANCH  49  73
BRANCH  61  84
ATOM     84  C   UNL A   1      43.531  34.009  33.254  1.00  0.00     0.064 A 
ATOM     85  C   UNL A   1      43.471  34.143  34.649  1.00  0.00     0.173 A 
ATOM     86  C   UNL A   1      44.103  35.055  32.516  1.00  0.00     0.173 A 
ATOM     87  F   UNL A   1      42.919  33.176  35.397  1.00  0.00    -0.203 F 
ATOM     88  C   UNL A   1      43.936  35.296  35.276  1.00  0.00     0.198 A 
ATOM     89  C   UNL A   1      44.593  36.194  33.149  1.00  0.00     0.198 A 
ATOM     90  F   UNL A   1      44.189  34.972  31.179  1.00  0.00    -0.203 F 
ATOM     91  F   UNL A   1      43.818  35.427  36.605  1.00  0.00    -0.200 F 
ATOM     92  C   UNL A   1      44.500  36.317  34.526  1.00  0.00     0.200 A 
ATOM     93  F   UNL A   1      45.148  37.174  32.424  1.00  0.00    -0.200 F 
ATOM     94  F   UNL A   1      44.946  37.426  35.132  1.00  0.00    -0.200 F 
ENDBRANCH  61  84
ENDBRANCH  35  36
ENDBRANCH  27  30
ENDBRANCH  25  26
ENDBRANCH   1  25
TORSDOF 12
ENDMDL
MODEL 3
REMARK VINA RESULT:     -10.4      0.374      1.713
REMARK SMILES CC(=O)Nc1cccc(-c2ccc(F)c(C(=O)NCCCNC(=O)c3ccc(-c4c5nc(c(-c6c(F)c(F)c(F)c(F)c6F)c6ccc([nH]6)c(-c6c(F)c(F)c(F)c(F)c6F)c6nc(c(-c7c(F)c(F)c(F)c(F)c7F)c7ccc4[nH]7)C=C6)C=C5)cc3)c2)c1
REMARK SMILES IDX 20 1 19 2 18 3 16 4 17 5 15 7 10 8 11 9 88 10 12 11 13 12
REMARK SMILES IDX 14 13 9 14 5 15 6 16 89 17 7 18 8 19 4 20 1 21 2 22 3 23
REMARK SMILES IDX 21 25 22 26 23 27 24 29 25 30 26 31 87 32 27 33 86 34 28 35
REMARK SMILES IDX 29 36 30 37 80 38 31 39 85 40 79 41 81 42 32 43 84 44 78 45
REMARK SMILES IDX 77 46 33 48 65 49 45 50 64 51 46 52 49 53 63 54 82 55 47 56
REMARK SMILES IDX 48 57 62 59 83 60 50 61 34 62 35 63 43 64 36 65 37 66 41 67
REMARK SMILES IDX 44 68 38 69 39 70 42 71 40 72 66 73 67 74 75 75 68 76 69 77
REMARK SMILES IDX 73 78 76 79 70 80 71 81 74 82 72 83 51 84 52 85 60 86 53 87
REMARK SMILES IDX 54 88 58 89 61 90 55 91 56 92 59 93 57 94
REMARK H PARENT 18 6 4 24 22 28 81 47 49 58
REMARK Flexibility Score: inf
ROOT
ATOM      1  C   UNL A   1      33.904  33.688  28.844  1.00  0.00     0.042 C 
ENDROOT
BRANCH   1   2
ATOM      2  C   UNL A   1      34.799  33.694  30.082  1.00  0.00     0.118 C 
BRANCH   2   3
ATOM      3  N   UNL A   1      34.063  33.391  31.300  1.00  0.00    -0.352 N 
ATOM      4  C   UNL A   1      34.361  33.052  32.598  1.00  0.00     0.254 C 
ATOM      5  O   UNL A   1      33.376  32.929  33.328  1.00  0.00    -0.269 OA
ATOM      6  H   UNL A   1      33.092  33.441  31.155  1.00  0.00     0.163 HD
BRANCH   4   7
ATOM      7  C   UNL A   1      35.727  32.833  33.161  1.00  0.00     0.076 A 
ATOM      8  C   UNL A   1      37.745  31.471  33.569  1.00  0.00    -0.017 A 
ATOM      9  C   UNL A   1      38.320  32.524  34.282  1.00  0.00     0.012 A 
ATOM     10  C   UNL A   1      36.451  31.649  33.032  1.00  0.00     0.025 A 
ATOM     11  C   UNL A   1      37.614  33.716  34.443  1.00  0.00     0.041 A 
ATOM     12  C   UNL A   1      36.338  33.864  33.888  1.00  0.00     0.135 A 
ATOM     13  F   UNL A   1      35.720  35.035  34.107  1.00  0.00    -0.206 F 
BRANCH   8  14
ATOM     14  C   UNL A   1      38.377  30.148  33.424  1.00  0.00    -0.016 A 
ATOM     15  C   UNL A   1      40.428  28.827  33.207  1.00  0.00     0.041 A 
ATOM     16  C   UNL A   1      39.674  27.789  32.650  1.00  0.00     0.026 A 
ATOM     17  C   UNL A   1      39.771  29.995  33.597  1.00  0.00     0.034 A 
ATOM     18  C   UNL A   1      38.286  27.894  32.538  1.00  0.00     0.003 A 
ATOM     19  C   UNL A   1      37.641  29.065  32.927  1.00  0.00     0.009 A 
BRANCH  15  20
ATOM     20  N   UNL A   1      41.822  28.656  33.227  1.00  0.00    -0.326 N 
ATOM     21  C   UNL A   1      42.168  27.228  35.245  1.00  0.00     0.114 C 
ATOM     22  C   UNL A   1      42.677  28.099  34.132  1.00  0.00     0.221 C 
ATOM     23  O   UNL A   1      43.888  28.281  33.986  1.00  0.00    -0.275 OA
ATOM     24  H   UNL A   1      42.274  29.009  32.426  1.00  0.00     0.169 HD
ENDBRANCH  15  20
ENDBRANCH   8  14
ENDBRANCH   4   7
ENDBRANCH   2   3
ENDBRANCH   1   2
BRANCH   1  25
ATOM     25  C   UNL A   1      34.452  32.812  27.715  1.00  0.00     0.118 C 
BRANCH  25  26
ATOM     26  N   UNL A   1      33.838  31.488  27.701  1.00  0.00    -0.352 N 
ATOM     27  C   UNL A   1      34.376  30.229  27.719  1.00  0.00     0.251 C 
ATOM     28  H   UNL A   1      32.855  31.503  27.673  1.00  0.00     0.163 HD
ATOM     29  O   UNL A   1      33.664  29.276  27.420  1.00  0.00    -0.269 OA
BRANCH  27  30
ATOM     30  C   UNL A   1      35.783  29.991  28.110  1.00  0.00     0.039 A 
ATOM     31  C   UNL A   1      36.775  30.085  27.127  1.00  0.00     0.014 A 
ATOM     32  C   UNL A   1      36.123  29.569  29.397  1.00  0.00     0.014 A 
ATOM     33  C   UNL A   1      38.103  29.788  27.441  1.00  0.00     0.010 A 
ATOM     34  C   UNL A   1      37.458  29.356  29.733  1.00  0.00     0.010 A 
ATOM     35  C   UNL A   1      38.457  29.438  28.754  1.00  0.00    -0.014 A 
BRANCH  35  36
ATOM     36  C   UNL A   1      39.862  29.113  29.108  1.00  0.00     0.031 A 
ATOM     37  C   UNL A   1      40.685  30.089  29.904  1.00  0.00     0.074 A 
ATOM     38  C   UNL A   1      40.411  27.966  28.665  1.00  0.00     0.049 A 
ATOM     39  N   UNL A   1      41.944  30.018  30.258  1.00  0.00    -0.248 NA
ATOM     40  C   UNL A   1      40.015  31.329  30.330  1.00  0.00     0.031 C 
ATOM     41  C   UNL A   1      39.733  26.969  27.835  1.00  0.00     0.029 A 
ATOM     42  N   UNL A   1      41.670  27.451  28.844  1.00  0.00    -0.354 N 
ATOM     43  C   UNL A   1      42.220  31.209  30.918  1.00  0.00     0.074 A 
ATOM     44  C   UNL A   1      41.015  32.007  30.874  1.00  0.00     0.031 C 
ATOM     45  C   UNL A   1      40.575  25.950  27.597  1.00  0.00     0.029 A 
ATOM     46  C   UNL A   1      41.857  26.236  28.232  1.00  0.00     0.049 A 
ATOM     47  H   UNL A   1      42.371  27.908  29.362  1.00  0.00     0.167 HD
ATOM     48  C   UNL A   1      43.367  31.592  31.529  1.00  0.00     0.037 A 
ATOM     49  C   UNL A   1      42.944  25.442  28.192  1.00  0.00     0.037 A 
ATOM     50  C   UNL A   1      44.548  30.774  31.613  1.00  0.00     0.049 A 
ATOM     51  C   UNL A   1      44.186  25.865  28.926  1.00  0.00     0.074 A 
ATOM     52  C   UNL A   1      45.738  31.038  32.268  1.00  0.00     0.029 A 
ATOM     53  N   UNL A   1      44.682  29.523  31.029  1.00  0.00    -0.354 N 
ATOM     54  N   UNL A   1      44.413  26.964  29.605  1.00  0.00    -0.248 NA
ATOM     55  C   UNL A   1      45.318  24.929  28.903  1.00  0.00     0.031 C 
ATOM     56  C   UNL A   1      46.605  29.961  32.051  1.00  0.00     0.029 A 
ATOM     57  C   UNL A   1      45.938  29.007  31.299  1.00  0.00     0.049 A 
ATOM     58  H   UNL A   1      43.986  29.070  30.499  1.00  0.00     0.167 HD
ATOM     59  C   UNL A   1      45.699  26.841  30.111  1.00  0.00     0.074 A 
ATOM     60  C   UNL A   1      46.196  25.551  29.677  1.00  0.00     0.031 C 
ATOM     61  C   UNL A   1      46.408  27.717  30.864  1.00  0.00     0.037 A 
BRANCH  48  62
ATOM     62  C   UNL A   1      43.395  32.952  32.165  1.00  0.00     0.064 A 
ATOM     63  C   UNL A   1      42.979  33.156  33.489  1.00  0.00     0.173 A 
ATOM     64  C   UNL A   1      43.872  34.062  31.451  1.00  0.00     0.173 A 
ATOM     65  F   UNL A   1      42.502  32.131  34.211  1.00  0.00    -0.203 F 
ATOM     66  C   UNL A   1      43.011  34.423  34.065  1.00  0.00     0.198 A 
ATOM     67  C   UNL A   1      43.932  35.323  32.040  1.00  0.00     0.198 A 
ATOM     68  F   UNL A   1      44.288  33.923  30.183  1.00  0.00    -0.203 F 
ATOM     69  F   UNL A   1      42.560  34.601  35.314  1.00  0.00    -0.200 F 
ATOM     70  C   UNL A   1      43.493  35.504  33.343  1.00  0.00     0.200 A 
ATOM     71  F   UNL A   1      44.410  36.365  31.345  1.00  0.00    -0.200 F 
ATOM     72  F   UNL A   1      43.530  36.722  33.901  1.00  0.00    -0.200 F 
ENDBRANCH  48  62
BRANCH  49  73
ATOM     73  C   UNL A   1      42.888  24.146  27.468  1.00  0.00     0.064 A 
ATOM     74  C   UNL A   1      43.216  24.069  26.107  1.00  0.00     0.173 A 
ATOM     75  C   UNL A   1      42.507  22.963  28.117  1.00  0.00     0.173 A 
ATOM     76  F   UNL A   1      43.570  25.178  25.441  1.00  0.00    -0.203 F 
ATOM     77  C   UNL A   1      43.143  22.862  25.416  1.00  0.00     0.198 A 
ATOM     78  C   UNL A   1      42.460  21.751  27.431  1.00  0.00     0.198 A 
ATOM     79  F   UNL A   1      42.193  22.982  29.420  1.00  0.00    -0.203 F 
ATOM     80  F   UNL A   1      43.417  22.826  24.105  1.00  0.00    -0.200 F 
ATOM     81  C   UNL A   1      42.769  21.703  26.080  1.00  0.00     0.200 A 
ATOM     82  F   UNL A   1      42.114  20.630  28.077  1.00  0.00    -0.200 F 
ATOM     83  F   UNL A   1      42.701  20.542  25.415  1.00  0.00    -0.200 F 
ENDBRANCH  49  73
BRANCH  61  84
ATOM     84  C   UNL A   1      47.781  27.291  31.293  1.00  0.00     0.064 A 
ATOM     85  C   UNL A   1      47.991  26.567  32.476  1.00  0.00     0.173 A 
ATOM     86  C   UNL A   1      48.899  27.597  30.502  1.00  0.00     0.173 A 
ATOM     87  F   UNL A   1      46.955  26.264  33.274  1.00  0.00    -0.203 F 
ATOM     88  C   UNL A   1      49.273  26.194  32.869  1.00  0.00     0.198 A 
ATOM     89  C   UNL A   1      50.177  27.197  30.883  1.00  0.00     0.198 A 
ATOM     90  F   UNL A   1      48.750  28.281  29.358  1.00  0.00    -0.203 F 
ATOM     91  F   UNL A   1      49.455  25.552  34.030  1.00  0.00    -0.200 F 
ATOM     92  C   UNL A   1      50.363  26.505  32.070  1.00  0.00     0.200 A 
ATOM     93  F   UNL A   1      51.227  27.488  30.104  1.00  0.00    -0.200 F 
ATOM     94  F   UNL A   1      51.597  26.146  32.449  1.00  0.00    -0.200 F 
ENDBRANCH  61  84
ENDBRANCH  35  36
ENDBRANCH  27  30
ENDBRANCH  25  26
ENDBRANCH   1  25
TORSDOF 12
ENDMDL
