MODEL 1
REMARK VINA RESULT:     -11.8      0.000      0.000
REMARK SMILES C[C@H]1CN([C@@H](C(=O)NCCCNC(=O)c2ccc(-c3c4nc(c(-c5c(F)c(F)c(F)c(F)c5F)c5ccc([nH]5)c(-c5c(F)c(F)c(F)c(F)c5F)c5nc(c(-c6c(F)c(F)c(F)c(F)c6F)c6ccc3[nH]6)C=C5)C=C4)cc2)C(C)(C)C)S(=O)(=O)C1
REMARK SMILES IDX 10 1 9 2 8 3 6 4 7 5 5 7 4 8 1 9 2 10 3 11 85 12 82 13 83 14
REMARK SMILES IDX 84 15 78 16 79 17 80 18 81 19 11 20 12 21 13 22 14 24 15 25
REMARK SMILES IDX 16 26 77 27 17 28 76 29 18 30 19 31 20 32 70 33 21 34 75 35
REMARK SMILES IDX 69 36 71 37 22 38 74 39 68 40 67 41 23 43 55 44 35 45 54 46
REMARK SMILES IDX 36 47 39 48 53 49 72 50 37 51 38 52 52 54 73 55 40 56 24 57
REMARK SMILES IDX 25 58 33 59 26 60 27 61 31 62 34 63 28 64 29 65 32 66 30 67
REMARK SMILES IDX 56 68 57 69 65 70 58 71 59 72 63 73 66 74 60 75 61 76 64 77
REMARK SMILES IDX 62 78 41 79 42 80 50 81 43 82 44 83 48 84 51 85 45 86 46 87
REMARK SMILES IDX 49 88 47 89
REMARK H PARENT 8 6 12 23 71 42 39 53
REMARK Flexibility Score: inf
ROOT
ATOM      1  C   UNL A   1      31.935  28.784  26.442  1.00  0.00     0.042 C 
ENDROOT
BRANCH   1   2
ATOM      2  C   UNL A   1      32.546  27.444  26.897  1.00  0.00     0.117 C 
BRANCH   2   3
ATOM      3  N   UNL A   1      31.611  26.323  26.932  1.00  0.00    -0.355 N 
ATOM      4  C   UNL A   1      31.622  25.027  26.484  1.00  0.00     0.238 C 
ATOM      5  O   UNL A   1      30.626  24.371  26.798  1.00  0.00    -0.273 OA
ATOM      6  H   UNL A   1      30.768  26.554  27.386  1.00  0.00     0.163 HD
BRANCH   4   7
ATOM      7  C   UNL A   1      32.791  24.431  25.664  1.00  0.00     0.167 C 
BRANCH   7   8
ATOM      8  N   UNL A   1      32.575  24.446  24.176  1.00  0.00    -0.189 NA
ATOM      9  C   UNL A   1      33.509  27.250  23.078  1.00  0.00     0.010 C 
ATOM     10  C   UNL A   1      33.441  25.870  22.405  1.00  0.00     0.017 C 
ATOM     11  C   UNL A   1      33.748  24.663  23.314  1.00  0.00     0.107 C 
ATOM     12  C   UNL A   1      32.021  25.586  21.931  1.00  0.00     0.159 C 
ATOM     13  S   UNL A   1      31.176  25.024  23.405  1.00  0.00     0.215 S 
ATOM     14  O   UNL A   1      30.353  23.898  23.043  1.00  0.00    -0.212 OA
ATOM     15  O   UNL A   1      30.675  26.186  24.102  1.00  0.00    -0.212 OA
ENDBRANCH   7   8
BRANCH   7  16
ATOM     16  C   UNL A   1      33.326  23.044  26.220  1.00  0.00    -0.013 C 
ATOM     17  C   UNL A   1      32.891  21.904  25.269  1.00  0.00     0.013 C 
ATOM     18  C   UNL A   1      34.876  23.046  26.233  1.00  0.00     0.013 C 
ATOM     19  C   UNL A   1      32.886  22.663  27.649  1.00  0.00     0.013 C 
ENDBRANCH   7  16
ENDBRANCH   4   7
ENDBRANCH   2   3
ENDBRANCH   1   2
BRANCH   1  20
ATOM     20  C   UNL A   1      32.886  29.778  25.778  1.00  0.00     0.118 C 
BRANCH  20  21
ATOM     21  N   UNL A   1      32.633  31.135  26.211  1.00  0.00    -0.352 N 
ATOM     22  C   UNL A   1      33.254  31.871  27.190  1.00  0.00     0.251 C 
ATOM     23  H   UNL A   1      31.908  31.599  25.734  1.00  0.00     0.163 HD
ATOM     24  O   UNL A   1      32.698  32.886  27.604  1.00  0.00    -0.269 OA
BRANCH  22  25
ATOM     25  C   UNL A   1      34.573  31.483  27.760  1.00  0.00     0.039 A 
ATOM     26  C   UNL A   1      34.715  30.180  28.250  1.00  0.00     0.014 A 
ATOM     27  C   UNL A   1      35.622  32.392  27.933  1.00  0.00     0.014 A 
ATOM     28  C   UNL A   1      35.887  29.794  28.908  1.00  0.00     0.010 A 
ATOM     29  C   UNL A   1      36.825  31.984  28.530  1.00  0.00     0.010 A 
ATOM     30  C   UNL A   1      36.960  30.690  29.053  1.00  0.00    -0.014 A 
BRANCH  30  31
ATOM     31  C   UNL A   1      38.189  30.270  29.786  1.00  0.00     0.031 A 
ATOM     32  C   UNL A   1      38.433  30.717  31.205  1.00  0.00     0.074 A 
ATOM     33  C   UNL A   1      39.084  29.462  29.182  1.00  0.00     0.049 A 
ATOM     34  N   UNL A   1      39.411  30.399  32.019  1.00  0.00    -0.248 NA
ATOM     35  C   UNL A   1      37.460  31.655  31.785  1.00  0.00     0.031 C 
ATOM     36  C   UNL A   1      38.989  28.984  27.804  1.00  0.00     0.029 A 
ATOM     37  N   UNL A   1      40.241  28.890  29.654  1.00  0.00    -0.354 N 
ATOM     38  C   UNL A   1      39.171  31.096  33.198  1.00  0.00     0.074 A 
ATOM     39  C   UNL A   1      37.989  31.901  32.974  1.00  0.00     0.031 C 
ATOM     40  C   UNL A   1      40.021  28.163  27.551  1.00  0.00     0.029 A 
ATOM     41  C   UNL A   1      40.870  28.083  28.737  1.00  0.00     0.049 A 
ATOM     42  H   UNL A   1      40.587  29.044  30.563  1.00  0.00     0.167 HD
ATOM     43  C   UNL A   1      39.855  31.053  34.368  1.00  0.00     0.037 A 
ATOM     44  C   UNL A   1      42.001  27.358  28.836  1.00  0.00     0.037 A 
ATOM     45  C   UNL A   1      41.027  30.245  34.594  1.00  0.00     0.049 A 
ATOM     46  C   UNL A   1      42.753  27.341  30.142  1.00  0.00     0.074 A 
ATOM     47  C   UNL A   1      41.766  30.101  35.757  1.00  0.00     0.029 A 
ATOM     48  N   UNL A   1      41.639  29.450  33.636  1.00  0.00    -0.354 N 
ATOM     49  N   UNL A   1      42.474  27.950  31.268  1.00  0.00    -0.248 NA
ATOM     50  C   UNL A   1      43.971  26.521  30.190  1.00  0.00     0.031 C 
ATOM     51  C   UNL A   1      42.858  29.271  35.485  1.00  0.00     0.029 A 
ATOM     52  C   UNL A   1      42.760  28.836  34.173  1.00  0.00     0.049 A 
ATOM     53  H   UNL A   1      41.324  29.340  32.709  1.00  0.00     0.167 HD
ATOM     54  C   UNL A   1      43.458  27.560  32.168  1.00  0.00     0.074 A 
ATOM     55  C   UNL A   1      44.331  26.647  31.460  1.00  0.00     0.031 C 
ATOM     56  C   UNL A   1      43.620  27.922  33.464  1.00  0.00     0.037 A 
BRANCH  43  57
ATOM     57  C   UNL A   1      39.359  31.910  35.501  1.00  0.00     0.064 A 
ATOM     58  C   UNL A   1      38.476  31.412  36.473  1.00  0.00     0.173 A 
ATOM     59  C   UNL A   1      39.805  33.233  35.642  1.00  0.00     0.173 A 
ATOM     60  F   UNL A   1      38.012  30.156  36.384  1.00  0.00    -0.203 F 
ATOM     61  C   UNL A   1      38.036  32.214  37.523  1.00  0.00     0.198 A 
ATOM     62  C   UNL A   1      39.390  34.021  36.715  1.00  0.00     0.198 A 
ATOM     63  F   UNL A   1      40.656  33.760  34.750  1.00  0.00    -0.203 F 
ATOM     64  F   UNL A   1      37.153  31.731  38.409  1.00  0.00    -0.200 F 
ATOM     65  C   UNL A   1      38.500  33.515  37.648  1.00  0.00     0.200 A 
ATOM     66  F   UNL A   1      39.854  35.272  36.842  1.00  0.00    -0.200 F 
ATOM     67  F   UNL A   1      38.082  34.282  38.664  1.00  0.00    -0.200 F 
ENDBRANCH  43  57
BRANCH  44  68
ATOM     68  C   UNL A   1      42.481  26.564  27.673  1.00  0.00     0.064 A 
ATOM     69  C   UNL A   1      42.006  25.267  27.432  1.00  0.00     0.173 A 
ATOM     70  C   UNL A   1      43.435  27.083  26.784  1.00  0.00     0.173 A 
ATOM     71  F   UNL A   1      41.108  24.718  28.264  1.00  0.00    -0.203 F 
ATOM     72  C   UNL A   1      42.486  24.509  26.365  1.00  0.00     0.198 A 
ATOM     73  C   UNL A   1      43.888  26.337  25.698  1.00  0.00     0.198 A 
ATOM     74  F   UNL A   1      43.918  28.321  26.963  1.00  0.00    -0.203 F 
ATOM     75  F   UNL A   1      42.054  23.252  26.192  1.00  0.00    -0.200 F 
ATOM     76  C   UNL A   1      43.421  25.047  25.495  1.00  0.00     0.200 A 
ATOM     77  F   UNL A   1      44.777  26.869  24.848  1.00  0.00    -0.200 F 
ATOM     78  F   UNL A   1      43.879  24.322  24.467  1.00  0.00    -0.200 F 
ENDBRANCH  44  68
BRANCH  56  79
ATOM     79  C   UNL A   1      44.756  27.290  34.222  1.00  0.00     0.064 A 
ATOM     80  C   UNL A   1      44.613  26.069  34.898  1.00  0.00     0.173 A 
ATOM     81  C   UNL A   1      46.014  27.912  34.255  1.00  0.00     0.173 A 
ATOM     82  F   UNL A   1      43.428  25.437  34.910  1.00  0.00    -0.203 F 
ATOM     83  C   UNL A   1      45.673  25.517  35.613  1.00  0.00     0.198 A 
ATOM     84  C   UNL A   1      47.083  27.338  34.938  1.00  0.00     0.198 A 
ATOM     85  F   UNL A   1      46.212  29.077  33.618  1.00  0.00    -0.203 F 
ATOM     86  F   UNL A   1      45.493  24.385  36.307  1.00  0.00    -0.200 F 
ATOM     87  C   UNL A   1      46.909  26.148  35.627  1.00  0.00     0.200 A 
ATOM     88  F   UNL A   1      48.280  27.941  34.935  1.00  0.00    -0.200 F 
ATOM     89  F   UNL A   1      47.928  25.614  36.314  1.00  0.00    -0.200 F 
ENDBRANCH  56  79
ENDBRANCH  30  31
ENDBRANCH  22  25
ENDBRANCH  20  21
ENDBRANCH   1  20
TORSDOF 12
ENDMDL
MODEL 2
REMARK VINA RESULT:     -11.7      0.140      1.699
REMARK SMILES C[C@H]1CN([C@@H](C(=O)NCCCNC(=O)c2ccc(-c3c4nc(c(-c5c(F)c(F)c(F)c(F)c5F)c5ccc([nH]5)c(-c5c(F)c(F)c(F)c(F)c5F)c5nc(c(-c6c(F)c(F)c(F)c(F)c6F)c6ccc3[nH]6)C=C5)C=C4)cc2)C(C)(C)C)S(=O)(=O)C1
REMARK SMILES IDX 10 1 9 2 8 3 6 4 7 5 5 7 4 8 1 9 2 10 3 11 85 12 82 13 83 14
REMARK SMILES IDX 84 15 78 16 79 17 80 18 81 19 11 20 12 21 13 22 14 24 15 25
REMARK SMILES IDX 16 26 77 27 17 28 76 29 18 30 19 31 20 32 70 33 21 34 75 35
REMARK SMILES IDX 69 36 71 37 22 38 74 39 68 40 67 41 23 43 55 44 35 45 54 46
REMARK SMILES IDX 36 47 39 48 53 49 72 50 37 51 38 52 52 54 73 55 40 56 24 57
REMARK SMILES IDX 25 58 33 59 26 60 27 61 31 62 34 63 28 64 29 65 32 66 30 67
REMARK SMILES IDX 56 68 57 69 65 70 58 71 59 72 63 73 66 74 60 75 61 76 64 77
REMARK SMILES IDX 62 78 41 79 42 80 50 81 43 82 44 83 48 84 51 85 45 86 46 87
REMARK SMILES IDX 49 88 47 89
REMARK H PARENT 8 6 12 23 71 42 39 53
REMARK Flexibility Score: inf
ROOT
ATOM      1  C   UNL A   1      31.818  28.833  26.536  1.00  0.00     0.042 C 
ENDROOT
BRANCH   1   2
ATOM      2  C   UNL A   1      32.364  27.501  27.085  1.00  0.00     0.117 C 
BRANCH   2   3
ATOM      3  N   UNL A   1      31.440  26.374  26.992  1.00  0.00    -0.355 N 
ATOM      4  C   UNL A   1      31.477  25.123  26.428  1.00  0.00     0.238 C 
ATOM      5  O   UNL A   1      30.479  24.434  26.653  1.00  0.00    -0.273 OA
ATOM      6  H   UNL A   1      30.582  26.556  27.441  1.00  0.00     0.163 HD
BRANCH   4   7
ATOM      7  C   UNL A   1      32.673  24.615  25.591  1.00  0.00     0.167 C 
BRANCH   7   8
ATOM      8  N   UNL A   1      32.453  24.658  24.105  1.00  0.00    -0.189 NA
ATOM      9  C   UNL A   1      33.541  27.416  23.032  1.00  0.00     0.010 C 
ATOM     10  C   UNL A   1      33.392  26.050  22.345  1.00  0.00     0.017 C 
ATOM     11  C   UNL A   1      33.633  24.818  23.239  1.00  0.00     0.107 C 
ATOM     12  C   UNL A   1      31.956  25.852  21.874  1.00  0.00     0.159 C 
ATOM     13  S   UNL A   1      31.087  25.324  23.346  1.00  0.00     0.215 S 
ATOM     14  O   UNL A   1      30.199  24.250  22.976  1.00  0.00    -0.212 OA
ATOM     15  O   UNL A   1      30.655  26.504  24.057  1.00  0.00    -0.212 OA
ENDBRANCH   7   8
BRANCH   7  16
ATOM     16  C   UNL A   1      33.284  23.243  26.108  1.00  0.00    -0.013 C 
ATOM     17  C   UNL A   1      34.828  23.323  26.084  1.00  0.00     0.013 C 
ATOM     18  C   UNL A   1      32.874  23.011  27.585  1.00  0.00     0.013 C 
ATOM     19  C   UNL A   1      32.862  21.973  25.341  1.00  0.00     0.013 C 
ENDBRANCH   7  16
ENDBRANCH   4   7
ENDBRANCH   2   3
ENDBRANCH   1   2
BRANCH   1  20
ATOM     20  C   UNL A   1      32.834  29.771  25.887  1.00  0.00     0.118 C 
BRANCH  20  21
ATOM     21  N   UNL A   1      32.619  31.148  26.277  1.00  0.00    -0.352 N 
ATOM     22  C   UNL A   1      33.274  31.903  27.218  1.00  0.00     0.251 C 
ATOM     23  H   UNL A   1      31.896  31.612  25.796  1.00  0.00     0.163 HD
ATOM     24  O   UNL A   1      32.748  32.944  27.606  1.00  0.00    -0.269 OA
BRANCH  22  25
ATOM     25  C   UNL A   1      34.594  31.506  27.779  1.00  0.00     0.039 A 
ATOM     26  C   UNL A   1      34.726  30.206  28.280  1.00  0.00     0.014 A 
ATOM     27  C   UNL A   1      35.655  32.404  27.932  1.00  0.00     0.014 A 
ATOM     28  C   UNL A   1      35.899  29.813  28.931  1.00  0.00     0.010 A 
ATOM     29  C   UNL A   1      36.859  31.988  28.520  1.00  0.00     0.010 A 
ATOM     30  C   UNL A   1      36.984  30.697  29.055  1.00  0.00    -0.014 A 
BRANCH  30  31
ATOM     31  C   UNL A   1      38.216  30.271  29.780  1.00  0.00     0.031 A 
ATOM     32  C   UNL A   1      38.477  30.725  31.194  1.00  0.00     0.074 A 
ATOM     33  C   UNL A   1      39.097  29.449  29.174  1.00  0.00     0.049 A 
ATOM     34  N   UNL A   1      39.459  30.403  32.001  1.00  0.00    -0.248 NA
ATOM     35  C   UNL A   1      37.519  31.678  31.775  1.00  0.00     0.031 C 
ATOM     36  C   UNL A   1      38.985  28.962  27.800  1.00  0.00     0.029 A 
ATOM     37  N   UNL A   1      40.252  28.869  29.639  1.00  0.00    -0.354 N 
ATOM     38  C   UNL A   1      39.237  31.111  33.177  1.00  0.00     0.074 A 
ATOM     39  C   UNL A   1      38.062  31.926  32.957  1.00  0.00     0.031 C 
ATOM     40  C   UNL A   1      40.006  28.129  27.544  1.00  0.00     0.029 A 
ATOM     41  C   UNL A   1      40.865  28.049  28.723  1.00  0.00     0.049 A 
ATOM     42  H   UNL A   1      40.608  29.026  30.544  1.00  0.00     0.167 HD
ATOM     43  C   UNL A   1      39.932  31.070  34.340  1.00  0.00     0.037 A 
ATOM     44  C   UNL A   1      41.990  27.313  28.817  1.00  0.00     0.037 A 
ATOM     45  C   UNL A   1      41.098  30.252  34.562  1.00  0.00     0.049 A 
ATOM     46  C   UNL A   1      42.753  27.298  30.116  1.00  0.00     0.074 A 
ATOM     47  C   UNL A   1      41.846  30.109  35.719  1.00  0.00     0.029 A 
ATOM     48  N   UNL A   1      41.693  29.443  33.604  1.00  0.00    -0.354 N 
ATOM     49  N   UNL A   1      42.491  27.918  31.240  1.00  0.00    -0.248 NA
ATOM     50  C   UNL A   1      43.964  26.466  30.159  1.00  0.00     0.031 C 
ATOM     51  C   UNL A   1      42.927  29.266  35.443  1.00  0.00     0.029 A 
ATOM     52  C   UNL A   1      42.812  28.822  34.136  1.00  0.00     0.049 A 
ATOM     53  H   UNL A   1      41.368  29.330  32.681  1.00  0.00     0.167 HD
ATOM     54  C   UNL A   1      43.479  27.524  32.133  1.00  0.00     0.074 A 
ATOM     55  C   UNL A   1      44.336  26.598  31.424  1.00  0.00     0.031 C 
ATOM     56  C   UNL A   1      43.656  27.895  33.426  1.00  0.00     0.037 A 
BRANCH  43  57
ATOM     57  C   UNL A   1      39.454  31.940  35.472  1.00  0.00     0.064 A 
ATOM     58  C   UNL A   1      39.855  33.280  35.595  1.00  0.00     0.173 A 
ATOM     59  C   UNL A   1      38.549  31.440  36.421  1.00  0.00     0.173 A 
ATOM     60  F   UNL A   1      40.724  33.808  34.720  1.00  0.00    -0.203 F 
ATOM     61  C   UNL A   1      39.394  34.074  36.641  1.00  0.00     0.198 A 
ATOM     62  C   UNL A   1      38.062  32.250  37.446  1.00  0.00     0.198 A 
ATOM     63  F   UNL A   1      38.123  30.171  36.349  1.00  0.00    -0.203 F 
ATOM     64  F   UNL A   1      39.832  35.336  36.767  1.00  0.00    -0.200 F 
ATOM     65  C   UNL A   1      38.491  33.562  37.561  1.00  0.00     0.200 A 
ATOM     66  F   UNL A   1      37.177  31.756  38.323  1.00  0.00    -0.200 F 
ATOM     67  F   UNL A   1      38.041  34.332  38.562  1.00  0.00    -0.200 F 
ENDBRANCH  43  57
BRANCH  44  68
ATOM     68  C   UNL A   1      42.451  26.506  27.655  1.00  0.00     0.064 A 
ATOM     69  C   UNL A   1      41.954  25.216  27.424  1.00  0.00     0.173 A 
ATOM     70  C   UNL A   1      43.408  27.005  26.758  1.00  0.00     0.173 A 
ATOM     71  F   UNL A   1      41.052  24.684  28.263  1.00  0.00    -0.203 F 
ATOM     72  C   UNL A   1      42.416  24.445  26.358  1.00  0.00     0.198 A 
ATOM     73  C   UNL A   1      43.843  26.247  25.674  1.00  0.00     0.198 A 
ATOM     74  F   UNL A   1      43.911  28.236  26.929  1.00  0.00    -0.203 F 
ATOM     75  F   UNL A   1      41.964  23.194  26.194  1.00  0.00    -0.200 F 
ATOM     76  C   UNL A   1      43.355  24.964  25.480  1.00  0.00     0.200 A 
ATOM     77  F   UNL A   1      44.736  26.761  24.816  1.00  0.00    -0.200 F 
ATOM     78  F   UNL A   1      43.796  24.226  24.453  1.00  0.00    -0.200 F 
ENDBRANCH  44  68
BRANCH  56  79
ATOM     79  C   UNL A   1      44.793  27.256  34.177  1.00  0.00     0.064 A 
ATOM     80  C   UNL A   1      46.066  27.842  34.242  1.00  0.00     0.173 A 
ATOM     81  C   UNL A   1      44.596  26.045  34.858  1.00  0.00     0.173 A 
ATOM     82  F   UNL A   1      46.314  28.995  33.599  1.00  0.00    -0.203 F 
ATOM     83  C   UNL A   1      47.109  27.219  34.923  1.00  0.00     0.198 A 
ATOM     84  C   UNL A   1      45.630  25.443  35.571  1.00  0.00     0.198 A 
ATOM     85  F   UNL A   1      43.397  25.443  34.838  1.00  0.00    -0.203 F 
ATOM     86  F   UNL A   1      48.333  27.764  34.914  1.00  0.00    -0.200 F 
ATOM     87  C   UNL A   1      46.889  26.024  35.592  1.00  0.00     0.200 A 
ATOM     88  F   UNL A   1      45.410  24.298  36.231  1.00  0.00    -0.200 F 
ATOM     89  F   UNL A   1      47.893  25.426  36.249  1.00  0.00    -0.200 F 
ENDBRANCH  56  79
ENDBRANCH  30  31
ENDBRANCH  22  25
ENDBRANCH  20  21
ENDBRANCH   1  20
TORSDOF 12
ENDMDL
MODEL 3
REMARK VINA RESULT:     -11.6      1.456      2.412
REMARK SMILES C[C@H]1CN([C@@H](C(=O)NCCCNC(=O)c2ccc(-c3c4nc(c(-c5c(F)c(F)c(F)c(F)c5F)c5ccc([nH]5)c(-c5c(F)c(F)c(F)c(F)c5F)c5nc(c(-c6c(F)c(F)c(F)c(F)c6F)c6ccc3[nH]6)C=C5)C=C4)cc2)C(C)(C)C)S(=O)(=O)C1
REMARK SMILES IDX 10 1 9 2 8 3 6 4 7 5 5 7 4 8 1 9 2 10 3 11 85 12 82 13 83 14
REMARK SMILES IDX 84 15 78 16 79 17 80 18 81 19 11 20 12 21 13 22 14 24 15 25
REMARK SMILES IDX 16 26 77 27 17 28 76 29 18 30 19 31 20 32 70 33 21 34 75 35
REMARK SMILES IDX 69 36 71 37 22 38 74 39 68 40 67 41 23 43 55 44 35 45 54 46
REMARK SMILES IDX 36 47 39 48 53 49 72 50 37 51 38 52 52 54 73 55 40 56 24 57
REMARK SMILES IDX 25 58 33 59 26 60 27 61 31 62 34 63 28 64 29 65 32 66 30 67
REMARK SMILES IDX 56 68 57 69 65 70 58 71 59 72 63 73 66 74 60 75 61 76 64 77
REMARK SMILES IDX 62 78 41 79 42 80 50 81 43 82 44 83 48 84 51 85 45 86 46 87
REMARK SMILES IDX 49 88 47 89
REMARK H PARENT 8 6 12 23 71 42 39 53
REMARK Flexibility Score: inf
ROOT
ATOM      1  C   UNL A   1      32.586  28.114  25.710  1.00  0.00     0.042 C 
ENDROOT
BRANCH   1   2
ATOM      2  C   UNL A   1      33.363  26.788  25.601  1.00  0.00     0.117 C 
BRANCH   2   3
ATOM      3  N   UNL A   1      33.698  26.384  24.238  1.00  0.00    -0.355 N 
ATOM      4  C   UNL A   1      33.651  25.213  23.526  1.00  0.00     0.238 C 
ATOM      5  O   UNL A   1      33.963  25.326  22.338  1.00  0.00    -0.273 OA
ATOM      6  H   UNL A   1      34.041  27.134  23.700  1.00  0.00     0.163 HD
BRANCH   4   7
ATOM      7  C   UNL A   1      33.230  23.864  24.155  1.00  0.00     0.167 C 
BRANCH   7   8
ATOM      8  N   UNL A   1      34.264  22.779  24.044  1.00  0.00    -0.189 NA
ATOM      9  C   UNL A   1      35.003  21.826  26.957  1.00  0.00     0.010 C 
ATOM     10  C   UNL A   1      35.048  21.090  25.609  1.00  0.00     0.017 C 
ATOM     11  C   UNL A   1      33.937  21.458  24.605  1.00  0.00     0.107 C 
ATOM     12  C   UNL A   1      36.321  21.452  24.854  1.00  0.00     0.159 C 
ATOM     13  S   UNL A   1      35.943  23.030  24.099  1.00  0.00     0.215 S 
ATOM     14  O   UNL A   1      36.454  23.011  22.751  1.00  0.00    -0.212 OA
ATOM     15  O   UNL A   1      36.254  24.068  25.054  1.00  0.00    -0.212 OA
ENDBRANCH   7   8
BRANCH   7  16
ATOM     16  C   UNL A   1      31.765  23.397  23.756  1.00  0.00    -0.013 C 
ATOM     17  C   UNL A   1      31.853  22.225  22.750  1.00  0.00     0.013 C 
ATOM     18  C   UNL A   1      31.028  22.855  25.007  1.00  0.00     0.013 C 
ATOM     19  C   UNL A   1      30.844  24.475  23.149  1.00  0.00     0.013 C 
ENDBRANCH   7  16
ENDBRANCH   4   7
ENDBRANCH   2   3
ENDBRANCH   1   2
BRANCH   1  20
ATOM     20  C   UNL A   1      33.268  29.355  25.138  1.00  0.00     0.118 C 
BRANCH  20  21
ATOM     21  N   UNL A   1      32.794  30.569  25.769  1.00  0.00    -0.352 N 
ATOM     22  C   UNL A   1      33.235  31.191  26.911  1.00  0.00     0.251 C 
ATOM     23  H   UNL A   1      32.044  31.013  25.312  1.00  0.00     0.163 HD
ATOM     24  O   UNL A   1      32.511  32.034  27.437  1.00  0.00    -0.269 OA
BRANCH  22  25
ATOM     25  C   UNL A   1      34.553  30.881  27.527  1.00  0.00     0.039 A 
ATOM     26  C   UNL A   1      34.748  29.594  28.040  1.00  0.00     0.014 A 
ATOM     27  C   UNL A   1      35.548  31.846  27.718  1.00  0.00     0.014 A 
ATOM     28  C   UNL A   1      35.917  29.280  28.740  1.00  0.00     0.010 A 
ATOM     29  C   UNL A   1      36.750  31.511  28.357  1.00  0.00     0.010 A 
ATOM     30  C   UNL A   1      36.937  30.232  28.904  1.00  0.00    -0.014 A 
BRANCH  30  31
ATOM     31  C   UNL A   1      38.162  29.888  29.681  1.00  0.00     0.031 A 
ATOM     32  C   UNL A   1      38.366  30.417  31.078  1.00  0.00     0.074 A 
ATOM     33  C   UNL A   1      39.091  29.076  29.138  1.00  0.00     0.049 A 
ATOM     34  N   UNL A   1      39.336  30.171  31.925  1.00  0.00    -0.248 NA
ATOM     35  C   UNL A   1      37.355  31.357  31.588  1.00  0.00     0.031 C 
ATOM     36  C   UNL A   1      39.037  28.522  27.786  1.00  0.00     0.029 A 
ATOM     37  N   UNL A   1      40.254  28.563  29.660  1.00  0.00    -0.354 N 
ATOM     38  C   UNL A   1      39.053  30.923  33.061  1.00  0.00     0.074 A 
ATOM     39  C   UNL A   1      37.854  31.680  32.772  1.00  0.00     0.031 C 
ATOM     40  C   UNL A   1      40.096  27.719  27.596  1.00  0.00     0.029 A 
ATOM     41  C   UNL A   1      40.924  27.727  28.800  1.00  0.00     0.049 A 
ATOM     42  H   UNL A   1      40.578  28.776  30.566  1.00  0.00     0.167 HD
ATOM     43  C   UNL A   1      39.716  30.963  34.243  1.00  0.00     0.037 A 
ATOM     44  C   UNL A   1      42.072  27.042  28.959  1.00  0.00     0.037 A 
ATOM     45  C   UNL A   1      40.905  30.202  34.534  1.00  0.00     0.049 A 
ATOM     46  C   UNL A   1      42.799  27.116  30.277  1.00  0.00     0.074 A 
ATOM     47  C   UNL A   1      41.625  30.142  35.716  1.00  0.00     0.029 A 
ATOM     48  N   UNL A   1      41.558  29.375  33.631  1.00  0.00    -0.354 N 
ATOM     49  N   UNL A   1      42.481  27.776  31.363  1.00  0.00    -0.248 NA
ATOM     50  C   UNL A   1      44.038  26.335  30.391  1.00  0.00     0.031 C 
ATOM     51  C   UNL A   1      42.745  29.331  35.509  1.00  0.00     0.029 A 
ATOM     52  C   UNL A   1      42.684  28.823  34.221  1.00  0.00     0.049 A 
ATOM     53  H   UNL A   1      41.264  29.207  32.706  1.00  0.00     0.167 HD
ATOM     54  C   UNL A   1      43.457  27.463  32.300  1.00  0.00     0.074 A 
ATOM     55  C   UNL A   1      44.369  26.540  31.658  1.00  0.00     0.031 C 
ATOM     56  C   UNL A   1      43.583  27.899  33.578  1.00  0.00     0.037 A 
BRANCH  43  57
ATOM     57  C   UNL A   1      39.173  31.864  35.319  1.00  0.00     0.064 A 
ATOM     58  C   UNL A   1      38.359  31.375  36.353  1.00  0.00     0.173 A 
ATOM     59  C   UNL A   1      39.508  33.227  35.343  1.00  0.00     0.173 A 
ATOM     60  F   UNL A   1      38.002  30.082  36.377  1.00  0.00    -0.203 F 
ATOM     61  C   UNL A   1      37.875  32.220  37.348  1.00  0.00     0.198 A 
ATOM     62  C   UNL A   1      39.052  34.062  36.361  1.00  0.00     0.198 A 
ATOM     63  F   UNL A   1      40.291  33.749  34.388  1.00  0.00    -0.203 F 
ATOM     64  F   UNL A   1      37.057  31.738  38.295  1.00  0.00    -0.200 F 
ATOM     65  C   UNL A   1      38.228  33.561  37.357  1.00  0.00     0.200 A 
ATOM     66  F   UNL A   1      39.409  35.353  36.376  1.00  0.00    -0.200 F 
ATOM     67  F   UNL A   1      37.770  34.370  38.322  1.00  0.00    -0.200 F 
ENDBRANCH  43  57
BRANCH  44  68
ATOM     68  C   UNL A   1      42.597  26.201  27.849  1.00  0.00     0.064 A 
ATOM     69  C   UNL A   1      42.228  24.854  27.720  1.00  0.00     0.173 A 
ATOM     70  C   UNL A   1      43.489  26.725  26.900  1.00  0.00     0.173 A 
ATOM     71  F   UNL A   1      41.394  24.300  28.612  1.00  0.00    -0.203 F 
ATOM     72  C   UNL A   1      42.752  24.057  26.703  1.00  0.00     0.198 A 
ATOM     73  C   UNL A   1      43.984  25.936  25.864  1.00  0.00     0.198 A 
ATOM     74  F   UNL A   1      43.869  28.008  26.972  1.00  0.00    -0.203 F 
ATOM     75  F   UNL A   1      42.424  22.759  26.637  1.00  0.00    -0.200 F 
ATOM     76  C   UNL A   1      43.624  24.600  25.772  1.00  0.00     0.200 A 
ATOM     77  F   UNL A   1      44.811  26.471  24.955  1.00  0.00    -0.200 F 
ATOM     78  F   UNL A   1      44.123  23.836  24.792  1.00  0.00    -0.200 F 
ENDBRANCH  44  68
BRANCH  56  79
ATOM     79  C   UNL A   1      44.722  27.341  34.389  1.00  0.00     0.064 A 
ATOM     80  C   UNL A   1      45.975  27.969  34.445  1.00  0.00     0.173 A 
ATOM     81  C   UNL A   1      44.547  26.165  35.135  1.00  0.00     0.173 A 
ATOM     82  F   UNL A   1      46.202  29.090  33.741  1.00  0.00    -0.203 F 
ATOM     83  C   UNL A   1      47.021  27.419  35.183  1.00  0.00     0.198 A 
ATOM     84  C   UNL A   1      45.582  25.638  35.903  1.00  0.00     0.198 A 
ATOM     85  F   UNL A   1      43.367  25.526  35.126  1.00  0.00    -0.203 F 
ATOM     86  F   UNL A   1      48.228  28.001  35.166  1.00  0.00    -0.200 F 
ATOM     87  C   UNL A   1      46.822  26.258  35.916  1.00  0.00     0.200 A 
ATOM     88  F   UNL A   1      45.381  24.527  36.625  1.00  0.00    -0.200 F 
ATOM     89  F   UNL A   1      47.829  25.732  36.627  1.00  0.00    -0.200 F 
ENDBRANCH  56  79
ENDBRANCH  30  31
ENDBRANCH  22  25
ENDBRANCH  20  21
ENDBRANCH   1  20
TORSDOF 12
ENDMDL
