MODEL 1
REMARK VINA RESULT:     -12.9      0.000      0.000
REMARK SMILES CC(C)(C)c1ccc(N2C(=O)/C(=C\c3ccc(OCC(=O)NCCCNC(=O)c4ccc(-c5c6nc(c(-c7c(F)c(F)c(F)c(F)c7F)c7ccc([nH]7)c(-c7c(F)c(F)c(F)c(F)c7F)c7nc(c(-c8c(F)c(F)c(F)c(F)c8F)c8ccc5[nH]8)C=C7)C=C6)cc4)c(Br)c3)C(=O)[NH+]=C2O)cc1
REMARK SMILES IDX 20 1 21 2 22 3 19 5 18 6 17 7 14 8 15 9 94 10 16 11 92 12
REMARK SMILES IDX 93 13 13 14 9 15 10 16 98 17 11 18 12 19 97 20 95 21 96 23
REMARK SMILES IDX 8 24 5 25 6 26 101 27 7 28 100 29 2 30 1 31 3 32 4 33 99 34
REMARK SMILES IDX 23 36 24 37 25 38 26 39 27 40 28 42 29 43 30 44 91 45 31 46
REMARK SMILES IDX 90 47 32 48 33 49 34 50 84 51 35 52 89 53 83 54 85 55 36 56
REMARK SMILES IDX 88 57 82 58 81 59 37 61 69 62 49 63 68 64 50 65 53 66 67 67
REMARK SMILES IDX 86 68 51 69 52 70 66 72 87 73 54 74 38 75 39 76 47 77 40 78
REMARK SMILES IDX 41 79 45 80 48 81 42 82 43 83 46 84 44 85 70 86 71 87 79 88
REMARK SMILES IDX 72 89 73 90 77 91 80 92 74 93 75 94 78 95 76 96 55 97 56 98
REMARK SMILES IDX 64 99 57 100 58 101 62 102 65 103 59 104 60 105 63 106
REMARK SMILES IDX 61 107
REMARK H PARENT 22 4 97 22 99 35 26 41 85 60 53 71
REMARK Flexibility Score: inf
ROOT
ATOM      1  C   UNL A   1      33.990  21.617  26.857  1.00  0.00     0.257 C 
ATOM      2  O   UNL A   1      33.734  22.142  27.942  1.00  0.00    -0.271 OA
ATOM      3  N   UNL A   1      35.302  21.442  26.526  1.00  0.00    -0.353 N 
ATOM      4  H   UNL A   1      35.952  21.808  27.169  1.00  0.00     0.163 HD
ENDROOT
BRANCH   1   5
ATOM      5  C   UNL A   1      32.892  21.098  25.917  1.00  0.00     0.329 C 
BRANCH   5   6
ATOM      6  O   UNL A   1      31.583  21.623  26.026  1.00  0.00    -0.483 OA
BRANCH   6   7
ATOM      7  C   UNL A   1      31.210  22.732  25.320  1.00  0.00     0.134 A 
ATOM      8  C   UNL A   1      30.309  25.210  24.293  1.00  0.00    -0.023 A 
ATOM      9  C   UNL A   1      30.247  24.964  25.660  1.00  0.00     0.012 A 
ATOM     10  C   UNL A   1      30.864  24.240  23.451  1.00  0.00     0.027 A 
ATOM     11  C   UNL A   1      30.692  23.736  26.160  1.00  0.00     0.048 A 
ATOM     12  C   UNL A   1      31.335  23.016  23.956  1.00  0.00     0.060 A 
ATOM     13  Br  UNL A   1      32.239  21.946  22.672  1.00  0.00    -0.047 Br
BRANCH   8  14
ATOM     14  C   UNL A   1      29.816  26.464  23.711  1.00  0.00     0.032 C 
ATOM     15  N   UNL A   1      31.798  29.173  25.159  1.00  0.00    -0.124 N 
ATOM     16  C   UNL A   1      31.639  27.899  24.631  1.00  0.00     0.357 C 
ATOM     17  C   UNL A   1      30.926  30.165  24.775  1.00  0.00     0.462 C 
ATOM     18  O   UNL A   1      32.456  26.984  24.722  1.00  0.00    -0.240 OA
ATOM     19  C   UNL A   1      30.357  27.684  23.913  1.00  0.00     0.155 C 
ATOM     20  N   UNL A   1      29.922  30.059  23.986  1.00  0.00    -0.172 N 
ATOM     21  C   UNL A   1      29.582  28.855  23.446  1.00  0.00     0.349 C 
ATOM     22  H   UNL A   1      29.390  30.859  23.766  1.00  0.00     0.319 HD
ATOM     23  O   UNL A   1      28.656  28.736  22.651  1.00  0.00    -0.240 OA
BRANCH  15  24
ATOM     24  C   UNL A   1      32.878  29.421  26.076  1.00  0.00     0.140 A 
ATOM     25  C   UNL A   1      35.099  30.057  27.766  1.00  0.00    -0.042 A 
ATOM     26  C   UNL A   1      35.169  29.026  26.812  1.00  0.00     0.008 A 
ATOM     27  C   UNL A   1      33.886  30.751  27.859  1.00  0.00     0.008 A 
ATOM     28  C   UNL A   1      34.077  28.706  25.993  1.00  0.00     0.053 A 
ATOM     29  C   UNL A   1      32.800  30.441  27.032  1.00  0.00     0.053 A 
BRANCH  25  30
ATOM     30  C   UNL A   1      36.328  30.452  28.605  1.00  0.00    -0.013 C 
ATOM     31  C   UNL A   1      37.644  29.965  27.958  1.00  0.00     0.016 C 
ATOM     32  C   UNL A   1      36.299  29.871  30.037  1.00  0.00     0.016 C 
ATOM     33  C   UNL A   1      36.361  31.989  28.713  1.00  0.00     0.016 C 
ENDBRANCH  25  30
ENDBRANCH  15  24
BRANCH  17  34
ATOM     34  O   UNL A   1      31.168  31.412  25.218  1.00  0.00    -0.446 OA
ATOM     35  H   UNL A   1      31.670  32.005  24.694  1.00  0.00     0.301 HD
ENDBRANCH  17  34
ENDBRANCH   8  14
ENDBRANCH   6   7
ENDBRANCH   5   6
ENDBRANCH   1   5
BRANCH   3  36
ATOM     36  C   UNL A   1      35.872  20.795  25.363  1.00  0.00     0.117 C 
BRANCH  36  37
ATOM     37  C   UNL A   1      36.770  21.727  24.559  1.00  0.00     0.042 C 
BRANCH  37  38
ATOM     38  C   UNL A   1      37.946  22.312  25.336  1.00  0.00     0.118 C 
BRANCH  38  39
ATOM     39  N   UNL A   1      38.725  21.306  26.046  1.00  0.00    -0.352 N 
ATOM     40  C   UNL A   1      39.848  21.432  26.827  1.00  0.00     0.251 C 
ATOM     41  H   UNL A   1      38.392  20.386  25.950  1.00  0.00     0.163 HD
ATOM     42  O   UNL A   1      40.427  20.424  27.221  1.00  0.00    -0.269 OA
BRANCH  40  43
ATOM     43  C   UNL A   1      40.385  22.765  27.178  1.00  0.00     0.039 A 
ATOM     44  C   UNL A   1      41.404  22.845  28.133  1.00  0.00     0.014 A 
ATOM     45  C   UNL A   1      39.882  23.932  26.599  1.00  0.00     0.014 A 
ATOM     46  C   UNL A   1      41.970  24.084  28.447  1.00  0.00     0.010 A 
ATOM     47  C   UNL A   1      40.498  25.156  26.855  1.00  0.00     0.010 A 
ATOM     48  C   UNL A   1      41.551  25.245  27.778  1.00  0.00    -0.014 A 
BRANCH  48  49
ATOM     49  C   UNL A   1      42.208  26.555  28.020  1.00  0.00     0.031 A 
ATOM     50  C   UNL A   1      43.562  26.847  27.436  1.00  0.00     0.074 A 
ATOM     51  C   UNL A   1      41.614  27.459  28.825  1.00  0.00     0.049 A 
ATOM     52  N   UNL A   1      44.331  27.893  27.606  1.00  0.00    -0.248 NA
ATOM     53  C   UNL A   1      44.141  25.814  26.562  1.00  0.00     0.031 C 
ATOM     54  C   UNL A   1      40.320  27.282  29.485  1.00  0.00     0.029 A 
ATOM     55  N   UNL A   1      42.027  28.703  29.236  1.00  0.00    -0.354 N 
ATOM     56  C   UNL A   1      45.484  27.639  26.874  1.00  0.00     0.074 A 
ATOM     57  C   UNL A   1      45.337  26.319  26.300  1.00  0.00     0.031 C 
ATOM     58  C   UNL A   1      40.036  28.383  30.201  1.00  0.00     0.029 A 
ATOM     59  C   UNL A   1      41.144  29.324  30.085  1.00  0.00     0.049 A 
ATOM     60  H   UNL A   1      42.876  29.111  28.948  1.00  0.00     0.167 HD
ATOM     61  C   UNL A   1      46.557  28.443  26.680  1.00  0.00     0.037 A 
ATOM     62  C   UNL A   1      41.225  30.515  30.710  1.00  0.00     0.037 A 
ATOM     63  C   UNL A   1      46.691  29.765  27.234  1.00  0.00     0.049 A 
ATOM     64  C   UNL A   1      42.438  31.380  30.492  1.00  0.00     0.074 A 
ATOM     65  C   UNL A   1      47.718  30.676  27.055  1.00  0.00     0.029 A 
ATOM     66  N   UNL A   1      45.769  30.366  28.078  1.00  0.00    -0.354 N 
ATOM     67  N   UNL A   1      43.493  31.154  29.749  1.00  0.00    -0.248 NA
ATOM     68  C   UNL A   1      42.466  32.669  31.196  1.00  0.00     0.031 C 
ATOM     69  C   UNL A   1      47.439  31.809  27.825  1.00  0.00     0.029 A 
ATOM     70  C   UNL A   1      46.214  31.627  28.443  1.00  0.00     0.049 A 
ATOM     71  H   UNL A   1      44.924  29.956  28.374  1.00  0.00     0.167 HD
ATOM     72  C   UNL A   1      44.295  32.281  29.870  1.00  0.00     0.074 A 
ATOM     73  C   UNL A   1      43.596  33.197  30.747  1.00  0.00     0.031 C 
ATOM     74  C   UNL A   1      45.500  32.534  29.306  1.00  0.00     0.037 A 
BRANCH  61  75
ATOM     75  C   UNL A   1      47.674  27.918  25.825  1.00  0.00     0.064 A 
ATOM     76  C   UNL A   1      47.576  27.892  24.426  1.00  0.00     0.173 A 
ATOM     77  C   UNL A   1      48.873  27.482  26.407  1.00  0.00     0.173 A 
ATOM     78  F   UNL A   1      46.446  28.288  23.819  1.00  0.00    -0.203 F 
ATOM     79  C   UNL A   1      48.628  27.423  23.642  1.00  0.00     0.198 A 
ATOM     80  C   UNL A   1      49.935  27.042  25.618  1.00  0.00     0.198 A 
ATOM     81  F   UNL A   1      49.023  27.493  27.740  1.00  0.00    -0.203 F 
ATOM     82  F   UNL A   1      48.493  27.364  22.310  1.00  0.00    -0.200 F 
ATOM     83  C   UNL A   1      49.808  27.007  24.238  1.00  0.00     0.200 A 
ATOM     84  F   UNL A   1      51.080  26.654  26.195  1.00  0.00    -0.200 F 
ATOM     85  F   UNL A   1      50.823  26.565  23.481  1.00  0.00    -0.200 F 
ENDBRANCH  61  75
BRANCH  62  86
ATOM     86  C   UNL A   1      40.118  30.971  31.591  1.00  0.00     0.064 A 
ATOM     87  C   UNL A   1      39.200  31.935  31.150  1.00  0.00     0.173 A 
ATOM     88  C   UNL A   1      39.965  30.472  32.892  1.00  0.00     0.173 A 
ATOM     89  F   UNL A   1      39.318  32.459  29.921  1.00  0.00    -0.203 F 
ATOM     90  C   UNL A   1      38.187  32.400  31.986  1.00  0.00     0.198 A 
ATOM     91  C   UNL A   1      38.932  30.916  33.716  1.00  0.00     0.198 A 
ATOM     92  F   UNL A   1      40.813  29.545  33.361  1.00  0.00    -0.203 F 
ATOM     93  F   UNL A   1      37.356  33.360  31.557  1.00  0.00    -0.200 F 
ATOM     94  C   UNL A   1      38.051  31.887  33.266  1.00  0.00     0.200 A 
ATOM     95  F   UNL A   1      38.794  30.406  34.948  1.00  0.00    -0.200 F 
ATOM     96  F   UNL A   1      37.075  32.334  34.069  1.00  0.00    -0.200 F 
ENDBRANCH  62  86
BRANCH  74  97
ATOM     97  C   UNL A   1      46.123  33.872  29.583  1.00  0.00     0.064 A 
ATOM     98  C   UNL A   1      47.008  34.067  30.654  1.00  0.00     0.173 A 
ATOM     99  C   UNL A   1      45.862  34.963  28.739  1.00  0.00     0.173 A 
ATOM    100  F   UNL A   1      47.279  33.059  31.497  1.00  0.00    -0.203 F 
ATOM    101  C   UNL A   1      47.587  35.312  30.885  1.00  0.00     0.198 A 
ATOM    102  C   UNL A   1      46.466  36.197  28.956  1.00  0.00     0.198 A 
ATOM    103  F   UNL A   1      45.028  34.828  27.698  1.00  0.00    -0.203 F 
ATOM    104  F   UNL A   1      48.392  35.488  31.942  1.00  0.00    -0.200 F 
ATOM    105  C   UNL A   1      47.322  36.373  30.032  1.00  0.00     0.200 A 
ATOM    106  F   UNL A   1      46.220  37.218  28.124  1.00  0.00    -0.200 F 
ATOM    107  F   UNL A   1      47.887  37.568  30.253  1.00  0.00    -0.200 F 
ENDBRANCH  74  97
ENDBRANCH  48  49
ENDBRANCH  40  43
ENDBRANCH  38  39
ENDBRANCH  37  38
ENDBRANCH  36  37
ENDBRANCH   3  36
TORSDOF 16
ENDMDL
MODEL 2
REMARK VINA RESULT:     -12.9      3.211      9.281
REMARK SMILES CC(C)(C)c1ccc(N2C(=O)/C(=C\c3ccc(OCC(=O)NCCCNC(=O)c4ccc(-c5c6nc(c(-c7c(F)c(F)c(F)c(F)c7F)c7ccc([nH]7)c(-c7c(F)c(F)c(F)c(F)c7F)c7nc(c(-c8c(F)c(F)c(F)c(F)c8F)c8ccc5[nH]8)C=C7)C=C6)cc4)c(Br)c3)C(=O)[NH+]=C2O)cc1
REMARK SMILES IDX 20 1 21 2 22 3 19 5 18 6 17 7 14 8 15 9 94 10 16 11 92 12
REMARK SMILES IDX 93 13 13 14 9 15 10 16 98 17 11 18 12 19 97 20 95 21 96 23
REMARK SMILES IDX 8 24 5 25 6 26 101 27 7 28 100 29 2 30 1 31 3 32 4 33 99 34
REMARK SMILES IDX 23 36 24 37 25 38 26 39 27 40 28 42 29 43 30 44 91 45 31 46
REMARK SMILES IDX 90 47 32 48 33 49 34 50 84 51 35 52 89 53 83 54 85 55 36 56
REMARK SMILES IDX 88 57 82 58 81 59 37 61 69 62 49 63 68 64 50 65 53 66 67 67
REMARK SMILES IDX 86 68 51 69 52 70 66 72 87 73 54 74 38 75 39 76 47 77 40 78
REMARK SMILES IDX 41 79 45 80 48 81 42 82 43 83 46 84 44 85 70 86 71 87 79 88
REMARK SMILES IDX 72 89 73 90 77 91 80 92 74 93 75 94 78 95 76 96 55 97 56 98
REMARK SMILES IDX 64 99 57 100 58 101 62 102 65 103 59 104 60 105 63 106
REMARK SMILES IDX 61 107
REMARK H PARENT 22 4 97 22 99 35 26 41 85 60 53 71
REMARK Flexibility Score: inf
ROOT
ATOM      1  C   UNL A   1      31.428  28.704  23.702  1.00  0.00     0.257 C 
ATOM      2  O   UNL A   1      30.524  29.523  23.535  1.00  0.00    -0.271 OA
ATOM      3  N   UNL A   1      31.750  28.362  24.983  1.00  0.00    -0.353 N 
ATOM      4  H   UNL A   1      31.262  28.849  25.686  1.00  0.00     0.163 HD
ENDROOT
BRANCH   1   5
ATOM      5  C   UNL A   1      32.139  28.015  22.528  1.00  0.00     0.329 C 
BRANCH   5   6
ATOM      6  O   UNL A   1      31.485  26.965  21.843  1.00  0.00    -0.483 OA
BRANCH   6   7
ATOM      7  C   UNL A   1      31.514  25.687  22.324  1.00  0.00     0.134 A 
ATOM      8  C   UNL A   1      31.981  22.992  23.053  1.00  0.00    -0.023 A 
ATOM      9  C   UNL A   1      32.858  23.637  22.188  1.00  0.00     0.012 A 
ATOM     10  C   UNL A   1      30.904  23.707  23.587  1.00  0.00     0.027 A 
ATOM     11  C   UNL A   1      32.620  24.968  21.830  1.00  0.00     0.048 A 
ATOM     12  C   UNL A   1      30.678  25.053  23.248  1.00  0.00     0.060 A 
ATOM     13  Br  UNL A   1      29.294  25.882  24.252  1.00  0.00    -0.047 Br
BRANCH   8  14
ATOM     14  C   UNL A   1      32.160  21.585  23.426  1.00  0.00     0.032 C 
ATOM     15  N   UNL A   1      35.412  21.316  25.075  1.00  0.00    -0.124 N 
ATOM     16  C   UNL A   1      34.207  21.951  24.805  1.00  0.00     0.357 C 
ATOM     17  C   UNL A   1      35.480  19.946  24.962  1.00  0.00     0.462 C 
ATOM     18  O   UNL A   1      33.949  23.126  25.064  1.00  0.00    -0.240 OA
ATOM     19  C   UNL A   1      33.189  21.094  24.148  1.00  0.00     0.155 C 
ATOM     20  N   UNL A   1      34.550  19.147  24.592  1.00  0.00    -0.172 N 
ATOM     21  C   UNL A   1      33.329  19.622  24.215  1.00  0.00     0.349 C 
ATOM     22  H   UNL A   1      34.718  18.176  24.581  1.00  0.00     0.319 HD
ATOM     23  O   UNL A   1      32.408  18.875  23.903  1.00  0.00    -0.240 OA
BRANCH  15  24
ATOM     24  C   UNL A   1      36.544  22.103  25.482  1.00  0.00     0.140 A 
ATOM     25  C   UNL A   1      38.779  23.587  26.480  1.00  0.00    -0.042 A 
ATOM     26  C   UNL A   1      37.472  24.104  26.523  1.00  0.00     0.008 A 
ATOM     27  C   UNL A   1      38.938  22.315  25.915  1.00  0.00     0.008 A 
ATOM     28  C   UNL A   1      36.378  23.383  26.022  1.00  0.00     0.053 A 
ATOM     29  C   UNL A   1      37.845  21.589  25.427  1.00  0.00     0.053 A 
BRANCH  25  30
ATOM     30  C   UNL A   1      39.960  24.352  27.103  1.00  0.00    -0.013 C 
ATOM     31  C   UNL A   1      39.512  25.224  28.297  1.00  0.00     0.016 C 
ATOM     32  C   UNL A   1      40.666  25.300  26.105  1.00  0.00     0.016 C 
ATOM     33  C   UNL A   1      40.994  23.321  27.595  1.00  0.00     0.016 C 
ENDBRANCH  25  30
ENDBRANCH  15  24
BRANCH  17  34
ATOM     34  O   UNL A   1      36.626  19.348  25.333  1.00  0.00    -0.446 OA
ATOM     35  H   UNL A   1      36.948  18.613  24.849  1.00  0.00     0.301 HD
ENDBRANCH  17  34
ENDBRANCH   8  14
ENDBRANCH   6   7
ENDBRANCH   5   6
ENDBRANCH   1   5
BRANCH   3  36
ATOM     36  C   UNL A   1      32.708  27.383  25.454  1.00  0.00     0.117 C 
BRANCH  36  37
ATOM     37  C   UNL A   1      33.805  28.006  26.308  1.00  0.00     0.042 C 
BRANCH  37  38
ATOM     38  C   UNL A   1      33.313  28.695  27.579  1.00  0.00     0.118 C 
BRANCH  38  39
ATOM     39  N   UNL A   1      33.118  30.130  27.417  1.00  0.00    -0.352 N 
ATOM     40  C   UNL A   1      33.930  31.186  27.751  1.00  0.00     0.251 C 
ATOM     41  H   UNL A   1      32.264  30.384  27.000  1.00  0.00     0.163 HD
ATOM     42  O   UNL A   1      33.505  32.333  27.650  1.00  0.00    -0.269 OA
BRANCH  40  43
ATOM     43  C   UNL A   1      35.302  30.960  28.257  1.00  0.00     0.039 A 
ATOM     44  C   UNL A   1      36.235  31.997  28.148  1.00  0.00     0.014 A 
ATOM     45  C   UNL A   1      35.685  29.737  28.813  1.00  0.00     0.014 A 
ATOM     46  C   UNL A   1      37.523  31.835  28.665  1.00  0.00     0.010 A 
ATOM     47  C   UNL A   1      36.944  29.603  29.396  1.00  0.00     0.010 A 
ATOM     48  C   UNL A   1      37.874  30.651  29.333  1.00  0.00    -0.014 A 
BRANCH  48  49
ATOM     49  C   UNL A   1      39.203  30.495  29.980  1.00  0.00     0.031 A 
ATOM     50  C   UNL A   1      39.507  31.202  31.271  1.00  0.00     0.074 A 
ATOM     51  C   UNL A   1      40.161  29.769  29.368  1.00  0.00     0.049 A 
ATOM     52  N   UNL A   1      40.632  31.259  31.941  1.00  0.00    -0.248 NA
ATOM     53  C   UNL A   1      38.409  31.967  31.881  1.00  0.00     0.031 C 
ATOM     54  C   UNL A   1      40.005  29.067  28.093  1.00  0.00     0.029 A 
ATOM     55  N   UNL A   1      41.461  29.513  29.730  1.00  0.00    -0.354 N 
ATOM     56  C   UNL A   1      40.379  32.072  33.037  1.00  0.00     0.074 A 
ATOM     57  C   UNL A   1      39.011  32.529  32.918  1.00  0.00     0.031 C 
ATOM     58  C   UNL A   1      41.155  28.444  27.790  1.00  0.00     0.029 A 
ATOM     59  C   UNL A   1      42.142  28.736  28.825  1.00  0.00     0.049 A 
ATOM     60  H   UNL A   1      41.865  29.853  30.561  1.00  0.00     0.167 HD
ATOM     61  C   UNL A   1      41.205  32.391  34.062  1.00  0.00     0.037 A 
ATOM     62  C   UNL A   1      43.422  28.317  28.823  1.00  0.00     0.037 A 
ATOM     63  C   UNL A   1      42.559  31.919  34.190  1.00  0.00     0.049 A 
ATOM     64  C   UNL A   1      44.324  28.703  29.965  1.00  0.00     0.074 A 
ATOM     65  C   UNL A   1      43.459  32.147  35.217  1.00  0.00     0.029 A 
ATOM     66  N   UNL A   1      43.210  31.122  33.260  1.00  0.00    -0.354 N 
ATOM     67  N   UNL A   1      44.055  29.423  31.026  1.00  0.00    -0.248 NA
ATOM     68  C   UNL A   1      45.708  28.212  29.910  1.00  0.00     0.031 C 
ATOM     69  C   UNL A   1      44.668  31.526  34.886  1.00  0.00     0.029 A 
ATOM     70  C   UNL A   1      44.506  30.867  33.680  1.00  0.00     0.049 A 
ATOM     71  H   UNL A   1      42.810  30.788  32.424  1.00  0.00     0.167 HD
ATOM     72  C   UNL A   1      45.221  29.445  31.779  1.00  0.00     0.074 A 
ATOM     73  C   UNL A   1      46.197  28.654  31.059  1.00  0.00     0.031 C 
ATOM     74  C   UNL A   1      45.462  30.065  32.960  1.00  0.00     0.037 A 
BRANCH  61  75
ATOM     75  C   UNL A   1      40.667  33.293  35.136  1.00  0.00     0.064 A 
ATOM     76  C   UNL A   1      40.747  34.690  35.028  1.00  0.00     0.173 A 
ATOM     77  C   UNL A   1      40.022  32.758  36.260  1.00  0.00     0.173 A 
ATOM     78  F   UNL A   1      41.363  35.252  33.977  1.00  0.00    -0.203 F 
ATOM     79  C   UNL A   1      40.225  35.516  36.020  1.00  0.00     0.198 A 
ATOM     80  C   UNL A   1      39.474  33.588  37.235  1.00  0.00     0.198 A 
ATOM     81  F   UNL A   1      39.911  31.429  36.409  1.00  0.00    -0.203 F 
ATOM     82  F   UNL A   1      40.354  36.846  35.917  1.00  0.00    -0.200 F 
ATOM     83  C   UNL A   1      39.581  34.965  37.118  1.00  0.00     0.200 A 
ATOM     84  F   UNL A   1      38.840  33.055  38.289  1.00  0.00    -0.200 F 
ATOM     85  F   UNL A   1      39.071  35.763  38.066  1.00  0.00    -0.200 F 
ENDBRANCH  61  75
BRANCH  62  86
ATOM     86  C   UNL A   1      43.928  27.470  27.711  1.00  0.00     0.064 A 
ATOM     87  C   UNL A   1      43.796  26.075  27.754  1.00  0.00     0.173 A 
ATOM     88  C   UNL A   1      44.568  28.031  26.597  1.00  0.00     0.173 A 
ATOM     89  F   UNL A   1      43.210  25.491  28.810  1.00  0.00    -0.203 F 
ATOM     90  C   UNL A   1      44.306  25.271  26.737  1.00  0.00     0.198 A 
ATOM     91  C   UNL A   1      45.052  27.228  25.565  1.00  0.00     0.198 A 
ATOM     92  F   UNL A   1      44.716  29.360  26.504  1.00  0.00    -0.203 F 
ATOM     93  F   UNL A   1      44.213  23.938  26.829  1.00  0.00    -0.200 F 
ATOM     94  C   UNL A   1      44.929  25.849  25.641  1.00  0.00     0.200 A 
ATOM     95  F   UNL A   1      45.639  27.790  24.500  1.00  0.00    -0.200 F 
ATOM     96  F   UNL A   1      45.420  25.075  24.663  1.00  0.00    -0.200 F 
ENDBRANCH  62  86
BRANCH  74  97
ATOM     97  C   UNL A   1      46.820  29.877  33.572  1.00  0.00     0.064 A 
ATOM     98  C   UNL A   1      47.101  28.803  34.429  1.00  0.00     0.173 A 
ATOM     99  C   UNL A   1      47.865  30.763  33.264  1.00  0.00     0.173 A 
ATOM    100  F   UNL A   1      46.132  27.937  34.766  1.00  0.00    -0.203 F 
ATOM    101  C   UNL A   1      48.371  28.637  34.975  1.00  0.00     0.198 A 
ATOM    102  C   UNL A   1      49.140  30.576  33.787  1.00  0.00     0.198 A 
ATOM    103  F   UNL A   1      47.650  31.803  32.445  1.00  0.00    -0.203 F 
ATOM    104  F   UNL A   1      48.605  27.631  35.830  1.00  0.00    -0.200 F 
ATOM    105  C   UNL A   1      49.391  29.519  34.648  1.00  0.00     0.200 A 
ATOM    106  F   UNL A   1      50.127  31.421  33.460  1.00  0.00    -0.200 F 
ATOM    107  F   UNL A   1      50.614  29.353  35.170  1.00  0.00    -0.200 F 
ENDBRANCH  74  97
ENDBRANCH  48  49
ENDBRANCH  40  43
ENDBRANCH  38  39
ENDBRANCH  37  38
ENDBRANCH  36  37
ENDBRANCH   3  36
TORSDOF 16
ENDMDL
MODEL 3
REMARK VINA RESULT:     -12.8      0.888      6.943
REMARK SMILES CC(C)(C)c1ccc(N2C(=O)/C(=C\c3ccc(OCC(=O)NCCCNC(=O)c4ccc(-c5c6nc(c(-c7c(F)c(F)c(F)c(F)c7F)c7ccc([nH]7)c(-c7c(F)c(F)c(F)c(F)c7F)c7nc(c(-c8c(F)c(F)c(F)c(F)c8F)c8ccc5[nH]8)C=C7)C=C6)cc4)c(Br)c3)C(=O)[NH+]=C2O)cc1
REMARK SMILES IDX 20 1 21 2 22 3 19 5 18 6 17 7 14 8 15 9 94 10 16 11 92 12
REMARK SMILES IDX 93 13 13 14 9 15 10 16 98 17 11 18 12 19 97 20 95 21 96 23
REMARK SMILES IDX 8 24 5 25 6 26 101 27 7 28 100 29 2 30 1 31 3 32 4 33 99 34
REMARK SMILES IDX 23 36 24 37 25 38 26 39 27 40 28 42 29 43 30 44 91 45 31 46
REMARK SMILES IDX 90 47 32 48 33 49 34 50 84 51 35 52 89 53 83 54 85 55 36 56
REMARK SMILES IDX 88 57 82 58 81 59 37 61 69 62 49 63 68 64 50 65 53 66 67 67
REMARK SMILES IDX 86 68 51 69 52 70 66 72 87 73 54 74 38 75 39 76 47 77 40 78
REMARK SMILES IDX 41 79 45 80 48 81 42 82 43 83 46 84 44 85 70 86 71 87 79 88
REMARK SMILES IDX 72 89 73 90 77 91 80 92 74 93 75 94 78 95 76 96 55 97 56 98
REMARK SMILES IDX 64 99 57 100 58 101 62 102 65 103 59 104 60 105 63 106
REMARK SMILES IDX 61 107
REMARK H PARENT 22 4 97 22 99 35 26 41 85 60 53 71
REMARK Flexibility Score: inf
ROOT
ATOM      1  C   UNL A   1      33.454  19.872  25.002  1.00  0.00     0.257 C 
ATOM      2  O   UNL A   1      33.737  18.804  24.457  1.00  0.00    -0.271 OA
ATOM      3  N   UNL A   1      34.391  20.440  25.815  1.00  0.00    -0.353 N 
ATOM      4  H   UNL A   1      35.212  19.913  25.947  1.00  0.00     0.163 HD
ENDROOT
BRANCH   1   5
ATOM      5  C   UNL A   1      32.130  20.602  24.739  1.00  0.00     0.329 C 
BRANCH   5   6
ATOM      6  O   UNL A   1      31.817  21.759  25.489  1.00  0.00    -0.483 OA
BRANCH   6   7
ATOM      7  C   UNL A   1      31.433  22.915  24.869  1.00  0.00     0.134 A 
ATOM      8  C   UNL A   1      30.428  25.418  24.013  1.00  0.00    -0.023 A 
ATOM      9  C   UNL A   1      30.191  24.986  25.312  1.00  0.00     0.012 A 
ATOM     10  C   UNL A   1      31.204  24.624  23.162  1.00  0.00     0.027 A 
ATOM     11  C   UNL A   1      30.689  23.746  25.729  1.00  0.00     0.048 A 
ATOM     12  C   UNL A   1      31.727  23.390  23.586  1.00  0.00     0.060 A 
ATOM     13  Br  UNL A   1      32.923  22.588  22.347  1.00  0.00    -0.047 Br
BRANCH   8  14
ATOM     14  C   UNL A   1      29.892  26.689  23.513  1.00  0.00     0.032 C 
ATOM     15  N   UNL A   1      31.798  29.365  25.117  1.00  0.00    -0.124 N 
ATOM     16  C   UNL A   1      31.675  28.122  24.512  1.00  0.00     0.357 C 
ATOM     17  C   UNL A   1      30.892  30.351  24.799  1.00  0.00     0.462 C 
ATOM     18  O   UNL A   1      32.520  27.228  24.542  1.00  0.00    -0.240 OA
ATOM     19  C   UNL A   1      30.396  27.911  23.787  1.00  0.00     0.155 C 
ATOM     20  N   UNL A   1      29.887  30.262  24.011  1.00  0.00    -0.172 N 
ATOM     21  C   UNL A   1      29.581  29.084  23.398  1.00  0.00     0.349 C 
ATOM     22  H   UNL A   1      29.328  31.056  23.843  1.00  0.00     0.319 HD
ATOM     23  O   UNL A   1      28.655  28.985  22.601  1.00  0.00    -0.240 OA
BRANCH  15  24
ATOM     24  C   UNL A   1      32.875  29.590  26.043  1.00  0.00     0.140 A 
ATOM     25  C   UNL A   1      35.111  30.154  27.739  1.00  0.00    -0.042 A 
ATOM     26  C   UNL A   1      35.087  29.025  26.901  1.00  0.00     0.008 A 
ATOM     27  C   UNL A   1      33.982  30.984  27.714  1.00  0.00     0.008 A 
ATOM     28  C   UNL A   1      33.986  28.741  26.079  1.00  0.00     0.053 A 
ATOM     29  C   UNL A   1      32.889  30.709  26.884  1.00  0.00     0.053 A 
BRANCH  25  30
ATOM     30  C   UNL A   1      36.355  30.499  28.577  1.00  0.00    -0.013 C 
ATOM     31  C   UNL A   1      37.657  30.035  27.887  1.00  0.00     0.016 C 
ATOM     32  C   UNL A   1      36.342  29.850  29.980  1.00  0.00     0.016 C 
ATOM     33  C   UNL A   1      36.402  32.029  28.759  1.00  0.00     0.016 C 
ENDBRANCH  25  30
ENDBRANCH  15  24
BRANCH  17  34
ATOM     34  O   UNL A   1      31.098  31.574  25.318  1.00  0.00    -0.446 OA
ATOM     35  H   UNL A   1      30.609  32.307  24.999  1.00  0.00     0.301 HD
ENDBRANCH  17  34
ENDBRANCH   8  14
ENDBRANCH   6   7
ENDBRANCH   5   6
ENDBRANCH   1   5
BRANCH   3  36
ATOM     36  C   UNL A   1      34.347  21.710  26.511  1.00  0.00     0.117 C 
BRANCH  36  37
ATOM     37  C   UNL A   1      35.007  22.831  25.720  1.00  0.00     0.042 C 
BRANCH  37  38
ATOM     38  C   UNL A   1      36.432  23.168  26.152  1.00  0.00     0.118 C 
BRANCH  38  39
ATOM     39  N   UNL A   1      37.356  22.050  26.014  1.00  0.00    -0.352 N 
ATOM     40  C   UNL A   1      38.718  21.990  26.181  1.00  0.00     0.251 C 
ATOM     41  H   UNL A   1      36.935  21.198  25.760  1.00  0.00     0.163 HD
ATOM     42  O   UNL A   1      39.320  20.964  25.876  1.00  0.00    -0.269 OA
BRANCH  40  43
ATOM     43  C   UNL A   1      39.473  23.152  26.698  1.00  0.00     0.039 A 
ATOM     44  C   UNL A   1      40.415  22.942  27.710  1.00  0.00     0.014 A 
ATOM     45  C   UNL A   1      39.249  24.444  26.216  1.00  0.00     0.014 A 
ATOM     46  C   UNL A   1      41.183  24.009  28.182  1.00  0.00     0.010 A 
ATOM     47  C   UNL A   1      40.067  25.492  26.631  1.00  0.00     0.010 A 
ATOM     48  C   UNL A   1      41.045  25.286  27.615  1.00  0.00    -0.014 A 
BRANCH  48  49
ATOM     49  C   UNL A   1      41.922  26.413  28.028  1.00  0.00     0.031 A 
ATOM     50  C   UNL A   1      41.414  27.464  28.975  1.00  0.00     0.074 A 
ATOM     51  C   UNL A   1      43.156  26.525  27.497  1.00  0.00     0.049 A 
ATOM     52  N   UNL A   1      41.996  28.565  29.382  1.00  0.00    -0.248 NA
ATOM     53  C   UNL A   1      40.061  27.267  29.517  1.00  0.00     0.031 C 
ATOM     54  C   UNL A   1      43.753  25.594  26.538  1.00  0.00     0.029 A 
ATOM     55  N   UNL A   1      44.127  27.480  27.678  1.00  0.00    -0.354 N 
ATOM     56  C   UNL A   1      41.079  29.192  30.214  1.00  0.00     0.074 A 
ATOM     57  C   UNL A   1      39.883  28.379  30.215  1.00  0.00     0.031 C 
ATOM     58  C   UNL A   1      44.992  26.011  26.231  1.00  0.00     0.029 A 
ATOM     59  C   UNL A   1      45.262  27.259  26.936  1.00  0.00     0.049 A 
ATOM     60  H   UNL A   1      44.019  28.250  28.283  1.00  0.00     0.167 HD
ATOM     61  C   UNL A   1      41.230  30.332  30.932  1.00  0.00     0.037 A 
ATOM     62  C   UNL A   1      46.389  27.988  26.828  1.00  0.00     0.037 A 
ATOM     63  C   UNL A   1      42.428  31.128  30.948  1.00  0.00     0.049 A 
ATOM     64  C   UNL A   1      46.522  29.261  27.621  1.00  0.00     0.074 A 
ATOM     65  C   UNL A   1      42.695  32.272  31.680  1.00  0.00     0.029 A 
ATOM     66  N   UNL A   1      43.563  30.865  30.194  1.00  0.00    -0.354 N 
ATOM     67  N   UNL A   1      45.671  29.812  28.451  1.00  0.00    -0.248 NA
ATOM     68  C   UNL A   1      47.777  30.010  27.465  1.00  0.00     0.031 C 
ATOM     69  C   UNL A   1      43.973  32.726  31.337  1.00  0.00     0.029 A 
ATOM     70  C   UNL A   1      44.523  31.836  30.430  1.00  0.00     0.049 A 
ATOM     71  H   UNL A   1      43.669  30.101  29.582  1.00  0.00     0.167 HD
ATOM     72  C   UNL A   1      46.296  30.951  28.940  1.00  0.00     0.074 A 
ATOM     73  C   UNL A   1      47.606  31.005  28.324  1.00  0.00     0.031 C 
ATOM     74  C   UNL A   1      45.828  31.869  29.820  1.00  0.00     0.037 A 
BRANCH  61  75
ATOM     75  C   UNL A   1      40.068  30.786  31.768  1.00  0.00     0.064 A 
ATOM     76  C   UNL A   1      39.162  31.751  31.302  1.00  0.00     0.173 A 
ATOM     77  C   UNL A   1      39.830  30.218  33.028  1.00  0.00     0.173 A 
ATOM     78  F   UNL A   1      39.350  32.333  30.107  1.00  0.00    -0.203 F 
ATOM     79  C   UNL A   1      38.076  32.149  32.077  1.00  0.00     0.198 A 
ATOM     80  C   UNL A   1      38.725  30.596  33.788  1.00  0.00     0.198 A 
ATOM     81  F   UNL A   1      40.660  29.286  33.519  1.00  0.00    -0.203 F 
ATOM     82  F   UNL A   1      37.251  33.106  31.630  1.00  0.00    -0.200 F 
ATOM     83  C   UNL A   1      37.854  31.565  33.316  1.00  0.00     0.200 A 
ATOM     84  F   UNL A   1      38.504  30.022  34.978  1.00  0.00    -0.200 F 
ATOM     85  F   UNL A   1      36.802  31.943  34.056  1.00  0.00    -0.200 F 
ENDBRANCH  61  75
BRANCH  62  86
ATOM     86  C   UNL A   1      47.493  27.527  25.945  1.00  0.00     0.064 A 
ATOM     87  C   UNL A   1      48.577  26.807  26.467  1.00  0.00     0.173 A 
ATOM     88  C   UNL A   1      47.500  27.812  24.572  1.00  0.00     0.173 A 
ATOM     89  F   UNL A   1      48.626  26.530  27.779  1.00  0.00    -0.203 F 
ATOM     90  C   UNL A   1      49.637  26.410  25.654  1.00  0.00     0.198 A 
ATOM     91  C   UNL A   1      48.546  27.388  23.755  1.00  0.00     0.198 A 
ATOM     92  F   UNL A   1      46.485  28.495  24.022  1.00  0.00    -0.203 F 
ATOM     93  F   UNL A   1      50.685  25.769  26.190  1.00  0.00    -0.200 F 
ATOM     94  C   UNL A   1      49.618  26.697  24.298  1.00  0.00     0.200 A 
ATOM     95  F   UNL A   1      48.518  27.653  22.442  1.00  0.00    -0.200 F 
ATOM     96  F   UNL A   1      50.638  26.314  23.517  1.00  0.00    -0.200 F 
ENDBRANCH  62  86
BRANCH  74  97
ATOM     97  C   UNL A   1      46.752  32.989  30.205  1.00  0.00     0.064 A 
ATOM     98  C   UNL A   1      47.633  32.877  31.290  1.00  0.00     0.173 A 
ATOM     99  C   UNL A   1      46.784  34.172  29.451  1.00  0.00     0.173 A 
ATOM    100  F   UNL A   1      47.632  31.772  32.051  1.00  0.00    -0.203 F 
ATOM    101  C   UNL A   1      48.494  33.921  31.622  1.00  0.00     0.198 A 
ATOM    102  C   UNL A   1      47.666  35.200  29.767  1.00  0.00     0.198 A 
ATOM    103  F   UNL A   1      45.965  34.326  28.399  1.00  0.00    -0.203 F 
ATOM    104  F   UNL A   1      49.293  33.812  32.693  1.00  0.00    -0.200 F 
ATOM    105  C   UNL A   1      48.515  35.077  30.857  1.00  0.00     0.200 A 
ATOM    106  F   UNL A   1      47.695  36.310  29.019  1.00  0.00    -0.200 F 
ATOM    107  F   UNL A   1      49.350  36.077  31.174  1.00  0.00    -0.200 F 
ENDBRANCH  74  97
ENDBRANCH  48  49
ENDBRANCH  40  43
ENDBRANCH  38  39
ENDBRANCH  37  38
ENDBRANCH  36  37
ENDBRANCH   3  36
TORSDOF 16
ENDMDL
