MODEL 1
REMARK VINA RESULT:     -12.1      0.000      0.000
REMARK SMILES C[C@H](C(=O)NCCCNC(=O)c1ccc(-c2c3nc(c(-c4c(F)c(F)c(F)c(F)c4F)c4ccc([nH]4)c(-c4c(F)c(F)c(F)c(F)c4F)c4nc(c(-c5c(F)c(F)c(F)c(F)c5F)c5ccc2[nH]5)C=C4)C=C3)cc1)[C@@H](C)[NH2+]C[C@@H]1CCCC[C@@H]1CO
REMARK SMILES IDX 3 1 4 2 5 3 2 5 1 6 75 7 76 8 77 9 78 12 79 13 80 14 84 15
REMARK SMILES IDX 81 16 83 17 82 18 85 19 86 20 6 22 7 23 8 24 9 25 10 26
REMARK SMILES IDX 11 28 12 29 13 30 74 31 14 32 73 33 15 34 16 35 17 36 67 37
REMARK SMILES IDX 18 38 72 39 66 40 68 41 19 42 71 43 65 44 64 45 20 47 52 48
REMARK SMILES IDX 32 49 51 50 33 51 36 52 50 53 69 54 34 55 35 56 49 58 70 59
REMARK SMILES IDX 37 60 21 61 22 62 30 63 23 64 24 65 28 66 31 67 25 68 26 69
REMARK SMILES IDX 29 70 27 71 53 72 54 73 62 74 55 75 56 76 60 77 63 78 57 79
REMARK SMILES IDX 58 80 61 81 59 82 38 83 39 84 47 85 40 86 41 87 45 88 48 89
REMARK SMILES IDX 42 90 43 91 46 92 44 93
REMARK H PARENT 5 4 77 10 77 11 86 21 9 27 68 46 36 57
REMARK Flexibility Score: inf
ROOT
ATOM      1  C   UNL A   1      31.634  24.732  26.414  1.00  0.00     0.228 C 
ATOM      2  O   UNL A   1      31.207  23.916  27.250  1.00  0.00    -0.275 OA
ATOM      3  N   UNL A   1      31.412  26.043  26.776  1.00  0.00    -0.356 N 
ATOM      4  H   UNL A   1      30.792  26.167  27.529  1.00  0.00     0.163 HD
ENDROOT
BRANCH   1   5
ATOM      5  C   UNL A   1      32.410  24.143  25.134  1.00  0.00     0.133 C 
ATOM      6  C   UNL A   1      33.910  24.210  25.463  1.00  0.00     0.024 C 
BRANCH   5   7
ATOM      7  C   UNL A   1      32.028  22.787  24.436  1.00  0.00     0.191 C 
ATOM      8  C   UNL A   1      33.141  22.564  23.469  1.00  0.00     0.076 C 
BRANCH   7   9
ATOM      9  N   UNL A   1      32.032  21.512  25.273  1.00  0.00    -0.343 N 
ATOM     10  H   UNL A   1      31.337  20.882  24.875  1.00  0.00     0.346 HD
ATOM     11  H   UNL A   1      31.841  21.822  26.225  1.00  0.00     0.346 HD
BRANCH   9  12
ATOM     12  C   UNL A   1      33.336  20.749  25.367  1.00  0.00     0.264 C 
BRANCH  12  13
ATOM     13  C   UNL A   1      33.526  19.161  25.145  1.00  0.00     0.049 C 
ATOM     14  C   UNL A   1      34.880  18.653  24.581  1.00  0.00     0.010 C 
ATOM     15  C   UNL A   1      32.435  18.407  24.371  1.00  0.00     0.023 C 
ATOM     16  C   UNL A   1      34.984  17.097  24.539  1.00  0.00     0.001 C 
ATOM     17  C   UNL A   1      32.479  16.906  24.632  1.00  0.00     0.006 C 
ATOM     18  C   UNL A   1      33.751  16.311  24.084  1.00  0.00     0.000 C 
BRANCH  15  19
ATOM     19  C   UNL A   1      32.382  18.707  22.835  1.00  0.00     0.160 C 
BRANCH  19  20
ATOM     20  O   UNL A   1      31.696  17.736  22.051  1.00  0.00    -0.396 OA
ATOM     21  H   UNL A   1      31.364  18.153  21.241  1.00  0.00     0.210 HD
ENDBRANCH  19  20
ENDBRANCH  15  19
ENDBRANCH  12  13
ENDBRANCH   9  12
ENDBRANCH   7   9
ENDBRANCH   5   7
ENDBRANCH   1   5
BRANCH   3  22
ATOM     22  C   UNL A   1      31.950  27.264  26.221  1.00  0.00     0.117 C 
BRANCH  22  23
ATOM     23  C   UNL A   1      31.706  28.642  26.774  1.00  0.00     0.042 C 
BRANCH  23  24
ATOM     24  C   UNL A   1      32.414  29.814  26.101  1.00  0.00     0.118 C 
BRANCH  24  25
ATOM     25  N   UNL A   1      32.312  31.151  26.699  1.00  0.00    -0.352 N 
ATOM     26  C   UNL A   1      33.240  31.973  27.343  1.00  0.00     0.251 C 
ATOM     27  H   UNL A   1      31.412  31.545  26.635  1.00  0.00     0.163 HD
ATOM     28  O   UNL A   1      32.927  33.106  27.632  1.00  0.00    -0.269 OA
BRANCH  26  29
ATOM     29  C   UNL A   1      34.582  31.461  27.757  1.00  0.00     0.039 A 
ATOM     30  C   UNL A   1      35.632  32.362  27.976  1.00  0.00     0.014 A 
ATOM     31  C   UNL A   1      34.813  30.116  27.991  1.00  0.00     0.014 A 
ATOM     32  C   UNL A   1      36.828  31.920  28.565  1.00  0.00     0.010 A 
ATOM     33  C   UNL A   1      35.891  29.719  28.767  1.00  0.00     0.010 A 
ATOM     34  C   UNL A   1      36.935  30.606  29.046  1.00  0.00    -0.014 A 
BRANCH  34  35
ATOM     35  C   UNL A   1      38.122  30.111  29.801  1.00  0.00     0.031 A 
ATOM     36  C   UNL A   1      38.364  30.574  31.221  1.00  0.00     0.074 A 
ATOM     37  C   UNL A   1      39.034  29.329  29.191  1.00  0.00     0.049 A 
ATOM     38  N   UNL A   1      39.387  30.344  32.008  1.00  0.00    -0.248 NA
ATOM     39  C   UNL A   1      37.353  31.464  31.819  1.00  0.00     0.031 C 
ATOM     40  C   UNL A   1      38.983  28.892  27.794  1.00  0.00     0.029 A 
ATOM     41  N   UNL A   1      40.193  28.764  29.665  1.00  0.00    -0.354 N 
ATOM     42  C   UNL A   1      39.148  31.081  33.163  1.00  0.00     0.074 A 
ATOM     43  C   UNL A   1      37.943  31.843  32.940  1.00  0.00     0.031 C 
ATOM     44  C   UNL A   1      40.028  28.089  27.539  1.00  0.00     0.029 A 
ATOM     45  C   UNL A   1      40.848  27.984  28.741  1.00  0.00     0.049 A 
ATOM     46  H   UNL A   1      40.523  28.904  30.582  1.00  0.00     0.167 HD
ATOM     47  C   UNL A   1      39.837  31.085  34.329  1.00  0.00     0.037 A 
ATOM     48  C   UNL A   1      41.979  27.262  28.854  1.00  0.00     0.037 A 
ATOM     49  C   UNL A   1      41.003  30.281  34.574  1.00  0.00     0.049 A 
ATOM     50  C   UNL A   1      42.699  27.238  30.175  1.00  0.00     0.074 A 
ATOM     51  C   UNL A   1      41.735  30.151  35.740  1.00  0.00     0.029 A 
ATOM     52  N   UNL A   1      41.599  29.458  33.630  1.00  0.00    -0.354 N 
ATOM     53  N   UNL A   1      42.414  27.875  31.286  1.00  0.00    -0.248 NA
ATOM     54  C   UNL A   1      43.891  26.383  30.263  1.00  0.00     0.031 C 
ATOM     55  C   UNL A   1      42.799  29.277  35.490  1.00  0.00     0.029 A 
ATOM     56  C   UNL A   1      42.700  28.825  34.184  1.00  0.00     0.049 A 
ATOM     57  H   UNL A   1      41.288  29.341  32.704  1.00  0.00     0.167 HD
ATOM     58  C   UNL A   1      43.375  27.484  32.208  1.00  0.00     0.074 A 
ATOM     59  C   UNL A   1      44.233  26.531  31.535  1.00  0.00     0.031 C 
ATOM     60  C   UNL A   1      43.541  27.883  33.494  1.00  0.00     0.037 A 
BRANCH  47  61
ATOM     61  C   UNL A   1      39.320  31.958  35.439  1.00  0.00     0.064 A 
ATOM     62  C   UNL A   1      39.644  33.324  35.512  1.00  0.00     0.173 A 
ATOM     63  C   UNL A   1      38.475  31.436  36.430  1.00  0.00     0.173 A 
ATOM     64  F   UNL A   1      40.461  33.874  34.600  1.00  0.00    -0.203 F 
ATOM     65  C   UNL A   1      39.174  34.121  36.553  1.00  0.00     0.198 A 
ATOM     66  C   UNL A   1      37.978  32.245  37.449  1.00  0.00     0.198 A 
ATOM     67  F   UNL A   1      38.130  30.140  36.410  1.00  0.00    -0.203 F 
ATOM     68  F   UNL A   1      39.551  35.405  36.633  1.00  0.00    -0.200 F 
ATOM     69  C   UNL A   1      38.336  33.583  37.516  1.00  0.00     0.200 A 
ATOM     70  F   UNL A   1      37.156  31.727  38.373  1.00  0.00    -0.200 F 
ATOM     71  F   UNL A   1      37.878  34.352  38.513  1.00  0.00    -0.200 F 
ENDBRANCH  47  61
BRANCH  48  72
ATOM     72  C   UNL A   1      42.476  26.466  27.698  1.00  0.00     0.064 A 
ATOM     73  C   UNL A   1      43.385  27.017  26.781  1.00  0.00     0.173 A 
ATOM     74  C   UNL A   1      42.055  25.147  27.481  1.00  0.00     0.173 A 
ATOM     75  F   UNL A   1      43.805  28.282  26.932  1.00  0.00    -0.203 F 
ATOM     76  C   UNL A   1      43.830  26.288  25.679  1.00  0.00     0.198 A 
ATOM     77  C   UNL A   1      42.527  24.408  26.397  1.00  0.00     0.198 A 
ATOM     78  F   UNL A   1      41.195  24.568  28.331  1.00  0.00    -0.203 F 
ATOM     79  F   UNL A   1      44.657  26.859  24.792  1.00  0.00    -0.200 F 
ATOM     80  C   UNL A   1      43.405  24.983  25.492  1.00  0.00     0.200 A 
ATOM     81  F   UNL A   1      42.127  23.140  26.228  1.00  0.00    -0.200 F 
ATOM     82  F   UNL A   1      43.837  24.281  24.435  1.00  0.00    -0.200 F 
ENDBRANCH  48  72
BRANCH  60  83
ATOM     83  C   UNL A   1      44.682  27.273  34.254  1.00  0.00     0.064 A 
ATOM     84  C   UNL A   1      44.534  26.070  34.960  1.00  0.00     0.173 A 
ATOM     85  C   UNL A   1      45.943  27.889  34.260  1.00  0.00     0.173 A 
ATOM     86  F   UNL A   1      43.344  25.450  34.994  1.00  0.00    -0.203 F 
ATOM     87  C   UNL A   1      45.596  25.526  35.675  1.00  0.00     0.198 A 
ATOM     88  C   UNL A   1      47.012  27.324  34.949  1.00  0.00     0.198 A 
ATOM     89  F   UNL A   1      46.139  29.035  33.593  1.00  0.00    -0.203 F 
ATOM     90  F   UNL A   1      45.414  24.408  36.392  1.00  0.00    -0.200 F 
ATOM     91  C   UNL A   1      46.834  26.149  35.665  1.00  0.00     0.200 A 
ATOM     92  F   UNL A   1      48.212  27.919  34.925  1.00  0.00    -0.200 F 
ATOM     93  F   UNL A   1      47.857  25.623  36.354  1.00  0.00    -0.200 F 
ENDBRANCH  60  83
ENDBRANCH  34  35
ENDBRANCH  26  29
ENDBRANCH  24  25
ENDBRANCH  23  24
ENDBRANCH  22  23
ENDBRANCH   3  22
TORSDOF 16
ENDMDL
MODEL 2
REMARK VINA RESULT:     -12.0      2.590      4.503
REMARK SMILES C[C@H](C(=O)NCCCNC(=O)c1ccc(-c2c3nc(c(-c4c(F)c(F)c(F)c(F)c4F)c4ccc([nH]4)c(-c4c(F)c(F)c(F)c(F)c4F)c4nc(c(-c5c(F)c(F)c(F)c(F)c5F)c5ccc2[nH]5)C=C4)C=C3)cc1)[C@@H](C)[NH2+]C[C@@H]1CCCC[C@@H]1CO
REMARK SMILES IDX 3 1 4 2 5 3 2 5 1 6 75 7 76 8 77 9 78 12 79 13 80 14 84 15
REMARK SMILES IDX 81 16 83 17 82 18 85 19 86 20 6 22 7 23 8 24 9 25 10 26
REMARK SMILES IDX 11 28 12 29 13 30 74 31 14 32 73 33 15 34 16 35 17 36 67 37
REMARK SMILES IDX 18 38 72 39 66 40 68 41 19 42 71 43 65 44 64 45 20 47 52 48
REMARK SMILES IDX 32 49 51 50 33 51 36 52 50 53 69 54 34 55 35 56 49 58 70 59
REMARK SMILES IDX 37 60 21 61 22 62 30 63 23 64 24 65 28 66 31 67 25 68 26 69
REMARK SMILES IDX 29 70 27 71 53 72 54 73 62 74 55 75 56 76 60 77 63 78 57 79
REMARK SMILES IDX 58 80 61 81 59 82 38 83 39 84 47 85 40 86 41 87 45 88 48 89
REMARK SMILES IDX 42 90 43 91 46 92 44 93
REMARK H PARENT 5 4 77 10 77 11 86 21 9 27 68 46 36 57
REMARK Flexibility Score: inf
ROOT
ATOM      1  C   UNL A   1      33.026  25.945  25.777  1.00  0.00     0.228 C 
ATOM      2  O   UNL A   1      33.406  24.969  26.447  1.00  0.00    -0.275 OA
ATOM      3  N   UNL A   1      33.870  27.030  25.874  1.00  0.00    -0.356 N 
ATOM      4  H   UNL A   1      34.543  26.970  26.590  1.00  0.00     0.163 HD
ENDROOT
BRANCH   1   5
ATOM      5  C   UNL A   1      31.701  25.759  24.884  1.00  0.00     0.133 C 
ATOM      6  C   UNL A   1      30.561  26.459  25.641  1.00  0.00     0.024 C 
BRANCH   5   7
ATOM      7  C   UNL A   1      31.644  26.059  23.342  1.00  0.00     0.191 C 
ATOM      8  C   UNL A   1      31.406  24.720  22.731  1.00  0.00     0.076 C 
BRANCH   7   9
ATOM      9  N   UNL A   1      30.489  26.899  22.806  1.00  0.00    -0.343 N 
ATOM     10  H   UNL A   1      29.786  26.958  23.541  1.00  0.00     0.346 HD
ATOM     11  H   UNL A   1      30.189  26.421  21.956  1.00  0.00     0.346 HD
BRANCH   9  12
ATOM     12  C   UNL A   1      30.806  28.312  22.366  1.00  0.00     0.264 C 
BRANCH  12  13
ATOM     13  C   UNL A   1      29.848  29.599  22.541  1.00  0.00     0.049 C 
ATOM     14  C   UNL A   1      29.894  30.374  23.885  1.00  0.00     0.010 C 
ATOM     15  C   UNL A   1      28.360  29.441  22.193  1.00  0.00     0.023 C 
ATOM     16  C   UNL A   1      29.023  31.669  23.879  1.00  0.00     0.001 C 
ATOM     17  C   UNL A   1      27.682  30.784  21.945  1.00  0.00     0.006 C 
ATOM     18  C   UNL A   1      27.646  31.600  23.211  1.00  0.00     0.000 C 
BRANCH  15  19
ATOM     19  C   UNL A   1      27.531  28.573  23.199  1.00  0.00     0.160 C 
BRANCH  19  20
ATOM     20  O   UNL A   1      26.129  28.539  22.957  1.00  0.00    -0.396 OA
ATOM     21  H   UNL A   1      25.788  29.445  22.906  1.00  0.00     0.210 HD
ENDBRANCH  19  20
ENDBRANCH  15  19
ENDBRANCH  12  13
ENDBRANCH   9  12
ENDBRANCH   7   9
ENDBRANCH   5   7
ENDBRANCH   1   5
BRANCH   3  22
ATOM     22  C   UNL A   1      33.923  28.240  25.087  1.00  0.00     0.117 C 
BRANCH  22  23
ATOM     23  C   UNL A   1      32.943  29.379  25.191  1.00  0.00     0.042 C 
BRANCH  23  24
ATOM     24  C   UNL A   1      32.405  29.731  26.574  1.00  0.00     0.118 C 
BRANCH  24  25
ATOM     25  N   UNL A   1      32.399  31.134  27.003  1.00  0.00    -0.352 N 
ATOM     26  C   UNL A   1      33.401  31.984  27.477  1.00  0.00     0.251 C 
ATOM     27  H   UNL A   1      31.513  31.561  26.945  1.00  0.00     0.163 HD
ATOM     28  O   UNL A   1      33.154  33.158  27.640  1.00  0.00    -0.269 OA
BRANCH  26  29
ATOM     29  C   UNL A   1      34.746  31.463  27.867  1.00  0.00     0.039 A 
ATOM     30  C   UNL A   1      35.810  32.356  28.054  1.00  0.00     0.014 A 
ATOM     31  C   UNL A   1      34.969  30.119  28.111  1.00  0.00     0.014 A 
ATOM     32  C   UNL A   1      37.013  31.908  28.622  1.00  0.00     0.010 A 
ATOM     33  C   UNL A   1      36.060  29.719  28.868  1.00  0.00     0.010 A 
ATOM     34  C   UNL A   1      37.118  30.598  29.115  1.00  0.00    -0.014 A 
BRANCH  34  35
ATOM     35  C   UNL A   1      38.316  30.100  29.850  1.00  0.00     0.031 A 
ATOM     36  C   UNL A   1      38.582  30.559  31.267  1.00  0.00     0.074 A 
ATOM     37  C   UNL A   1      39.217  29.317  29.222  1.00  0.00     0.049 A 
ATOM     38  N   UNL A   1      39.617  30.325  32.036  1.00  0.00    -0.248 NA
ATOM     39  C   UNL A   1      37.582  31.448  31.883  1.00  0.00     0.031 C 
ATOM     40  C   UNL A   1      39.143  28.885  27.825  1.00  0.00     0.029 A 
ATOM     41  N   UNL A   1      40.383  28.749  29.676  1.00  0.00    -0.354 N 
ATOM     42  C   UNL A   1      39.398  31.058  33.197  1.00  0.00     0.074 A 
ATOM     43  C   UNL A   1      38.191  31.823  32.995  1.00  0.00     0.031 C 
ATOM     44  C   UNL A   1      40.183  28.081  27.552  1.00  0.00     0.029 A 
ATOM     45  C   UNL A   1      41.022  27.972  28.740  1.00  0.00     0.049 A 
ATOM     46  H   UNL A   1      40.728  28.887  30.588  1.00  0.00     0.167 HD
ATOM     47  C   UNL A   1      40.106  31.058  34.352  1.00  0.00     0.037 A 
ATOM     48  C   UNL A   1      42.154  27.248  28.832  1.00  0.00     0.037 A 
ATOM     49  C   UNL A   1      41.274  30.252  34.576  1.00  0.00     0.049 A 
ATOM     50  C   UNL A   1      42.895  27.219  30.142  1.00  0.00     0.074 A 
ATOM     51  C   UNL A   1      42.024  30.117  35.730  1.00  0.00     0.029 A 
ATOM     52  N   UNL A   1      41.854  29.431  33.620  1.00  0.00    -0.354 N 
ATOM     53  N   UNL A   1      42.628  27.853  31.259  1.00  0.00    -0.248 NA
ATOM     54  C   UNL A   1      44.086  26.362  30.208  1.00  0.00     0.031 C 
ATOM     55  C   UNL A   1      43.083  29.243  35.460  1.00  0.00     0.029 A 
ATOM     56  C   UNL A   1      42.962  28.795  34.155  1.00  0.00     0.049 A 
ATOM     57  H   UNL A   1      41.527  29.317  32.699  1.00  0.00     0.167 HD
ATOM     58  C   UNL A   1      43.603  27.458  32.164  1.00  0.00     0.074 A 
ATOM     59  C   UNL A   1      44.449  26.505  31.475  1.00  0.00     0.031 C 
ATOM     60  C   UNL A   1      43.791  27.853  33.448  1.00  0.00     0.037 A 
BRANCH  47  61
ATOM     61  C   UNL A   1      39.608  31.930  35.473  1.00  0.00     0.064 A 
ATOM     62  C   UNL A   1      40.060  33.250  35.633  1.00  0.00     0.173 A 
ATOM     63  C   UNL A   1      38.654  31.452  36.384  1.00  0.00     0.173 A 
ATOM     64  F   UNL A   1      40.984  33.754  34.801  1.00  0.00    -0.203 F 
ATOM     65  C   UNL A   1      39.606  34.044  36.684  1.00  0.00     0.198 A 
ATOM     66  C   UNL A   1      38.175  32.261  37.412  1.00  0.00     0.198 A 
ATOM     67  F   UNL A   1      38.184  30.200  36.277  1.00  0.00    -0.203 F 
ATOM     68  F   UNL A   1      40.103  35.277  36.851  1.00  0.00    -0.200 F 
ATOM     69  C   UNL A   1      38.659  33.551  37.567  1.00  0.00     0.200 A 
ATOM     70  F   UNL A   1      37.249  31.789  38.258  1.00  0.00    -0.200 F 
ATOM     71  F   UNL A   1      38.217  34.318  38.574  1.00  0.00    -0.200 F 
ENDBRANCH  47  61
BRANCH  48  72
ATOM     72  C   UNL A   1      42.631  26.454  27.666  1.00  0.00     0.064 A 
ATOM     73  C   UNL A   1      42.133  25.165  27.420  1.00  0.00     0.173 A 
ATOM     74  C   UNL A   1      43.592  26.959  26.780  1.00  0.00     0.173 A 
ATOM     75  F   UNL A   1      41.226  24.628  28.249  1.00  0.00    -0.203 F 
ATOM     76  C   UNL A   1      42.598  24.405  26.348  1.00  0.00     0.198 A 
ATOM     77  C   UNL A   1      44.032  26.210  25.689  1.00  0.00     0.198 A 
ATOM     78  F   UNL A   1      44.095  28.188  26.963  1.00  0.00    -0.203 F 
ATOM     79  F   UNL A   1      42.142  23.157  26.168  1.00  0.00    -0.200 F 
ATOM     80  C   UNL A   1      43.542  24.929  25.481  1.00  0.00     0.200 A 
ATOM     81  F   UNL A   1      44.933  26.728  24.843  1.00  0.00    -0.200 F 
ATOM     82  F   UNL A   1      43.985  24.200  24.448  1.00  0.00    -0.200 F 
ENDBRANCH  48  72
BRANCH  60  83
ATOM     83  C   UNL A   1      44.943  27.240  34.189  1.00  0.00     0.064 A 
ATOM     84  C   UNL A   1      44.805  26.034  34.892  1.00  0.00     0.173 A 
ATOM     85  C   UNL A   1      46.204  27.854  34.177  1.00  0.00     0.173 A 
ATOM     86  F   UNL A   1      43.615  25.415  34.943  1.00  0.00    -0.203 F 
ATOM     87  C   UNL A   1      45.877  25.486  35.589  1.00  0.00     0.198 A 
ATOM     88  C   UNL A   1      47.283  27.286  34.847  1.00  0.00     0.198 A 
ATOM     89  F   UNL A   1      46.391  29.003  33.511  1.00  0.00    -0.203 F 
ATOM     90  F   UNL A   1      45.706  24.366  36.305  1.00  0.00    -0.200 F 
ATOM     91  C   UNL A   1      47.116  26.109  35.562  1.00  0.00     0.200 A 
ATOM     92  F   UNL A   1      48.483  27.880  34.807  1.00  0.00    -0.200 F 
ATOM     93  F   UNL A   1      48.148  25.579  36.233  1.00  0.00    -0.200 F 
ENDBRANCH  60  83
ENDBRANCH  34  35
ENDBRANCH  26  29
ENDBRANCH  24  25
ENDBRANCH  23  24
ENDBRANCH  22  23
ENDBRANCH   3  22
TORSDOF 16
ENDMDL
MODEL 3
REMARK VINA RESULT:     -11.8      4.339      9.604
REMARK SMILES C[C@H](C(=O)NCCCNC(=O)c1ccc(-c2c3nc(c(-c4c(F)c(F)c(F)c(F)c4F)c4ccc([nH]4)c(-c4c(F)c(F)c(F)c(F)c4F)c4nc(c(-c5c(F)c(F)c(F)c(F)c5F)c5ccc2[nH]5)C=C4)C=C3)cc1)[C@@H](C)[NH2+]C[C@@H]1CCCC[C@@H]1CO
REMARK SMILES IDX 3 1 4 2 5 3 2 5 1 6 75 7 76 8 77 9 78 12 79 13 80 14 84 15
REMARK SMILES IDX 81 16 83 17 82 18 85 19 86 20 6 22 7 23 8 24 9 25 10 26
REMARK SMILES IDX 11 28 12 29 13 30 74 31 14 32 73 33 15 34 16 35 17 36 67 37
REMARK SMILES IDX 18 38 72 39 66 40 68 41 19 42 71 43 65 44 64 45 20 47 52 48
REMARK SMILES IDX 32 49 51 50 33 51 36 52 50 53 69 54 34 55 35 56 49 58 70 59
REMARK SMILES IDX 37 60 21 61 22 62 30 63 23 64 24 65 28 66 31 67 25 68 26 69
REMARK SMILES IDX 29 70 27 71 53 72 54 73 62 74 55 75 56 76 60 77 63 78 57 79
REMARK SMILES IDX 58 80 61 81 59 82 38 83 39 84 47 85 40 86 41 87 45 88 48 89
REMARK SMILES IDX 42 90 43 91 46 92 44 93
REMARK H PARENT 5 4 77 10 77 11 86 21 9 27 68 46 36 57
REMARK Flexibility Score: inf
ROOT
ATOM      1  C   UNL A   1      33.309  23.915  24.153  1.00  0.00     0.228 C 
ATOM      2  O   UNL A   1      32.326  24.208  23.450  1.00  0.00    -0.275 OA
ATOM      3  N   UNL A   1      34.456  23.710  23.419  1.00  0.00    -0.356 N 
ATOM      4  H   UNL A   1      34.320  23.630  22.448  1.00  0.00     0.163 HD
ENDROOT
BRANCH   1   5
ATOM      5  C   UNL A   1      33.100  23.898  25.748  1.00  0.00     0.133 C 
ATOM      6  C   UNL A   1      32.696  25.326  26.151  1.00  0.00     0.024 C 
BRANCH   5   7
ATOM      7  C   UNL A   1      32.240  22.818  26.500  1.00  0.00     0.191 C 
ATOM      8  C   UNL A   1      30.842  23.316  26.354  1.00  0.00     0.076 C 
BRANCH   7   9
ATOM      9  N   UNL A   1      32.171  21.410  25.919  1.00  0.00    -0.343 N 
ATOM     10  H   UNL A   1      31.434  21.404  25.215  1.00  0.00     0.346 HD
ATOM     11  H   UNL A   1      32.010  20.802  26.722  1.00  0.00     0.346 HD
BRANCH   9  12
ATOM     12  C   UNL A   1      33.426  20.868  25.267  1.00  0.00     0.264 C 
BRANCH  12  13
ATOM     13  C   UNL A   1      33.501  19.630  24.233  1.00  0.00     0.049 C 
ATOM     14  C   UNL A   1      32.274  19.353  23.325  1.00  0.00     0.010 C 
ATOM     15  C   UNL A   1      33.942  18.263  24.779  1.00  0.00     0.023 C 
ATOM     16  C   UNL A   1      32.522  18.219  22.284  1.00  0.00     0.001 C 
ATOM     17  C   UNL A   1      34.421  17.330  23.672  1.00  0.00     0.006 C 
ATOM     18  C   UNL A   1      33.282  16.973  22.752  1.00  0.00     0.000 C 
BRANCH  15  19
ATOM     19  C   UNL A   1      32.898  17.548  25.701  1.00  0.00     0.160 C 
BRANCH  19  20
ATOM     20  O   UNL A   1      32.528  18.269  26.871  1.00  0.00    -0.396 OA
ATOM     21  H   UNL A   1      31.564  18.368  26.898  1.00  0.00     0.210 HD
ENDBRANCH  19  20
ENDBRANCH  15  19
ENDBRANCH  12  13
ENDBRANCH   9  12
ENDBRANCH   7   9
ENDBRANCH   5   7
ENDBRANCH   1   5
BRANCH   3  22
ATOM     22  C   UNL A   1      35.829  23.594  23.853  1.00  0.00     0.117 C 
BRANCH  22  23
ATOM     23  C   UNL A   1      36.614  22.311  23.899  1.00  0.00     0.042 C 
BRANCH  23  24
ATOM     24  C   UNL A   1      36.964  21.739  25.270  1.00  0.00     0.118 C 
BRANCH  24  25
ATOM     25  N   UNL A   1      38.162  20.903  25.412  1.00  0.00    -0.352 N 
ATOM     26  C   UNL A   1      39.365  21.081  26.100  1.00  0.00     0.251 C 
ATOM     27  H   UNL A   1      38.107  20.049  24.926  1.00  0.00     0.163 HD
ATOM     28  O   UNL A   1      40.151  20.164  26.163  1.00  0.00    -0.269 OA
BRANCH  26  29
ATOM     29  C   UNL A   1      39.739  22.403  26.689  1.00  0.00     0.039 A 
ATOM     30  C   UNL A   1      40.767  22.474  27.638  1.00  0.00     0.014 A 
ATOM     31  C   UNL A   1      39.140  23.583  26.282  1.00  0.00     0.014 A 
ATOM     32  C   UNL A   1      41.269  23.723  28.039  1.00  0.00     0.010 A 
ATOM     33  C   UNL A   1      39.772  24.797  26.501  1.00  0.00     0.010 A 
ATOM     34  C   UNL A   1      40.831  24.897  27.407  1.00  0.00    -0.014 A 
BRANCH  34  35
ATOM     35  C   UNL A   1      41.419  26.238  27.687  1.00  0.00     0.031 A 
ATOM     36  C   UNL A   1      42.822  26.564  27.223  1.00  0.00     0.074 A 
ATOM     37  C   UNL A   1      40.742  27.130  28.439  1.00  0.00     0.049 A 
ATOM     38  N   UNL A   1      43.549  27.630  27.456  1.00  0.00    -0.248 NA
ATOM     39  C   UNL A   1      43.527  25.533  26.442  1.00  0.00     0.031 C 
ATOM     40  C   UNL A   1      39.426  26.909  29.043  1.00  0.00     0.029 A 
ATOM     41  N   UNL A   1      41.071  28.404  28.834  1.00  0.00    -0.354 N 
ATOM     42  C   UNL A   1      44.788  27.375  26.879  1.00  0.00     0.074 A 
ATOM     43  C   UNL A   1      44.753  26.023  26.376  1.00  0.00     0.031 C 
ATOM     44  C   UNL A   1      39.038  28.023  29.684  1.00  0.00     0.029 A 
ATOM     45  C   UNL A   1      40.093  29.025  29.574  1.00  0.00     0.049 A 
ATOM     46  H   UNL A   1      41.928  28.832  28.607  1.00  0.00     0.167 HD
ATOM     47  C   UNL A   1      45.847  28.207  26.730  1.00  0.00     0.037 A 
ATOM     48  C   UNL A   1      40.050  30.264  30.099  1.00  0.00     0.037 A 
ATOM     49  C   UNL A   1      45.861  29.572  27.177  1.00  0.00     0.049 A 
ATOM     50  C   UNL A   1      41.215  31.190  29.874  1.00  0.00     0.074 A 
ATOM     51  C   UNL A   1      46.849  30.526  27.013  1.00  0.00     0.029 A 
ATOM     52  N   UNL A   1      44.825  30.181  27.869  1.00  0.00    -0.354 N 
ATOM     53  N   UNL A   1      42.347  30.962  29.253  1.00  0.00    -0.248 NA
ATOM     54  C   UNL A   1      41.089  32.552  30.411  1.00  0.00     0.031 C 
ATOM     55  C   UNL A   1      46.427  31.702  27.641  1.00  0.00     0.029 A 
ATOM     56  C   UNL A   1      45.155  31.497  28.151  1.00  0.00     0.049 A 
ATOM     57  H   UNL A   1      43.980  29.744  28.123  1.00  0.00     0.167 HD
ATOM     58  C   UNL A   1      43.059  32.152  29.307  1.00  0.00     0.074 A 
ATOM     59  C   UNL A   1      42.217  33.110  29.995  1.00  0.00     0.031 C 
ATOM     60  C   UNL A   1      44.302  32.430  28.840  1.00  0.00     0.037 A 
BRANCH  47  61
ATOM     61  C   UNL A   1      47.059  27.669  26.020  1.00  0.00     0.064 A 
ATOM     62  C   UNL A   1      48.132  27.099  26.726  1.00  0.00     0.173 A 
ATOM     63  C   UNL A   1      47.145  27.702  24.621  1.00  0.00     0.173 A 
ATOM     64  F   UNL A   1      48.111  27.056  28.067  1.00  0.00    -0.203 F 
ATOM     65  C   UNL A   1      49.258  26.620  26.061  1.00  0.00     0.198 A 
ATOM     66  C   UNL A   1      48.257  27.188  23.957  1.00  0.00     0.198 A 
ATOM     67  F   UNL A   1      46.149  28.231  23.894  1.00  0.00    -0.203 F 
ATOM     68  F   UNL A   1      50.294  26.141  26.764  1.00  0.00    -0.200 F 
ATOM     69  C   UNL A   1      49.316  26.658  24.678  1.00  0.00     0.200 A 
ATOM     70  F   UNL A   1      48.307  27.213  22.618  1.00  0.00    -0.200 F 
ATOM     71  F   UNL A   1      50.396  26.190  24.038  1.00  0.00    -0.200 F 
ENDBRANCH  47  61
BRANCH  48  72
ATOM     72  C   UNL A   1      38.845  30.718  30.847  1.00  0.00     0.064 A 
ATOM     73  C   UNL A   1      38.787  30.622  32.246  1.00  0.00     0.173 A 
ATOM     74  C   UNL A   1      37.730  31.251  30.187  1.00  0.00     0.173 A 
ATOM     75  F   UNL A   1      39.821  30.101  32.924  1.00  0.00    -0.203 F 
ATOM     76  C   UNL A   1      37.651  31.015  32.950  1.00  0.00     0.198 A 
ATOM     77  C   UNL A   1      36.607  31.675  30.895  1.00  0.00     0.198 A 
ATOM     78  F   UNL A   1      37.735  31.375  28.851  1.00  0.00    -0.203 F 
ATOM     79  F   UNL A   1      37.605  30.863  34.281  1.00  0.00    -0.200 F 
ATOM     80  C   UNL A   1      36.564  31.547  32.275  1.00  0.00     0.200 A 
ATOM     81  F   UNL A   1      35.564  32.205  30.240  1.00  0.00    -0.200 F 
ATOM     82  F   UNL A   1      35.474  31.930  32.952  1.00  0.00    -0.200 F 
ENDBRANCH  48  72
BRANCH  60  83
ATOM     83  C   UNL A   1      44.811  33.827  29.043  1.00  0.00     0.064 A 
ATOM     84  C   UNL A   1      44.551  34.844  28.113  1.00  0.00     0.173 A 
ATOM     85  C   UNL A   1      45.549  34.155  30.190  1.00  0.00     0.173 A 
ATOM     86  F   UNL A   1      43.859  34.576  26.994  1.00  0.00    -0.203 F 
ATOM     87  C   UNL A   1      45.044  36.131  28.306  1.00  0.00     0.198 A 
ATOM     88  C   UNL A   1      46.012  35.452  30.395  1.00  0.00     0.198 A 
ATOM     89  F   UNL A   1      45.815  33.221  31.114  1.00  0.00    -0.203 F 
ATOM     90  F   UNL A   1      44.835  37.072  27.374  1.00  0.00    -0.200 F 
ATOM     91  C   UNL A   1      45.769  36.435  29.448  1.00  0.00     0.200 A 
ATOM     92  F   UNL A   1      46.697  35.748  31.507  1.00  0.00    -0.200 F 
ATOM     93  F   UNL A   1      46.242  37.676  29.632  1.00  0.00    -0.200 F 
ENDBRANCH  60  83
ENDBRANCH  34  35
ENDBRANCH  26  29
ENDBRANCH  24  25
ENDBRANCH  23  24
ENDBRANCH  22  23
ENDBRANCH   3  22
TORSDOF 16
ENDMDL
