MODEL 1
REMARK VINA RESULT:     -11.4      0.000      0.000
REMARK SMILES Cc1cc(OCCc2nc(CC(=O)NCCCNC(=O)c3ccc(-c4c5nc(c(-c6c(F)c(F)c(F)c(F)c6F)c6ccc([nH]6)c(-c6c(F)c(F)c(F)c(F)c6F)c6nc(c(-c7c(F)c(F)c(F)c(F)c7F)c7ccc4[nH]7)C=C6)C=C5)cc3)cs2)ccc1Cl
REMARK SMILES IDX 12 1 13 2 14 3 11 5 10 6 8 7 9 8 85 9 84 10 7 11 6 12 5 13
REMARK SMILES IDX 4 14 1 15 2 16 3 17 88 18 87 19 89 20 86 21 15 22 16 23
REMARK SMILES IDX 17 24 18 25 19 26 20 28 21 29 22 30 83 31 23 32 82 33 24 34
REMARK SMILES IDX 25 35 26 36 76 37 27 38 81 39 75 40 77 41 28 42 80 43 74 44
REMARK SMILES IDX 73 45 29 47 61 48 41 49 60 50 42 51 45 52 59 53 78 54 43 55
REMARK SMILES IDX 44 56 58 58 79 59 46 60 30 61 31 62 39 63 32 64 33 65 37 66
REMARK SMILES IDX 40 67 34 68 35 69 38 70 36 71 62 72 63 73 71 74 64 75 65 76
REMARK SMILES IDX 69 77 72 78 66 79 67 80 70 81 68 82 47 83 48 84 56 85 49 86
REMARK SMILES IDX 50 87 54 88 57 89 51 90 52 91 55 92 53 93
REMARK H PARENT 14 4 18 27 77 46 45 57
REMARK Flexibility Score: inf
ROOT
ATOM      1  C   UNL A   1      34.419  31.267  27.693  1.00  0.00     0.226 C 
ATOM      2  O   UNL A   1      35.367  30.461  27.683  1.00  0.00    -0.275 OA
ATOM      3  N   UNL A   1      34.781  32.512  28.163  1.00  0.00    -0.356 N 
ATOM      4  H   UNL A   1      35.539  32.442  28.787  1.00  0.00     0.163 HD
ENDROOT
BRANCH   1   5
ATOM      5  C   UNL A   1      33.026  30.728  27.253  1.00  0.00     0.157 C 
BRANCH   5   6
ATOM      6  C   UNL A   1      33.091  29.482  26.345  1.00  0.00     0.061 A 
ATOM      7  C   UNL A   1      33.191  27.239  25.952  1.00  0.00     0.096 A 
ATOM      8  N   UNL A   1      32.969  28.173  26.872  1.00  0.00    -0.246 NA
ATOM      9  S   UNL A   1      33.425  27.884  24.366  1.00  0.00    -0.127 S 
ATOM     10  C   UNL A   1      33.246  29.482  24.970  1.00  0.00     0.091 A 
BRANCH   7  11
ATOM     11  C   UNL A   1      33.133  25.717  26.141  1.00  0.00     0.109 C 
BRANCH  11  12
ATOM     12  C   UNL A   1      31.730  25.054  26.175  1.00  0.00     0.237 C 
BRANCH  12  13
ATOM     13  O   UNL A   1      31.526  24.090  27.251  1.00  0.00    -0.493 OA
BRANCH  13  14
ATOM     14  C   UNL A   1      32.065  22.876  26.921  1.00  0.00     0.119 A 
ATOM     15  C   UNL A   1      32.364  21.714  23.530  1.00  0.00     0.046 C 
ATOM     16  C   UNL A   1      32.653  21.634  25.003  1.00  0.00    -0.029 A 
ATOM     17  C   UNL A   1      31.679  22.279  25.739  1.00  0.00     0.051 A 
ATOM     18  C   UNL A   1      33.828  21.225  25.673  1.00  0.00     0.044 A 
ATOM     19  C   UNL A   1      34.037  21.558  27.014  1.00  0.00     0.024 A 
ATOM     20  Cl  UNL A   1      35.156  20.381  25.000  1.00  0.00    -0.084 Cl
ATOM     21  C   UNL A   1      33.169  22.435  27.635  1.00  0.00     0.048 A 
ENDBRANCH  13  14
ENDBRANCH  12  13
ENDBRANCH  11  12
ENDBRANCH   7  11
ENDBRANCH   5   6
ENDBRANCH   1   5
BRANCH   3  22
ATOM     22  C   UNL A   1      34.361  33.922  28.001  1.00  0.00     0.117 C 
BRANCH  22  23
ATOM     23  C   UNL A   1      33.228  34.545  28.885  1.00  0.00     0.042 C 
BRANCH  23  24
ATOM     24  C   UNL A   1      33.197  36.069  29.150  1.00  0.00     0.118 C 
BRANCH  24  25
ATOM     25  N   UNL A   1      32.528  36.336  30.442  1.00  0.00    -0.352 N 
ATOM     26  C   UNL A   1      32.646  35.869  31.717  1.00  0.00     0.251 C 
ATOM     27  H   UNL A   1      31.825  37.020  30.360  1.00  0.00     0.163 HD
ATOM     28  O   UNL A   1      31.711  36.142  32.506  1.00  0.00    -0.269 OA
BRANCH  26  29
ATOM     29  C   UNL A   1      33.795  35.108  32.264  1.00  0.00     0.039 A 
ATOM     30  C   UNL A   1      35.084  35.660  32.140  1.00  0.00     0.014 A 
ATOM     31  C   UNL A   1      33.674  33.802  32.738  1.00  0.00     0.014 A 
ATOM     32  C   UNL A   1      36.227  34.929  32.498  1.00  0.00     0.010 A 
ATOM     33  C   UNL A   1      34.815  33.085  33.139  1.00  0.00     0.010 A 
ATOM     34  C   UNL A   1      36.105  33.633  33.017  1.00  0.00    -0.014 A 
BRANCH  34  35
ATOM     35  C   UNL A   1      37.307  32.842  33.416  1.00  0.00     0.031 A 
ATOM     36  C   UNL A   1      38.017  33.120  34.718  1.00  0.00     0.074 A 
ATOM     37  C   UNL A   1      37.802  31.901  32.586  1.00  0.00     0.049 A 
ATOM     38  N   UNL A   1      39.134  32.613  35.183  1.00  0.00    -0.248 NA
ATOM     39  C   UNL A   1      37.398  34.117  35.603  1.00  0.00     0.031 C 
ATOM     40  C   UNL A   1      37.232  31.538  31.289  1.00  0.00     0.029 A 
ATOM     41  N   UNL A   1      38.906  31.089  32.701  1.00  0.00    -0.354 N 
ATOM     42  C   UNL A   1      39.365  33.250  36.397  1.00  0.00     0.074 A 
ATOM     43  C   UNL A   1      38.292  34.202  36.583  1.00  0.00     0.031 C 
ATOM     44  C   UNL A   1      37.982  30.574  30.732  1.00  0.00     0.029 A 
ATOM     45  C   UNL A   1      39.108  30.275  31.612  1.00  0.00     0.049 A 
ATOM     46  H   UNL A   1      39.495  31.090  33.490  1.00  0.00     0.167 HD
ATOM     47  C   UNL A   1      40.372  33.049  37.285  1.00  0.00     0.037 A 
ATOM     48  C   UNL A   1      40.097  29.399  31.342  1.00  0.00     0.037 A 
ATOM     49  C   UNL A   1      41.419  32.073  37.125  1.00  0.00     0.049 A 
ATOM     50  C   UNL A   1      41.202  29.193  32.344  1.00  0.00     0.074 A 
ATOM     51  C   UNL A   1      42.441  31.750  38.003  1.00  0.00     0.029 A 
ATOM     52  N   UNL A   1      41.578  31.258  36.014  1.00  0.00    -0.354 N 
ATOM     53  N   UNL A   1      41.381  29.769  33.507  1.00  0.00    -0.248 NA
ATOM     54  C   UNL A   1      42.240  28.214  31.993  1.00  0.00     0.031 C 
ATOM     55  C   UNL A   1      43.242  30.770  37.406  1.00  0.00     0.029 A 
ATOM     56  C   UNL A   1      42.694  30.450  36.174  1.00  0.00     0.049 A 
ATOM     57  H   UNL A   1      40.988  31.255  35.227  1.00  0.00     0.167 HD
ATOM     58  C   UNL A   1      42.536  29.209  34.035  1.00  0.00     0.074 A 
ATOM     59  C   UNL A   1      43.008  28.235  33.075  1.00  0.00     0.031 C 
ATOM     60  C   UNL A   1      43.154  29.484  35.211  1.00  0.00     0.037 A 
BRANCH  47  61
ATOM     61  C   UNL A   1      40.395  33.903  38.521  1.00  0.00     0.064 A 
ATOM     62  C   UNL A   1      39.697  33.538  39.682  1.00  0.00     0.173 A 
ATOM     63  C   UNL A   1      41.164  35.076  38.561  1.00  0.00     0.173 A 
ATOM     64  F   UNL A   1      38.942  32.429  39.695  1.00  0.00    -0.203 F 
ATOM     65  C   UNL A   1      39.746  34.330  40.827  1.00  0.00     0.198 A 
ATOM     66  C   UNL A   1      41.234  35.850  39.718  1.00  0.00     0.198 A 
ATOM     67  F   UNL A   1      41.862  35.466  37.483  1.00  0.00    -0.203 F 
ATOM     68  F   UNL A   1      39.034  33.984  41.910  1.00  0.00    -0.200 F 
ATOM     69  C   UNL A   1      40.518  35.481  40.846  1.00  0.00     0.200 A 
ATOM     70  F   UNL A   1      41.992  36.955  39.739  1.00  0.00    -0.200 F 
ATOM     71  F   UNL A   1      40.569  36.238  41.951  1.00  0.00    -0.200 F 
ENDBRANCH  47  61
BRANCH  48  72
ATOM     72  C   UNL A   1      40.081  28.635  30.067  1.00  0.00     0.064 A 
ATOM     73  C   UNL A   1      40.676  29.154  28.908  1.00  0.00     0.173 A 
ATOM     74  C   UNL A   1      39.469  27.376  29.978  1.00  0.00     0.173 A 
ATOM     75  F   UNL A   1      41.250  30.367  28.938  1.00  0.00    -0.203 F 
ATOM     76  C   UNL A   1      40.648  28.451  27.706  1.00  0.00     0.198 A 
ATOM     77  C   UNL A   1      39.467  26.661  28.781  1.00  0.00     0.198 A 
ATOM     78  F   UNL A   1      38.886  26.833  31.056  1.00  0.00    -0.203 F 
ATOM     79  F   UNL A   1      41.188  28.989  26.605  1.00  0.00    -0.200 F 
ATOM     80  C   UNL A   1      40.050  27.202  27.646  1.00  0.00     0.200 A 
ATOM     81  F   UNL A   1      38.898  25.448  28.729  1.00  0.00    -0.200 F 
ATOM     82  F   UNL A   1      40.028  26.522  26.491  1.00  0.00    -0.200 F 
ENDBRANCH  48  72
BRANCH  60  83
ATOM     83  C   UNL A   1      44.395  28.704  35.533  1.00  0.00     0.064 A 
ATOM     84  C   UNL A   1      44.333  27.468  36.192  1.00  0.00     0.173 A 
ATOM     85  C   UNL A   1      45.656  29.181  35.146  1.00  0.00     0.173 A 
ATOM     86  F   UNL A   1      43.152  26.977  36.597  1.00  0.00    -0.203 F 
ATOM     87  C   UNL A   1      45.491  26.749  36.474  1.00  0.00     0.198 A 
ATOM     88  C   UNL A   1      46.810  28.446  35.404  1.00  0.00     0.198 A 
ATOM     89  F   UNL A   1      45.769  30.356  34.508  1.00  0.00    -0.203 F 
ATOM     90  F   UNL A   1      45.413  25.590  37.143  1.00  0.00    -0.200 F 
ATOM     91  C   UNL A   1      46.728  27.234  36.073  1.00  0.00     0.200 A 
ATOM     92  F   UNL A   1      48.002  28.912  35.008  1.00  0.00    -0.200 F 
ATOM     93  F   UNL A   1      47.841  26.538  36.340  1.00  0.00    -0.200 F 
ENDBRANCH  60  83
ENDBRANCH  34  35
ENDBRANCH  26  29
ENDBRANCH  24  25
ENDBRANCH  23  24
ENDBRANCH  22  23
ENDBRANCH   3  22
TORSDOF 15
ENDMDL
MODEL 2
REMARK VINA RESULT:     -11.4      4.420      6.404
REMARK SMILES Cc1cc(OCCc2nc(CC(=O)NCCCNC(=O)c3ccc(-c4c5nc(c(-c6c(F)c(F)c(F)c(F)c6F)c6ccc([nH]6)c(-c6c(F)c(F)c(F)c(F)c6F)c6nc(c(-c7c(F)c(F)c(F)c(F)c7F)c7ccc4[nH]7)C=C6)C=C5)cc3)cs2)ccc1Cl
REMARK SMILES IDX 12 1 13 2 14 3 11 5 10 6 8 7 9 8 85 9 84 10 7 11 6 12 5 13
REMARK SMILES IDX 4 14 1 15 2 16 3 17 88 18 87 19 89 20 86 21 15 22 16 23
REMARK SMILES IDX 17 24 18 25 19 26 20 28 21 29 22 30 83 31 23 32 82 33 24 34
REMARK SMILES IDX 25 35 26 36 76 37 27 38 81 39 75 40 77 41 28 42 80 43 74 44
REMARK SMILES IDX 73 45 29 47 61 48 41 49 60 50 42 51 45 52 59 53 78 54 43 55
REMARK SMILES IDX 44 56 58 58 79 59 46 60 30 61 31 62 39 63 32 64 33 65 37 66
REMARK SMILES IDX 40 67 34 68 35 69 38 70 36 71 62 72 63 73 71 74 64 75 65 76
REMARK SMILES IDX 69 77 72 78 66 79 67 80 70 81 68 82 47 83 48 84 56 85 49 86
REMARK SMILES IDX 50 87 54 88 57 89 51 90 52 91 55 92 53 93
REMARK H PARENT 14 4 18 27 77 46 45 57
REMARK Flexibility Score: inf
ROOT
ATOM      1  C   UNL A   1      30.246  28.267  23.239  1.00  0.00     0.226 C 
ATOM      2  O   UNL A   1      30.088  28.599  22.049  1.00  0.00    -0.275 OA
ATOM      3  N   UNL A   1      31.267  28.958  23.856  1.00  0.00    -0.356 N 
ATOM      4  H   UNL A   1      31.943  29.242  23.200  1.00  0.00     0.163 HD
ENDROOT
BRANCH   1   5
ATOM      5  C   UNL A   1      29.339  27.122  23.780  1.00  0.00     0.157 C 
BRANCH   5   6
ATOM      6  C   UNL A   1      30.106  25.837  24.158  1.00  0.00     0.061 A 
ATOM      7  C   UNL A   1      31.176  23.880  23.690  1.00  0.00     0.096 A 
ATOM      8  N   UNL A   1      30.685  25.001  23.172  1.00  0.00    -0.246 NA
ATOM      9  S   UNL A   1      31.092  23.830  25.416  1.00  0.00    -0.127 S 
ATOM     10  C   UNL A   1      30.335  25.371  25.441  1.00  0.00     0.091 A 
BRANCH   7  11
ATOM     11  C   UNL A   1      31.890  22.746  22.942  1.00  0.00     0.109 C 
BRANCH  11  12
ATOM     12  C   UNL A   1      33.137  22.116  23.619  1.00  0.00     0.237 C 
BRANCH  12  13
ATOM     13  O   UNL A   1      34.387  22.839  23.408  1.00  0.00    -0.493 OA
BRANCH  13  14
ATOM     14  C   UNL A   1      35.211  22.704  24.492  1.00  0.00     0.119 A 
ATOM     15  C   UNL A   1      37.590  20.026  24.831  1.00  0.00     0.046 C 
ATOM     16  C   UNL A   1      36.991  21.344  25.236  1.00  0.00    -0.029 A 
ATOM     17  C   UNL A   1      35.680  21.447  24.816  1.00  0.00     0.051 A 
ATOM     18  C   UNL A   1      37.617  22.505  25.743  1.00  0.00     0.044 A 
ATOM     19  C   UNL A   1      36.960  23.738  25.720  1.00  0.00     0.024 A 
ATOM     20  Cl  UNL A   1      39.210  22.630  26.358  1.00  0.00    -0.084 Cl
ATOM     21  C   UNL A   1      35.761  23.851  25.042  1.00  0.00     0.048 A 
ENDBRANCH  13  14
ENDBRANCH  12  13
ENDBRANCH  11  12
ENDBRANCH   7  11
ENDBRANCH   5   6
ENDBRANCH   1   5
BRANCH   3  22
ATOM     22  C   UNL A   1      31.641  29.397  25.219  1.00  0.00     0.117 C 
BRANCH  22  23
ATOM     23  C   UNL A   1      32.009  28.367  26.339  1.00  0.00     0.042 C 
BRANCH  23  24
ATOM     24  C   UNL A   1      33.379  28.448  27.053  1.00  0.00     0.118 C 
BRANCH  24  25
ATOM     25  N   UNL A   1      33.631  29.838  27.491  1.00  0.00    -0.352 N 
ATOM     26  C   UNL A   1      34.626  30.485  28.163  1.00  0.00     0.251 C 
ATOM     27  H   UNL A   1      32.901  30.445  27.234  1.00  0.00     0.163 HD
ATOM     28  O   UNL A   1      34.363  31.633  28.591  1.00  0.00    -0.269 OA
BRANCH  26  29
ATOM     29  C   UNL A   1      35.998  29.972  28.393  1.00  0.00     0.039 A 
ATOM     30  C   UNL A   1      36.328  29.490  29.674  1.00  0.00     0.014 A 
ATOM     31  C   UNL A   1      37.017  30.105  27.450  1.00  0.00     0.014 A 
ATOM     32  C   UNL A   1      37.644  29.132  30.001  1.00  0.00     0.010 A 
ATOM     33  C   UNL A   1      38.329  29.705  27.763  1.00  0.00     0.010 A 
ATOM     34  C   UNL A   1      38.662  29.222  29.042  1.00  0.00    -0.014 A 
BRANCH  34  35
ATOM     35  C   UNL A   1      40.067  28.835  29.365  1.00  0.00     0.031 A 
ATOM     36  C   UNL A   1      40.963  29.761  30.151  1.00  0.00     0.074 A 
ATOM     37  C   UNL A   1      40.567  27.668  28.909  1.00  0.00     0.049 A 
ATOM     38  N   UNL A   1      42.239  29.645  30.435  1.00  0.00    -0.248 NA
ATOM     39  C   UNL A   1      40.344  30.990  30.667  1.00  0.00     0.031 C 
ATOM     40  C   UNL A   1      39.825  26.684  28.122  1.00  0.00     0.029 A 
ATOM     41  N   UNL A   1      41.823  27.119  29.027  1.00  0.00    -0.354 N 
ATOM     42  C   UNL A   1      42.580  30.797  31.134  1.00  0.00     0.074 A 
ATOM     43  C   UNL A   1      41.387  31.613  31.205  1.00  0.00     0.031 C 
ATOM     44  C   UNL A   1      40.632  25.650  27.834  1.00  0.00     0.029 A 
ATOM     45  C   UNL A   1      41.960  25.913  28.381  1.00  0.00     0.049 A 
ATOM     46  H   UNL A   1      42.553  27.548  29.527  1.00  0.00     0.167 HD
ATOM     47  C   UNL A   1      43.774  31.137  31.681  1.00  0.00     0.037 A 
ATOM     48  C   UNL A   1      43.036  25.115  28.231  1.00  0.00     0.037 A 
ATOM     49  C   UNL A   1      44.952  30.308  31.650  1.00  0.00     0.049 A 
ATOM     50  C   UNL A   1      44.350  25.514  28.848  1.00  0.00     0.074 A 
ATOM     51  C   UNL A   1      46.186  30.538  32.236  1.00  0.00     0.029 A 
ATOM     52  N   UNL A   1      45.044  29.088  30.999  1.00  0.00    -0.354 N 
ATOM     53  N   UNL A   1      44.644  26.583  29.545  1.00  0.00    -0.248 NA
ATOM     54  C   UNL A   1      45.479  24.593  28.658  1.00  0.00     0.031 C 
ATOM     55  C   UNL A   1      47.037  29.477  31.906  1.00  0.00     0.029 A 
ATOM     56  C   UNL A   1      46.320  28.564  31.150  1.00  0.00     0.049 A 
ATOM     57  H   UNL A   1      44.312  28.656  30.502  1.00  0.00     0.167 HD
ATOM     58  C   UNL A   1      45.981  26.455  29.894  1.00  0.00     0.074 A 
ATOM     59  C   UNL A   1      46.438  25.195  29.348  1.00  0.00     0.031 C 
ATOM     60  C   UNL A   1      46.763  27.309  30.601  1.00  0.00     0.037 A 
BRANCH  47  61
ATOM     61  C   UNL A   1      43.874  32.469  32.369  1.00  0.00     0.064 A 
ATOM     62  C   UNL A   1      43.598  32.615  33.737  1.00  0.00     0.173 A 
ATOM     63  C   UNL A   1      44.299  33.604  31.662  1.00  0.00     0.173 A 
ATOM     64  F   UNL A   1      43.183  31.563  34.457  1.00  0.00    -0.203 F 
ATOM     65  C   UNL A   1      43.716  33.853  34.364  1.00  0.00     0.198 A 
ATOM     66  C   UNL A   1      44.444  34.835  32.299  1.00  0.00     0.198 A 
ATOM     67  F   UNL A   1      44.588  33.519  30.354  1.00  0.00    -0.203 F 
ATOM     68  F   UNL A   1      43.402  33.978  35.662  1.00  0.00    -0.200 F 
ATOM     69  C   UNL A   1      44.144  34.960  33.647  1.00  0.00     0.200 A 
ATOM     70  F   UNL A   1      44.871  35.900  31.608  1.00  0.00    -0.200 F 
ATOM     71  F   UNL A   1      44.263  36.149  34.254  1.00  0.00    -0.200 F 
ENDBRANCH  47  61
BRANCH  48  72
ATOM     72  C   UNL A   1      42.914  23.844  27.469  1.00  0.00     0.064 A 
ATOM     73  C   UNL A   1      43.222  23.791  26.102  1.00  0.00     0.173 A 
ATOM     74  C   UNL A   1      42.485  22.660  28.088  1.00  0.00     0.173 A 
ATOM     75  F   UNL A   1      43.611  24.903  25.461  1.00  0.00    -0.203 F 
ATOM     76  C   UNL A   1      43.092  22.606  25.380  1.00  0.00     0.198 A 
ATOM     77  C   UNL A   1      42.383  21.470  27.370  1.00  0.00     0.198 A 
ATOM     78  F   UNL A   1      42.179  22.656  29.393  1.00  0.00    -0.203 F 
ATOM     79  F   UNL A   1      43.353  22.594  24.066  1.00  0.00    -0.200 F 
ATOM     80  C   UNL A   1      42.680  21.446  26.016  1.00  0.00     0.200 A 
ATOM     81  F   UNL A   1      41.996  20.347  27.991  1.00  0.00    -0.200 F 
ATOM     82  F   UNL A   1      42.561  20.305  25.322  1.00  0.00    -0.200 F 
ENDBRANCH  48  72
BRANCH  60  83
ATOM     83  C   UNL A   1      48.186  26.899  30.841  1.00  0.00     0.064 A 
ATOM     84  C   UNL A   1      48.534  26.044  31.897  1.00  0.00     0.173 A 
ATOM     85  C   UNL A   1      49.208  27.337  29.985  1.00  0.00     0.173 A 
ATOM     86  F   UNL A   1      47.595  25.611  32.753  1.00  0.00    -0.203 F 
ATOM     87  C   UNL A   1      49.856  25.661  32.101  1.00  0.00     0.198 A 
ATOM     88  C   UNL A   1      50.525  26.929  30.175  1.00  0.00     0.198 A 
ATOM     89  F   UNL A   1      48.926  28.152  28.957  1.00  0.00    -0.203 F 
ATOM     90  F   UNL A   1      50.173  24.877  33.142  1.00  0.00    -0.200 F 
ATOM     91  C   UNL A   1      50.850  26.097  31.237  1.00  0.00     0.200 A 
ATOM     92  F   UNL A   1      51.482  27.344  29.334  1.00  0.00    -0.200 F 
ATOM     93  F   UNL A   1      52.121  25.723  31.431  1.00  0.00    -0.200 F 
ENDBRANCH  60  83
ENDBRANCH  34  35
ENDBRANCH  26  29
ENDBRANCH  24  25
ENDBRANCH  23  24
ENDBRANCH  22  23
ENDBRANCH   3  22
TORSDOF 15
ENDMDL
MODEL 3
REMARK VINA RESULT:     -11.2      4.588      9.685
REMARK SMILES Cc1cc(OCCc2nc(CC(=O)NCCCNC(=O)c3ccc(-c4c5nc(c(-c6c(F)c(F)c(F)c(F)c6F)c6ccc([nH]6)c(-c6c(F)c(F)c(F)c(F)c6F)c6nc(c(-c7c(F)c(F)c(F)c(F)c7F)c7ccc4[nH]7)C=C6)C=C5)cc3)cs2)ccc1Cl
REMARK SMILES IDX 12 1 13 2 14 3 11 5 10 6 8 7 9 8 85 9 84 10 7 11 6 12 5 13
REMARK SMILES IDX 4 14 1 15 2 16 3 17 88 18 87 19 89 20 86 21 15 22 16 23
REMARK SMILES IDX 17 24 18 25 19 26 20 28 21 29 22 30 83 31 23 32 82 33 24 34
REMARK SMILES IDX 25 35 26 36 76 37 27 38 81 39 75 40 77 41 28 42 80 43 74 44
REMARK SMILES IDX 73 45 29 47 61 48 41 49 60 50 42 51 45 52 59 53 78 54 43 55
REMARK SMILES IDX 44 56 58 58 79 59 46 60 30 61 31 62 39 63 32 64 33 65 37 66
REMARK SMILES IDX 40 67 34 68 35 69 38 70 36 71 62 72 63 73 71 74 64 75 65 76
REMARK SMILES IDX 69 77 72 78 66 79 67 80 70 81 68 82 47 83 48 84 56 85 49 86
REMARK SMILES IDX 50 87 54 88 57 89 51 90 52 91 55 92 53 93
REMARK H PARENT 14 4 18 27 77 46 45 57
REMARK Flexibility Score: inf
ROOT
ATOM      1  C   UNL A   1      32.508  20.845  25.054  1.00  0.00     0.226 C 
ATOM      2  O   UNL A   1      32.129  19.679  25.273  1.00  0.00    -0.275 OA
ATOM      3  N   UNL A   1      32.656  21.584  26.207  1.00  0.00    -0.356 N 
ATOM      4  H   UNL A   1      32.056  21.253  26.914  1.00  0.00     0.163 HD
ENDROOT
BRANCH   1   5
ATOM      5  C   UNL A   1      32.677  21.265  23.564  1.00  0.00     0.157 C 
BRANCH   5   6
ATOM      6  C   UNL A   1      32.311  22.738  23.280  1.00  0.00     0.061 A 
ATOM      7  C   UNL A   1      32.779  24.877  22.649  1.00  0.00     0.096 A 
ATOM      8  N   UNL A   1      33.235  23.629  22.680  1.00  0.00    -0.246 NA
ATOM      9  S   UNL A   1      31.153  25.026  23.217  1.00  0.00    -0.127 S 
ATOM     10  C   UNL A   1      31.093  23.340  23.539  1.00  0.00     0.091 A 
BRANCH   7  11
ATOM     11  C   UNL A   1      33.484  26.109  22.066  1.00  0.00     0.109 C 
BRANCH  11  12
ATOM     12  C   UNL A   1      33.097  27.496  22.645  1.00  0.00     0.237 C 
BRANCH  12  13
ATOM     13  O   UNL A   1      33.908  27.945  23.772  1.00  0.00    -0.493 OA
BRANCH  13  14
ATOM     14  C   UNL A   1      33.119  28.499  24.744  1.00  0.00     0.119 A 
ATOM     15  C   UNL A   1      34.413  30.587  27.371  1.00  0.00     0.046 C 
ATOM     16  C   UNL A   1      33.294  29.989  26.566  1.00  0.00    -0.029 A 
ATOM     17  C   UNL A   1      33.689  28.812  25.961  1.00  0.00     0.051 A 
ATOM     18  C   UNL A   1      32.058  30.552  26.175  1.00  0.00     0.044 A 
ATOM     19  C   UNL A   1      31.313  29.988  25.137  1.00  0.00     0.024 A 
ATOM     20  Cl  UNL A   1      31.333  31.973  26.797  1.00  0.00    -0.084 Cl
ATOM     21  C   UNL A   1      31.870  28.978  24.378  1.00  0.00     0.048 A 
ENDBRANCH  13  14
ENDBRANCH  12  13
ENDBRANCH  11  12
ENDBRANCH   7  11
ENDBRANCH   5   6
ENDBRANCH   1   5
BRANCH   3  22
ATOM     22  C   UNL A   1      33.456  22.732  26.692  1.00  0.00     0.117 C 
BRANCH  22  23
ATOM     23  C   UNL A   1      34.982  22.591  27.010  1.00  0.00     0.042 C 
BRANCH  23  24
ATOM     24  C   UNL A   1      36.028  23.348  26.157  1.00  0.00     0.118 C 
BRANCH  24  25
ATOM     25  N   UNL A   1      37.270  22.550  26.068  1.00  0.00    -0.352 N 
ATOM     26  C   UNL A   1      38.605  22.806  26.177  1.00  0.00     0.251 C 
ATOM     27  H   UNL A   1      37.087  21.601  25.885  1.00  0.00     0.163 HD
ATOM     28  O   UNL A   1      39.385  21.914  25.769  1.00  0.00    -0.269 OA
BRANCH  26  29
ATOM     29  C   UNL A   1      39.214  24.020  26.771  1.00  0.00     0.039 A 
ATOM     30  C   UNL A   1      38.912  24.335  28.110  1.00  0.00     0.014 A 
ATOM     31  C   UNL A   1      39.930  24.948  26.015  1.00  0.00     0.014 A 
ATOM     32  C   UNL A   1      39.331  25.543  28.686  1.00  0.00     0.010 A 
ATOM     33  C   UNL A   1      40.388  26.140  26.605  1.00  0.00     0.010 A 
ATOM     34  C   UNL A   1      40.089  26.458  27.942  1.00  0.00    -0.014 A 
BRANCH  34  35
ATOM     35  C   UNL A   1      40.556  27.744  28.539  1.00  0.00     0.031 A 
ATOM     36  C   UNL A   1      41.994  27.924  28.959  1.00  0.00     0.074 A 
ATOM     37  C   UNL A   1      39.678  28.745  28.758  1.00  0.00     0.049 A 
ATOM     38  N   UNL A   1      42.560  28.925  29.591  1.00  0.00    -0.248 NA
ATOM     39  C   UNL A   1      42.912  26.820  28.644  1.00  0.00     0.031 C 
ATOM     40  C   UNL A   1      38.256  28.706  28.421  1.00  0.00     0.029 A 
ATOM     41  N   UNL A   1      39.849  29.984  29.331  1.00  0.00    -0.354 N 
ATOM     42  C   UNL A   1      43.888  28.558  29.774  1.00  0.00     0.074 A 
ATOM     43  C   UNL A   1      44.039  27.232  29.216  1.00  0.00     0.031 C 
ATOM     44  C   UNL A   1      37.685  29.865  28.785  1.00  0.00     0.029 A 
ATOM     45  C   UNL A   1      38.690  30.717  29.414  1.00  0.00     0.049 A 
ATOM     46  H   UNL A   1      40.720  30.314  29.649  1.00  0.00     0.167 HD
ATOM     47  C   UNL A   1      44.895  29.269  30.342  1.00  0.00     0.037 A 
ATOM     48  C   UNL A   1      38.455  31.931  29.953  1.00  0.00     0.037 A 
ATOM     49  C   UNL A   1      44.761  30.606  30.860  1.00  0.00     0.049 A 
ATOM     50  C   UNL A   1      39.590  32.699  30.576  1.00  0.00     0.074 A 
ATOM     51  C   UNL A   1      45.740  31.430  31.390  1.00  0.00     0.029 A 
ATOM     52  N   UNL A   1      43.572  31.318  30.912  1.00  0.00    -0.354 N 
ATOM     53  N   UNL A   1      40.849  32.359  30.700  1.00  0.00    -0.248 NA
ATOM     54  C   UNL A   1      39.269  34.021  31.132  1.00  0.00     0.031 C 
ATOM     55  C   UNL A   1      45.137  32.624  31.800  1.00  0.00     0.029 A 
ATOM     56  C   UNL A   1      43.789  32.562  31.486  1.00  0.00     0.049 A 
ATOM     57  H   UNL A   1      42.702  30.989  30.591  1.00  0.00     0.167 HD
ATOM     58  C   UNL A   1      41.473  33.428  31.327  1.00  0.00     0.074 A 
ATOM     59  C   UNL A   1      40.460  34.438  31.542  1.00  0.00     0.031 C 
ATOM     60  C   UNL A   1      42.772  33.559  31.695  1.00  0.00     0.037 A 
BRANCH  47  61
ATOM     61  C   UNL A   1      46.245  28.615  30.434  1.00  0.00     0.064 A 
ATOM     62  C   UNL A   1      46.623  27.859  31.555  1.00  0.00     0.173 A 
ATOM     63  C   UNL A   1      47.153  28.703  29.368  1.00  0.00     0.173 A 
ATOM     64  F   UNL A   1      45.795  27.748  32.604  1.00  0.00    -0.203 F 
ATOM     65  C   UNL A   1      47.870  27.242  31.616  1.00  0.00     0.198 A 
ATOM     66  C   UNL A   1      48.388  28.059  29.420  1.00  0.00     0.198 A 
ATOM     67  F   UNL A   1      46.838  29.402  28.266  1.00  0.00    -0.203 F 
ATOM     68  F   UNL A   1      48.227  26.563  32.716  1.00  0.00    -0.200 F 
ATOM     69  C   UNL A   1      48.749  27.337  30.547  1.00  0.00     0.200 A 
ATOM     70  F   UNL A   1      49.229  28.141  28.380  1.00  0.00    -0.200 F 
ATOM     71  F   UNL A   1      49.945  26.736  30.605  1.00  0.00    -0.200 F 
ENDBRANCH  47  61
BRANCH  48  72
ATOM     72  C   UNL A   1      37.085  32.505  29.915  1.00  0.00     0.064 A 
ATOM     73  C   UNL A   1      36.646  33.252  28.813  1.00  0.00     0.173 A 
ATOM     74  C   UNL A   1      36.187  32.322  30.978  1.00  0.00     0.173 A 
ATOM     75  F   UNL A   1      37.478  33.476  27.784  1.00  0.00    -0.203 F 
ATOM     76  C   UNL A   1      35.369  33.807  28.780  1.00  0.00     0.198 A 
ATOM     77  C   UNL A   1      34.899  32.854  30.931  1.00  0.00     0.198 A 
ATOM     78  F   UNL A   1      36.555  31.615  32.056  1.00  0.00    -0.203 F 
ATOM     79  F   UNL A   1      34.991  34.552  27.733  1.00  0.00    -0.200 F 
ATOM     80  C   UNL A   1      34.494  33.601  29.836  1.00  0.00     0.200 A 
ATOM     81  F   UNL A   1      34.053  32.643  31.948  1.00  0.00    -0.200 F 
ATOM     82  F   UNL A   1      33.263  34.130  29.802  1.00  0.00    -0.200 F 
ENDBRANCH  48  72
BRANCH  60  83
ATOM     83  C   UNL A   1      43.174  34.848  32.350  1.00  0.00     0.064 A 
ATOM     84  C   UNL A   1      43.592  35.953  31.597  1.00  0.00     0.173 A 
ATOM     85  C   UNL A   1      43.105  34.990  33.745  1.00  0.00     0.173 A 
ATOM     86  F   UNL A   1      43.691  35.862  30.261  1.00  0.00    -0.203 F 
ATOM     87  C   UNL A   1      43.950  37.148  32.216  1.00  0.00     0.198 A 
ATOM     88  C   UNL A   1      43.436  36.195  34.359  1.00  0.00     0.198 A 
ATOM     89  F   UNL A   1      42.705  33.964  34.510  1.00  0.00    -0.203 F 
ATOM     90  F   UNL A   1      44.388  38.179  31.479  1.00  0.00    -0.200 F 
ATOM     91  C   UNL A   1      43.864  37.271  33.595  1.00  0.00     0.200 A 
ATOM     92  F   UNL A   1      43.344  36.314  35.690  1.00  0.00    -0.200 F 
ATOM     93  F   UNL A   1      44.203  38.422  34.189  1.00  0.00    -0.200 F 
ENDBRANCH  60  83
ENDBRANCH  34  35
ENDBRANCH  26  29
ENDBRANCH  24  25
ENDBRANCH  23  24
ENDBRANCH  22  23
ENDBRANCH   3  22
TORSDOF 15
ENDMDL
