MODEL 1
REMARK VINA RESULT:     -11.2      0.000      0.000
REMARK SMILES C[C@@H](CC(=O)NCCCNC(=O)c1ccc(-c2c3nc(c(-c4c(F)c(F)c(F)c(F)c4F)c4ccc([nH]4)c(-c4c(F)c(F)c(F)c(F)c4F)c4nc(c(-c5c(F)c(F)c(F)c(F)c5F)c5ccc2[nH]5)C=C4)C=C3)cc1)CC(=O)NC[C@@]1(C)CCCO1
REMARK SMILES IDX 4 1 5 2 6 3 3 5 2 6 1 7 76 8 77 9 78 10 79 11 80 13 81 14
REMARK SMILES IDX 82 15 83 16 86 17 84 18 85 19 7 20 8 21 9 22 10 23 11 24
REMARK SMILES IDX 12 26 13 27 14 28 75 29 15 30 74 31 16 32 17 33 18 34 68 35
REMARK SMILES IDX 19 36 73 37 67 38 69 39 20 40 72 41 66 42 65 43 21 45 53 46
REMARK SMILES IDX 33 47 52 48 34 49 37 50 51 51 70 52 35 53 36 54 50 56 71 57
REMARK SMILES IDX 38 58 22 59 23 60 31 61 24 62 25 63 29 64 32 65 26 66 27 67
REMARK SMILES IDX 30 68 28 69 54 70 55 71 63 72 56 73 57 74 61 75 64 76 58 77
REMARK SMILES IDX 59 78 62 79 60 80 39 81 40 82 48 83 41 84 42 85 46 86 49 87
REMARK SMILES IDX 43 88 44 89 47 90 45 91
REMARK H PARENT 6 4 79 12 10 25 69 44 37 55
REMARK Flexibility Score: inf
ROOT
ATOM      1  C   UNL A   1      36.626  22.815  23.728  1.00  0.00     0.220 C 
ATOM      2  O   UNL A   1      36.796  23.372  22.642  1.00  0.00    -0.275 OA
ATOM      3  N   UNL A   1      37.072  21.537  23.856  1.00  0.00    -0.356 N 
ATOM      4  H   UNL A   1      37.601  21.217  23.091  1.00  0.00     0.163 HD
ENDROOT
BRANCH   1   5
ATOM      5  C   UNL A   1      35.956  23.546  24.875  1.00  0.00     0.103 C 
BRANCH   5   6
ATOM      6  C   UNL A   1      34.488  23.987  24.690  1.00  0.00     0.004 C 
ATOM      7  C   UNL A   1      34.227  25.237  25.525  1.00  0.00     0.009 C 
BRANCH   6   8
ATOM      8  C   UNL A   1      33.437  22.884  24.924  1.00  0.00     0.103 C 
BRANCH   8   9
ATOM      9  C   UNL A   1      33.018  22.203  23.628  1.00  0.00     0.220 C 
ATOM     10  O   UNL A   1      33.041  22.814  22.557  1.00  0.00    -0.275 OA
ATOM     11  N   UNL A   1      32.541  20.924  23.625  1.00  0.00    -0.353 N 
ATOM     12  H   UNL A   1      32.100  20.649  22.788  1.00  0.00     0.163 HD
BRANCH  11  13
ATOM     13  C   UNL A   1      32.579  19.902  24.661  1.00  0.00     0.151 C 
BRANCH  13  14
ATOM     14  C   UNL A   1      32.837  18.457  24.177  1.00  0.00     0.083 C 
ATOM     15  C   UNL A   1      32.383  18.221  22.732  1.00  0.00     0.044 C 
ATOM     16  C   UNL A   1      34.277  18.004  24.390  1.00  0.00     0.039 C 
ATOM     17  O   UNL A   1      32.056  17.559  25.002  1.00  0.00    -0.373 OA
ATOM     18  C   UNL A   1      34.138  16.503  24.495  1.00  0.00     0.031 C 
ATOM     19  C   UNL A   1      32.777  16.324  25.143  1.00  0.00     0.161 C 
ENDBRANCH  13  14
ENDBRANCH  11  13
ENDBRANCH   8   9
ENDBRANCH   6   8
ENDBRANCH   5   6
ENDBRANCH   1   5
BRANCH   3  20
ATOM     20  C   UNL A   1      36.913  20.557  24.919  1.00  0.00     0.117 C 
BRANCH  20  21
ATOM     21  C   UNL A   1      38.128  19.635  25.014  1.00  0.00     0.042 C 
BRANCH  21  22
ATOM     22  C   UNL A   1      39.193  20.042  26.035  1.00  0.00     0.118 C 
BRANCH  22  23
ATOM     23  N   UNL A   1      40.365  19.186  25.979  1.00  0.00    -0.352 N 
ATOM     24  C   UNL A   1      41.704  19.486  26.038  1.00  0.00     0.251 C 
ATOM     25  H   UNL A   1      40.165  18.226  25.884  1.00  0.00     0.163 HD
ATOM     26  O   UNL A   1      42.511  18.599  25.761  1.00  0.00    -0.269 OA
BRANCH  24  27
ATOM     27  C   UNL A   1      42.220  20.831  26.417  1.00  0.00     0.039 A 
ATOM     28  C   UNL A   1      42.227  21.170  27.777  1.00  0.00     0.014 A 
ATOM     29  C   UNL A   1      42.584  21.803  25.480  1.00  0.00     0.014 A 
ATOM     30  C   UNL A   1      42.615  22.450  28.194  1.00  0.00     0.010 A 
ATOM     31  C   UNL A   1      43.033  23.062  25.901  1.00  0.00     0.010 A 
ATOM     32  C   UNL A   1      43.036  23.409  27.261  1.00  0.00    -0.014 A 
BRANCH  32  33
ATOM     33  C   UNL A   1      43.452  24.772  27.703  1.00  0.00     0.031 A 
ATOM     34  C   UNL A   1      42.421  25.816  28.049  1.00  0.00     0.074 A 
ATOM     35  C   UNL A   1      44.759  25.088  27.782  1.00  0.00     0.049 A 
ATOM     36  N   UNL A   1      42.594  27.060  28.427  1.00  0.00    -0.248 NA
ATOM     37  C   UNL A   1      41.011  25.416  27.940  1.00  0.00     0.031 C 
ATOM     38  C   UNL A   1      45.864  24.189  27.453  1.00  0.00     0.029 A 
ATOM     39  N   UNL A   1      45.382  26.253  28.161  1.00  0.00    -0.354 N 
ATOM     40  C   UNL A   1      41.320  27.591  28.586  1.00  0.00     0.074 A 
ATOM     41  C   UNL A   1      40.383  26.549  28.221  1.00  0.00     0.031 C 
ATOM     42  C   UNL A   1      47.028  24.825  27.666  1.00  0.00     0.029 A 
ATOM     43  C   UNL A   1      46.752  26.187  28.115  1.00  0.00     0.049 A 
ATOM     44  H   UNL A   1      44.890  27.060  28.439  1.00  0.00     0.167 HD
ATOM     45  C   UNL A   1      40.959  28.827  29.013  1.00  0.00     0.037 A 
ATOM     46  C   UNL A   1      47.685  27.117  28.400  1.00  0.00     0.037 A 
ATOM     47  C   UNL A   1      41.882  29.861  29.406  1.00  0.00     0.049 A 
ATOM     48  C   UNL A   1      47.259  28.482  28.871  1.00  0.00     0.074 A 
ATOM     49  C   UNL A   1      41.604  31.124  29.902  1.00  0.00     0.029 A 
ATOM     50  N   UNL A   1      43.263  29.751  29.350  1.00  0.00    -0.354 N 
ATOM     51  N   UNL A   1      46.051  28.951  29.064  1.00  0.00    -0.248 NA
ATOM     52  C   UNL A   1      48.331  29.445  29.169  1.00  0.00     0.031 C 
ATOM     53  C   UNL A   1      42.815  31.792  30.110  1.00  0.00     0.029 A 
ATOM     54  C   UNL A   1      43.850  30.930  29.786  1.00  0.00     0.049 A 
ATOM     55  H   UNL A   1      43.754  28.954  29.046  1.00  0.00     0.167 HD
ATOM     56  C   UNL A   1      46.216  30.249  29.529  1.00  0.00     0.074 A 
ATOM     57  C   UNL A   1      47.642  30.490  29.604  1.00  0.00     0.031 C 
ATOM     58  C   UNL A   1      45.269  31.159  29.864  1.00  0.00     0.037 A 
BRANCH  45  59
ATOM     59  C   UNL A   1      39.491  29.136  29.083  1.00  0.00     0.064 A 
ATOM     60  C   UNL A   1      38.753  29.454  27.933  1.00  0.00     0.173 A 
ATOM     61  C   UNL A   1      38.805  29.066  30.305  1.00  0.00     0.173 A 
ATOM     62  F   UNL A   1      39.364  29.542  26.742  1.00  0.00    -0.203 F 
ATOM     63  C   UNL A   1      37.388  29.718  28.009  1.00  0.00     0.198 A 
ATOM     64  C   UNL A   1      37.436  29.303  30.373  1.00  0.00     0.198 A 
ATOM     65  F   UNL A   1      39.463  28.755  31.433  1.00  0.00    -0.203 F 
ATOM     66  F   UNL A   1      36.712  30.062  26.904  1.00  0.00    -0.200 F 
ATOM     67  C   UNL A   1      36.730  29.636  29.226  1.00  0.00     0.200 A 
ATOM     68  F   UNL A   1      36.797  29.210  31.547  1.00  0.00    -0.200 F 
ATOM     69  F   UNL A   1      35.414  29.883  29.296  1.00  0.00    -0.200 F 
ENDBRANCH  45  59
BRANCH  46  70
ATOM     70  C   UNL A   1      49.127  26.782  28.273  1.00  0.00     0.064 A 
ATOM     71  C   UNL A   1      49.862  26.344  29.384  1.00  0.00     0.173 A 
ATOM     72  C   UNL A   1      49.798  26.897  27.048  1.00  0.00     0.173 A 
ATOM     73  F   UNL A   1      49.269  26.240  30.581  1.00  0.00    -0.203 F 
ATOM     74  C   UNL A   1      51.220  26.051  29.276  1.00  0.00     0.198 A 
ATOM     75  C   UNL A   1      51.149  26.579  26.936  1.00  0.00     0.198 A 
ATOM     76  F   UNL A   1      49.137  27.308  25.955  1.00  0.00    -0.203 F 
ATOM     77  F   UNL A   1      51.909  25.673  30.360  1.00  0.00    -0.200 F 
ATOM     78  C   UNL A   1      51.861  26.162  28.051  1.00  0.00     0.200 A 
ATOM     79  F   UNL A   1      51.761  26.673  25.748  1.00  0.00    -0.200 F 
ATOM     80  F   UNL A   1      53.165  25.874  27.946  1.00  0.00    -0.200 F 
ENDBRANCH  46  70
BRANCH  58  81
ATOM     81  C   UNL A   1      45.742  32.490  30.372  1.00  0.00     0.064 A 
ATOM     82  C   UNL A   1      45.996  32.709  31.734  1.00  0.00     0.173 A 
ATOM     83  C   UNL A   1      45.971  33.551  29.482  1.00  0.00     0.173 A 
ATOM     84  F   UNL A   1      45.776  31.731  32.627  1.00  0.00    -0.203 F 
ATOM     85  C   UNL A   1      46.436  33.948  32.189  1.00  0.00     0.198 A 
ATOM     86  C   UNL A   1      46.437  34.781  29.938  1.00  0.00     0.198 A 
ATOM     87  F   UNL A   1      45.749  33.391  28.169  1.00  0.00    -0.203 F 
ATOM     88  F   UNL A   1      46.627  34.150  33.501  1.00  0.00    -0.200 F 
ATOM     89  C   UNL A   1      46.662  34.981  31.291  1.00  0.00     0.200 A 
ATOM     90  F   UNL A   1      46.664  35.774  29.067  1.00  0.00    -0.200 F 
ATOM     91  F   UNL A   1      47.088  36.173  31.732  1.00  0.00    -0.200 F 
ENDBRANCH  58  81
ENDBRANCH  32  33
ENDBRANCH  24  27
ENDBRANCH  22  23
ENDBRANCH  21  22
ENDBRANCH  20  21
ENDBRANCH   3  20
TORSDOF 15
ENDMDL
MODEL 2
REMARK VINA RESULT:     -11.1      3.332      7.421
REMARK SMILES C[C@@H](CC(=O)NCCCNC(=O)c1ccc(-c2c3nc(c(-c4c(F)c(F)c(F)c(F)c4F)c4ccc([nH]4)c(-c4c(F)c(F)c(F)c(F)c4F)c4nc(c(-c5c(F)c(F)c(F)c(F)c5F)c5ccc2[nH]5)C=C4)C=C3)cc1)CC(=O)NC[C@@]1(C)CCCO1
REMARK SMILES IDX 4 1 5 2 6 3 3 5 2 6 1 7 76 8 77 9 78 10 79 11 80 13 81 14
REMARK SMILES IDX 82 15 83 16 86 17 84 18 85 19 7 20 8 21 9 22 10 23 11 24
REMARK SMILES IDX 12 26 13 27 14 28 75 29 15 30 74 31 16 32 17 33 18 34 68 35
REMARK SMILES IDX 19 36 73 37 67 38 69 39 20 40 72 41 66 42 65 43 21 45 53 46
REMARK SMILES IDX 33 47 52 48 34 49 37 50 51 51 70 52 35 53 36 54 50 56 71 57
REMARK SMILES IDX 38 58 22 59 23 60 31 61 24 62 25 63 29 64 32 65 26 66 27 67
REMARK SMILES IDX 30 68 28 69 54 70 55 71 63 72 56 73 57 74 61 75 64 76 58 77
REMARK SMILES IDX 59 78 62 79 60 80 39 81 40 82 48 83 41 84 42 85 46 86 49 87
REMARK SMILES IDX 43 88 44 89 47 90 45 91
REMARK H PARENT 6 4 79 12 10 25 69 44 37 55
REMARK Flexibility Score: inf
ROOT
ATOM      1  C   UNL A   1      32.080  25.006  26.221  1.00  0.00     0.220 C 
ATOM      2  O   UNL A   1      31.539  24.622  27.259  1.00  0.00    -0.275 OA
ATOM      3  N   UNL A   1      32.045  26.338  25.949  1.00  0.00    -0.356 N 
ATOM      4  H   UNL A   1      31.684  26.889  26.680  1.00  0.00     0.163 HD
ENDROOT
BRANCH   1   5
ATOM      5  C   UNL A   1      32.771  24.020  25.300  1.00  0.00     0.103 C 
BRANCH   5   6
ATOM      6  C   UNL A   1      34.206  23.580  25.661  1.00  0.00     0.004 C 
ATOM      7  C   UNL A   1      35.206  24.520  24.994  1.00  0.00     0.009 C 
BRANCH   6   8
ATOM      8  C   UNL A   1      34.522  22.093  25.403  1.00  0.00     0.103 C 
BRANCH   8   9
ATOM      9  C   UNL A   1      33.904  21.182  26.454  1.00  0.00     0.220 C 
ATOM     10  O   UNL A   1      34.144  21.345  27.652  1.00  0.00    -0.275 OA
ATOM     11  N   UNL A   1      33.124  20.120  26.096  1.00  0.00    -0.353 N 
ATOM     12  H   UNL A   1      32.950  19.473  26.818  1.00  0.00     0.163 HD
BRANCH  11  13
ATOM     13  C   UNL A   1      32.510  19.790  24.818  1.00  0.00     0.151 C 
BRANCH  13  14
ATOM     14  C   UNL A   1      32.835  18.388  24.252  1.00  0.00     0.083 C 
ATOM     15  C   UNL A   1      32.370  18.207  22.803  1.00  0.00     0.044 C 
ATOM     16  C   UNL A   1      34.301  18.001  24.420  1.00  0.00     0.039 C 
ATOM     17  O   UNL A   1      32.116  17.408  25.038  1.00  0.00    -0.373 OA
ATOM     18  C   UNL A   1      34.241  16.491  24.444  1.00  0.00     0.031 C 
ATOM     19  C   UNL A   1      32.903  16.206  25.101  1.00  0.00     0.161 C 
ENDBRANCH  13  14
ENDBRANCH  11  13
ENDBRANCH   8   9
ENDBRANCH   6   8
ENDBRANCH   5   6
ENDBRANCH   1   5
BRANCH   3  20
ATOM     20  C   UNL A   1      32.446  27.098  24.775  1.00  0.00     0.117 C 
BRANCH  20  21
ATOM     21  C   UNL A   1      33.654  27.987  25.072  1.00  0.00     0.042 C 
BRANCH  21  22
ATOM     22  C   UNL A   1      33.990  28.176  26.553  1.00  0.00     0.118 C 
BRANCH  22  23
ATOM     23  N   UNL A   1      33.743  29.535  27.003  1.00  0.00    -0.352 N 
ATOM     24  C   UNL A   1      34.470  30.356  27.831  1.00  0.00     0.251 C 
ATOM     25  H   UNL A   1      32.914  29.936  26.656  1.00  0.00     0.163 HD
ATOM     26  O   UNL A   1      33.944  31.395  28.227  1.00  0.00    -0.269 OA
BRANCH  24  27
ATOM     27  C   UNL A   1      35.859  30.043  28.270  1.00  0.00     0.039 A 
ATOM     28  C   UNL A   1      36.889  30.174  27.328  1.00  0.00     0.014 A 
ATOM     29  C   UNL A   1      36.163  29.520  29.531  1.00  0.00     0.014 A 
ATOM     30  C   UNL A   1      38.203  29.812  27.650  1.00  0.00     0.010 A 
ATOM     31  C   UNL A   1      37.488  29.218  29.873  1.00  0.00     0.010 A 
ATOM     32  C   UNL A   1      38.523  29.342  28.932  1.00  0.00    -0.014 A 
BRANCH  32  33
ATOM     33  C   UNL A   1      39.922  28.957  29.277  1.00  0.00     0.031 A 
ATOM     34  C   UNL A   1      40.776  29.851  30.139  1.00  0.00     0.074 A 
ATOM     35  C   UNL A   1      40.443  27.808  28.804  1.00  0.00     0.049 A 
ATOM     36  N   UNL A   1      42.020  29.693  30.523  1.00  0.00    -0.248 NA
ATOM     37  C   UNL A   1      40.156  31.093  30.622  1.00  0.00     0.031 C 
ATOM     38  C   UNL A   1      39.744  26.860  27.937  1.00  0.00     0.029 A 
ATOM     39  N   UNL A   1      41.683  27.241  28.983  1.00  0.00    -0.354 N 
ATOM     40  C   UNL A   1      42.334  30.818  31.275  1.00  0.00     0.074 A 
ATOM     41  C   UNL A   1      41.164  31.671  31.260  1.00  0.00     0.031 C 
ATOM     42  C   UNL A   1      40.554  25.820  27.679  1.00  0.00     0.029 A 
ATOM     43  C   UNL A   1      41.841  26.042  28.333  1.00  0.00     0.049 A 
ATOM     44  H   UNL A   1      42.391  27.658  29.525  1.00  0.00     0.167 HD
ATOM     45  C   UNL A   1      43.483  31.108  31.935  1.00  0.00     0.037 A 
ATOM     46  C   UNL A   1      42.901  25.212  28.269  1.00  0.00     0.037 A 
ATOM     47  C   UNL A   1      44.640  30.252  31.982  1.00  0.00     0.049 A 
ATOM     48  C   UNL A   1      44.165  25.559  29.009  1.00  0.00     0.074 A 
ATOM     49  C   UNL A   1      45.828  30.443  32.669  1.00  0.00     0.029 A 
ATOM     50  N   UNL A   1      44.757  29.043  31.314  1.00  0.00    -0.354 N 
ATOM     51  N   UNL A   1      44.427  26.601  29.757  1.00  0.00    -0.248 NA
ATOM     52  C   UNL A   1      45.280  24.605  28.898  1.00  0.00     0.031 C 
ATOM     53  C   UNL A   1      46.677  29.367  32.388  1.00  0.00     0.029 A 
ATOM     54  C   UNL A   1      46.003  28.484  31.561  1.00  0.00     0.049 A 
ATOM     55  H   UNL A   1      44.059  28.640  30.750  1.00  0.00     0.167 HD
ATOM     56  C   UNL A   1      45.721  26.418  30.226  1.00  0.00     0.074 A 
ATOM     57  C   UNL A   1      46.188  25.157  29.691  1.00  0.00     0.031 C 
ATOM     58  C   UNL A   1      46.457  27.225  31.029  1.00  0.00     0.037 A 
BRANCH  45  59
ATOM     59  C   UNL A   1      43.548  32.415  32.672  1.00  0.00     0.064 A 
ATOM     60  C   UNL A   1      44.000  33.587  32.049  1.00  0.00     0.173 A 
ATOM     61  C   UNL A   1      43.108  32.506  34.001  1.00  0.00     0.173 A 
ATOM     62  F   UNL A   1      44.439  33.550  30.781  1.00  0.00    -0.203 F 
ATOM     63  C   UNL A   1      44.036  34.796  32.737  1.00  0.00     0.198 A 
ATOM     64  C   UNL A   1      43.120  33.723  34.678  1.00  0.00     0.198 A 
ATOM     65  F   UNL A   1      42.656  31.416  34.641  1.00  0.00    -0.203 F 
ATOM     66  F   UNL A   1      44.513  35.895  32.134  1.00  0.00    -0.200 F 
ATOM     67  C   UNL A   1      43.590  34.865  34.048  1.00  0.00     0.200 A 
ATOM     68  F   UNL A   1      42.675  33.791  35.940  1.00  0.00    -0.200 F 
ATOM     69  F   UNL A   1      43.618  36.032  34.706  1.00  0.00    -0.200 F 
ENDBRANCH  45  59
BRANCH  46  70
ATOM     70  C   UNL A   1      42.807  23.951  27.489  1.00  0.00     0.064 A 
ATOM     71  C   UNL A   1      42.430  22.751  28.109  1.00  0.00     0.173 A 
ATOM     72  C   UNL A   1      43.095  23.916  26.118  1.00  0.00     0.173 A 
ATOM     73  F   UNL A   1      42.167  22.731  29.424  1.00  0.00    -0.203 F 
ATOM     74  C   UNL A   1      42.363  21.561  27.390  1.00  0.00     0.198 A 
ATOM     75  C   UNL A   1      43.003  22.731  25.394  1.00  0.00     0.198 A 
ATOM     76  F   UNL A   1      43.456  25.039  25.479  1.00  0.00    -0.203 F 
ATOM     77  F   UNL A   1      42.040  20.420  28.013  1.00  0.00    -0.200 F 
ATOM     78  C   UNL A   1      42.643  21.552  26.031  1.00  0.00     0.200 A 
ATOM     79  F   UNL A   1      43.259  22.730  24.079  1.00  0.00    -0.200 F 
ATOM     80  F   UNL A   1      42.572  20.408  25.337  1.00  0.00    -0.200 F 
ENDBRANCH  46  70
BRANCH  58  81
ATOM     81  C   UNL A   1      47.832  26.756  31.405  1.00  0.00     0.064 A 
ATOM     82  C   UNL A   1      48.047  25.922  32.512  1.00  0.00     0.173 A 
ATOM     83  C   UNL A   1      48.944  27.121  30.631  1.00  0.00     0.173 A 
ATOM     84  F   UNL A   1      47.018  25.558  33.293  1.00  0.00    -0.203 F 
ATOM     85  C   UNL A   1      49.328  25.493  32.846  1.00  0.00     0.198 A 
ATOM     86  C   UNL A   1      50.220  26.668  30.953  1.00  0.00     0.198 A 
ATOM     87  F   UNL A   1      48.792  27.912  29.559  1.00  0.00    -0.203 F 
ATOM     88  F   UNL A   1      49.516  24.735  33.937  1.00  0.00    -0.200 F 
ATOM     89  C   UNL A   1      50.413  25.860  32.064  1.00  0.00     0.200 A 
ATOM     90  F   UNL A   1      51.266  27.016  30.190  1.00  0.00    -0.200 F 
ATOM     91  F   UNL A   1      51.645  25.444  32.386  1.00  0.00    -0.200 F 
ENDBRANCH  58  81
ENDBRANCH  32  33
ENDBRANCH  24  27
ENDBRANCH  22  23
ENDBRANCH  21  22
ENDBRANCH  20  21
ENDBRANCH   3  20
TORSDOF 15
ENDMDL
MODEL 3
REMARK VINA RESULT:     -11.1      6.238     11.198
REMARK SMILES C[C@@H](CC(=O)NCCCNC(=O)c1ccc(-c2c3nc(c(-c4c(F)c(F)c(F)c(F)c4F)c4ccc([nH]4)c(-c4c(F)c(F)c(F)c(F)c4F)c4nc(c(-c5c(F)c(F)c(F)c(F)c5F)c5ccc2[nH]5)C=C4)C=C3)cc1)CC(=O)NC[C@@]1(C)CCCO1
REMARK SMILES IDX 4 1 5 2 6 3 3 5 2 6 1 7 76 8 77 9 78 10 79 11 80 13 81 14
REMARK SMILES IDX 82 15 83 16 86 17 84 18 85 19 7 20 8 21 9 22 10 23 11 24
REMARK SMILES IDX 12 26 13 27 14 28 75 29 15 30 74 31 16 32 17 33 18 34 68 35
REMARK SMILES IDX 19 36 73 37 67 38 69 39 20 40 72 41 66 42 65 43 21 45 53 46
REMARK SMILES IDX 33 47 52 48 34 49 37 50 51 51 70 52 35 53 36 54 50 56 71 57
REMARK SMILES IDX 38 58 22 59 23 60 31 61 24 62 25 63 29 64 32 65 26 66 27 67
REMARK SMILES IDX 30 68 28 69 54 70 55 71 63 72 56 73 57 74 61 75 64 76 58 77
REMARK SMILES IDX 59 78 62 79 60 80 39 81 40 82 48 83 41 84 42 85 46 86 49 87
REMARK SMILES IDX 43 88 44 89 47 90 45 91
REMARK H PARENT 6 4 79 12 10 25 69 44 37 55
REMARK Flexibility Score: inf
ROOT
ATOM      1  C   UNL A   1      33.312  29.196  26.567  1.00  0.00     0.220 C 
ATOM      2  O   UNL A   1      33.876  28.591  27.480  1.00  0.00    -0.275 OA
ATOM      3  N   UNL A   1      32.336  30.080  26.907  1.00  0.00    -0.356 N 
ATOM      4  H   UNL A   1      32.254  30.236  27.875  1.00  0.00     0.163 HD
ENDROOT
BRANCH   1   5
ATOM      5  C   UNL A   1      33.714  28.966  25.124  1.00  0.00     0.103 C 
BRANCH   5   6
ATOM      6  C   UNL A   1      33.012  27.828  24.352  1.00  0.00     0.004 C 
ATOM      7  C   UNL A   1      33.777  26.525  24.566  1.00  0.00     0.009 C 
BRANCH   6   8
ATOM      8  C   UNL A   1      32.731  28.118  22.865  1.00  0.00     0.103 C 
BRANCH   8   9
ATOM      9  C   UNL A   1      31.576  27.287  22.323  1.00  0.00     0.220 C 
ATOM     10  O   UNL A   1      31.785  26.299  21.616  1.00  0.00    -0.275 OA
ATOM     11  N   UNL A   1      30.279  27.650  22.547  1.00  0.00    -0.353 N 
ATOM     12  H   UNL A   1      29.616  27.184  21.988  1.00  0.00     0.163 HD
BRANCH  11  13
ATOM     13  C   UNL A   1      29.720  28.618  23.480  1.00  0.00     0.151 C 
BRANCH  13  14
ATOM     14  C   UNL A   1      28.603  29.529  22.922  1.00  0.00     0.083 C 
ATOM     15  C   UNL A   1      27.203  28.927  23.087  1.00  0.00     0.044 C 
ATOM     16  C   UNL A   1      28.665  30.953  23.466  1.00  0.00     0.039 C 
ATOM     17  O   UNL A   1      28.816  29.683  21.498  1.00  0.00    -0.373 OA
ATOM     18  C   UNL A   1      28.002  31.753  22.369  1.00  0.00     0.031 C 
ATOM     19  C   UNL A   1      28.377  30.995  21.109  1.00  0.00     0.161 C 
ENDBRANCH  13  14
ENDBRANCH  11  13
ENDBRANCH   8   9
ENDBRANCH   6   8
ENDBRANCH   5   6
ENDBRANCH   1   5
BRANCH   3  20
ATOM     20  C   UNL A   1      31.391  30.837  26.101  1.00  0.00     0.117 C 
BRANCH  20  21
ATOM     21  C   UNL A   1      31.372  32.311  26.504  1.00  0.00     0.042 C 
BRANCH  21  22
ATOM     22  C   UNL A   1      32.650  32.837  27.160  1.00  0.00     0.118 C 
BRANCH  22  23
ATOM     23  N   UNL A   1      32.507  34.206  27.623  1.00  0.00    -0.352 N 
ATOM     24  C   UNL A   1      33.066  34.858  28.696  1.00  0.00     0.251 C 
ATOM     25  H   UNL A   1      31.909  34.763  27.073  1.00  0.00     0.163 HD
ATOM     26  O   UNL A   1      32.625  35.968  28.995  1.00  0.00    -0.269 OA
BRANCH  24  27
ATOM     27  C   UNL A   1      34.173  34.283  29.510  1.00  0.00     0.039 A 
ATOM     28  C   UNL A   1      35.481  34.418  29.024  1.00  0.00     0.014 A 
ATOM     29  C   UNL A   1      33.959  33.522  30.663  1.00  0.00     0.014 A 
ATOM     30  C   UNL A   1      36.558  33.824  29.694  1.00  0.00     0.010 A 
ATOM     31  C   UNL A   1      35.043  32.982  31.368  1.00  0.00     0.010 A 
ATOM     32  C   UNL A   1      36.354  33.109  30.884  1.00  0.00    -0.014 A 
BRANCH  32  33
ATOM     33  C   UNL A   1      37.500  32.477  31.600  1.00  0.00     0.031 A 
ATOM     34  C   UNL A   1      38.255  31.328  30.981  1.00  0.00     0.074 A 
ATOM     35  C   UNL A   1      37.862  32.919  32.820  1.00  0.00     0.049 A 
ATOM     36  N   UNL A   1      39.260  30.639  31.465  1.00  0.00    -0.248 NA
ATOM     37  C   UNL A   1      37.813  30.885  29.652  1.00  0.00     0.031 C 
ATOM     38  C   UNL A   1      37.207  34.004  33.551  1.00  0.00     0.029 A 
ATOM     39  N   UNL A   1      38.869  32.512  33.663  1.00  0.00    -0.354 N 
ATOM     40  C   UNL A   1      39.558  29.675  30.509  1.00  0.00     0.074 A 
ATOM     41  C   UNL A   1      38.600  29.841  29.436  1.00  0.00     0.031 C 
ATOM     42  C   UNL A   1      37.840  34.191  34.720  1.00  0.00     0.029 A 
ATOM     43  C   UNL A   1      38.926  33.221  34.838  1.00  0.00     0.049 A 
ATOM     44  H   UNL A   1      39.490  31.780  33.444  1.00  0.00     0.167 HD
ATOM     45  C   UNL A   1      40.548  28.749  30.513  1.00  0.00     0.037 A 
ATOM     46  C   UNL A   1      39.756  33.104  35.893  1.00  0.00     0.037 A 
ATOM     47  C   UNL A   1      41.524  28.596  31.561  1.00  0.00     0.049 A 
ATOM     48  C   UNL A   1      40.847  32.066  35.873  1.00  0.00     0.074 A 
ATOM     49  C   UNL A   1      42.595  27.719  31.624  1.00  0.00     0.029 A 
ATOM     50  N   UNL A   1      41.550  29.338  32.732  1.00  0.00    -0.354 N 
ATOM     51  N   UNL A   1      41.146  31.198  34.939  1.00  0.00    -0.248 NA
ATOM     52  C   UNL A   1      41.718  31.999  37.056  1.00  0.00     0.031 C 
ATOM     53  C   UNL A   1      43.246  27.905  32.847  1.00  0.00     0.029 A 
ATOM     54  C   UNL A   1      42.608  28.927  33.529  1.00  0.00     0.049 A 
ATOM     55  H   UNL A   1      40.913  30.051  32.963  1.00  0.00     0.167 HD
ATOM     56  C   UNL A   1      42.252  30.501  35.407  1.00  0.00     0.074 A 
ATOM     57  C   UNL A   1      42.581  31.057  36.702  1.00  0.00     0.031 C 
ATOM     58  C   UNL A   1      42.933  29.490  34.815  1.00  0.00     0.037 A 
BRANCH  45  59
ATOM     59  C   UNL A   1      40.633  27.820  29.336  1.00  0.00     0.064 A 
ATOM     60  C   UNL A   1      41.577  28.012  28.316  1.00  0.00     0.173 A 
ATOM     61  C   UNL A   1      39.794  26.699  29.250  1.00  0.00     0.173 A 
ATOM     62  F   UNL A   1      42.398  29.073  28.348  1.00  0.00    -0.203 F 
ATOM     63  C   UNL A   1      41.660  27.131  27.242  1.00  0.00     0.198 A 
ATOM     64  C   UNL A   1      39.897  25.805  28.188  1.00  0.00     0.198 A 
ATOM     65  F   UNL A   1      38.880  26.464  30.205  1.00  0.00    -0.203 F 
ATOM     66  F   UNL A   1      42.541  27.359  26.257  1.00  0.00    -0.200 F 
ATOM     67  C   UNL A   1      40.825  26.026  27.181  1.00  0.00     0.200 A 
ATOM     68  F   UNL A   1      39.099  24.730  28.138  1.00  0.00    -0.200 F 
ATOM     69  F   UNL A   1      40.910  25.176  26.149  1.00  0.00    -0.200 F 
ENDBRANCH  45  59
BRANCH  46  70
ATOM     70  C   UNL A   1      39.606  34.016  37.056  1.00  0.00     0.064 A 
ATOM     71  C   UNL A   1      38.842  33.638  38.170  1.00  0.00     0.173 A 
ATOM     72  C   UNL A   1      40.212  35.280  37.077  1.00  0.00     0.173 A 
ATOM     73  F   UNL A   1      38.224  32.448  38.185  1.00  0.00    -0.203 F 
ATOM     74  C   UNL A   1      38.677  34.498  39.253  1.00  0.00     0.198 A 
ATOM     75  C   UNL A   1      40.069  36.128  38.172  1.00  0.00     0.198 A 
ATOM     76  F   UNL A   1      40.956  35.685  36.037  1.00  0.00    -0.203 F 
ATOM     77  F   UNL A   1      37.910  34.129  40.287  1.00  0.00    -0.200 F 
ATOM     78  C   UNL A   1      39.296  35.739  39.257  1.00  0.00     0.200 A 
ATOM     79  F   UNL A   1      40.680  37.320  38.178  1.00  0.00    -0.200 F 
ATOM     80  F   UNL A   1      39.143  36.564  40.302  1.00  0.00    -0.200 F 
ENDBRANCH  46  70
BRANCH  58  81
ATOM     81  C   UNL A   1      44.122  28.939  35.546  1.00  0.00     0.064 A 
ATOM     82  C   UNL A   1      45.415  29.437  35.326  1.00  0.00     0.173 A 
ATOM     83  C   UNL A   1      43.963  27.921  36.499  1.00  0.00     0.173 A 
ATOM     84  F   UNL A   1      45.623  30.398  34.413  1.00  0.00    -0.203 F 
ATOM     85  C   UNL A   1      46.508  28.917  36.014  1.00  0.00     0.198 A 
ATOM     86  C   UNL A   1      45.054  27.423  37.204  1.00  0.00     0.198 A 
ATOM     87  F   UNL A   1      42.746  27.416  36.750  1.00  0.00    -0.203 F 
ATOM     88  F   UNL A   1      47.742  29.374  35.753  1.00  0.00    -0.200 F 
ATOM     89  C   UNL A   1      46.327  27.915  36.956  1.00  0.00     0.200 A 
ATOM     90  F   UNL A   1      44.876  26.462  38.121  1.00  0.00    -0.200 F 
ATOM     91  F   UNL A   1      47.380  27.418  37.619  1.00  0.00    -0.200 F 
ENDBRANCH  58  81
ENDBRANCH  32  33
ENDBRANCH  24  27
ENDBRANCH  22  23
ENDBRANCH  21  22
ENDBRANCH  20  21
ENDBRANCH   3  20
TORSDOF 15
ENDMDL
