MODEL 1
REMARK VINA RESULT:     -11.6      0.000      0.000
REMARK SMILES COCC[C@@H](C)NC(=O)N[C@@H]1C=C[C@@H](C(=O)NCCCNC(=O)c2ccc(-c3c4nc(c(-c5c(F)c(F)c(F)c(F)c5F)c5ccc([nH]5)c(-c5c(F)c(F)c(F)c(F)c5F)c5nc(c(-c6c(F)c(F)c(F)c(F)c6F)c6ccc3[nH]6)C=C5)C=C4)cc2)C1
REMARK SMILES IDX 15 1 16 2 17 3 14 5 11 6 12 7 87 8 13 9 10 10 7 11 8 12 9 14
REMARK SMILES IDX 5 16 6 17 4 18 3 19 2 20 1 21 18 22 19 23 20 24 21 25 22 26
REMARK SMILES IDX 23 28 24 29 25 30 86 31 26 32 85 33 27 34 28 35 29 36 79 37
REMARK SMILES IDX 30 38 84 39 78 40 80 41 31 42 83 43 77 44 76 45 32 47 64 48
REMARK SMILES IDX 44 49 63 50 45 51 48 52 62 53 81 54 46 55 47 56 61 58 82 59
REMARK SMILES IDX 49 60 33 61 34 62 42 63 35 64 36 65 40 66 43 67 37 68 38 69
REMARK SMILES IDX 41 70 39 71 65 72 66 73 74 74 67 75 68 76 72 77 75 78 69 79
REMARK SMILES IDX 70 80 73 81 71 82 50 83 51 84 59 85 52 86 53 87 57 88 60 89
REMARK SMILES IDX 54 90 55 91 58 92 56 93
REMARK H PARENT 17 4 7 13 10 15 21 27 80 46 48 57
REMARK Flexibility Score: inf
ROOT
ATOM      1  C   UNL A   1      31.540  24.758  26.507  1.00  0.00     0.227 C 
ATOM      2  O   UNL A   1      30.653  23.926  26.729  1.00  0.00    -0.274 OA
ATOM      3  N   UNL A   1      31.224  26.052  26.784  1.00  0.00    -0.356 N 
ATOM      4  H   UNL A   1      30.278  26.186  27.023  1.00  0.00     0.163 HD
ENDROOT
BRANCH   1   5
ATOM      5  C   UNL A   1      32.858  24.301  25.869  1.00  0.00     0.103 C 
ATOM      6  C   UNL A   1      33.597  22.051  25.182  1.00  0.00     0.107 C 
ATOM      7  C   UNL A   1      33.418  22.971  24.018  1.00  0.00    -0.006 C 
ATOM      8  C   UNL A   1      33.329  22.945  26.399  1.00  0.00     0.047 C 
ATOM      9  C   UNL A   1      32.945  24.167  24.384  1.00  0.00    -0.016 C 
BRANCH   6  10
ATOM     10  N   UNL A   1      34.919  21.481  25.185  1.00  0.00    -0.332 N 
ATOM     11  N   UNL A   1      34.615  19.194  24.625  1.00  0.00    -0.336 N 
ATOM     12  C   UNL A   1      35.381  20.244  24.953  1.00  0.00     0.315 C 
ATOM     13  H   UNL A   1      35.144  18.379  24.469  1.00  0.00     0.165 HD
ATOM     14  O   UNL A   1      36.598  20.055  25.049  1.00  0.00    -0.249 OA
ATOM     15  H   UNL A   1      35.626  22.130  25.401  1.00  0.00     0.165 HD
BRANCH  11  16
ATOM     16  C   UNL A   1      33.186  18.970  24.442  1.00  0.00     0.083 C 
ATOM     17  C   UNL A   1      32.555  18.513  25.758  1.00  0.00     0.031 C 
BRANCH  16  18
ATOM     18  C   UNL A   1      32.931  17.963  23.306  1.00  0.00     0.053 C 
BRANCH  18  19
ATOM     19  C   UNL A   1      34.057  16.927  23.202  1.00  0.00     0.162 C 
BRANCH  19  20
ATOM     20  O   UNL A   1      33.912  15.830  24.105  1.00  0.00    -0.385 OA
ATOM     21  C   UNL A   1      34.933  15.720  25.086  1.00  0.00     0.194 C 
ENDBRANCH  19  20
ENDBRANCH  18  19
ENDBRANCH  16  18
ENDBRANCH  11  16
ENDBRANCH   6  10
ENDBRANCH   1   5
BRANCH   3  22
ATOM     22  C   UNL A   1      32.007  27.273  26.796  1.00  0.00     0.117 C 
BRANCH  22  23
ATOM     23  C   UNL A   1      31.952  28.036  25.471  1.00  0.00     0.042 C 
BRANCH  23  24
ATOM     24  C   UNL A   1      33.004  29.130  25.276  1.00  0.00     0.118 C 
BRANCH  24  25
ATOM     25  N   UNL A   1      32.581  30.419  25.804  1.00  0.00    -0.352 N 
ATOM     26  C   UNL A   1      33.050  31.199  26.832  1.00  0.00     0.251 C 
ATOM     27  H   UNL A   1      31.809  30.806  25.332  1.00  0.00     0.163 HD
ATOM     28  O   UNL A   1      32.368  32.171  27.170  1.00  0.00    -0.269 OA
BRANCH  26  29
ATOM     29  C   UNL A   1      34.323  30.937  27.558  1.00  0.00     0.039 A 
ATOM     30  C   UNL A   1      34.558  29.633  28.018  1.00  0.00     0.014 A 
ATOM     31  C   UNL A   1      35.227  31.942  27.907  1.00  0.00     0.014 A 
ATOM     32  C   UNL A   1      35.696  29.332  28.779  1.00  0.00     0.010 A 
ATOM     33  C   UNL A   1      36.399  31.629  28.613  1.00  0.00     0.010 A 
ATOM     34  C   UNL A   1      36.643  30.325  29.068  1.00  0.00    -0.014 A 
BRANCH  34  35
ATOM     35  C   UNL A   1      37.868  30.017  29.861  1.00  0.00     0.031 A 
ATOM     36  C   UNL A   1      38.924  29.088  29.318  1.00  0.00     0.074 A 
ATOM     37  C   UNL A   1      38.024  30.535  31.096  1.00  0.00     0.049 A 
ATOM     38  N   UNL A   1      40.009  28.632  29.896  1.00  0.00    -0.248 NA
ATOM     39  C   UNL A   1      38.725  28.593  27.948  1.00  0.00     0.031 C 
ATOM     40  C   UNL A   1      37.079  31.429  31.763  1.00  0.00     0.029 A 
ATOM     41  N   UNL A   1      39.034  30.373  32.016  1.00  0.00    -0.354 N 
ATOM     42  C   UNL A   1      40.603  27.779  28.975  1.00  0.00     0.074 A 
ATOM     43  C   UNL A   1      39.743  27.755  27.811  1.00  0.00     0.031 C 
ATOM     44  C   UNL A   1      37.558  31.750  32.976  1.00  0.00     0.029 A 
ATOM     45  C   UNL A   1      38.824  31.054  33.191  1.00  0.00     0.049 A 
ATOM     46  H   UNL A   1      39.832  29.821  31.849  1.00  0.00     0.167 HD
ATOM     47  C   UNL A   1      41.765  27.087  29.080  1.00  0.00     0.037 A 
ATOM     48  C   UNL A   1      39.559  31.105  34.319  1.00  0.00     0.037 A 
ATOM     49  C   UNL A   1      42.650  27.138  30.215  1.00  0.00     0.049 A 
ATOM     50  C   UNL A   1      40.846  30.330  34.411  1.00  0.00     0.074 A 
ATOM     51  C   UNL A   1      43.877  26.517  30.381  1.00  0.00     0.029 A 
ATOM     52  N   UNL A   1      42.407  27.852  31.377  1.00  0.00    -0.354 N 
ATOM     53  N   UNL A   1      41.413  29.558  33.517  1.00  0.00    -0.248 NA
ATOM     54  C   UNL A   1      41.597  30.439  35.670  1.00  0.00     0.031 C 
ATOM     55  C   UNL A   1      44.361  26.827  31.657  1.00  0.00     0.029 A 
ATOM     56  C   UNL A   1      43.453  27.674  32.270  1.00  0.00     0.049 A 
ATOM     57  H   UNL A   1      41.610  28.405  31.545  1.00  0.00     0.167 HD
ATOM     58  C   UNL A   1      42.592  29.109  34.094  1.00  0.00     0.074 A 
ATOM     59  C   UNL A   1      42.670  29.704  35.412  1.00  0.00     0.031 C 
ATOM     60  C   UNL A   1      43.528  28.276  33.576  1.00  0.00     0.037 A 
BRANCH  47  61
ATOM     61  C   UNL A   1      42.157  26.208  27.928  1.00  0.00     0.064 A 
ATOM     62  C   UNL A   1      41.605  24.930  27.757  1.00  0.00     0.173 A 
ATOM     63  C   UNL A   1      43.057  26.672  26.956  1.00  0.00     0.173 A 
ATOM     64  F   UNL A   1      40.747  24.440  28.662  1.00  0.00    -0.203 F 
ATOM     65  C   UNL A   1      41.961  24.138  26.669  1.00  0.00     0.198 A 
ATOM     66  C   UNL A   1      43.390  25.886  25.856  1.00  0.00     0.198 A 
ATOM     67  F   UNL A   1      43.605  27.892  27.068  1.00  0.00    -0.203 F 
ATOM     68  F   UNL A   1      41.454  22.902  26.548  1.00  0.00    -0.200 F 
ATOM     69  C   UNL A   1      42.848  24.618  25.717  1.00  0.00     0.200 A 
ATOM     70  F   UNL A   1      44.236  26.357  24.930  1.00  0.00    -0.200 F 
ATOM     71  F   UNL A   1      43.183  23.855  24.667  1.00  0.00    -0.200 F 
ENDBRANCH  47  61
BRANCH  48  72
ATOM     72  C   UNL A   1      39.098  31.934  35.462  1.00  0.00     0.064 A 
ATOM     73  C   UNL A   1      38.329  31.373  36.490  1.00  0.00     0.173 A 
ATOM     74  C   UNL A   1      39.411  33.298  35.547  1.00  0.00     0.173 A 
ATOM     75  F   UNL A   1      37.983  30.078  36.437  1.00  0.00    -0.203 F 
ATOM     76  C   UNL A   1      37.877  32.149  37.555  1.00  0.00     0.198 A 
ATOM     77  C   UNL A   1      38.979  34.067  36.626  1.00  0.00     0.198 A 
ATOM     78  F   UNL A   1      40.142  33.881  34.586  1.00  0.00    -0.203 F 
ATOM     79  F   UNL A   1      37.108  31.598  38.504  1.00  0.00    -0.200 F 
ATOM     80  C   UNL A   1      38.208  33.494  37.625  1.00  0.00     0.200 A 
ATOM     81  F   UNL A   1      39.307  35.365  36.694  1.00  0.00    -0.200 F 
ATOM     82  F   UNL A   1      37.775  34.240  38.651  1.00  0.00    -0.200 F 
ENDBRANCH  48  72
BRANCH  60  83
ATOM     83  C   UNL A   1      44.733  27.980  34.419  1.00  0.00     0.064 A 
ATOM     84  C   UNL A   1      44.787  26.853  35.252  1.00  0.00     0.173 A 
ATOM     85  C   UNL A   1      45.860  28.813  34.364  1.00  0.00     0.173 A 
ATOM     86  F   UNL A   1      43.729  26.035  35.351  1.00  0.00    -0.203 F 
ATOM     87  C   UNL A   1      45.921  26.581  36.014  1.00  0.00     0.198 A 
ATOM     88  C   UNL A   1      47.000  28.526  35.110  1.00  0.00     0.198 A 
ATOM     89  F   UNL A   1      45.859  29.901  33.580  1.00  0.00    -0.203 F 
ATOM     90  F   UNL A   1      45.937  25.520  36.833  1.00  0.00    -0.200 F 
ATOM     91  C   UNL A   1      47.027  27.414  35.938  1.00  0.00     0.200 A 
ATOM     92  F   UNL A   1      48.073  29.326  35.028  1.00  0.00    -0.200 F 
ATOM     93  F   UNL A   1      48.119  27.147  36.668  1.00  0.00    -0.200 F 
ENDBRANCH  60  83
ENDBRANCH  34  35
ENDBRANCH  26  29
ENDBRANCH  24  25
ENDBRANCH  23  24
ENDBRANCH  22  23
ENDBRANCH   3  22
TORSDOF 15
ENDMDL
MODEL 2
REMARK VINA RESULT:     -11.6      2.004      3.487
REMARK SMILES COCC[C@@H](C)NC(=O)N[C@@H]1C=C[C@@H](C(=O)NCCCNC(=O)c2ccc(-c3c4nc(c(-c5c(F)c(F)c(F)c(F)c5F)c5ccc([nH]5)c(-c5c(F)c(F)c(F)c(F)c5F)c5nc(c(-c6c(F)c(F)c(F)c(F)c6F)c6ccc3[nH]6)C=C5)C=C4)cc2)C1
REMARK SMILES IDX 15 1 16 2 17 3 14 5 11 6 12 7 87 8 13 9 10 10 7 11 8 12 9 14
REMARK SMILES IDX 5 16 6 17 4 18 3 19 2 20 1 21 18 22 19 23 20 24 21 25 22 26
REMARK SMILES IDX 23 28 24 29 25 30 86 31 26 32 85 33 27 34 28 35 29 36 79 37
REMARK SMILES IDX 30 38 84 39 78 40 80 41 31 42 83 43 77 44 76 45 32 47 64 48
REMARK SMILES IDX 44 49 63 50 45 51 48 52 62 53 81 54 46 55 47 56 61 58 82 59
REMARK SMILES IDX 49 60 33 61 34 62 42 63 35 64 36 65 40 66 43 67 37 68 38 69
REMARK SMILES IDX 41 70 39 71 65 72 66 73 74 74 67 75 68 76 72 77 75 78 69 79
REMARK SMILES IDX 70 80 73 81 71 82 50 83 51 84 59 85 52 86 53 87 57 88 60 89
REMARK SMILES IDX 54 90 55 91 58 92 56 93
REMARK H PARENT 17 4 7 13 10 15 21 27 80 46 48 57
REMARK Flexibility Score: inf
ROOT
ATOM      1  C   UNL A   1      32.550  29.187  24.980  1.00  0.00     0.227 C 
ATOM      2  O   UNL A   1      33.235  29.042  23.961  1.00  0.00    -0.274 OA
ATOM      3  N   UNL A   1      31.987  30.414  25.147  1.00  0.00    -0.356 N 
ATOM      4  H   UNL A   1      32.288  31.081  24.489  1.00  0.00     0.163 HD
ENDROOT
BRANCH   1   5
ATOM      5  C   UNL A   1      32.461  28.041  25.996  1.00  0.00     0.103 C 
ATOM      6  C   UNL A   1      31.684  25.719  25.712  1.00  0.00     0.107 C 
ATOM      7  C   UNL A   1      33.145  25.796  26.011  1.00  0.00    -0.006 C 
ATOM      8  C   UNL A   1      31.215  27.176  25.800  1.00  0.00     0.047 C 
ATOM      9  C   UNL A   1      33.581  27.058  26.090  1.00  0.00    -0.016 C 
BRANCH   6  10
ATOM     10  N   UNL A   1      31.014  24.856  26.651  1.00  0.00    -0.332 N 
ATOM     11  N   UNL A   1      31.014  22.710  25.637  1.00  0.00    -0.336 N 
ATOM     12  C   UNL A   1      30.708  23.551  26.634  1.00  0.00     0.315 C 
ATOM     13  H   UNL A   1      30.728  21.787  25.825  1.00  0.00     0.165 HD
ATOM     14  O   UNL A   1      30.100  23.089  27.604  1.00  0.00    -0.249 OA
ATOM     15  H   UNL A   1      30.722  25.318  27.469  1.00  0.00     0.165 HD
BRANCH  11  16
ATOM     16  C   UNL A   1      31.672  22.833  24.341  1.00  0.00     0.083 C 
ATOM     17  C   UNL A   1      30.707  23.439  23.320  1.00  0.00     0.031 C 
BRANCH  16  18
ATOM     18  C   UNL A   1      32.218  21.472  23.873  1.00  0.00     0.053 C 
BRANCH  18  19
ATOM     19  C   UNL A   1      32.590  20.572  25.057  1.00  0.00     0.162 C 
BRANCH  19  20
ATOM     20  O   UNL A   1      32.179  19.212  24.896  1.00  0.00    -0.385 OA
ATOM     21  C   UNL A   1      33.227  18.297  24.613  1.00  0.00     0.194 C 
ENDBRANCH  19  20
ENDBRANCH  18  19
ENDBRANCH  16  18
ENDBRANCH  11  16
ENDBRANCH   6  10
ENDBRANCH   1   5
BRANCH   3  22
ATOM     22  C   UNL A   1      31.028  30.932  26.106  1.00  0.00     0.117 C 
BRANCH  22  23
ATOM     23  C   UNL A   1      31.203  32.427  26.382  1.00  0.00     0.042 C 
BRANCH  23  24
ATOM     24  C   UNL A   1      32.451  32.829  27.169  1.00  0.00     0.118 C 
BRANCH  24  25
ATOM     25  N   UNL A   1      32.414  34.213  27.615  1.00  0.00    -0.352 N 
ATOM     26  C   UNL A   1      33.071  34.882  28.619  1.00  0.00     0.251 C 
ATOM     27  H   UNL A   1      31.800  34.780  27.096  1.00  0.00     0.163 HD
ATOM     28  O   UNL A   1      32.698  36.029  28.882  1.00  0.00    -0.269 OA
BRANCH  26  29
ATOM     29  C   UNL A   1      34.196  34.304  29.403  1.00  0.00     0.039 A 
ATOM     30  C   UNL A   1      35.498  34.485  28.912  1.00  0.00     0.014 A 
ATOM     31  C   UNL A   1      34.012  33.496  30.527  1.00  0.00     0.014 A 
ATOM     32  C   UNL A   1      36.597  33.899  29.555  1.00  0.00     0.010 A 
ATOM     33  C   UNL A   1      35.116  32.964  31.209  1.00  0.00     0.010 A 
ATOM     34  C   UNL A   1      36.422  33.148  30.726  1.00  0.00    -0.014 A 
BRANCH  34  35
ATOM     35  C   UNL A   1      37.583  32.534  31.433  1.00  0.00     0.031 A 
ATOM     36  C   UNL A   1      38.343  31.389  30.812  1.00  0.00     0.074 A 
ATOM     37  C   UNL A   1      37.940  32.970  32.657  1.00  0.00     0.049 A 
ATOM     38  N   UNL A   1      39.319  30.670  31.312  1.00  0.00    -0.248 NA
ATOM     39  C   UNL A   1      37.941  30.989  29.456  1.00  0.00     0.031 C 
ATOM     40  C   UNL A   1      37.287  34.052  33.393  1.00  0.00     0.029 A 
ATOM     41  N   UNL A   1      38.937  32.547  33.505  1.00  0.00    -0.354 N 
ATOM     42  C   UNL A   1      39.626  29.719  30.348  1.00  0.00     0.074 A 
ATOM     43  C   UNL A   1      38.713  29.931  29.244  1.00  0.00     0.031 C 
ATOM     44  C   UNL A   1      37.907  34.219  34.572  1.00  0.00     0.029 A 
ATOM     45  C   UNL A   1      38.976  33.231  34.696  1.00  0.00     0.049 A 
ATOM     46  H   UNL A   1      39.563  31.821  33.280  1.00  0.00     0.167 HD
ATOM     47  C   UNL A   1      40.589  28.764  30.369  1.00  0.00     0.037 A 
ATOM     48  C   UNL A   1      39.772  33.076  35.772  1.00  0.00     0.037 A 
ATOM     49  C   UNL A   1      41.531  28.572  31.441  1.00  0.00     0.049 A 
ATOM     50  C   UNL A   1      40.834  32.010  35.770  1.00  0.00     0.074 A 
ATOM     51  C   UNL A   1      42.577  27.667  31.519  1.00  0.00     0.029 A 
ATOM     52  N   UNL A   1      41.545  29.297  32.622  1.00  0.00    -0.354 N 
ATOM     53  N   UNL A   1      41.137  31.144  34.835  1.00  0.00    -0.248 NA
ATOM     54  C   UNL A   1      41.669  31.904  36.977  1.00  0.00     0.031 C 
ATOM     55  C   UNL A   1      43.203  27.822  32.761  1.00  0.00     0.029 A 
ATOM     56  C   UNL A   1      42.571  28.849  33.440  1.00  0.00     0.049 A 
ATOM     57  H   UNL A   1      40.919  30.023  32.847  1.00  0.00     0.167 HD
ATOM     58  C   UNL A   1      42.205  30.408  35.328  1.00  0.00     0.074 A 
ATOM     59  C   UNL A   1      42.511  30.936  36.641  1.00  0.00     0.031 C 
ATOM     60  C   UNL A   1      42.874  29.385  34.741  1.00  0.00     0.037 A 
BRANCH  47  61
ATOM     61  C   UNL A   1      40.679  27.842  29.187  1.00  0.00     0.064 A 
ATOM     62  C   UNL A   1      41.600  28.060  28.153  1.00  0.00     0.173 A 
ATOM     63  C   UNL A   1      39.866  26.700  29.115  1.00  0.00     0.173 A 
ATOM     64  F   UNL A   1      42.393  29.140  28.172  1.00  0.00    -0.203 F 
ATOM     65  C   UNL A   1      41.687  27.181  27.076  1.00  0.00     0.198 A 
ATOM     66  C   UNL A   1      39.974  25.810  28.050  1.00  0.00     0.198 A 
ATOM     67  F   UNL A   1      38.975  26.441  30.085  1.00  0.00    -0.203 F 
ATOM     68  F   UNL A   1      42.545  27.431  26.077  1.00  0.00    -0.200 F 
ATOM     69  C   UNL A   1      40.879  26.055  27.028  1.00  0.00     0.200 A 
ATOM     70  F   UNL A   1      39.203  24.715  28.012  1.00  0.00    -0.200 F 
ATOM     71  F   UNL A   1      40.969  25.207  25.993  1.00  0.00    -0.200 F 
ENDBRANCH  47  61
BRANCH  48  72
ATOM     72  C   UNL A   1      39.602  33.966  36.949  1.00  0.00     0.064 A 
ATOM     73  C   UNL A   1      38.832  33.561  38.048  1.00  0.00     0.173 A 
ATOM     74  C   UNL A   1      40.198  35.234  36.997  1.00  0.00     0.173 A 
ATOM     75  F   UNL A   1      38.221  32.367  38.034  1.00  0.00    -0.203 F 
ATOM     76  C   UNL A   1      38.653  34.399  39.146  1.00  0.00     0.198 A 
ATOM     77  C   UNL A   1      40.038  36.060  38.108  1.00  0.00     0.198 A 
ATOM     78  F   UNL A   1      40.942  35.667  35.968  1.00  0.00    -0.203 F 
ATOM     79  F   UNL A   1      37.878  34.006  40.167  1.00  0.00    -0.200 F 
ATOM     80  C   UNL A   1      39.262  35.645  39.178  1.00  0.00     0.200 A 
ATOM     81  F   UNL A   1      40.634  37.260  38.138  1.00  0.00    -0.200 F 
ATOM     82  F   UNL A   1      39.090  36.449  40.236  1.00  0.00    -0.200 F 
ENDBRANCH  48  72
BRANCH  60  83
ATOM     83  C   UNL A   1      44.022  28.786  35.499  1.00  0.00     0.064 A 
ATOM     84  C   UNL A   1      43.838  27.716  36.386  1.00  0.00     0.173 A 
ATOM     85  C   UNL A   1      45.327  29.264  35.305  1.00  0.00     0.173 A 
ATOM     86  F   UNL A   1      42.607  27.235  36.617  1.00  0.00    -0.203 F 
ATOM     87  C   UNL A   1      44.917  27.158  37.067  1.00  0.00     0.198 A 
ATOM     88  C   UNL A   1      46.406  28.688  35.970  1.00  0.00     0.198 A 
ATOM     89  F   UNL A   1      45.556  30.282  34.464  1.00  0.00    -0.203 F 
ATOM     90  F   UNL A   1      44.713  26.161  37.940  1.00  0.00    -0.200 F 
ATOM     91  C   UNL A   1      46.200  27.640  36.854  1.00  0.00     0.200 A 
ATOM     92  F   UNL A   1      47.647  29.149  35.756  1.00  0.00    -0.200 F 
ATOM     93  F   UNL A   1      47.237  27.097  37.507  1.00  0.00    -0.200 F 
ENDBRANCH  60  83
ENDBRANCH  34  35
ENDBRANCH  26  29
ENDBRANCH  24  25
ENDBRANCH  23  24
ENDBRANCH  22  23
ENDBRANCH   3  22
TORSDOF 15
ENDMDL
MODEL 3
REMARK VINA RESULT:     -11.4      4.948     10.524
REMARK SMILES COCC[C@@H](C)NC(=O)N[C@@H]1C=C[C@@H](C(=O)NCCCNC(=O)c2ccc(-c3c4nc(c(-c5c(F)c(F)c(F)c(F)c5F)c5ccc([nH]5)c(-c5c(F)c(F)c(F)c(F)c5F)c5nc(c(-c6c(F)c(F)c(F)c(F)c6F)c6ccc3[nH]6)C=C5)C=C4)cc2)C1
REMARK SMILES IDX 15 1 16 2 17 3 14 5 11 6 12 7 87 8 13 9 10 10 7 11 8 12 9 14
REMARK SMILES IDX 5 16 6 17 4 18 3 19 2 20 1 21 18 22 19 23 20 24 21 25 22 26
REMARK SMILES IDX 23 28 24 29 25 30 86 31 26 32 85 33 27 34 28 35 29 36 79 37
REMARK SMILES IDX 30 38 84 39 78 40 80 41 31 42 83 43 77 44 76 45 32 47 64 48
REMARK SMILES IDX 44 49 63 50 45 51 48 52 62 53 81 54 46 55 47 56 61 58 82 59
REMARK SMILES IDX 49 60 33 61 34 62 42 63 35 64 36 65 40 66 43 67 37 68 38 69
REMARK SMILES IDX 41 70 39 71 65 72 66 73 74 74 67 75 68 76 72 77 75 78 69 79
REMARK SMILES IDX 70 80 73 81 71 82 50 83 51 84 59 85 52 86 53 87 57 88 60 89
REMARK SMILES IDX 54 90 55 91 58 92 56 93
REMARK H PARENT 17 4 7 13 10 15 21 27 80 46 48 57
REMARK Flexibility Score: inf
ROOT
ATOM      1  C   UNL A   1      37.623  34.074  29.833  1.00  0.00     0.227 C 
ATOM      2  O   UNL A   1      38.627  33.749  29.190  1.00  0.00    -0.274 OA
ATOM      3  N   UNL A   1      36.551  34.477  29.099  1.00  0.00    -0.356 N 
ATOM      4  H   UNL A   1      36.743  34.570  28.137  1.00  0.00     0.163 HD
ENDROOT
BRANCH   1   5
ATOM      5  C   UNL A   1      37.683  34.089  31.366  1.00  0.00     0.103 C 
ATOM      6  C   UNL A   1      38.506  32.382  32.943  1.00  0.00     0.107 C 
ATOM      7  C   UNL A   1      39.346  33.618  32.955  1.00  0.00    -0.006 C 
ATOM      8  C   UNL A   1      37.362  32.725  31.981  1.00  0.00     0.047 C 
ATOM      9  C   UNL A   1      38.944  34.513  32.046  1.00  0.00    -0.016 C 
BRANCH   6  10
ATOM     10  N   UNL A   1      38.046  32.064  34.271  1.00  0.00    -0.332 N 
ATOM     11  N   UNL A   1      39.172  30.058  34.857  1.00  0.00    -0.336 N 
ATOM     12  C   UNL A   1      38.317  31.058  35.114  1.00  0.00     0.315 C 
ATOM     13  H   UNL A   1      39.254  29.433  35.614  1.00  0.00     0.165 HD
ATOM     14  O   UNL A   1      37.740  31.049  36.206  1.00  0.00    -0.249 OA
ATOM     15  H   UNL A   1      37.404  32.717  34.630  1.00  0.00     0.165 HD
BRANCH  11  16
ATOM     16  C   UNL A   1      40.011  29.675  33.728  1.00  0.00     0.083 C 
ATOM     17  C   UNL A   1      39.267  28.676  32.839  1.00  0.00     0.031 C 
BRANCH  16  18
ATOM     18  C   UNL A   1      41.360  29.114  34.213  1.00  0.00     0.053 C 
BRANCH  18  19
ATOM     19  C   UNL A   1      41.509  29.232  35.735  1.00  0.00     0.162 C 
BRANCH  19  20
ATOM     20  O   UNL A   1      40.947  28.132  36.453  1.00  0.00    -0.385 OA
ATOM     21  C   UNL A   1      41.785  26.992  36.560  1.00  0.00     0.194 C 
ENDBRANCH  19  20
ENDBRANCH  18  19
ENDBRANCH  16  18
ENDBRANCH  11  16
ENDBRANCH   6  10
ENDBRANCH   1   5
BRANCH   3  22
ATOM     22  C   UNL A   1      35.181  34.795  29.453  1.00  0.00     0.117 C 
BRANCH  22  23
ATOM     23  C   UNL A   1      34.191  33.690  29.079  1.00  0.00     0.042 C 
BRANCH  23  24
ATOM     24  C   UNL A   1      34.581  32.267  29.483  1.00  0.00     0.118 C 
BRANCH  24  25
ATOM     25  N   UNL A   1      34.095  31.263  28.549  1.00  0.00    -0.352 N 
ATOM     26  C   UNL A   1      34.726  30.261  27.853  1.00  0.00     0.251 C 
ATOM     27  H   UNL A   1      33.126  31.311  28.385  1.00  0.00     0.163 HD
ATOM     28  O   UNL A   1      34.077  29.672  26.982  1.00  0.00    -0.269 OA
BRANCH  26  29
ATOM     29  C   UNL A   1      36.138  29.852  28.084  1.00  0.00     0.039 A 
ATOM     30  C   UNL A   1      36.464  29.301  29.332  1.00  0.00     0.014 A 
ATOM     31  C   UNL A   1      37.167  30.099  27.173  1.00  0.00     0.014 A 
ATOM     32  C   UNL A   1      37.789  28.969  29.648  1.00  0.00     0.010 A 
ATOM     33  C   UNL A   1      38.482  29.707  27.463  1.00  0.00     0.010 A 
ATOM     34  C   UNL A   1      38.813  29.148  28.707  1.00  0.00    -0.014 A 
BRANCH  34  35
ATOM     35  C   UNL A   1      40.225  28.783  29.021  1.00  0.00     0.031 A 
ATOM     36  C   UNL A   1      41.115  29.735  29.778  1.00  0.00     0.074 A 
ATOM     37  C   UNL A   1      40.733  27.610  28.593  1.00  0.00     0.049 A 
ATOM     38  N   UNL A   1      42.391  29.632  30.064  1.00  0.00    -0.248 NA
ATOM     39  C   UNL A   1      40.494  30.976  30.262  1.00  0.00     0.031 C 
ATOM     40  C   UNL A   1      40.000  26.599  27.833  1.00  0.00     0.029 A 
ATOM     41  N   UNL A   1      41.993  27.075  28.729  1.00  0.00    -0.354 N 
ATOM     42  C   UNL A   1      42.729  30.801  30.733  1.00  0.00     0.074 A 
ATOM     43  C   UNL A   1      41.533  31.615  30.784  1.00  0.00     0.031 C 
ATOM     44  C   UNL A   1      40.815  25.561  27.582  1.00  0.00     0.029 A 
ATOM     45  C   UNL A   1      42.139  25.848  28.128  1.00  0.00     0.049 A 
ATOM     46  H   UNL A   1      42.722  27.529  29.210  1.00  0.00     0.167 HD
ATOM     47  C   UNL A   1      43.921  31.162  31.270  1.00  0.00     0.037 A 
ATOM     48  C   UNL A   1      43.217  25.048  28.017  1.00  0.00     0.037 A 
ATOM     49  C   UNL A   1      45.105  30.342  31.264  1.00  0.00     0.049 A 
ATOM     50  C   UNL A   1      44.529  25.470  28.623  1.00  0.00     0.074 A 
ATOM     51  C   UNL A   1      46.339  30.604  31.837  1.00  0.00     0.029 A 
ATOM     52  N   UNL A   1      45.205  29.100  30.658  1.00  0.00    -0.354 N 
ATOM     53  N   UNL A   1      44.822  26.562  29.285  1.00  0.00    -0.248 NA
ATOM     54  C   UNL A   1      45.660  24.543  28.467  1.00  0.00     0.031 C 
ATOM     55  C   UNL A   1      47.196  29.536  31.549  1.00  0.00     0.029 A 
ATOM     56  C   UNL A   1      46.484  28.591  30.830  1.00  0.00     0.049 A 
ATOM     57  H   UNL A   1      44.476  28.645  30.177  1.00  0.00     0.167 HD
ATOM     58  C   UNL A   1      46.157  26.444  29.643  1.00  0.00     0.074 A 
ATOM     59  C   UNL A   1      46.618  25.168  29.137  1.00  0.00     0.031 C 
ATOM     60  C   UNL A   1      46.932  27.318  30.331  1.00  0.00     0.037 A 
BRANCH  47  61
ATOM     61  C   UNL A   1      44.010  32.513  31.918  1.00  0.00     0.064 A 
ATOM     62  C   UNL A   1      44.366  33.657  31.190  1.00  0.00     0.173 A 
ATOM     63  C   UNL A   1      43.686  32.671  33.275  1.00  0.00     0.173 A 
ATOM     64  F   UNL A   1      44.691  33.556  29.894  1.00  0.00    -0.203 F 
ATOM     65  C   UNL A   1      44.419  34.906  31.802  1.00  0.00     0.198 A 
ATOM     66  C   UNL A   1      43.715  33.926  33.877  1.00  0.00     0.198 A 
ATOM     67  F   UNL A   1      43.329  31.609  34.014  1.00  0.00    -0.203 F 
ATOM     68  F   UNL A   1      44.803  35.980  31.097  1.00  0.00    -0.200 F 
ATOM     69  C   UNL A   1      44.088  35.041  33.142  1.00  0.00     0.200 A 
ATOM     70  F   UNL A   1      43.382  34.056  35.168  1.00  0.00    -0.200 F 
ATOM     71  F   UNL A   1      44.134  36.246  33.727  1.00  0.00    -0.200 F 
ENDBRANCH  47  61
BRANCH  48  72
ATOM     72  C   UNL A   1      43.102  23.750  27.306  1.00  0.00     0.064 A 
ATOM     73  C   UNL A   1      42.578  22.622  27.952  1.00  0.00     0.173 A 
ATOM     74  C   UNL A   1      43.515  23.608  25.973  1.00  0.00     0.173 A 
ATOM     75  F   UNL A   1      42.196  22.704  29.236  1.00  0.00    -0.203 F 
ATOM     76  C   UNL A   1      42.485  21.396  27.297  1.00  0.00     0.198 A 
ATOM     77  C   UNL A   1      43.398  22.387  25.311  1.00  0.00     0.198 A 
ATOM     78  F   UNL A   1      44.025  24.658  25.312  1.00  0.00    -0.203 F 
ATOM     79  F   UNL A   1      42.020  20.323  27.950  1.00  0.00    -0.200 F 
ATOM     80  C   UNL A   1      42.888  21.282  25.975  1.00  0.00     0.200 A 
ATOM     81  F   UNL A   1      43.782  22.282  24.032  1.00  0.00    -0.200 F 
ATOM     82  F   UNL A   1      42.797  20.103  25.345  1.00  0.00    -0.200 F 
ENDBRANCH  48  72
BRANCH  60  83
ATOM     83  C   UNL A   1      48.351  26.914  30.606  1.00  0.00     0.064 A 
ATOM     84  C   UNL A   1      48.685  26.102  31.699  1.00  0.00     0.173 A 
ATOM     85  C   UNL A   1      49.382  27.314  29.742  1.00  0.00     0.173 A 
ATOM     86  F   UNL A   1      47.737  25.707  32.561  1.00  0.00    -0.203 F 
ATOM     87  C   UNL A   1      50.004  25.720  31.929  1.00  0.00     0.198 A 
ATOM     88  C   UNL A   1      50.697  26.910  29.962  1.00  0.00     0.198 A 
ATOM     89  F   UNL A   1      49.113  28.087  28.681  1.00  0.00    -0.203 F 
ATOM     90  F   UNL A   1      50.307  24.975  33.001  1.00  0.00    -0.200 F 
ATOM     91  C   UNL A   1      51.007  26.119  31.058  1.00  0.00     0.200 A 
ATOM     92  F   UNL A   1      51.664  27.289  29.114  1.00  0.00    -0.200 F 
ATOM     93  F   UNL A   1      52.275  25.745  31.278  1.00  0.00    -0.200 F 
ENDBRANCH  60  83
ENDBRANCH  34  35
ENDBRANCH  26  29
ENDBRANCH  24  25
ENDBRANCH  23  24
ENDBRANCH  22  23
ENDBRANCH   3  22
TORSDOF 15
ENDMDL
