MODEL 1
REMARK VINA RESULT:     -13.1      0.000      0.000
REMARK SMILES CC(C)CSc1cc2c(cc1Cl)C=C(C(=O)NCCCNC(=O)c1ccc(-c3c4nc(c(-c5c(F)c(F)c(F)c(F)c5F)c5ccc([nH]5)c(-c5c(F)c(F)c(F)c(F)c5F)c5nc(c(-c6c(F)c(F)c(F)c(F)c6F)c6ccc3[nH]6)C=C5)C=C4)cc1)[C@@H](C(F)(F)F)O2
REMARK SMILES IDX 18 1 17 2 15 3 16 4 14 6 6 7 7 8 11 9 8 10 10 11 12 12 9 13
REMARK SMILES IDX 92 14 13 15 87 16 5 17 4 18 2 19 1 20 3 21 88 22 89 23 90 24
REMARK SMILES IDX 91 25 19 26 20 27 21 28 22 29 23 31 24 32 25 33 86 34 26 35
REMARK SMILES IDX 85 36 27 37 28 38 29 39 79 40 30 41 84 42 78 43 80 44 31 45
REMARK SMILES IDX 83 46 77 47 76 48 32 50 64 51 44 52 63 53 45 54 48 55 62 56
REMARK SMILES IDX 81 57 46 58 47 59 61 61 82 62 49 63 33 64 34 65 42 66 35 67
REMARK SMILES IDX 36 68 40 69 43 70 37 71 38 72 41 73 39 74 65 75 66 76 74 77
REMARK SMILES IDX 67 78 68 79 72 80 75 81 69 82 70 83 73 84 71 85 50 86 51 87
REMARK SMILES IDX 59 88 52 89 53 90 57 91 60 92 54 93 55 94 58 95 56 96
REMARK H PARENT 17 5 21 30 80 49 48 60
REMARK Flexibility Score: inf
ROOT
ATOM      1  C   UNL A   1      31.489  30.660  26.394  1.00  0.00     0.118 C 
ENDROOT
BRANCH   1   2
ATOM      2  N   UNL A   1      31.631  30.250  25.005  1.00  0.00    -0.352 N 
ATOM      3  C   UNL A   1      31.826  29.099  24.324  1.00  0.00     0.251 C 
ATOM      4  O   UNL A   1      31.912  29.225  23.098  1.00  0.00    -0.270 OA
ATOM      5  H   UNL A   1      31.567  31.021  24.396  1.00  0.00     0.163 HD
BRANCH   3   6
ATOM      6  C   UNL A   1      31.941  27.744  24.938  1.00  0.00     0.067 C 
ATOM      7  C   UNL A   1      33.705  23.269  26.512  1.00  0.00     0.030 A 
ATOM      8  C   UNL A   1      32.504  23.977  26.681  1.00  0.00     0.063 A 
ATOM      9  C   UNL A   1      34.767  23.920  25.862  1.00  0.00     0.055 A 
ATOM     10  C   UNL A   1      32.338  25.253  26.145  1.00  0.00     0.129 A 
ATOM     11  C   UNL A   1      34.587  25.194  25.303  1.00  0.00     0.033 A 
ATOM     12  Cl  UNL A   1      36.361  23.259  25.752  1.00  0.00    -0.083 Cl
ATOM     13  C   UNL A   1      33.367  25.859  25.433  1.00  0.00     0.019 A 
ATOM     14  O   UNL A   1      31.150  25.869  26.401  1.00  0.00    -0.475 OA
ATOM     15  C   UNL A   1      33.167  27.191  24.882  1.00  0.00     0.025 C 
ATOM     16  C   UNL A   1      30.791  26.996  25.555  1.00  0.00     0.314 C 
BRANCH   7  17
ATOM     17  S   UNL A   1      33.704  21.621  27.208  1.00  0.00    -0.124 SA
BRANCH  17  18
ATOM     18  C   UNL A   1      33.823  20.509  25.756  1.00  0.00     0.078 C 
BRANCH  18  19
ATOM     19  C   UNL A   1      32.602  20.380  24.825  1.00  0.00    -0.007 C 
ATOM     20  C   UNL A   1      32.582  21.359  23.653  1.00  0.00     0.008 C 
ATOM     21  C   UNL A   1      32.578  18.950  24.264  1.00  0.00     0.008 C 
ENDBRANCH  18  19
ENDBRANCH  17  18
ENDBRANCH   7  17
BRANCH  16  22
ATOM     22  C   UNL A   1      29.755  26.514  24.524  1.00  0.00     0.429 C 
ATOM     23  F   UNL A   1      30.327  25.635  23.663  1.00  0.00    -0.167 F 
ATOM     24  F   UNL A   1      28.709  25.867  25.090  1.00  0.00    -0.167 F 
ATOM     25  F   UNL A   1      29.241  27.526  23.791  1.00  0.00    -0.167 F 
ENDBRANCH  16  22
ENDBRANCH   3   6
ENDBRANCH   1   2
BRANCH   1  26
ATOM     26  C   UNL A   1      31.400  32.171  26.535  1.00  0.00     0.042 C 
BRANCH  26  27
ATOM     27  C   UNL A   1      32.616  32.761  27.238  1.00  0.00     0.118 C 
BRANCH  27  28
ATOM     28  N   UNL A   1      32.411  34.159  27.618  1.00  0.00    -0.352 N 
ATOM     29  C   UNL A   1      32.993  34.914  28.607  1.00  0.00     0.251 C 
ATOM     30  H   UNL A   1      31.744  34.636  27.075  1.00  0.00     0.163 HD
ATOM     31  O   UNL A   1      32.509  36.001  28.909  1.00  0.00    -0.269 OA
BRANCH  29  32
ATOM     32  C   UNL A   1      34.185  34.415  29.319  1.00  0.00     0.039 A 
ATOM     33  C   UNL A   1      35.459  34.620  28.790  1.00  0.00     0.014 A 
ATOM     34  C   UNL A   1      34.034  33.742  30.536  1.00  0.00     0.014 A 
ATOM     35  C   UNL A   1      36.548  33.975  29.356  1.00  0.00     0.010 A 
ATOM     36  C   UNL A   1      35.153  33.194  31.170  1.00  0.00     0.010 A 
ATOM     37  C   UNL A   1      36.412  33.258  30.554  1.00  0.00    -0.014 A 
BRANCH  37  38
ATOM     38  C   UNL A   1      37.608  32.594  31.133  1.00  0.00     0.031 A 
ATOM     39  C   UNL A   1      38.073  32.921  32.525  1.00  0.00     0.074 A 
ATOM     40  C   UNL A   1      38.226  31.633  30.421  1.00  0.00     0.049 A 
ATOM     41  N   UNL A   1      39.070  32.407  33.202  1.00  0.00    -0.248 NA
ATOM     42  C   UNL A   1      37.330  33.959  33.255  1.00  0.00     0.031 C 
ATOM     43  C   UNL A   1      37.855  31.225  29.064  1.00  0.00     0.029 A 
ATOM     44  N   UNL A   1      39.262  30.797  30.746  1.00  0.00    -0.354 N 
ATOM     45  C   UNL A   1      39.089  33.075  34.420  1.00  0.00     0.074 A 
ATOM     46  C   UNL A   1      38.022  34.051  34.382  1.00  0.00     0.031 C 
ATOM     47  C   UNL A   1      38.597  30.170  28.704  1.00  0.00     0.029 A 
ATOM     48  C   UNL A   1      39.548  29.874  29.770  1.00  0.00     0.049 A 
ATOM     49  H   UNL A   1      39.755  30.852  31.597  1.00  0.00     0.167 HD
ATOM     50  C   UNL A   1      39.914  32.881  35.475  1.00  0.00     0.037 A 
ATOM     51  C   UNL A   1      40.480  28.905  29.728  1.00  0.00     0.037 A 
ATOM     52  C   UNL A   1      40.954  31.886  35.516  1.00  0.00     0.049 A 
ATOM     53  C   UNL A   1      41.403  28.732  30.898  1.00  0.00     0.074 A 
ATOM     54  C   UNL A   1      41.826  31.593  36.551  1.00  0.00     0.029 A 
ATOM     55  N   UNL A   1      41.260  31.018  34.478  1.00  0.00    -0.354 N 
ATOM     56  N   UNL A   1      41.412  29.373  32.042  1.00  0.00    -0.248 NA
ATOM     57  C   UNL A   1      42.455  27.716  30.768  1.00  0.00     0.031 C 
ATOM     58  C   UNL A   1      42.688  30.579  36.122  1.00  0.00     0.029 A 
ATOM     59  C   UNL A   1      42.323  30.205  34.837  1.00  0.00     0.049 A 
ATOM     60  H   UNL A   1      40.790  30.984  33.613  1.00  0.00     0.167 HD
ATOM     61  C   UNL A   1      42.466  28.841  32.768  1.00  0.00     0.074 A 
ATOM     62  C   UNL A   1      43.058  27.805  31.945  1.00  0.00     0.031 C 
ATOM     63  C   UNL A   1      42.906  29.186  34.002  1.00  0.00     0.037 A 
BRANCH  50  64
ATOM     64  C   UNL A   1      39.740  33.772  36.672  1.00  0.00     0.064 A 
ATOM     65  C   UNL A   1      40.360  35.028  36.753  1.00  0.00     0.173 A 
ATOM     66  C   UNL A   1      38.902  33.385  37.728  1.00  0.00     0.173 A 
ATOM     67  F   UNL A   1      41.181  35.440  35.775  1.00  0.00    -0.203 F 
ATOM     68  C   UNL A   1      40.163  35.854  37.857  1.00  0.00     0.198 A 
ATOM     69  C   UNL A   1      38.686  34.225  38.818  1.00  0.00     0.198 A 
ATOM     70  F   UNL A   1      38.282  32.197  37.699  1.00  0.00    -0.203 F 
ATOM     71  F   UNL A   1      40.798  37.032  37.932  1.00  0.00    -0.200 F 
ATOM     72  C   UNL A   1      39.321  35.456  38.885  1.00  0.00     0.200 A 
ATOM     73  F   UNL A   1      37.863  33.843  39.804  1.00  0.00    -0.200 F 
ATOM     74  F   UNL A   1      39.126  36.256  39.942  1.00  0.00    -0.200 F 
ENDBRANCH  50  64
BRANCH  51  75
ATOM     75  C   UNL A   1      40.565  28.030  28.531  1.00  0.00     0.064 A 
ATOM     76  C   UNL A   1      41.354  28.390  27.433  1.00  0.00     0.173 A 
ATOM     77  C   UNL A   1      39.917  26.786  28.493  1.00  0.00     0.173 A 
ATOM     78  F   UNL A   1      41.980  29.577  27.417  1.00  0.00    -0.203 F 
ATOM     79  C   UNL A   1      41.498  27.536  26.341  1.00  0.00     0.198 A 
ATOM     80  C   UNL A   1      40.084  25.921  27.415  1.00  0.00     0.198 A 
ATOM     81  F   UNL A   1      39.155  26.394  29.524  1.00  0.00    -0.203 F 
ATOM     82  F   UNL A   1      42.247  27.910  25.294  1.00  0.00    -0.200 F 
ATOM     83  C   UNL A   1      40.874  26.297  26.338  1.00  0.00     0.200 A 
ATOM     84  F   UNL A   1      39.495  24.717  27.427  1.00  0.00    -0.200 F 
ATOM     85  F   UNL A   1      41.035  25.465  25.301  1.00  0.00    -0.200 F 
ENDBRANCH  51  75
BRANCH  63  86
ATOM     86  C   UNL A   1      44.089  28.441  34.544  1.00  0.00     0.064 A 
ATOM     87  C   UNL A   1      43.934  27.226  35.226  1.00  0.00     0.173 A 
ATOM     88  C   UNL A   1      45.391  28.910  34.319  1.00  0.00     0.173 A 
ATOM     89  F   UNL A   1      42.707  26.745  35.478  1.00  0.00    -0.203 F 
ATOM     90  C   UNL A   1      45.042  26.512  35.674  1.00  0.00     0.198 A 
ATOM     91  C   UNL A   1      46.498  28.181  34.745  1.00  0.00     0.198 A 
ATOM     92  F   UNL A   1      45.591  30.065  33.666  1.00  0.00    -0.203 F 
ATOM     93  F   UNL A   1      44.870  25.369  36.352  1.00  0.00    -0.200 F 
ATOM     94  C   UNL A   1      46.322  26.985  35.425  1.00  0.00     0.200 A 
ATOM     95  F   UNL A   1      47.733  28.633  34.491  1.00  0.00    -0.200 F 
ATOM     96  F   UNL A   1      47.388  26.289  35.843  1.00  0.00    -0.200 F 
ENDBRANCH  63  86
ENDBRANCH  37  38
ENDBRANCH  29  32
ENDBRANCH  27  28
ENDBRANCH  26  27
ENDBRANCH   1  26
TORSDOF 14
ENDMDL
MODEL 2
REMARK VINA RESULT:     -13.1      5.497     10.623
REMARK SMILES CC(C)CSc1cc2c(cc1Cl)C=C(C(=O)NCCCNC(=O)c1ccc(-c3c4nc(c(-c5c(F)c(F)c(F)c(F)c5F)c5ccc([nH]5)c(-c5c(F)c(F)c(F)c(F)c5F)c5nc(c(-c6c(F)c(F)c(F)c(F)c6F)c6ccc3[nH]6)C=C5)C=C4)cc1)[C@@H](C(F)(F)F)O2
REMARK SMILES IDX 18 1 17 2 15 3 16 4 14 6 6 7 7 8 11 9 8 10 10 11 12 12 9 13
REMARK SMILES IDX 92 14 13 15 87 16 5 17 4 18 2 19 1 20 3 21 88 22 89 23 90 24
REMARK SMILES IDX 91 25 19 26 20 27 21 28 22 29 23 31 24 32 25 33 86 34 26 35
REMARK SMILES IDX 85 36 27 37 28 38 29 39 79 40 30 41 84 42 78 43 80 44 31 45
REMARK SMILES IDX 83 46 77 47 76 48 32 50 64 51 44 52 63 53 45 54 48 55 62 56
REMARK SMILES IDX 81 57 46 58 47 59 61 61 82 62 49 63 33 64 34 65 42 66 35 67
REMARK SMILES IDX 36 68 40 69 43 70 37 71 38 72 41 73 39 74 65 75 66 76 74 77
REMARK SMILES IDX 67 78 68 79 72 80 75 81 69 82 70 83 73 84 71 85 50 86 51 87
REMARK SMILES IDX 59 88 52 89 53 90 57 91 60 92 54 93 55 94 58 95 56 96
REMARK H PARENT 17 5 21 30 80 49 48 60
REMARK Flexibility Score: inf
ROOT
ATOM      1  C   UNL A   1      37.115  20.702  24.696  1.00  0.00     0.118 C 
ENDROOT
BRANCH   1   2
ATOM      2  N   UNL A   1      35.869  20.560  25.434  1.00  0.00    -0.352 N 
ATOM      3  C   UNL A   1      34.711  21.244  25.570  1.00  0.00     0.251 C 
ATOM      4  O   UNL A   1      33.899  20.746  26.356  1.00  0.00    -0.270 OA
ATOM      5  H   UNL A   1      35.869  19.743  25.984  1.00  0.00     0.163 HD
BRANCH   3   6
ATOM      6  C   UNL A   1      34.371  22.511  24.858  1.00  0.00     0.067 C 
ATOM      7  C   UNL A   1      33.360  27.356  23.802  1.00  0.00     0.030 A 
ATOM      8  C   UNL A   1      33.530  26.189  23.039  1.00  0.00     0.063 A 
ATOM      9  C   UNL A   1      33.623  27.286  25.181  1.00  0.00     0.055 A 
ATOM     10  C   UNL A   1      33.862  24.977  23.642  1.00  0.00     0.129 A 
ATOM     11  C   UNL A   1      33.934  26.058  25.785  1.00  0.00     0.033 A 
ATOM     12  Cl  UNL A   1      33.651  28.672  26.214  1.00  0.00    -0.083 Cl
ATOM     13  C   UNL A   1      34.042  24.897  25.018  1.00  0.00     0.019 A 
ATOM     14  O   UNL A   1      34.042  23.914  22.808  1.00  0.00    -0.475 OA
ATOM     15  C   UNL A   1      34.386  23.619  25.622  1.00  0.00     0.025 C 
ATOM     16  C   UNL A   1      33.998  22.588  23.403  1.00  0.00     0.314 C 
BRANCH   7  17
ATOM     17  S   UNL A   1      32.865  28.796  22.863  1.00  0.00    -0.124 SA
BRANCH  17  18
ATOM     18  C   UNL A   1      31.141  29.119  23.394  1.00  0.00     0.078 C 
BRANCH  18  19
ATOM     19  C   UNL A   1      30.012  28.260  22.792  1.00  0.00    -0.007 C 
ATOM     20  C   UNL A   1      29.689  26.987  23.572  1.00  0.00     0.008 C 
ATOM     21  C   UNL A   1      28.742  29.121  22.722  1.00  0.00     0.008 C 
ENDBRANCH  18  19
ENDBRANCH  17  18
ENDBRANCH   7  17
BRANCH  16  22
ATOM     22  C   UNL A   1      32.624  21.968  23.093  1.00  0.00     0.429 C 
ATOM     23  F   UNL A   1      32.287  22.199  21.799  1.00  0.00    -0.167 F 
ATOM     24  F   UNL A   1      32.602  20.624  23.258  1.00  0.00    -0.167 F 
ATOM     25  F   UNL A   1      31.638  22.474  23.867  1.00  0.00    -0.167 F 
ENDBRANCH  16  22
ENDBRANCH   3   6
ENDBRANCH   1   2
BRANCH   1  26
ATOM     26  C   UNL A   1      38.104  19.597  25.031  1.00  0.00     0.042 C 
BRANCH  26  27
ATOM     27  C   UNL A   1      39.312  20.112  25.802  1.00  0.00     0.118 C 
BRANCH  27  28
ATOM     28  N   UNL A   1      40.377  19.114  25.895  1.00  0.00    -0.352 N 
ATOM     29  C   UNL A   1      41.728  19.259  26.094  1.00  0.00     0.251 C 
ATOM     30  H   UNL A   1      40.073  18.182  25.798  1.00  0.00     0.163 HD
ATOM     31  O   UNL A   1      42.479  18.306  25.905  1.00  0.00    -0.269 OA
BRANCH  29  32
ATOM     32  C   UNL A   1      42.282  20.560  26.516  1.00  0.00     0.039 A 
ATOM     33  C   UNL A   1      42.278  20.925  27.861  1.00  0.00     0.014 A 
ATOM     34  C   UNL A   1      42.822  21.425  25.559  1.00  0.00     0.014 A 
ATOM     35  C   UNL A   1      42.609  22.222  28.221  1.00  0.00     0.010 A 
ATOM     36  C   UNL A   1      43.269  22.693  25.943  1.00  0.00     0.010 A 
ATOM     37  C   UNL A   1      43.114  23.122  27.270  1.00  0.00    -0.014 A 
BRANCH  37  38
ATOM     38  C   UNL A   1      43.469  24.498  27.702  1.00  0.00     0.031 A 
ATOM     39  C   UNL A   1      44.896  24.969  27.675  1.00  0.00     0.074 A 
ATOM     40  C   UNL A   1      42.481  25.348  28.042  1.00  0.00     0.049 A 
ATOM     41  N   UNL A   1      45.380  26.149  27.978  1.00  0.00    -0.248 NA
ATOM     42  C   UNL A   1      45.918  23.994  27.263  1.00  0.00     0.031 C 
ATOM     43  C   UNL A   1      41.059  25.004  28.092  1.00  0.00     0.029 A 
ATOM     44  N   UNL A   1      42.512  26.679  28.367  1.00  0.00    -0.354 N 
ATOM     45  C   UNL A   1      46.756  26.049  27.817  1.00  0.00     0.074 A 
ATOM     46  C   UNL A   1      47.037  24.688  27.418  1.00  0.00     0.031 C 
ATOM     47  C   UNL A   1      40.348  26.108  28.351  1.00  0.00     0.029 A 
ATOM     48  C   UNL A   1      41.266  27.223  28.562  1.00  0.00     0.049 A 
ATOM     49  H   UNL A   1      43.345  27.196  28.452  1.00  0.00     0.167 HD
ATOM     50  C   UNL A   1      47.695  27.012  27.977  1.00  0.00     0.037 A 
ATOM     51  C   UNL A   1      40.899  28.476  28.887  1.00  0.00     0.037 A 
ATOM     52  C   UNL A   1      47.403  28.373  28.345  1.00  0.00     0.049 A 
ATOM     53  C   UNL A   1      41.962  29.515  29.090  1.00  0.00     0.074 A 
ATOM     54  C   UNL A   1      48.283  29.429  28.505  1.00  0.00     0.029 A 
ATOM     55  N   UNL A   1      46.134  28.868  28.604  1.00  0.00    -0.354 N 
ATOM     56  N   UNL A   1      43.259  29.407  28.938  1.00  0.00    -0.248 NA
ATOM     57  C   UNL A   1      41.513  30.844  29.525  1.00  0.00     0.031 C 
ATOM     58  C   UNL A   1      47.551  30.551  28.906  1.00  0.00     0.029 A 
ATOM     59  C   UNL A   1      46.208  30.208  28.948  1.00  0.00     0.049 A 
ATOM     60  H   UNL A   1      45.301  28.343  28.552  1.00  0.00     0.167 HD
ATOM     61  C   UNL A   1      43.785  30.649  29.258  1.00  0.00     0.074 A 
ATOM     62  C   UNL A   1      42.662  31.504  29.587  1.00  0.00     0.031 C 
ATOM     63  C   UNL A   1      45.082  31.041  29.282  1.00  0.00     0.037 A 
BRANCH  50  64
ATOM     64  C   UNL A   1      49.132  26.627  27.771  1.00  0.00     0.064 A 
ATOM     65  C   UNL A   1      49.986  26.355  28.851  1.00  0.00     0.173 A 
ATOM     66  C   UNL A   1      49.648  26.479  26.474  1.00  0.00     0.173 A 
ATOM     67  F   UNL A   1      49.545  26.494  30.110  1.00  0.00    -0.203 F 
ATOM     68  C   UNL A   1      51.307  25.971  28.640  1.00  0.00     0.198 A 
ATOM     69  C   UNL A   1      50.962  26.068  26.267  1.00  0.00     0.198 A 
ATOM     70  F   UNL A   1      48.874  26.722  25.407  1.00  0.00    -0.203 F 
ATOM     71  F   UNL A   1      52.116  25.756  29.687  1.00  0.00    -0.200 F 
ATOM     72  C   UNL A   1      51.793  25.820  27.349  1.00  0.00     0.200 A 
ATOM     73  F   UNL A   1      51.425  25.912  25.019  1.00  0.00    -0.200 F 
ATOM     74  F   UNL A   1      53.062  25.441  27.149  1.00  0.00    -0.200 F 
ENDBRANCH  50  64
BRANCH  51  75
ATOM     75  C   UNL A   1      39.456  28.796  29.029  1.00  0.00     0.064 A 
ATOM     76  C   UNL A   1      38.815  28.689  30.269  1.00  0.00     0.173 A 
ATOM     77  C   UNL A   1      38.710  29.283  27.945  1.00  0.00     0.173 A 
ATOM     78  F   UNL A   1      39.483  28.213  31.330  1.00  0.00    -0.203 F 
ATOM     79  C   UNL A   1      37.482  29.064  30.422  1.00  0.00     0.198 A 
ATOM     80  C   UNL A   1      37.386  29.684  28.106  1.00  0.00     0.198 A 
ATOM     81  F   UNL A   1      39.282  29.410  26.739  1.00  0.00    -0.203 F 
ATOM     82  F   UNL A   1      36.885  28.938  31.616  1.00  0.00    -0.200 F 
ATOM     83  C   UNL A   1      36.772  29.573  29.344  1.00  0.00     0.200 A 
ATOM     84  F   UNL A   1      36.712  30.195  27.066  1.00  0.00    -0.200 F 
ATOM     85  F   UNL A   1      35.499  29.959  29.499  1.00  0.00    -0.200 F 
ENDBRANCH  51  75
BRANCH  63  86
ATOM     86  C   UNL A   1      45.364  32.458  29.681  1.00  0.00     0.064 A 
ATOM     87  C   UNL A   1      45.345  33.497  28.739  1.00  0.00     0.173 A 
ATOM     88  C   UNL A   1      45.586  32.791  31.026  1.00  0.00     0.173 A 
ATOM     89  F   UNL A   1      45.152  33.228  27.440  1.00  0.00    -0.203 F 
ATOM     90  C   UNL A   1      45.551  34.817  29.129  1.00  0.00     0.198 A 
ATOM     91  C   UNL A   1      45.765  34.115  31.415  1.00  0.00     0.198 A 
ATOM     92  F   UNL A   1      45.607  31.832  31.965  1.00  0.00    -0.203 F 
ATOM     93  F   UNL A   1      45.561  35.792  28.209  1.00  0.00    -0.200 F 
ATOM     94  C   UNL A   1      45.751  35.126  30.467  1.00  0.00     0.200 A 
ATOM     95  F   UNL A   1      45.944  34.411  32.710  1.00  0.00    -0.200 F 
ATOM     96  F   UNL A   1      45.933  36.399  30.843  1.00  0.00    -0.200 F 
ENDBRANCH  63  86
ENDBRANCH  37  38
ENDBRANCH  29  32
ENDBRANCH  27  28
ENDBRANCH  26  27
ENDBRANCH   1  26
TORSDOF 14
ENDMDL
MODEL 3
REMARK VINA RESULT:     -13.0      5.460     10.510
REMARK SMILES CC(C)CSc1cc2c(cc1Cl)C=C(C(=O)NCCCNC(=O)c1ccc(-c3c4nc(c(-c5c(F)c(F)c(F)c(F)c5F)c5ccc([nH]5)c(-c5c(F)c(F)c(F)c(F)c5F)c5nc(c(-c6c(F)c(F)c(F)c(F)c6F)c6ccc3[nH]6)C=C5)C=C4)cc1)[C@@H](C(F)(F)F)O2
REMARK SMILES IDX 18 1 17 2 15 3 16 4 14 6 6 7 7 8 11 9 8 10 10 11 12 12 9 13
REMARK SMILES IDX 92 14 13 15 87 16 5 17 4 18 2 19 1 20 3 21 88 22 89 23 90 24
REMARK SMILES IDX 91 25 19 26 20 27 21 28 22 29 23 31 24 32 25 33 86 34 26 35
REMARK SMILES IDX 85 36 27 37 28 38 29 39 79 40 30 41 84 42 78 43 80 44 31 45
REMARK SMILES IDX 83 46 77 47 76 48 32 50 64 51 44 52 63 53 45 54 48 55 62 56
REMARK SMILES IDX 81 57 46 58 47 59 61 61 82 62 49 63 33 64 34 65 42 66 35 67
REMARK SMILES IDX 36 68 40 69 43 70 37 71 38 72 41 73 39 74 65 75 66 76 74 77
REMARK SMILES IDX 67 78 68 79 72 80 75 81 69 82 70 83 73 84 71 85 50 86 51 87
REMARK SMILES IDX 59 88 52 89 53 90 57 91 60 92 54 93 55 94 58 95 56 96
REMARK H PARENT 17 5 21 30 80 49 48 60
REMARK Flexibility Score: inf
ROOT
ATOM      1  C   UNL A   1      36.542  20.606  25.162  1.00  0.00     0.118 C 
ENDROOT
BRANCH   1   2
ATOM      2  N   UNL A   1      35.391  19.739  24.962  1.00  0.00    -0.352 N 
ATOM      3  C   UNL A   1      34.047  19.872  24.888  1.00  0.00     0.251 C 
ATOM      4  O   UNL A   1      33.426  18.817  24.724  1.00  0.00    -0.270 OA
ATOM      5  H   UNL A   1      35.664  18.800  24.851  1.00  0.00     0.163 HD
BRANCH   3   6
ATOM      6  C   UNL A   1      33.303  21.161  24.990  1.00  0.00     0.067 C 
ATOM      7  C   UNL A   1      31.223  25.654  23.941  1.00  0.00     0.030 A 
ATOM      8  C   UNL A   1      31.184  24.774  25.035  1.00  0.00     0.063 A 
ATOM      9  C   UNL A   1      31.875  25.224  22.773  1.00  0.00     0.055 A 
ATOM     10  C   UNL A   1      31.847  23.548  24.997  1.00  0.00     0.129 A 
ATOM     11  C   UNL A   1      32.560  24.000  22.749  1.00  0.00     0.033 A 
ATOM     12  Cl  UNL A   1      31.839  26.105  21.286  1.00  0.00    -0.083 Cl
ATOM     13  C   UNL A   1      32.558  23.164  23.867  1.00  0.00     0.019 A 
ATOM     14  O   UNL A   1      31.713  22.752  26.095  1.00  0.00    -0.475 OA
ATOM     15  C   UNL A   1      33.242  21.880  23.854  1.00  0.00     0.025 C 
ATOM     16  C   UNL A   1      32.678  21.677  26.258  1.00  0.00     0.314 C 
BRANCH   7  17
ATOM     17  S   UNL A   1      30.376  27.207  24.203  1.00  0.00    -0.124 SA
BRANCH  17  18
ATOM     18  C   UNL A   1      31.632  28.291  24.980  1.00  0.00     0.078 C 
BRANCH  18  19
ATOM     19  C   UNL A   1      32.389  27.771  26.217  1.00  0.00    -0.007 C 
ATOM     20  C   UNL A   1      33.836  28.247  26.332  1.00  0.00     0.008 C 
ATOM     21  C   UNL A   1      31.627  28.228  27.470  1.00  0.00     0.008 C 
ENDBRANCH  18  19
ENDBRANCH  17  18
ENDBRANCH   7  17
BRANCH  16  22
ATOM     22  C   UNL A   1      33.712  22.114  27.311  1.00  0.00     0.429 C 
ATOM     23  F   UNL A   1      33.084  22.645  28.391  1.00  0.00    -0.167 F 
ATOM     24  F   UNL A   1      34.462  21.086  27.774  1.00  0.00    -0.167 F 
ATOM     25  F   UNL A   1      34.570  23.046  26.841  1.00  0.00    -0.167 F 
ENDBRANCH  16  22
ENDBRANCH   3   6
ENDBRANCH   1   2
BRANCH   1  26
ATOM     26  C   UNL A   1      37.849  19.899  24.844  1.00  0.00     0.042 C 
BRANCH  26  27
ATOM     27  C   UNL A   1      38.976  20.311  25.782  1.00  0.00     0.118 C 
BRANCH  27  28
ATOM     28  N   UNL A   1      40.023  19.293  25.871  1.00  0.00    -0.352 N 
ATOM     29  C   UNL A   1      41.378  19.414  26.060  1.00  0.00     0.251 C 
ATOM     30  H   UNL A   1      39.701  18.368  25.779  1.00  0.00     0.163 HD
ATOM     31  O   UNL A   1      42.110  18.447  25.869  1.00  0.00    -0.269 OA
BRANCH  29  32
ATOM     32  C   UNL A   1      41.959  20.706  26.473  1.00  0.00     0.039 A 
ATOM     33  C   UNL A   1      42.193  20.974  27.821  1.00  0.00     0.014 A 
ATOM     34  C   UNL A   1      42.284  21.661  25.504  1.00  0.00     0.014 A 
ATOM     35  C   UNL A   1      42.544  22.257  28.214  1.00  0.00     0.010 A 
ATOM     36  C   UNL A   1      42.753  22.918  25.897  1.00  0.00     0.010 A 
ATOM     37  C   UNL A   1      42.834  23.244  27.259  1.00  0.00    -0.014 A 
BRANCH  37  38
ATOM     38  C   UNL A   1      43.219  24.601  27.725  1.00  0.00     0.031 A 
ATOM     39  C   UNL A   1      44.658  25.035  27.725  1.00  0.00     0.074 A 
ATOM     40  C   UNL A   1      42.249  25.469  28.072  1.00  0.00     0.049 A 
ATOM     41  N   UNL A   1      45.168  26.195  28.058  1.00  0.00    -0.248 NA
ATOM     42  C   UNL A   1      45.659  24.043  27.304  1.00  0.00     0.031 C 
ATOM     43  C   UNL A   1      40.818  25.160  28.098  1.00  0.00     0.029 A 
ATOM     44  N   UNL A   1      42.310  26.791  28.425  1.00  0.00    -0.354 N 
ATOM     45  C   UNL A   1      46.543  26.064  27.912  1.00  0.00     0.074 A 
ATOM     46  C   UNL A   1      46.794  24.705  27.487  1.00  0.00     0.031 C 
ATOM     47  C   UNL A   1      40.133  26.277  28.372  1.00  0.00     0.029 A 
ATOM     48  C   UNL A   1      41.076  27.363  28.617  1.00  0.00     0.049 A 
ATOM     49  H   UNL A   1      43.155  27.285  28.532  1.00  0.00     0.167 HD
ATOM     50  C   UNL A   1      47.505  26.998  28.103  1.00  0.00     0.037 A 
ATOM     51  C   UNL A   1      40.738  28.618  28.965  1.00  0.00     0.037 A 
ATOM     52  C   UNL A   1      47.244  28.358  28.497  1.00  0.00     0.049 A 
ATOM     53  C   UNL A   1      41.824  29.625  29.203  1.00  0.00     0.074 A 
ATOM     54  C   UNL A   1      48.148  29.388  28.690  1.00  0.00     0.029 A 
ATOM     55  N   UNL A   1      45.984  28.880  28.752  1.00  0.00    -0.354 N 
ATOM     56  N   UNL A   1      43.120  29.486  29.064  1.00  0.00    -0.248 NA
ATOM     57  C   UNL A   1      41.405  30.956  29.660  1.00  0.00     0.031 C 
ATOM     58  C   UNL A   1      47.440  30.519  29.106  1.00  0.00     0.029 A 
ATOM     59  C   UNL A   1      46.089  30.210  29.125  1.00  0.00     0.049 A 
ATOM     60  H   UNL A   1      45.139  28.379  28.678  1.00  0.00     0.167 HD
ATOM     61  C   UNL A   1      43.674  30.707  29.416  1.00  0.00     0.074 A 
ATOM     62  C   UNL A   1      42.569  31.584  29.750  1.00  0.00     0.031 C 
ATOM     63  C   UNL A   1      44.980  31.065  29.464  1.00  0.00     0.037 A 
BRANCH  50  64
ATOM     64  C   UNL A   1      48.934  26.581  27.905  1.00  0.00     0.064 A 
ATOM     65  C   UNL A   1      49.512  26.508  26.629  1.00  0.00     0.173 A 
ATOM     66  C   UNL A   1      49.749  26.299  29.012  1.00  0.00     0.173 A 
ATOM     67  F   UNL A   1      48.772  26.756  25.538  1.00  0.00    -0.203 F 
ATOM     68  C   UNL A   1      50.848  26.148  26.468  1.00  0.00     0.198 A 
ATOM     69  C   UNL A   1      51.091  25.966  28.848  1.00  0.00     0.198 A 
ATOM     70  F   UNL A   1      49.248  26.357  30.254  1.00  0.00    -0.203 F 
ATOM     71  F   UNL A   1      51.368  26.045  25.237  1.00  0.00    -0.200 F 
ATOM     72  C   UNL A   1      51.638  25.885  27.577  1.00  0.00     0.200 A 
ATOM     73  F   UNL A   1      51.856  25.722  29.921  1.00  0.00    -0.200 F 
ATOM     74  F   UNL A   1      52.926  25.547  27.419  1.00  0.00    -0.200 F 
ENDBRANCH  50  64
BRANCH  51  75
ATOM     75  C   UNL A   1      39.302  28.973  29.097  1.00  0.00     0.064 A 
ATOM     76  C   UNL A   1      38.659  28.916  30.340  1.00  0.00     0.173 A 
ATOM     77  C   UNL A   1      38.565  29.443  27.999  1.00  0.00     0.173 A 
ATOM     78  F   UNL A   1      39.317  28.457  31.415  1.00  0.00    -0.203 F 
ATOM     79  C   UNL A   1      37.334  29.323  30.481  1.00  0.00     0.198 A 
ATOM     80  C   UNL A   1      37.251  29.876  28.147  1.00  0.00     0.198 A 
ATOM     81  F   UNL A   1      39.140  29.522  26.790  1.00  0.00    -0.203 F 
ATOM     82  F   UNL A   1      36.735  29.245  31.678  1.00  0.00    -0.200 F 
ATOM     83  C   UNL A   1      36.635  29.815  29.388  1.00  0.00     0.200 A 
ATOM     84  F   UNL A   1      36.587  30.369  27.093  1.00  0.00    -0.200 F 
ATOM     85  F   UNL A   1      35.370  30.231  29.531  1.00  0.00    -0.200 F 
ENDBRANCH  51  75
BRANCH  63  86
ATOM     86  C   UNL A   1      45.293  32.466  29.896  1.00  0.00     0.064 A 
ATOM     87  C   UNL A   1      45.319  33.524  28.976  1.00  0.00     0.173 A 
ATOM     88  C   UNL A   1      45.502  32.765  31.251  1.00  0.00     0.173 A 
ATOM     89  F   UNL A   1      45.141  33.285  27.668  1.00  0.00    -0.203 F 
ATOM     90  C   UNL A   1      45.553  34.829  29.396  1.00  0.00     0.198 A 
ATOM     91  C   UNL A   1      45.709  34.075  31.671  1.00  0.00     0.198 A 
ATOM     92  F   UNL A   1      45.480  31.787  32.170  1.00  0.00    -0.203 F 
ATOM     93  F   UNL A   1      45.605  35.821  28.496  1.00  0.00    -0.200 F 
ATOM     94  C   UNL A   1      45.739  35.106  30.743  1.00  0.00     0.200 A 
ATOM     95  F   UNL A   1      45.874  34.341  32.974  1.00  0.00    -0.200 F 
ATOM     96  F   UNL A   1      45.949  36.366  31.148  1.00  0.00    -0.200 F 
ENDBRANCH  63  86
ENDBRANCH  37  38
ENDBRANCH  29  32
ENDBRANCH  27  28
ENDBRANCH  26  27
ENDBRANCH   1  26
TORSDOF 14
ENDMDL
