MODEL 1
REMARK VINA RESULT:     -13.0      0.000      0.000
REMARK SMILES CC(C)CSc1cc2c(cc1Cl)C=C(C(=O)NCCCNC(=O)c1ccc(-c3c4nc(c(-c5c(F)c(F)c(F)c(F)c5F)c5ccc([nH]5)c(-c5c(F)c(F)c(F)c(F)c5F)c5nc(c(-c6c(F)c(F)c(F)c(F)c6F)c6ccc3[nH]6)C=C5)C=C4)cc1)[C@H](C(F)(F)F)O2
REMARK SMILES IDX 18 1 17 2 15 3 16 4 14 6 6 7 7 8 11 9 8 10 10 11 12 12 9 13
REMARK SMILES IDX 92 14 13 15 87 16 5 17 4 18 2 19 1 20 3 21 88 22 89 23 90 24
REMARK SMILES IDX 91 25 19 26 20 27 21 28 22 29 23 31 24 32 25 33 86 34 26 35
REMARK SMILES IDX 85 36 27 37 28 38 29 39 79 40 30 41 84 42 78 43 80 44 31 45
REMARK SMILES IDX 83 46 77 47 76 48 32 50 64 51 44 52 63 53 45 54 48 55 62 56
REMARK SMILES IDX 81 57 46 58 47 59 61 61 82 62 49 63 33 64 34 65 42 66 35 67
REMARK SMILES IDX 36 68 40 69 43 70 37 71 38 72 41 73 39 74 65 75 66 76 74 77
REMARK SMILES IDX 67 78 68 79 72 80 75 81 69 82 70 83 73 84 71 85 50 86 51 87
REMARK SMILES IDX 59 88 52 89 53 90 57 91 60 92 54 93 55 94 58 95 56 96
REMARK H PARENT 17 5 21 30 80 49 48 60
REMARK Flexibility Score: inf
ROOT
ATOM      1  C   UNL A   1      37.230  20.592  24.881  1.00  0.00     0.118 C 
ENDROOT
BRANCH   1   2
ATOM      2  N   UNL A   1      35.885  20.084  25.085  1.00  0.00    -0.352 N 
ATOM      3  C   UNL A   1      34.633  20.593  25.120  1.00  0.00     0.251 C 
ATOM      4  O   UNL A   1      33.736  19.764  25.305  1.00  0.00    -0.270 OA
ATOM      5  H   UNL A   1      35.884  19.112  25.240  1.00  0.00     0.163 HD
BRANCH   3   6
ATOM      6  C   UNL A   1      34.283  22.033  24.944  1.00  0.00     0.067 C 
ATOM      7  C   UNL A   1      32.901  26.428  22.878  1.00  0.00     0.030 A 
ATOM      8  C   UNL A   1      33.299  26.030  24.160  1.00  0.00     0.063 A 
ATOM      9  C   UNL A   1      32.938  25.485  21.836  1.00  0.00     0.055 A 
ATOM     10  C   UNL A   1      33.663  24.708  24.409  1.00  0.00     0.129 A 
ATOM     11  C   UNL A   1      33.303  24.159  22.093  1.00  0.00     0.033 A 
ATOM     12  Cl  UNL A   1      32.495  25.878  20.209  1.00  0.00    -0.083 Cl
ATOM     13  C   UNL A   1      33.658  23.766  23.386  1.00  0.00     0.019 A 
ATOM     14  O   UNL A   1      34.047  24.420  25.685  1.00  0.00    -0.475 OA
ATOM     15  C   UNL A   1      34.049  22.396  23.670  1.00  0.00     0.025 C 
ATOM     16  C   UNL A   1      34.114  23.019  26.069  1.00  0.00     0.314 C 
BRANCH   7  17
ATOM     17  S   UNL A   1      32.353  28.112  22.641  1.00  0.00    -0.124 SA
BRANCH  17  18
ATOM     18  C   UNL A   1      30.891  28.166  23.747  1.00  0.00     0.078 C 
BRANCH  18  19
ATOM     19  C   UNL A   1      29.604  27.573  23.138  1.00  0.00    -0.007 C 
ATOM     20  C   UNL A   1      29.004  26.443  23.977  1.00  0.00     0.008 C 
ATOM     21  C   UNL A   1      28.551  28.679  22.997  1.00  0.00     0.008 C 
ENDBRANCH  18  19
ENDBRANCH  17  18
ENDBRANCH   7  17
BRANCH  16  22
ATOM     22  C   UNL A   1      32.938  22.700  27.009  1.00  0.00     0.429 C 
ATOM     23  F   UNL A   1      33.370  21.950  28.057  1.00  0.00    -0.167 F 
ATOM     24  F   UNL A   1      32.365  23.811  27.525  1.00  0.00    -0.167 F 
ATOM     25  F   UNL A   1      31.955  21.995  26.406  1.00  0.00    -0.167 F 
ENDBRANCH  16  22
ENDBRANCH   3   6
ENDBRANCH   1   2
BRANCH   1  26
ATOM     26  C   UNL A   1      38.268  19.492  25.060  1.00  0.00     0.042 C 
BRANCH  26  27
ATOM     27  C   UNL A   1      39.396  19.895  25.999  1.00  0.00     0.118 C 
BRANCH  27  28
ATOM     28  N   UNL A   1      40.500  18.942  25.971  1.00  0.00    -0.352 N 
ATOM     29  C   UNL A   1      41.858  19.149  26.022  1.00  0.00     0.251 C 
ATOM     30  H   UNL A   1      40.229  17.998  25.904  1.00  0.00     0.163 HD
ATOM     31  O   UNL A   1      42.621  18.229  25.748  1.00  0.00    -0.269 OA
BRANCH  29  32
ATOM     32  C   UNL A   1      42.404  20.477  26.382  1.00  0.00     0.039 A 
ATOM     33  C   UNL A   1      42.397  20.918  27.704  1.00  0.00     0.014 A 
ATOM     34  C   UNL A   1      42.943  21.293  25.383  1.00  0.00     0.014 A 
ATOM     35  C   UNL A   1      42.731  22.233  27.997  1.00  0.00     0.010 A 
ATOM     36  C   UNL A   1      43.400  22.578  25.702  1.00  0.00     0.010 A 
ATOM     37  C   UNL A   1      43.249  23.079  27.003  1.00  0.00    -0.014 A 
BRANCH  37  38
ATOM     38  C   UNL A   1      43.621  24.474  27.363  1.00  0.00     0.031 A 
ATOM     39  C   UNL A   1      45.011  24.994  27.103  1.00  0.00     0.074 A 
ATOM     40  C   UNL A   1      42.673  25.300  27.851  1.00  0.00     0.049 A 
ATOM     41  N   UNL A   1      45.500  26.189  27.326  1.00  0.00    -0.248 NA
ATOM     42  C   UNL A   1      45.982  24.055  26.517  1.00  0.00     0.031 C 
ATOM     43  C   UNL A   1      41.285  24.919  28.125  1.00  0.00     0.029 A 
ATOM     44  N   UNL A   1      42.714  26.636  28.165  1.00  0.00    -0.354 N 
ATOM     45  C   UNL A   1      46.827  26.142  26.917  1.00  0.00     0.074 A 
ATOM     46  C   UNL A   1      47.085  24.790  26.475  1.00  0.00     0.031 C 
ATOM     47  C   UNL A   1      40.591  26.008  28.485  1.00  0.00     0.029 A 
ATOM     48  C   UNL A   1      41.498  27.146  28.553  1.00  0.00     0.049 A 
ATOM     49  H   UNL A   1      43.536  27.176  28.117  1.00  0.00     0.167 HD
ATOM     50  C   UNL A   1      47.737  27.144  26.887  1.00  0.00     0.037 A 
ATOM     51  C   UNL A   1      41.153  28.391  28.933  1.00  0.00     0.037 A 
ATOM     52  C   UNL A   1      47.470  28.495  27.308  1.00  0.00     0.049 A 
ATOM     53  C   UNL A   1      42.211  29.457  28.973  1.00  0.00     0.074 A 
ATOM     54  C   UNL A   1      48.333  29.577  27.327  1.00  0.00     0.029 A 
ATOM     55  N   UNL A   1      46.246  28.951  27.775  1.00  0.00    -0.354 N 
ATOM     56  N   UNL A   1      43.461  29.396  28.588  1.00  0.00    -0.248 NA
ATOM     57  C   UNL A   1      41.812  30.764  29.516  1.00  0.00     0.031 C 
ATOM     58  C   UNL A   1      47.644  30.677  27.843  1.00  0.00     0.029 A 
ATOM     59  C   UNL A   1      46.337  30.295  28.099  1.00  0.00     0.049 A 
ATOM     60  H   UNL A   1      45.434  28.402  27.862  1.00  0.00     0.167 HD
ATOM     61  C   UNL A   1      43.993  30.657  28.819  1.00  0.00     0.074 A 
ATOM     62  C   UNL A   1      42.923  31.471  29.357  1.00  0.00     0.031 C 
ATOM     63  C   UNL A   1      45.257  31.097  28.614  1.00  0.00     0.037 A 
BRANCH  50  64
ATOM     64  C   UNL A   1      49.113  26.835  26.370  1.00  0.00     0.064 A 
ATOM     65  C   UNL A   1      50.088  26.252  27.194  1.00  0.00     0.173 A 
ATOM     66  C   UNL A   1      49.430  27.031  25.017  1.00  0.00     0.173 A 
ATOM     67  F   UNL A   1      49.838  26.054  28.497  1.00  0.00    -0.203 F 
ATOM     68  C   UNL A   1      51.331  25.885  26.685  1.00  0.00     0.198 A 
ATOM     69  C   UNL A   1      50.664  26.636  24.506  1.00  0.00     0.198 A 
ATOM     70  F   UNL A   1      48.532  27.576  24.183  1.00  0.00    -0.203 F 
ATOM     71  F   UNL A   1      52.255  25.354  27.497  1.00  0.00    -0.200 F 
ATOM     72  C   UNL A   1      51.613  26.065  25.340  1.00  0.00     0.200 A 
ATOM     73  F   UNL A   1      50.929  26.795  23.201  1.00  0.00    -0.200 F 
ATOM     74  F   UNL A   1      52.801  25.688  24.846  1.00  0.00    -0.200 F 
ENDBRANCH  50  64
BRANCH  51  75
ATOM     75  C   UNL A   1      39.745  28.696  29.306  1.00  0.00     0.064 A 
ATOM     76  C   UNL A   1      38.850  29.218  28.362  1.00  0.00     0.173 A 
ATOM     77  C   UNL A   1      39.266  28.484  30.608  1.00  0.00     0.173 A 
ATOM     78  F   UNL A   1      39.264  29.459  27.109  1.00  0.00    -0.203 F 
ATOM     79  C   UNL A   1      37.537  29.529  28.709  1.00  0.00     0.198 A 
ATOM     80  C   UNL A   1      37.944  28.763  30.945  1.00  0.00     0.198 A 
ATOM     81  F   UNL A   1      40.080  27.986  31.551  1.00  0.00    -0.203 F 
ATOM     82  F   UNL A   1      36.717  30.071  27.799  1.00  0.00    -0.200 F 
ATOM     83  C   UNL A   1      37.083  29.294  29.998  1.00  0.00     0.200 A 
ATOM     84  F   UNL A   1      37.505  28.516  32.187  1.00  0.00    -0.200 F 
ATOM     85  F   UNL A   1      35.818  29.588  30.329  1.00  0.00    -0.200 F 
ENDBRANCH  51  75
BRANCH  63  86
ATOM     86  C   UNL A   1      45.556  32.530  28.942  1.00  0.00     0.064 A 
ATOM     87  C   UNL A   1      46.087  32.900  30.186  1.00  0.00     0.173 A 
ATOM     88  C   UNL A   1      45.388  33.531  27.973  1.00  0.00     0.173 A 
ATOM     89  F   UNL A   1      46.254  31.981  31.149  1.00  0.00    -0.203 F 
ATOM     90  C   UNL A   1      46.425  34.224  30.452  1.00  0.00     0.198 A 
ATOM     91  C   UNL A   1      45.758  34.847  28.232  1.00  0.00     0.198 A 
ATOM     92  F   UNL A   1      44.892  33.227  26.765  1.00  0.00    -0.203 F 
ATOM     93  F   UNL A   1      46.898  34.561  31.660  1.00  0.00    -0.200 F 
ATOM     94  C   UNL A   1      46.273  35.194  29.473  1.00  0.00     0.200 A 
ATOM     95  F   UNL A   1      45.626  35.779  27.278  1.00  0.00    -0.200 F 
ATOM     96  F   UNL A   1      46.620  36.463  29.725  1.00  0.00    -0.200 F 
ENDBRANCH  63  86
ENDBRANCH  37  38
ENDBRANCH  29  32
ENDBRANCH  27  28
ENDBRANCH  26  27
ENDBRANCH   1  26
TORSDOF 14
ENDMDL
MODEL 2
REMARK VINA RESULT:     -12.9      0.346      1.675
REMARK SMILES CC(C)CSc1cc2c(cc1Cl)C=C(C(=O)NCCCNC(=O)c1ccc(-c3c4nc(c(-c5c(F)c(F)c(F)c(F)c5F)c5ccc([nH]5)c(-c5c(F)c(F)c(F)c(F)c5F)c5nc(c(-c6c(F)c(F)c(F)c(F)c6F)c6ccc3[nH]6)C=C5)C=C4)cc1)[C@H](C(F)(F)F)O2
REMARK SMILES IDX 18 1 17 2 15 3 16 4 14 6 6 7 7 8 11 9 8 10 10 11 12 12 9 13
REMARK SMILES IDX 92 14 13 15 87 16 5 17 4 18 2 19 1 20 3 21 88 22 89 23 90 24
REMARK SMILES IDX 91 25 19 26 20 27 21 28 22 29 23 31 24 32 25 33 86 34 26 35
REMARK SMILES IDX 85 36 27 37 28 38 29 39 79 40 30 41 84 42 78 43 80 44 31 45
REMARK SMILES IDX 83 46 77 47 76 48 32 50 64 51 44 52 63 53 45 54 48 55 62 56
REMARK SMILES IDX 81 57 46 58 47 59 61 61 82 62 49 63 33 64 34 65 42 66 35 67
REMARK SMILES IDX 36 68 40 69 43 70 37 71 38 72 41 73 39 74 65 75 66 76 74 77
REMARK SMILES IDX 67 78 68 79 72 80 75 81 69 82 70 83 73 84 71 85 50 86 51 87
REMARK SMILES IDX 59 88 52 89 53 90 57 91 60 92 54 93 55 94 58 95 56 96
REMARK H PARENT 17 5 21 30 80 49 48 60
REMARK Flexibility Score: inf
ROOT
ATOM      1  C   UNL A   1      37.164  20.311  24.727  1.00  0.00     0.118 C 
ENDROOT
BRANCH   1   2
ATOM      2  N   UNL A   1      35.809  19.868  25.008  1.00  0.00    -0.352 N 
ATOM      3  C   UNL A   1      34.583  20.433  25.083  1.00  0.00     0.251 C 
ATOM      4  O   UNL A   1      33.661  19.650  25.334  1.00  0.00    -0.270 OA
ATOM      5  H   UNL A   1      35.774  18.903  25.193  1.00  0.00     0.163 HD
BRANCH   3   6
ATOM      6  C   UNL A   1      34.287  21.880  24.878  1.00  0.00     0.067 C 
ATOM      7  C   UNL A   1      33.043  26.277  22.728  1.00  0.00     0.030 A 
ATOM      8  C   UNL A   1      33.447  25.894  24.013  1.00  0.00     0.063 A 
ATOM      9  C   UNL A   1      33.026  25.309  21.709  1.00  0.00     0.055 A 
ATOM     10  C   UNL A   1      33.763  24.565  24.288  1.00  0.00     0.129 A 
ATOM     11  C   UNL A   1      33.344  23.976  21.993  1.00  0.00     0.033 A 
ATOM     12  Cl  UNL A   1      32.572  25.682  20.080  1.00  0.00    -0.083 Cl
ATOM     13  C   UNL A   1      33.703  23.600  23.288  1.00  0.00     0.019 A 
ATOM     14  O   UNL A   1      34.156  24.292  25.565  1.00  0.00    -0.475 OA
ATOM     15  C   UNL A   1      34.046  22.223  23.599  1.00  0.00     0.025 C 
ATOM     16  C   UNL A   1      34.175  22.899  25.981  1.00  0.00     0.314 C 
BRANCH   7  17
ATOM     17  S   UNL A   1      32.558  27.976  22.459  1.00  0.00    -0.124 SA
BRANCH  17  18
ATOM     18  C   UNL A   1      30.730  27.824  22.462  1.00  0.00     0.078 C 
BRANCH  18  19
ATOM     19  C   UNL A   1      30.085  27.878  23.862  1.00  0.00    -0.007 C 
ATOM     20  C   UNL A   1      29.764  26.494  24.431  1.00  0.00     0.008 C 
ATOM     21  C   UNL A   1      31.034  28.590  24.833  1.00  0.00     0.008 C 
ENDBRANCH  18  19
ENDBRANCH  17  18
ENDBRANCH   7  17
BRANCH  16  22
ATOM     22  C   UNL A   1      33.003  22.649  26.947  1.00  0.00     0.429 C 
ATOM     23  F   UNL A   1      31.981  22.039  26.292  1.00  0.00    -0.167 F 
ATOM     24  F   UNL A   1      33.342  21.850  27.984  1.00  0.00    -0.167 F 
ATOM     25  F   UNL A   1      32.501  23.787  27.477  1.00  0.00    -0.167 F 
ENDBRANCH  16  22
ENDBRANCH   3   6
ENDBRANCH   1   2
BRANCH   1  26
ATOM     26  C   UNL A   1      38.180  19.236  25.090  1.00  0.00     0.042 C 
BRANCH  26  27
ATOM     27  C   UNL A   1      39.407  19.801  25.791  1.00  0.00     0.118 C 
BRANCH  27  28
ATOM     28  N   UNL A   1      40.470  18.810  25.919  1.00  0.00    -0.352 N 
ATOM     29  C   UNL A   1      41.826  18.973  26.086  1.00  0.00     0.251 C 
ATOM     30  H   UNL A   1      40.170  17.874  25.878  1.00  0.00     0.163 HD
ATOM     31  O   UNL A   1      42.573  18.012  25.935  1.00  0.00    -0.269 OA
BRANCH  29  32
ATOM     32  C   UNL A   1      42.388  20.300  26.423  1.00  0.00     0.039 A 
ATOM     33  C   UNL A   1      42.364  20.774  27.733  1.00  0.00     0.014 A 
ATOM     34  C   UNL A   1      42.962  21.080  25.415  1.00  0.00     0.014 A 
ATOM     35  C   UNL A   1      42.717  22.090  27.999  1.00  0.00     0.010 A 
ATOM     36  C   UNL A   1      43.436  22.364  25.710  1.00  0.00     0.010 A 
ATOM     37  C   UNL A   1      43.269  22.901  26.995  1.00  0.00    -0.014 A 
BRANCH  37  38
ATOM     38  C   UNL A   1      43.660  24.298  27.327  1.00  0.00     0.031 A 
ATOM     39  C   UNL A   1      45.055  24.795  27.054  1.00  0.00     0.074 A 
ATOM     40  C   UNL A   1      42.723  25.145  27.799  1.00  0.00     0.049 A 
ATOM     41  N   UNL A   1      45.560  25.987  27.254  1.00  0.00    -0.248 NA
ATOM     42  C   UNL A   1      46.014  23.832  26.486  1.00  0.00     0.031 C 
ATOM     43  C   UNL A   1      41.330  24.788  28.082  1.00  0.00     0.029 A 
ATOM     44  N   UNL A   1      42.781  26.487  28.086  1.00  0.00    -0.354 N 
ATOM     45  C   UNL A   1      46.886  25.915  26.844  1.00  0.00     0.074 A 
ATOM     46  C   UNL A   1      47.126  24.552  26.428  1.00  0.00     0.031 C 
ATOM     47  C   UNL A   1      40.651  25.892  28.422  1.00  0.00     0.029 A 
ATOM     48  C   UNL A   1      41.573  27.020  28.466  1.00  0.00     0.049 A 
ATOM     49  H   UNL A   1      43.610  27.015  28.027  1.00  0.00     0.167 HD
ATOM     50  C   UNL A   1      47.808  26.905  26.793  1.00  0.00     0.037 A 
ATOM     51  C   UNL A   1      41.244  28.277  28.822  1.00  0.00     0.037 A 
ATOM     52  C   UNL A   1      47.560  28.267  27.187  1.00  0.00     0.049 A 
ATOM     53  C   UNL A   1      42.315  29.330  28.840  1.00  0.00     0.074 A 
ATOM     54  C   UNL A   1      48.436  29.339  27.184  1.00  0.00     0.029 A 
ATOM     55  N   UNL A   1      46.342  28.748  27.647  1.00  0.00    -0.354 N 
ATOM     56  N   UNL A   1      43.565  29.245  28.455  1.00  0.00    -0.248 NA
ATOM     57  C   UNL A   1      41.934  30.651  29.358  1.00  0.00     0.031 C 
ATOM     58  C   UNL A   1      47.762  30.457  27.679  1.00  0.00     0.029 A 
ATOM     59  C   UNL A   1      46.451  30.097  27.944  1.00  0.00     0.049 A 
ATOM     60  H   UNL A   1      45.523  28.211  27.746  1.00  0.00     0.167 HD
ATOM     61  C   UNL A   1      44.113  30.503  28.660  1.00  0.00     0.074 A 
ATOM     62  C   UNL A   1      43.054  31.341  29.183  1.00  0.00     0.031 C 
ATOM     63  C   UNL A   1      45.382  30.923  28.444  1.00  0.00     0.037 A 
BRANCH  50  64
ATOM     64  C   UNL A   1      49.180  26.568  26.280  1.00  0.00     0.064 A 
ATOM     65  C   UNL A   1      49.547  26.836  24.952  1.00  0.00     0.173 A 
ATOM     66  C   UNL A   1      50.164  26.065  27.144  1.00  0.00     0.173 A 
ATOM     67  F   UNL A   1      48.640  27.307  24.083  1.00  0.00    -0.203 F 
ATOM     68  C   UNL A   1      50.846  26.605  24.508  1.00  0.00     0.198 A 
ATOM     69  C   UNL A   1      51.470  25.863  26.703  1.00  0.00     0.198 A 
ATOM     70  F   UNL A   1      49.869  25.800  28.425  1.00  0.00    -0.203 F 
ATOM     71  F   UNL A   1      51.167  26.844  23.229  1.00  0.00    -0.200 F 
ATOM     72  C   UNL A   1      51.809  26.132  25.386  1.00  0.00     0.200 A 
ATOM     73  F   UNL A   1      52.404  25.421  27.557  1.00  0.00    -0.200 F 
ATOM     74  F   UNL A   1      53.066  25.934  24.962  1.00  0.00    -0.200 F 
ENDBRANCH  50  64
BRANCH  51  75
ATOM     75  C   UNL A   1      39.841  28.607  29.191  1.00  0.00     0.064 A 
ATOM     76  C   UNL A   1      39.377  28.409  30.499  1.00  0.00     0.173 A 
ATOM     77  C   UNL A   1      38.934  29.118  28.250  1.00  0.00     0.173 A 
ATOM     78  F   UNL A   1      40.198  27.903  31.431  1.00  0.00    -0.203 F 
ATOM     79  C   UNL A   1      38.058  28.693  30.846  1.00  0.00     0.198 A 
ATOM     80  C   UNL A   1      37.626  29.435  28.607  1.00  0.00     0.198 A 
ATOM     81  F   UNL A   1      39.325  29.329  26.984  1.00  0.00    -0.203 F 
ATOM     82  F   UNL A   1      37.628  28.448  32.091  1.00  0.00    -0.200 F 
ATOM     83  C   UNL A   1      37.185  29.213  29.902  1.00  0.00     0.200 A 
ATOM     84  F   UNL A   1      36.792  29.956  27.696  1.00  0.00    -0.200 F 
ATOM     85  F   UNL A   1      35.919  29.492  30.238  1.00  0.00    -0.200 F 
ENDBRANCH  51  75
BRANCH  63  86
ATOM     86  C   UNL A   1      45.700  32.358  28.744  1.00  0.00     0.064 A 
ATOM     87  C   UNL A   1      46.216  32.748  29.989  1.00  0.00     0.173 A 
ATOM     88  C   UNL A   1      45.566  33.338  27.749  1.00  0.00     0.173 A 
ATOM     89  F   UNL A   1      46.350  31.851  30.975  1.00  0.00    -0.203 F 
ATOM     90  C   UNL A   1      46.572  34.072  30.229  1.00  0.00     0.198 A 
ATOM     91  C   UNL A   1      45.954  34.653  27.983  1.00  0.00     0.198 A 
ATOM     92  F   UNL A   1      45.086  33.014  26.539  1.00  0.00    -0.203 F 
ATOM     93  F   UNL A   1      47.029  34.431  31.437  1.00  0.00    -0.200 F 
ATOM     94  C   UNL A   1      46.453  35.021  29.224  1.00  0.00     0.200 A 
ATOM     95  F   UNL A   1      45.855  35.564  27.005  1.00  0.00    -0.200 F 
ATOM     96  F   UNL A   1      46.818  36.290  29.452  1.00  0.00    -0.200 F 
ENDBRANCH  63  86
ENDBRANCH  37  38
ENDBRANCH  29  32
ENDBRANCH  27  28
ENDBRANCH  26  27
ENDBRANCH   1  26
TORSDOF 14
ENDMDL
MODEL 3
REMARK VINA RESULT:     -12.7      0.687      7.271
REMARK SMILES CC(C)CSc1cc2c(cc1Cl)C=C(C(=O)NCCCNC(=O)c1ccc(-c3c4nc(c(-c5c(F)c(F)c(F)c(F)c5F)c5ccc([nH]5)c(-c5c(F)c(F)c(F)c(F)c5F)c5nc(c(-c6c(F)c(F)c(F)c(F)c6F)c6ccc3[nH]6)C=C5)C=C4)cc1)[C@H](C(F)(F)F)O2
REMARK SMILES IDX 18 1 17 2 15 3 16 4 14 6 6 7 7 8 11 9 8 10 10 11 12 12 9 13
REMARK SMILES IDX 92 14 13 15 87 16 5 17 4 18 2 19 1 20 3 21 88 22 89 23 90 24
REMARK SMILES IDX 91 25 19 26 20 27 21 28 22 29 23 31 24 32 25 33 86 34 26 35
REMARK SMILES IDX 85 36 27 37 28 38 29 39 79 40 30 41 84 42 78 43 80 44 31 45
REMARK SMILES IDX 83 46 77 47 76 48 32 50 64 51 44 52 63 53 45 54 48 55 62 56
REMARK SMILES IDX 81 57 46 58 47 59 61 61 82 62 49 63 33 64 34 65 42 66 35 67
REMARK SMILES IDX 36 68 40 69 43 70 37 71 38 72 41 73 39 74 65 75 66 76 74 77
REMARK SMILES IDX 67 78 68 79 72 80 75 81 69 82 70 83 73 84 71 85 50 86 51 87
REMARK SMILES IDX 59 88 52 89 53 90 57 91 60 92 54 93 55 94 58 95 56 96
REMARK H PARENT 17 5 21 30 80 49 48 60
REMARK Flexibility Score: inf
ROOT
ATOM      1  C   UNL A   1      37.092  20.579  24.782  1.00  0.00     0.118 C 
ENDROOT
BRANCH   1   2
ATOM      2  N   UNL A   1      35.754  20.110  25.098  1.00  0.00    -0.352 N 
ATOM      3  C   UNL A   1      34.521  20.652  25.215  1.00  0.00     0.251 C 
ATOM      4  O   UNL A   1      33.621  19.850  25.485  1.00  0.00    -0.270 OA
ATOM      5  H   UNL A   1      35.742  19.142  25.275  1.00  0.00     0.163 HD
BRANCH   3   6
ATOM      6  C   UNL A   1      34.193  22.095  25.033  1.00  0.00     0.067 C 
ATOM      7  C   UNL A   1      32.904  26.508  22.945  1.00  0.00     0.030 A 
ATOM      8  C   UNL A   1      33.276  26.106  24.233  1.00  0.00     0.063 A 
ATOM      9  C   UNL A   1      32.946  25.565  21.903  1.00  0.00     0.055 A 
ATOM     10  C   UNL A   1      33.618  24.779  24.489  1.00  0.00     0.129 A 
ATOM     11  C   UNL A   1      33.289  24.234  22.167  1.00  0.00     0.033 A 
ATOM     12  Cl  UNL A   1      32.535  25.964  20.270  1.00  0.00    -0.083 Cl
ATOM     13  C   UNL A   1      33.617  23.837  23.465  1.00  0.00     0.019 A 
ATOM     14  O   UNL A   1      33.977  24.486  25.771  1.00  0.00    -0.475 OA
ATOM     15  C   UNL A   1      33.985  22.462  23.756  1.00  0.00     0.025 C 
ATOM     16  C   UNL A   1      34.019  23.084  26.156  1.00  0.00     0.314 C 
BRANCH   7  17
ATOM     17  S   UNL A   1      32.383  28.200  22.699  1.00  0.00    -0.124 SA
BRANCH  17  18
ATOM     18  C   UNL A   1      30.873  28.258  23.739  1.00  0.00     0.078 C 
BRANCH  18  19
ATOM     19  C   UNL A   1      29.682  27.451  23.185  1.00  0.00    -0.007 C 
ATOM     20  C   UNL A   1      29.338  26.224  24.033  1.00  0.00     0.008 C 
ATOM     21  C   UNL A   1      28.443  28.351  23.118  1.00  0.00     0.008 C 
ENDBRANCH  18  19
ENDBRANCH  17  18
ENDBRANCH   7  17
BRANCH  16  22
ATOM     22  C   UNL A   1      32.824  22.781  27.076  1.00  0.00     0.429 C 
ATOM     23  F   UNL A   1      31.848  22.143  26.378  1.00  0.00    -0.167 F 
ATOM     24  F   UNL A   1      33.155  21.983  28.117  1.00  0.00    -0.167 F 
ATOM     25  F   UNL A   1      32.262  23.895  27.599  1.00  0.00    -0.167 F 
ENDBRANCH  16  22
ENDBRANCH   3   6
ENDBRANCH   1   2
BRANCH   1  26
ATOM     26  C   UNL A   1      38.138  19.523  25.112  1.00  0.00     0.042 C 
BRANCH  26  27
ATOM     27  C   UNL A   1      39.375  20.110  25.778  1.00  0.00     0.118 C 
BRANCH  27  28
ATOM     28  N   UNL A   1      40.423  19.112  25.964  1.00  0.00    -0.352 N 
ATOM     29  C   UNL A   1      41.777  19.265  26.148  1.00  0.00     0.251 C 
ATOM     30  H   UNL A   1      40.111  18.179  25.956  1.00  0.00     0.163 HD
ATOM     31  O   UNL A   1      42.515  18.290  26.050  1.00  0.00    -0.269 OA
BRANCH  29  32
ATOM     32  C   UNL A   1      42.351  20.598  26.441  1.00  0.00     0.039 A 
ATOM     33  C   UNL A   1      42.389  21.088  27.745  1.00  0.00     0.014 A 
ATOM     34  C   UNL A   1      42.873  21.366  25.396  1.00  0.00     0.014 A 
ATOM     35  C   UNL A   1      42.750  22.409  27.977  1.00  0.00     0.010 A 
ATOM     36  C   UNL A   1      43.356  22.655  25.652  1.00  0.00     0.010 A 
ATOM     37  C   UNL A   1      43.250  23.208  26.937  1.00  0.00    -0.014 A 
BRANCH  37  38
ATOM     38  C   UNL A   1      43.652  24.610  27.232  1.00  0.00     0.031 A 
ATOM     39  C   UNL A   1      42.626  25.639  27.629  1.00  0.00     0.074 A 
ATOM     40  C   UNL A   1      44.961  24.933  27.221  1.00  0.00     0.049 A 
ATOM     41  N   UNL A   1      42.801  26.898  27.948  1.00  0.00    -0.248 NA
ATOM     42  C   UNL A   1      41.220  25.206  27.673  1.00  0.00     0.031 C 
ATOM     43  C   UNL A   1      46.051  24.017  26.876  1.00  0.00     0.029 A 
ATOM     44  N   UNL A   1      45.606  26.100  27.548  1.00  0.00    -0.354 N 
ATOM     45  C   UNL A   1      41.536  27.403  28.223  1.00  0.00     0.074 A 
ATOM     46  C   UNL A   1      40.594  26.332  27.988  1.00  0.00     0.031 C 
ATOM     47  C   UNL A   1      47.225  24.628  27.086  1.00  0.00     0.029 A 
ATOM     48  C   UNL A   1      46.976  26.004  27.496  1.00  0.00     0.049 A 
ATOM     49  H   UNL A   1      45.132  26.927  27.794  1.00  0.00     0.167 HD
ATOM     50  C   UNL A   1      41.197  28.639  28.658  1.00  0.00     0.037 A 
ATOM     51  C   UNL A   1      47.928  26.924  27.742  1.00  0.00     0.037 A 
ATOM     52  C   UNL A   1      42.140  29.697  28.912  1.00  0.00     0.049 A 
ATOM     53  C   UNL A   1      47.511  28.312  28.137  1.00  0.00     0.074 A 
ATOM     54  C   UNL A   1      41.890  30.988  29.343  1.00  0.00     0.029 A 
ATOM     55  N   UNL A   1      43.515  29.583  28.767  1.00  0.00    -0.354 N 
ATOM     56  N   UNL A   1      46.311  28.775  28.387  1.00  0.00    -0.248 NA
ATOM     57  C   UNL A   1      48.580  29.312  28.268  1.00  0.00     0.031 C 
ATOM     58  C   UNL A   1      43.108  31.668  29.419  1.00  0.00     0.029 A 
ATOM     59  C   UNL A   1      44.123  30.786  29.084  1.00  0.00     0.049 A 
ATOM     60  H   UNL A   1      43.987  28.768  28.481  1.00  0.00     0.167 HD
ATOM     61  C   UNL A   1      46.481  30.110  28.728  1.00  0.00     0.074 A 
ATOM     62  C   UNL A   1      47.903  30.378  28.675  1.00  0.00     0.031 C 
ATOM     63  C   UNL A   1      45.542  31.032  29.046  1.00  0.00     0.037 A 
BRANCH  50  64
ATOM     64  C   UNL A   1      39.744  28.927  28.908  1.00  0.00     0.064 A 
ATOM     65  C   UNL A   1      38.886  29.304  27.863  1.00  0.00     0.173 A 
ATOM     66  C   UNL A   1      39.183  28.731  30.179  1.00  0.00     0.173 A 
ATOM     67  F   UNL A   1      39.374  29.515  26.632  1.00  0.00    -0.203 F 
ATOM     68  C   UNL A   1      37.523  29.482  28.084  1.00  0.00     0.198 A 
ATOM     69  C   UNL A   1      37.814  28.881  30.389  1.00  0.00     0.198 A 
ATOM     70  F   UNL A   1      39.956  28.361  31.210  1.00  0.00    -0.203 F 
ATOM     71  F   UNL A   1      36.727  29.867  27.077  1.00  0.00    -0.200 F 
ATOM     72  C   UNL A   1      36.986  29.258  29.343  1.00  0.00     0.200 A 
ATOM     73  F   UNL A   1      37.294  28.648  31.603  1.00  0.00    -0.200 F 
ATOM     74  F   UNL A   1      35.669  29.404  29.548  1.00  0.00    -0.200 F 
ENDBRANCH  50  64
BRANCH  51  75
ATOM     75  C   UNL A   1      49.366  26.564  27.621  1.00  0.00     0.064 A 
ATOM     76  C   UNL A   1      50.145  26.324  28.762  1.00  0.00     0.173 A 
ATOM     77  C   UNL A   1      49.996  26.460  26.371  1.00  0.00     0.173 A 
ATOM     78  F   UNL A   1      49.595  26.431  29.981  1.00  0.00    -0.203 F 
ATOM     79  C   UNL A   1      51.498  26.010  28.658  1.00  0.00     0.198 A 
ATOM     80  C   UNL A   1      51.341  26.112  26.267  1.00  0.00     0.198 A 
ATOM     81  F   UNL A   1      49.299  26.679  25.246  1.00  0.00    -0.203 F 
ATOM     82  F   UNL A   1      52.229  25.833  29.768  1.00  0.00    -0.200 F 
ATOM     83  C   UNL A   1      52.093  25.897  27.412  1.00  0.00     0.200 A 
ATOM     84  F   UNL A   1      51.907  25.985  25.059  1.00  0.00    -0.200 F 
ATOM     85  F   UNL A   1      53.393  25.588  27.312  1.00  0.00    -0.200 F 
ENDBRANCH  51  75
BRANCH  63  86
ATOM     86  C   UNL A   1      46.013  32.414  29.390  1.00  0.00     0.064 A 
ATOM     87  C   UNL A   1      46.392  32.753  30.697  1.00  0.00     0.173 A 
ATOM     88  C   UNL A   1      46.166  33.383  28.387  1.00  0.00     0.173 A 
ATOM     89  F   UNL A   1      46.252  31.866  31.693  1.00  0.00    -0.203 F 
ATOM     90  C   UNL A   1      46.894  34.019  30.989  1.00  0.00     0.198 A 
ATOM     91  C   UNL A   1      46.698  34.635  28.677  1.00  0.00     0.198 A 
ATOM     92  F   UNL A   1      45.826  33.105  27.120  1.00  0.00    -0.203 F 
ATOM     93  F   UNL A   1      47.216  34.334  32.251  1.00  0.00    -0.200 F 
ATOM     94  C   UNL A   1      47.058  34.954  29.978  1.00  0.00     0.200 A 
ATOM     95  F   UNL A   1      46.873  35.531  27.695  1.00  0.00    -0.200 F 
ATOM     96  F   UNL A   1      47.562  36.163  30.258  1.00  0.00    -0.200 F 
ENDBRANCH  63  86
ENDBRANCH  37  38
ENDBRANCH  29  32
ENDBRANCH  27  28
ENDBRANCH  26  27
ENDBRANCH   1  26
TORSDOF 14
ENDMDL
