MODEL 1
REMARK VINA RESULT:     -13.0      0.000      0.000
REMARK SMILES O=C(NCCCNC(=O)[C@@H]1CCCC[C@H]1C(=O)Nc1cccc(O)c1)c1ccc(-c2c3nc(c(-c4c(F)c(F)c(F)c(F)c4F)c4ccc([nH]4)c(-c4c(F)c(F)c(F)c(F)c4F)c4nc(c(-c5c(F)c(F)c(F)c(F)c5F)c5ccc2[nH]5)C=C4)C=C3)cc1
REMARK SMILES IDX 5 1 4 2 3 3 1 4 2 5 26 7 27 8 88 9 28 10 87 11 29 12 30 13
REMARK SMILES IDX 31 14 81 15 32 16 86 17 80 18 82 19 33 20 85 21 79 22 78 23
REMARK SMILES IDX 34 25 66 26 46 27 65 28 47 29 50 30 64 31 83 32 48 33 49 34
REMARK SMILES IDX 63 36 84 37 51 38 35 39 36 40 44 41 37 42 38 43 42 44 45 45
REMARK SMILES IDX 39 46 40 47 43 48 41 49 67 50 68 51 76 52 69 53 70 54 74 55
REMARK SMILES IDX 77 56 71 57 72 58 75 59 73 60 52 61 53 62 61 63 54 64 55 65
REMARK SMILES IDX 59 66 62 67 56 68 57 69 60 70 58 71 6 72 7 73 8 74 9 76
REMARK SMILES IDX 10 77 11 78 15 79 12 80 14 81 13 82 16 83 17 84 18 85 19 87
REMARK SMILES IDX 20 88 25 89 21 90 23 91 22 92 24 93
REMARK H PARENT 3 6 82 24 50 35 7 75 18 86 24 94
REMARK Flexibility Score: inf
ROOT
ATOM      1  C   UNL A   1      33.007  27.604  25.085  1.00  0.00     0.042 C 
ENDROOT
BRANCH   1   2
ATOM      2  C   UNL A   1      33.821  28.889  25.003  1.00  0.00     0.118 C 
BRANCH   2   3
ATOM      3  N   UNL A   1      33.073  30.033  25.517  1.00  0.00    -0.352 N 
ATOM      4  O   UNL A   1      32.372  31.498  27.083  1.00  0.00    -0.269 OA
ATOM      5  C   UNL A   1      33.255  30.746  26.676  1.00  0.00     0.251 C 
ATOM      6  H   UNL A   1      32.331  30.340  24.947  1.00  0.00     0.163 HD
BRANCH   5   7
ATOM      7  C   UNL A   1      34.514  30.600  27.432  1.00  0.00     0.039 A 
ATOM      8  C   UNL A   1      34.854  29.362  27.972  1.00  0.00     0.014 A 
ATOM      9  C   UNL A   1      35.371  31.694  27.591  1.00  0.00     0.014 A 
ATOM     10  C   UNL A   1      35.938  29.259  28.826  1.00  0.00     0.010 A 
ATOM     11  C   UNL A   1      36.547  31.550  28.335  1.00  0.00     0.010 A 
ATOM     12  C   UNL A   1      36.827  30.336  28.978  1.00  0.00    -0.014 A 
BRANCH  12  13
ATOM     13  C   UNL A   1      38.082  30.091  29.735  1.00  0.00     0.031 A 
ATOM     14  C   UNL A   1      38.277  30.604  31.131  1.00  0.00     0.074 A 
ATOM     15  C   UNL A   1      39.016  29.311  29.154  1.00  0.00     0.049 A 
ATOM     16  N   UNL A   1      39.283  30.400  31.945  1.00  0.00    -0.248 NA
ATOM     17  C   UNL A   1      37.222  31.464  31.687  1.00  0.00     0.031 C 
ATOM     18  C   UNL A   1      38.933  28.780  27.788  1.00  0.00     0.029 A 
ATOM     19  N   UNL A   1      40.185  28.788  29.638  1.00  0.00    -0.354 N 
ATOM     20  C   UNL A   1      38.988  31.106  33.102  1.00  0.00     0.074 A 
ATOM     21  C   UNL A   1      37.726  31.778  32.874  1.00  0.00     0.031 C 
ATOM     22  C   UNL A   1      39.957  27.945  27.575  1.00  0.00     0.029 A 
ATOM     23  C   UNL A   1      40.818  27.953  28.749  1.00  0.00     0.049 A 
ATOM     24  H   UNL A   1      40.538  28.990  30.535  1.00  0.00     0.167 HD
ATOM     25  C   UNL A   1      39.703  31.175  34.251  1.00  0.00     0.037 A 
ATOM     26  C   UNL A   1      41.980  27.284  28.855  1.00  0.00     0.037 A 
ATOM     27  C   UNL A   1      40.960  30.499  34.463  1.00  0.00     0.049 A 
ATOM     28  C   UNL A   1      42.755  27.398  30.132  1.00  0.00     0.074 A 
ATOM     29  C   UNL A   1      41.766  30.504  35.588  1.00  0.00     0.029 A 
ATOM     30  N   UNL A   1      41.593  29.694  33.525  1.00  0.00    -0.354 N 
ATOM     31  N   UNL A   1      42.456  28.060  31.225  1.00  0.00    -0.248 NA
ATOM     32  C   UNL A   1      44.031  26.678  30.194  1.00  0.00     0.031 C 
ATOM     33  C   UNL A   1      42.907  29.742  35.316  1.00  0.00     0.029 A 
ATOM     34  C   UNL A   1      42.788  29.212  34.042  1.00  0.00     0.049 A 
ATOM     35  H   UNL A   1      41.246  29.494  32.625  1.00  0.00     0.167 HD
ATOM     36  C   UNL A   1      43.502  27.831  32.105  1.00  0.00     0.074 A 
ATOM     37  C   UNL A   1      44.421  26.935  31.433  1.00  0.00     0.031 C 
ATOM     38  C   UNL A   1      43.693  28.328  33.351  1.00  0.00     0.037 A 
BRANCH  25  39
ATOM     39  C   UNL A   1      39.157  32.018  35.368  1.00  0.00     0.064 A 
ATOM     40  C   UNL A   1      38.392  31.461  36.406  1.00  0.00     0.173 A 
ATOM     41  C   UNL A   1      39.451  33.389  35.439  1.00  0.00     0.173 A 
ATOM     42  F   UNL A   1      38.071  30.159  36.382  1.00  0.00    -0.203 F 
ATOM     43  C   UNL A   1      37.930  32.246  37.460  1.00  0.00     0.198 A 
ATOM     44  C   UNL A   1      39.012  34.165  36.509  1.00  0.00     0.198 A 
ATOM     45  F   UNL A   1      40.182  33.974  34.478  1.00  0.00    -0.203 F 
ATOM     46  F   UNL A   1      37.170  31.699  38.418  1.00  0.00    -0.200 F 
ATOM     47  C   UNL A   1      38.249  33.595  37.515  1.00  0.00     0.200 A 
ATOM     48  F   UNL A   1      39.333  35.465  36.568  1.00  0.00    -0.200 F 
ATOM     49  F   UNL A   1      37.815  34.346  38.537  1.00  0.00    -0.200 F 
ENDBRANCH  25  39
BRANCH  26  50
ATOM     50  C   UNL A   1      42.484  26.486  27.706  1.00  0.00     0.064 A 
ATOM     51  C   UNL A   1      43.427  27.008  26.811  1.00  0.00     0.173 A 
ATOM     52  C   UNL A   1      42.026  25.178  27.480  1.00  0.00     0.173 A 
ATOM     53  F   UNL A   1      43.886  28.258  26.973  1.00  0.00    -0.203 F 
ATOM     54  C   UNL A   1      43.871  26.263  25.719  1.00  0.00     0.198 A 
ATOM     55  C   UNL A   1      42.501  24.420  26.413  1.00  0.00     0.198 A 
ATOM     56  F   UNL A   1      41.130  24.626  28.312  1.00  0.00    -0.203 F 
ATOM     57  F   UNL A   1      44.728  26.807  24.845  1.00  0.00    -0.200 F 
ATOM     58  C   UNL A   1      43.412  24.969  25.526  1.00  0.00     0.200 A 
ATOM     59  F   UNL A   1      42.073  23.162  26.246  1.00  0.00    -0.200 F 
ATOM     60  F   UNL A   1      43.844  24.251  24.479  1.00  0.00    -0.200 F 
ENDBRANCH  26  50
BRANCH  38  61
ATOM     61  C   UNL A   1      44.939  27.889  34.065  1.00  0.00     0.064 A 
ATOM     62  C   UNL A   1      44.962  26.733  34.860  1.00  0.00     0.173 A 
ATOM     63  C   UNL A   1      46.120  28.638  33.959  1.00  0.00     0.173 A 
ATOM     64  F   UNL A   1      43.853  25.992  35.007  1.00  0.00    -0.203 F 
ATOM     65  C   UNL A   1      46.109  26.369  35.559  1.00  0.00     0.198 A 
ATOM     66  C   UNL A   1      47.276  28.250  34.631  1.00  0.00     0.198 A 
ATOM     67  F   UNL A   1      46.154  29.747  33.206  1.00  0.00    -0.203 F 
ATOM     68  F   UNL A   1      46.086  25.303  36.371  1.00  0.00    -0.200 F 
ATOM     69  C   UNL A   1      47.265  27.125  35.440  1.00  0.00     0.200 A 
ATOM     70  F   UNL A   1      48.396  28.973  34.503  1.00  0.00    -0.200 F 
ATOM     71  F   UNL A   1      48.368  26.775  36.118  1.00  0.00    -0.200 F 
ENDBRANCH  38  61
ENDBRANCH  12  13
ENDBRANCH   5   7
ENDBRANCH   2   3
ENDBRANCH   1   2
BRANCH   1  72
ATOM     72  C   UNL A   1      33.903  26.377  25.220  1.00  0.00     0.117 C 
BRANCH  72  73
ATOM     73  N   UNL A   1      33.633  25.456  24.140  1.00  0.00    -0.356 N 
ATOM     74  C   UNL A   1      34.291  24.344  23.730  1.00  0.00     0.223 C 
ATOM     75  H   UNL A   1      32.832  25.673  23.610  1.00  0.00     0.163 HD
ATOM     76  O   UNL A   1      34.029  23.979  22.583  1.00  0.00    -0.275 OA
BRANCH  74  77
ATOM     77  C   UNL A   1      35.198  23.525  24.666  1.00  0.00     0.091 C 
ATOM     78  C   UNL A   1      36.681  23.448  24.270  1.00  0.00     0.014 C 
ATOM     79  C   UNL A   1      34.575  22.116  24.853  1.00  0.00     0.091 C 
ATOM     80  C   UNL A   1      37.471  22.497  25.162  1.00  0.00     0.001 C 
ATOM     81  C   UNL A   1      35.473  21.073  25.543  1.00  0.00     0.014 C 
ATOM     82  C   UNL A   1      36.910  21.096  25.045  1.00  0.00     0.001 C 
BRANCH  79  83
ATOM     83  C   UNL A   1      33.168  22.045  25.484  1.00  0.00     0.228 C 
ATOM     84  O   UNL A   1      32.673  23.070  25.974  1.00  0.00    -0.274 OA
ATOM     85  N   UNL A   1      32.327  20.970  25.377  1.00  0.00    -0.326 N 
ATOM     86  H   UNL A   1      31.443  21.100  25.789  1.00  0.00     0.169 HD
BRANCH  85  87
ATOM     87  C   UNL A   1      32.515  19.722  24.781  1.00  0.00     0.044 A 
ATOM     88  C   UNL A   1      32.914  18.609  25.517  1.00  0.00     0.026 A 
ATOM     89  C   UNL A   1      32.201  19.572  23.431  1.00  0.00     0.072 A 
ATOM     90  C   UNL A   1      33.189  17.399  24.876  1.00  0.00     0.006 A 
ATOM     91  C   UNL A   1      32.447  18.355  22.801  1.00  0.00     0.117 A 
ATOM     92  C   UNL A   1      32.976  17.276  23.505  1.00  0.00     0.046 A 
BRANCH  91  93
ATOM     93  O   UNL A   1      32.163  18.260  21.472  1.00  0.00    -0.508 OA
ATOM     94  H   UNL A   1      32.738  18.648  20.842  1.00  0.00     0.293 HD
ENDBRANCH  91  93
ENDBRANCH  85  87
ENDBRANCH  79  83
ENDBRANCH  74  77
ENDBRANCH  72  73
ENDBRANCH   1  72
TORSDOF 13
ENDMDL
MODEL 2
REMARK VINA RESULT:     -12.9      0.560      1.361
REMARK SMILES O=C(NCCCNC(=O)[C@@H]1CCCC[C@H]1C(=O)Nc1cccc(O)c1)c1ccc(-c2c3nc(c(-c4c(F)c(F)c(F)c(F)c4F)c4ccc([nH]4)c(-c4c(F)c(F)c(F)c(F)c4F)c4nc(c(-c5c(F)c(F)c(F)c(F)c5F)c5ccc2[nH]5)C=C4)C=C3)cc1
REMARK SMILES IDX 5 1 4 2 3 3 1 4 2 5 26 7 27 8 88 9 28 10 87 11 29 12 30 13
REMARK SMILES IDX 31 14 81 15 32 16 86 17 80 18 82 19 33 20 85 21 79 22 78 23
REMARK SMILES IDX 34 25 66 26 46 27 65 28 47 29 50 30 64 31 83 32 48 33 49 34
REMARK SMILES IDX 63 36 84 37 51 38 35 39 36 40 44 41 37 42 38 43 42 44 45 45
REMARK SMILES IDX 39 46 40 47 43 48 41 49 67 50 68 51 76 52 69 53 70 54 74 55
REMARK SMILES IDX 77 56 71 57 72 58 75 59 73 60 52 61 53 62 61 63 54 64 55 65
REMARK SMILES IDX 59 66 62 67 56 68 57 69 60 70 58 71 6 72 7 73 8 74 9 76
REMARK SMILES IDX 10 77 11 78 15 79 12 80 14 81 13 82 16 83 17 84 18 85 19 87
REMARK SMILES IDX 20 88 25 89 21 90 23 91 22 92 24 93
REMARK H PARENT 3 6 82 24 50 35 7 75 18 86 24 94
REMARK Flexibility Score: inf
ROOT
ATOM      1  C   UNL A   1      32.972  27.706  24.788  1.00  0.00     0.042 C 
ENDROOT
BRANCH   1   2
ATOM      2  C   UNL A   1      33.841  28.945  24.968  1.00  0.00     0.118 C 
BRANCH   2   3
ATOM      3  N   UNL A   1      33.075  30.066  25.504  1.00  0.00    -0.352 N 
ATOM      4  O   UNL A   1      32.350  31.487  27.100  1.00  0.00    -0.269 OA
ATOM      5  C   UNL A   1      33.245  30.757  26.678  1.00  0.00     0.251 C 
ATOM      6  H   UNL A   1      32.328  30.372  24.941  1.00  0.00     0.163 HD
BRANCH   5   7
ATOM      7  C   UNL A   1      34.506  30.616  27.432  1.00  0.00     0.039 A 
ATOM      8  C   UNL A   1      34.857  29.376  27.962  1.00  0.00     0.014 A 
ATOM      9  C   UNL A   1      35.354  31.716  27.599  1.00  0.00     0.014 A 
ATOM     10  C   UNL A   1      35.943  29.276  28.813  1.00  0.00     0.010 A 
ATOM     11  C   UNL A   1      36.532  31.575  28.340  1.00  0.00     0.010 A 
ATOM     12  C   UNL A   1      36.823  30.359  28.974  1.00  0.00    -0.014 A 
BRANCH  12  13
ATOM     13  C   UNL A   1      38.080  30.118  29.727  1.00  0.00     0.031 A 
ATOM     14  C   UNL A   1      38.277  30.630  31.123  1.00  0.00     0.074 A 
ATOM     15  C   UNL A   1      39.017  29.344  29.142  1.00  0.00     0.049 A 
ATOM     16  N   UNL A   1      39.285  30.429  31.935  1.00  0.00    -0.248 NA
ATOM     17  C   UNL A   1      37.218  31.484  31.683  1.00  0.00     0.031 C 
ATOM     18  C   UNL A   1      38.934  28.815  27.776  1.00  0.00     0.029 A 
ATOM     19  N   UNL A   1      40.190  28.825  29.623  1.00  0.00    -0.354 N 
ATOM     20  C   UNL A   1      38.989  31.132  33.094  1.00  0.00     0.074 A 
ATOM     21  C   UNL A   1      37.723  31.798  32.870  1.00  0.00     0.031 C 
ATOM     22  C   UNL A   1      39.961  27.984  27.560  1.00  0.00     0.029 A 
ATOM     23  C   UNL A   1      40.825  27.995  28.731  1.00  0.00     0.049 A 
ATOM     24  H   UNL A   1      40.543  29.027  30.519  1.00  0.00     0.167 HD
ATOM     25  C   UNL A   1      39.707  31.202  34.241  1.00  0.00     0.037 A 
ATOM     26  C   UNL A   1      41.989  27.331  28.833  1.00  0.00     0.037 A 
ATOM     27  C   UNL A   1      40.967  30.532  34.449  1.00  0.00     0.049 A 
ATOM     28  C   UNL A   1      42.767  27.447  30.110  1.00  0.00     0.074 A 
ATOM     29  C   UNL A   1      41.775  30.539  35.573  1.00  0.00     0.029 A 
ATOM     30  N   UNL A   1      41.602  29.731  33.508  1.00  0.00    -0.354 N 
ATOM     31  N   UNL A   1      42.467  28.105  31.204  1.00  0.00    -0.248 NA
ATOM     32  C   UNL A   1      44.046  26.732  30.167  1.00  0.00     0.031 C 
ATOM     33  C   UNL A   1      42.919  29.782  35.296  1.00  0.00     0.029 A 
ATOM     34  C   UNL A   1      42.800  29.254  34.022  1.00  0.00     0.049 A 
ATOM     35  H   UNL A   1      41.254  29.531  32.609  1.00  0.00     0.167 HD
ATOM     36  C   UNL A   1      43.516  27.879  32.081  1.00  0.00     0.074 A 
ATOM     37  C   UNL A   1      44.438  26.989  31.406  1.00  0.00     0.031 C 
ATOM     38  C   UNL A   1      43.708  28.375  33.328  1.00  0.00     0.037 A 
BRANCH  25  39
ATOM     39  C   UNL A   1      39.159  32.041  35.361  1.00  0.00     0.064 A 
ATOM     40  C   UNL A   1      38.388  31.480  36.392  1.00  0.00     0.173 A 
ATOM     41  C   UNL A   1      39.459  33.410  35.442  1.00  0.00     0.173 A 
ATOM     42  F   UNL A   1      38.061  30.180  36.359  1.00  0.00    -0.203 F 
ATOM     43  C   UNL A   1      37.924  32.262  37.448  1.00  0.00     0.198 A 
ATOM     44  C   UNL A   1      39.018  34.182  36.514  1.00  0.00     0.198 A 
ATOM     45  F   UNL A   1      40.197  33.997  34.488  1.00  0.00    -0.203 F 
ATOM     46  F   UNL A   1      37.158  31.712  38.400  1.00  0.00    -0.200 F 
ATOM     47  C   UNL A   1      38.248  33.608  37.513  1.00  0.00     0.200 A 
ATOM     48  F   UNL A   1      39.345  35.480  36.583  1.00  0.00    -0.200 F 
ATOM     49  F   UNL A   1      37.812  34.355  38.538  1.00  0.00    -0.200 F 
ENDBRANCH  25  39
BRANCH  26  50
ATOM     50  C   UNL A   1      42.495  26.537  27.682  1.00  0.00     0.064 A 
ATOM     51  C   UNL A   1      42.060  25.226  27.451  1.00  0.00     0.173 A 
ATOM     52  C   UNL A   1      43.431  27.080  26.788  1.00  0.00     0.173 A 
ATOM     53  F   UNL A   1      41.177  24.655  28.283  1.00  0.00    -0.203 F 
ATOM     54  C   UNL A   1      42.563  24.479  26.386  1.00  0.00     0.198 A 
ATOM     55  C   UNL A   1      43.902  26.348  25.701  1.00  0.00     0.198 A 
ATOM     56  F   UNL A   1      43.875  28.335  26.958  1.00  0.00    -0.203 F 
ATOM     57  F   UNL A   1      42.174  23.207  26.222  1.00  0.00    -0.200 F 
ATOM     58  C   UNL A   1      43.477  25.043  25.510  1.00  0.00     0.200 A 
ATOM     59  F   UNL A   1      44.766  26.907  24.844  1.00  0.00    -0.200 F 
ATOM     60  F   UNL A   1      43.956  24.326  24.484  1.00  0.00    -0.200 F 
ENDBRANCH  26  50
BRANCH  38  61
ATOM     61  C   UNL A   1      44.957  27.941  34.038  1.00  0.00     0.064 A 
ATOM     62  C   UNL A   1      44.992  26.774  34.817  1.00  0.00     0.173 A 
ATOM     63  C   UNL A   1      46.130  28.705  33.945  1.00  0.00     0.173 A 
ATOM     64  F   UNL A   1      43.891  26.019  34.952  1.00  0.00    -0.203 F 
ATOM     65  C   UNL A   1      46.142  26.414  35.514  1.00  0.00     0.198 A 
ATOM     66  C   UNL A   1      47.289  28.321  34.614  1.00  0.00     0.198 A 
ATOM     67  F   UNL A   1      46.152  29.825  33.208  1.00  0.00    -0.203 F 
ATOM     68  F   UNL A   1      46.129  25.336  36.311  1.00  0.00    -0.200 F 
ATOM     69  C   UNL A   1      47.290  27.184  35.408  1.00  0.00     0.200 A 
ATOM     70  F   UNL A   1      48.401  29.058  34.498  1.00  0.00    -0.200 F 
ATOM     71  F   UNL A   1      48.395  26.838  36.083  1.00  0.00    -0.200 F 
ENDBRANCH  38  61
ENDBRANCH  12  13
ENDBRANCH   5   7
ENDBRANCH   2   3
ENDBRANCH   1   2
BRANCH   1  72
ATOM     72  C   UNL A   1      33.754  26.425  25.064  1.00  0.00     0.117 C 
BRANCH  72  73
ATOM     73  N   UNL A   1      33.558  25.493  23.977  1.00  0.00    -0.356 N 
ATOM     74  C   UNL A   1      34.260  24.394  23.607  1.00  0.00     0.223 C 
ATOM     75  H   UNL A   1      32.780  25.690  23.406  1.00  0.00     0.163 HD
ATOM     76  O   UNL A   1      34.064  24.018  22.451  1.00  0.00    -0.275 OA
BRANCH  74  77
ATOM     77  C   UNL A   1      35.137  23.600  24.592  1.00  0.00     0.091 C 
ATOM     78  C   UNL A   1      36.631  23.510  24.242  1.00  0.00     0.014 C 
ATOM     79  C   UNL A   1      34.506  22.198  24.800  1.00  0.00     0.091 C 
ATOM     80  C   UNL A   1      37.392  22.583  25.183  1.00  0.00     0.001 C 
ATOM     81  C   UNL A   1      35.381  21.174  25.545  1.00  0.00     0.014 C 
ATOM     82  C   UNL A   1      36.831  21.180  25.089  1.00  0.00     0.001 C 
BRANCH  79  83
ATOM     83  C   UNL A   1      33.081  22.147  25.392  1.00  0.00     0.228 C 
ATOM     84  O   UNL A   1      32.556  23.195  25.794  1.00  0.00    -0.274 OA
ATOM     85  N   UNL A   1      32.259  21.054  25.333  1.00  0.00    -0.326 N 
ATOM     86  H   UNL A   1      31.360  21.197  25.708  1.00  0.00     0.169 HD
BRANCH  85  87
ATOM     87  C   UNL A   1      32.483  19.771  24.830  1.00  0.00     0.044 A 
ATOM     88  C   UNL A   1      32.456  19.502  23.464  1.00  0.00     0.026 A 
ATOM     89  C   UNL A   1      32.836  18.757  25.720  1.00  0.00     0.072 A 
ATOM     90  C   UNL A   1      32.585  18.191  22.999  1.00  0.00     0.006 A 
ATOM     91  C   UNL A   1      32.993  17.457  25.249  1.00  0.00     0.117 A 
ATOM     92  C   UNL A   1      32.833  17.157  23.899  1.00  0.00     0.046 A 
BRANCH  91  93
ATOM     93  O   UNL A   1      33.300  16.487  26.156  1.00  0.00    -0.508 OA
ATOM     94  H   UNL A   1      32.861  15.660  26.123  1.00  0.00     0.293 HD
ENDBRANCH  91  93
ENDBRANCH  85  87
ENDBRANCH  79  83
ENDBRANCH  74  77
ENDBRANCH  72  73
ENDBRANCH   1  72
TORSDOF 13
ENDMDL
MODEL 3
REMARK VINA RESULT:     -12.8      1.465      2.861
REMARK SMILES O=C(NCCCNC(=O)[C@@H]1CCCC[C@H]1C(=O)Nc1cccc(O)c1)c1ccc(-c2c3nc(c(-c4c(F)c(F)c(F)c(F)c4F)c4ccc([nH]4)c(-c4c(F)c(F)c(F)c(F)c4F)c4nc(c(-c5c(F)c(F)c(F)c(F)c5F)c5ccc2[nH]5)C=C4)C=C3)cc1
REMARK SMILES IDX 5 1 4 2 3 3 1 4 2 5 26 7 27 8 88 9 28 10 87 11 29 12 30 13
REMARK SMILES IDX 31 14 81 15 32 16 86 17 80 18 82 19 33 20 85 21 79 22 78 23
REMARK SMILES IDX 34 25 66 26 46 27 65 28 47 29 50 30 64 31 83 32 48 33 49 34
REMARK SMILES IDX 63 36 84 37 51 38 35 39 36 40 44 41 37 42 38 43 42 44 45 45
REMARK SMILES IDX 39 46 40 47 43 48 41 49 67 50 68 51 76 52 69 53 70 54 74 55
REMARK SMILES IDX 77 56 71 57 72 58 75 59 73 60 52 61 53 62 61 63 54 64 55 65
REMARK SMILES IDX 59 66 62 67 56 68 57 69 60 70 58 71 6 72 7 73 8 74 9 76
REMARK SMILES IDX 10 77 11 78 15 79 12 80 14 81 13 82 16 83 17 84 18 85 19 87
REMARK SMILES IDX 20 88 25 89 21 90 23 91 22 92 24 93
REMARK H PARENT 3 6 82 24 50 35 7 75 18 86 24 94
REMARK Flexibility Score: inf
ROOT
ATOM      1  C   UNL A   1      32.891  27.564  25.945  1.00  0.00     0.042 C 
ENDROOT
BRANCH   1   2
ATOM      2  C   UNL A   1      33.692  28.745  25.412  1.00  0.00     0.118 C 
BRANCH   2   3
ATOM      3  N   UNL A   1      33.079  30.019  25.775  1.00  0.00    -0.352 N 
ATOM      4  O   UNL A   1      32.574  31.747  27.135  1.00  0.00    -0.269 OA
ATOM      5  C   UNL A   1      33.364  30.859  26.822  1.00  0.00     0.251 C 
ATOM      6  H   UNL A   1      32.354  30.321  25.180  1.00  0.00     0.163 HD
BRANCH   5   7
ATOM      7  C   UNL A   1      34.624  30.688  27.572  1.00  0.00     0.039 A 
ATOM      8  C   UNL A   1      34.877  29.485  28.228  1.00  0.00     0.014 A 
ATOM      9  C   UNL A   1      35.568  31.719  27.609  1.00  0.00     0.014 A 
ATOM     10  C   UNL A   1      35.968  29.379  29.073  1.00  0.00     0.010 A 
ATOM     11  C   UNL A   1      36.745  31.554  28.348  1.00  0.00     0.010 A 
ATOM     12  C   UNL A   1      36.942  30.391  29.105  1.00  0.00    -0.014 A 
BRANCH  12  13
ATOM     13  C   UNL A   1      38.189  30.121  29.866  1.00  0.00     0.031 A 
ATOM     14  C   UNL A   1      38.387  30.622  31.265  1.00  0.00     0.074 A 
ATOM     15  C   UNL A   1      39.114  29.331  29.283  1.00  0.00     0.049 A 
ATOM     16  N   UNL A   1      39.386  30.396  32.083  1.00  0.00    -0.248 NA
ATOM     17  C   UNL A   1      37.343  31.494  31.823  1.00  0.00     0.031 C 
ATOM     18  C   UNL A   1      39.029  28.810  27.913  1.00  0.00     0.029 A 
ATOM     19  N   UNL A   1      40.273  28.786  29.769  1.00  0.00    -0.354 N 
ATOM     20  C   UNL A   1      39.097  31.100  33.243  1.00  0.00     0.074 A 
ATOM     21  C   UNL A   1      37.846  31.793  33.014  1.00  0.00     0.031 C 
ATOM     22  C   UNL A   1      40.040  27.960  27.699  1.00  0.00     0.029 A 
ATOM     23  C   UNL A   1      40.897  27.948  28.876  1.00  0.00     0.049 A 
ATOM     24  H   UNL A   1      40.624  28.977  30.668  1.00  0.00     0.167 HD
ATOM     25  C   UNL A   1      39.808  31.150  34.395  1.00  0.00     0.037 A 
ATOM     26  C   UNL A   1      42.047  27.260  28.983  1.00  0.00     0.037 A 
ATOM     27  C   UNL A   1      41.053  30.453  34.608  1.00  0.00     0.049 A 
ATOM     28  C   UNL A   1      42.819  27.353  30.264  1.00  0.00     0.074 A 
ATOM     29  C   UNL A   1      41.854  30.437  35.737  1.00  0.00     0.029 A 
ATOM     30  N   UNL A   1      41.678  29.644  33.667  1.00  0.00    -0.354 N 
ATOM     31  N   UNL A   1      42.525  28.012  31.360  1.00  0.00    -0.248 NA
ATOM     32  C   UNL A   1      44.083  26.613  30.326  1.00  0.00     0.031 C 
ATOM     33  C   UNL A   1      42.985  29.660  35.464  1.00  0.00     0.029 A 
ATOM     34  C   UNL A   1      42.862  29.140  34.186  1.00  0.00     0.049 A 
ATOM     35  H   UNL A   1      41.332  29.456  32.765  1.00  0.00     0.167 HD
ATOM     36  C   UNL A   1      43.563  27.761  32.243  1.00  0.00     0.074 A 
ATOM     37  C   UNL A   1      44.472  26.855  31.569  1.00  0.00     0.031 C 
ATOM     38  C   UNL A   1      43.757  28.247  33.493  1.00  0.00     0.037 A 
BRANCH  25  39
ATOM     39  C   UNL A   1      39.270  31.994  35.516  1.00  0.00     0.064 A 
ATOM     40  C   UNL A   1      38.435  31.455  36.508  1.00  0.00     0.173 A 
ATOM     41  C   UNL A   1      39.642  33.342  35.638  1.00  0.00     0.173 A 
ATOM     42  F   UNL A   1      38.038  30.177  36.435  1.00  0.00    -0.203 F 
ATOM     43  C   UNL A   1      37.980  32.239  37.567  1.00  0.00     0.198 A 
ATOM     44  C   UNL A   1      39.209  34.114  36.713  1.00  0.00     0.198 A 
ATOM     45  F   UNL A   1      40.443  33.907  34.722  1.00  0.00    -0.203 F 
ATOM     46  F   UNL A   1      37.153  31.712  38.480  1.00  0.00    -0.200 F 
ATOM     47  C   UNL A   1      38.375  33.564  37.673  1.00  0.00     0.200 A 
ATOM     48  F   UNL A   1      39.604  35.390  36.822  1.00  0.00    -0.200 F 
ATOM     49  F   UNL A   1      37.948  34.312  38.700  1.00  0.00    -0.200 F 
ENDBRANCH  25  39
BRANCH  26  50
ATOM     50  C   UNL A   1      42.544  26.462  27.830  1.00  0.00     0.064 A 
ATOM     51  C   UNL A   1      43.395  27.019  26.867  1.00  0.00     0.173 A 
ATOM     52  C   UNL A   1      42.171  25.117  27.670  1.00  0.00     0.173 A 
ATOM     53  F   UNL A   1      43.770  28.303  26.966  1.00  0.00    -0.203 F 
ATOM     54  C   UNL A   1      43.831  26.271  25.774  1.00  0.00     0.198 A 
ATOM     55  C   UNL A   1      42.639  24.360  26.600  1.00  0.00     0.198 A 
ATOM     56  F   UNL A   1      41.365  24.531  28.568  1.00  0.00    -0.203 F 
ATOM     57  F   UNL A   1      44.596  26.846  24.836  1.00  0.00    -0.200 F 
ATOM     58  C   UNL A   1      43.458  24.942  25.646  1.00  0.00     0.200 A 
ATOM     59  F   UNL A   1      42.296  23.069  26.495  1.00  0.00    -0.200 F 
ATOM     60  F   UNL A   1      43.882  24.223  24.598  1.00  0.00    -0.200 F 
ENDBRANCH  26  50
BRANCH  38  61
ATOM     61  C   UNL A   1      44.993  27.783  34.209  1.00  0.00     0.064 A 
ATOM     62  C   UNL A   1      46.202  28.491  34.121  1.00  0.00     0.173 A 
ATOM     63  C   UNL A   1      44.970  26.614  34.982  1.00  0.00     0.173 A 
ATOM     64  F   UNL A   1      46.280  29.606  33.378  1.00  0.00    -0.203 F 
ATOM     65  C   UNL A   1      47.353  28.019  34.745  1.00  0.00     0.198 A 
ATOM     66  C   UNL A   1      46.115  26.165  35.635  1.00  0.00     0.198 A 
ATOM     67  F   UNL A   1      43.839  25.904  35.105  1.00  0.00    -0.203 F 
ATOM     68  F   UNL A   1      48.513  28.671  34.586  1.00  0.00    -0.200 F 
ATOM     69  C   UNL A   1      47.308  26.861  35.505  1.00  0.00     0.200 A 
ATOM     70  F   UNL A   1      46.066  25.054  36.381  1.00  0.00    -0.200 F 
ATOM     71  F   UNL A   1      48.419  26.405  36.101  1.00  0.00    -0.200 F 
ENDBRANCH  38  61
ENDBRANCH  12  13
ENDBRANCH   5   7
ENDBRANCH   2   3
ENDBRANCH   1   2
BRANCH   1  72
ATOM     72  C   UNL A   1      33.601  26.239  25.686  1.00  0.00     0.117 C 
BRANCH  72  73
ATOM     73  N   UNL A   1      32.855  25.161  26.293  1.00  0.00    -0.356 N 
ATOM     74  C   UNL A   1      32.912  23.819  26.106  1.00  0.00     0.223 C 
ATOM     75  H   UNL A   1      32.188  25.450  26.958  1.00  0.00     0.163 HD
ATOM     76  O   UNL A   1      31.923  23.198  26.496  1.00  0.00    -0.275 OA
BRANCH  74  77
ATOM     77  C   UNL A   1      34.168  23.111  25.566  1.00  0.00     0.091 C 
ATOM     78  C   UNL A   1      35.493  23.472  26.256  1.00  0.00     0.014 C 
ATOM     79  C   UNL A   1      34.239  23.327  24.030  1.00  0.00     0.091 C 
ATOM     80  C   UNL A   1      36.698  22.845  25.562  1.00  0.00     0.001 C 
ATOM     81  C   UNL A   1      35.560  22.918  23.357  1.00  0.00     0.014 C 
ATOM     82  C   UNL A   1      36.791  23.350  24.137  1.00  0.00     0.001 C 
BRANCH  79  83
ATOM     83  C   UNL A   1      33.067  22.778  23.187  1.00  0.00     0.228 C 
ATOM     84  O   UNL A   1      32.886  21.554  23.130  1.00  0.00    -0.274 OA
ATOM     85  N   UNL A   1      32.080  23.554  22.642  1.00  0.00    -0.326 N 
ATOM     86  H   UNL A   1      31.374  23.050  22.177  1.00  0.00     0.169 HD
BRANCH  85  87
ATOM     87  C   UNL A   1      31.907  24.939  22.634  1.00  0.00     0.044 A 
ATOM     88  C   UNL A   1      30.807  25.546  23.237  1.00  0.00     0.026 A 
ATOM     89  C   UNL A   1      32.914  25.735  22.090  1.00  0.00     0.072 A 
ATOM     90  C   UNL A   1      30.612  26.924  23.126  1.00  0.00     0.006 A 
ATOM     91  C   UNL A   1      32.730  27.112  22.008  1.00  0.00     0.117 A 
ATOM     92  C   UNL A   1      31.568  27.711  22.488  1.00  0.00     0.046 A 
BRANCH  91  93
ATOM     93  O   UNL A   1      33.720  27.851  21.434  1.00  0.00    -0.508 OA
ATOM     94  H   UNL A   1      33.524  28.690  21.064  1.00  0.00     0.293 HD
ENDBRANCH  91  93
ENDBRANCH  85  87
ENDBRANCH  79  83
ENDBRANCH  74  77
ENDBRANCH  72  73
ENDBRANCH   1  72
TORSDOF 13
ENDMDL
