MODEL 1
REMARK VINA RESULT:     -13.0      0.000      0.000
REMARK SMILES COc1ccc2[nH]c(C(=O)c3cc(C)ccn3)c(CC(=O)NCCCNC(=O)c3ccc(-c4c5nc(c(-c6c(F)c(F)c(F)c(F)c6F)c6ccc([nH]6)c(-c6c(F)c(F)c(F)c(F)c6F)c6nc(c(-c7c(F)c(F)c(F)c(F)c7F)c7ccc4[nH]7)C=C6)C=C5)cc3)c2c1
REMARK SMILES IDX 23 1 22 2 20 3 21 4 19 6 18 7 3 8 4 9 93 10 5 11 92 12 6 13
REMARK SMILES IDX 7 14 8 15 2 17 1 18 9 19 10 20 11 21 12 22 17 23 13 24 16 25
REMARK SMILES IDX 14 26 15 27 24 28 25 29 26 30 27 31 28 33 29 34 30 35 91 36
REMARK SMILES IDX 31 37 90 38 32 39 33 40 34 41 84 42 35 43 89 44 83 45 85 46
REMARK SMILES IDX 36 47 88 48 82 49 81 50 37 52 69 53 49 54 68 55 50 56 53 57
REMARK SMILES IDX 67 58 86 59 51 60 52 61 66 63 87 64 54 65 38 66 39 67 47 68
REMARK SMILES IDX 40 69 41 70 45 71 48 72 42 73 43 74 46 75 44 76 70 77 71 78
REMARK SMILES IDX 79 79 72 80 73 81 77 82 80 83 74 84 75 85 78 86 76 87 55 88
REMARK SMILES IDX 56 89 64 90 57 91 58 92 62 93 65 94 59 95 60 96 63 97 61 98
REMARK H PARENT 22 5 7 16 26 32 85 51 53 62
REMARK Flexibility Score: inf
ROOT
ATOM      1  C   UNL A   1      32.709  27.104  26.483  1.00  0.00     0.117 C 
ENDROOT
BRANCH   1   2
ATOM      2  N   UNL A   1      31.798  26.017  26.769  1.00  0.00    -0.356 N 
ATOM      3  C   UNL A   1      31.935  24.676  26.549  1.00  0.00     0.224 C 
ATOM      4  O   UNL A   1      31.096  23.943  27.078  1.00  0.00    -0.275 OA
ATOM      5  H   UNL A   1      30.948  26.285  27.188  1.00  0.00     0.163 HD
BRANCH   3   6
ATOM      6  C   UNL A   1      33.133  24.109  25.794  1.00  0.00     0.138 C 
BRANCH   6   7
ATOM      7  C   UNL A   1      32.803  23.434  24.489  1.00  0.00    -0.002 A 
ATOM      8  C   UNL A   1      32.356  19.627  24.694  1.00  0.00     0.119 A 
ATOM      9  C   UNL A   1      32.173  19.431  23.327  1.00  0.00     0.048 A 
ATOM     10  C   UNL A   1      32.532  20.922  25.197  1.00  0.00     0.057 A 
ATOM     11  C   UNL A   1      32.182  20.512  22.435  1.00  0.00     0.030 A 
ATOM     12  C   UNL A   1      32.572  22.026  24.319  1.00  0.00     0.008 A 
ATOM     13  C   UNL A   1      32.386  21.792  22.961  1.00  0.00     0.046 A 
ATOM     14  N   UNL A   1      32.447  23.011  22.333  1.00  0.00    -0.352 N 
ATOM     15  C   UNL A   1      32.614  24.035  23.243  1.00  0.00     0.093 A 
ATOM     16  H   UNL A   1      32.379  23.139  21.359  1.00  0.00     0.167 HD
BRANCH   8  17
ATOM     17  O   UNL A   1      32.356  18.643  25.645  1.00  0.00    -0.497 OA
ATOM     18  C   UNL A   1      32.767  17.353  25.210  1.00  0.00     0.278 C 
ENDBRANCH   8  17
BRANCH  15  19
ATOM     19  C   UNL A   1      32.603  25.457  22.915  1.00  0.00     0.227 C 
ATOM     20  O   UNL A   1      33.600  26.077  22.551  1.00  0.00    -0.285 OA
BRANCH  19  21
ATOM     21  C   UNL A   1      31.344  26.227  23.088  1.00  0.00     0.113 A 
ATOM     22  C   UNL A   1      31.240  27.505  22.545  1.00  0.00     0.036 A 
ATOM     23  N   UNL A   1      30.351  25.612  23.777  1.00  0.00    -0.253 NA
ATOM     24  C   UNL A   1      30.039  28.199  22.712  1.00  0.00    -0.047 A 
ATOM     25  C   UNL A   1      29.190  26.287  23.888  1.00  0.00     0.112 A 
ATOM     26  C   UNL A   1      29.854  29.580  22.162  1.00  0.00     0.044 C 
ATOM     27  C   UNL A   1      28.992  27.565  23.387  1.00  0.00     0.023 A 
ENDBRANCH  19  21
ENDBRANCH  15  19
ENDBRANCH   6   7
ENDBRANCH   3   6
ENDBRANCH   1   2
BRANCH   1  28
ATOM     28  C   UNL A   1      32.001  28.359  25.979  1.00  0.00     0.042 C 
BRANCH  28  29
ATOM     29  C   UNL A   1      32.935  29.443  25.444  1.00  0.00     0.118 C 
BRANCH  29  30
ATOM     30  N   UNL A   1      32.612  30.770  25.948  1.00  0.00    -0.352 N 
ATOM     31  C   UNL A   1      33.156  31.498  26.975  1.00  0.00     0.251 C 
ATOM     32  H   UNL A   1      31.880  31.222  25.470  1.00  0.00     0.163 HD
ATOM     33  O   UNL A   1      32.610  32.541  27.328  1.00  0.00    -0.269 OA
BRANCH  31  34
ATOM     34  C   UNL A   1      34.376  31.045  27.684  1.00  0.00     0.039 A 
ATOM     35  C   UNL A   1      35.443  31.942  27.809  1.00  0.00     0.014 A 
ATOM     36  C   UNL A   1      34.509  29.741  28.167  1.00  0.00     0.014 A 
ATOM     37  C   UNL A   1      36.613  31.554  28.468  1.00  0.00     0.010 A 
ATOM     38  C   UNL A   1      35.652  29.372  28.877  1.00  0.00     0.010 A 
ATOM     39  C   UNL A   1      36.715  30.275  29.035  1.00  0.00    -0.014 A 
BRANCH  39  40
ATOM     40  C   UNL A   1      37.920  29.868  29.802  1.00  0.00     0.031 A 
ATOM     41  C   UNL A   1      38.153  30.397  31.190  1.00  0.00     0.074 A 
ATOM     42  C   UNL A   1      38.841  29.073  29.224  1.00  0.00     0.049 A 
ATOM     43  N   UNL A   1      39.187  30.229  31.977  1.00  0.00    -0.248 NA
ATOM     44  C   UNL A   1      37.095  31.245  31.761  1.00  0.00     0.031 C 
ATOM     45  C   UNL A   1      38.752  28.526  27.869  1.00  0.00     0.029 A 
ATOM     46  N   UNL A   1      40.041  28.599  29.695  1.00  0.00    -0.354 N 
ATOM     47  C   UNL A   1      38.914  30.966  33.122  1.00  0.00     0.074 A 
ATOM     48  C   UNL A   1      37.633  31.609  32.917  1.00  0.00     0.031 C 
ATOM     49  C   UNL A   1      39.844  27.785  27.621  1.00  0.00     0.029 A 
ATOM     50  C   UNL A   1      40.725  27.832  28.784  1.00  0.00     0.049 A 
ATOM     51  H   UNL A   1      40.378  28.792  30.600  1.00  0.00     0.167 HD
ATOM     52  C   UNL A   1      39.657  31.083  34.249  1.00  0.00     0.037 A 
ATOM     53  C   UNL A   1      41.933  27.244  28.872  1.00  0.00     0.037 A 
ATOM     54  C   UNL A   1      40.912  30.414  34.471  1.00  0.00     0.049 A 
ATOM     55  C   UNL A   1      42.729  27.376  30.141  1.00  0.00     0.074 A 
ATOM     56  C   UNL A   1      41.705  30.419  35.606  1.00  0.00     0.029 A 
ATOM     57  N   UNL A   1      41.557  29.618  33.536  1.00  0.00    -0.354 N 
ATOM     58  N   UNL A   1      42.434  28.030  31.237  1.00  0.00    -0.248 NA
ATOM     59  C   UNL A   1      44.025  26.684  30.187  1.00  0.00     0.031 C 
ATOM     60  C   UNL A   1      42.846  29.652  35.347  1.00  0.00     0.029 A 
ATOM     61  C   UNL A   1      42.746  29.138  34.064  1.00  0.00     0.049 A 
ATOM     62  H   UNL A   1      41.221  29.421  32.633  1.00  0.00     0.167 HD
ATOM     63  C   UNL A   1      43.489  27.809  32.110  1.00  0.00     0.074 A 
ATOM     64  C   UNL A   1      44.429  26.949  31.420  1.00  0.00     0.031 C 
ATOM     65  C   UNL A   1      43.665  28.277  33.369  1.00  0.00     0.037 A 
BRANCH  52  66
ATOM     66  C   UNL A   1      39.133  31.967  35.341  1.00  0.00     0.064 A 
ATOM     67  C   UNL A   1      38.370  31.452  36.400  1.00  0.00     0.173 A 
ATOM     68  C   UNL A   1      39.441  33.336  35.359  1.00  0.00     0.173 A 
ATOM     69  F   UNL A   1      38.041  30.151  36.422  1.00  0.00    -0.203 F 
ATOM     70  C   UNL A   1      37.920  32.278  37.426  1.00  0.00     0.198 A 
ATOM     71  C   UNL A   1      39.011  34.154  36.400  1.00  0.00     0.198 A 
ATOM     72  F   UNL A   1      40.174  33.876  34.373  1.00  0.00    -0.203 F 
ATOM     73  F   UNL A   1      37.163  31.770  38.409  1.00  0.00    -0.200 F 
ATOM     74  C   UNL A   1      38.247  33.625  37.429  1.00  0.00     0.200 A 
ATOM     75  F   UNL A   1      39.337  35.453  36.408  1.00  0.00    -0.200 F 
ATOM     76  F   UNL A   1      37.821  34.417  38.424  1.00  0.00    -0.200 F 
ENDBRANCH  52  66
BRANCH  53  77
ATOM     77  C   UNL A   1      42.460  26.461  27.726  1.00  0.00     0.064 A 
ATOM     78  C   UNL A   1      43.355  27.035  26.813  1.00  0.00     0.173 A 
ATOM     79  C   UNL A   1      42.077  25.128  27.516  1.00  0.00     0.173 A 
ATOM     80  F   UNL A   1      43.732  28.314  26.962  1.00  0.00    -0.203 F 
ATOM     81  C   UNL A   1      43.831  26.314  25.721  1.00  0.00     0.198 A 
ATOM     82  C   UNL A   1      42.573  24.399  26.438  1.00  0.00     0.198 A 
ATOM     83  F   UNL A   1      41.226  24.532  28.363  1.00  0.00    -0.203 F 
ATOM     84  F   UNL A   1      44.652  26.901  24.839  1.00  0.00    -0.200 F 
ATOM     85  C   UNL A   1      43.444  24.995  25.537  1.00  0.00     0.200 A 
ATOM     86  F   UNL A   1      42.207  23.122  26.270  1.00  0.00    -0.200 F 
ATOM     87  F   UNL A   1      43.904  24.300  24.488  1.00  0.00    -0.200 F 
ENDBRANCH  53  77
BRANCH  65  88
ATOM     88  C   UNL A   1      44.904  27.846  34.096  1.00  0.00     0.064 A 
ATOM     89  C   UNL A   1      46.081  28.605  34.050  1.00  0.00     0.173 A 
ATOM     90  C   UNL A   1      44.900  26.679  34.875  1.00  0.00     0.173 A 
ATOM     91  F   UNL A   1      46.138  29.719  33.305  1.00  0.00    -0.203 F 
ATOM     92  C   UNL A   1      47.218  28.201  34.746  1.00  0.00     0.198 A 
ATOM     93  C   UNL A   1      46.032  26.291  35.588  1.00  0.00     0.198 A 
ATOM     94  F   UNL A   1      43.796  25.920  34.952  1.00  0.00    -0.203 F 
ATOM     95  F   UNL A   1      48.346  28.921  34.657  1.00  0.00    -0.200 F 
ATOM     96  C   UNL A   1      47.190  27.049  35.518  1.00  0.00     0.200 A 
ATOM     97  F   UNL A   1      46.001  25.184  36.341  1.00  0.00    -0.200 F 
ATOM     98  F   UNL A   1      48.284  26.665  36.189  1.00  0.00    -0.200 F 
ENDBRANCH  65  88
ENDBRANCH  39  40
ENDBRANCH  31  34
ENDBRANCH  29  30
ENDBRANCH  28  29
ENDBRANCH   1  28
TORSDOF 14
ENDMDL
MODEL 2
REMARK VINA RESULT:     -13.0      0.433      7.235
REMARK SMILES COc1ccc2[nH]c(C(=O)c3cc(C)ccn3)c(CC(=O)NCCCNC(=O)c3ccc(-c4c5nc(c(-c6c(F)c(F)c(F)c(F)c6F)c6ccc([nH]6)c(-c6c(F)c(F)c(F)c(F)c6F)c6nc(c(-c7c(F)c(F)c(F)c(F)c7F)c7ccc4[nH]7)C=C6)C=C5)cc3)c2c1
REMARK SMILES IDX 23 1 22 2 20 3 21 4 19 6 18 7 3 8 4 9 93 10 5 11 92 12 6 13
REMARK SMILES IDX 7 14 8 15 2 17 1 18 9 19 10 20 11 21 12 22 17 23 13 24 16 25
REMARK SMILES IDX 14 26 15 27 24 28 25 29 26 30 27 31 28 33 29 34 30 35 91 36
REMARK SMILES IDX 31 37 90 38 32 39 33 40 34 41 84 42 35 43 89 44 83 45 85 46
REMARK SMILES IDX 36 47 88 48 82 49 81 50 37 52 69 53 49 54 68 55 50 56 53 57
REMARK SMILES IDX 67 58 86 59 51 60 52 61 66 63 87 64 54 65 38 66 39 67 47 68
REMARK SMILES IDX 40 69 41 70 45 71 48 72 42 73 43 74 46 75 44 76 70 77 71 78
REMARK SMILES IDX 79 79 72 80 73 81 77 82 80 83 74 84 75 85 78 86 76 87 55 88
REMARK SMILES IDX 56 89 64 90 57 91 58 92 62 93 65 94 59 95 60 96 63 97 61 98
REMARK H PARENT 22 5 7 16 26 32 85 51 53 62
REMARK Flexibility Score: inf
ROOT
ATOM      1  C   UNL A   1      33.062  26.791  26.025  1.00  0.00     0.117 C 
ENDROOT
BRANCH   1   2
ATOM      2  N   UNL A   1      32.248  25.687  26.487  1.00  0.00    -0.356 N 
ATOM      3  C   UNL A   1      32.413  24.343  26.315  1.00  0.00     0.224 C 
ATOM      4  O   UNL A   1      31.688  23.608  26.990  1.00  0.00    -0.275 OA
ATOM      5  H   UNL A   1      31.452  25.946  27.007  1.00  0.00     0.163 HD
BRANCH   3   6
ATOM      6  C   UNL A   1      33.522  23.781  25.430  1.00  0.00     0.138 C 
BRANCH   6   7
ATOM      7  C   UNL A   1      33.047  23.028  24.215  1.00  0.00    -0.002 A 
ATOM      8  C   UNL A   1      32.528  19.261  24.736  1.00  0.00     0.119 A 
ATOM      9  C   UNL A   1      32.206  18.976  23.412  1.00  0.00     0.048 A 
ATOM     10  C   UNL A   1      32.785  20.581  25.125  1.00  0.00     0.057 A 
ATOM     11  C   UNL A   1      32.153  19.992  22.447  1.00  0.00     0.030 A 
ATOM     12  C   UNL A   1      32.765  21.619  24.170  1.00  0.00     0.008 A 
ATOM     13  C   UNL A   1      32.439  21.298  22.858  1.00  0.00     0.046 A 
ATOM     14  N   UNL A   1      32.469  22.468  22.140  1.00  0.00    -0.352 N 
ATOM     15  C   UNL A   1      32.751  23.547  22.953  1.00  0.00     0.093 A 
ATOM     16  H   UNL A   1      32.308  22.530  21.171  1.00  0.00     0.167 HD
BRANCH   8  17
ATOM     17  O   UNL A   1      32.599  18.346  25.751  1.00  0.00    -0.497 OA
ATOM     18  C   UNL A   1      32.697  16.982  25.358  1.00  0.00     0.278 C 
ENDBRANCH   8  17
BRANCH  15  19
ATOM     19  C   UNL A   1      32.742  24.943  22.526  1.00  0.00     0.227 C 
ATOM     20  O   UNL A   1      33.677  25.476  21.933  1.00  0.00    -0.285 OA
BRANCH  19  21
ATOM     21  C   UNL A   1      31.578  25.797  22.877  1.00  0.00     0.113 A 
ATOM     22  C   UNL A   1      31.534  27.115  22.429  1.00  0.00     0.036 A 
ATOM     23  N   UNL A   1      30.607  25.215  23.624  1.00  0.00    -0.253 NA
ATOM     24  C   UNL A   1      30.420  27.889  22.764  1.00  0.00    -0.047 A 
ATOM     25  C   UNL A   1      29.526  25.972  23.897  1.00  0.00     0.112 A 
ATOM     26  C   UNL A   1      30.303  29.317  22.324  1.00  0.00     0.044 C 
ATOM     27  C   UNL A   1      29.392  27.295  23.501  1.00  0.00     0.023 A 
ENDBRANCH  19  21
ENDBRANCH  15  19
ENDBRANCH   6   7
ENDBRANCH   3   6
ENDBRANCH   1   2
BRANCH   1  28
ATOM     28  C   UNL A   1      32.280  28.095  25.892  1.00  0.00     0.042 C 
BRANCH  28  29
ATOM     29  C   UNL A   1      33.088  29.266  25.337  1.00  0.00     0.118 C 
BRANCH  29  30
ATOM     30  N   UNL A   1      32.647  30.555  25.851  1.00  0.00    -0.352 N 
ATOM     31  C   UNL A   1      33.109  31.311  26.896  1.00  0.00     0.251 C 
ATOM     32  H   UNL A   1      31.888  30.950  25.364  1.00  0.00     0.163 HD
ATOM     33  O   UNL A   1      32.472  32.301  27.251  1.00  0.00    -0.269 OA
BRANCH  31  34
ATOM     34  C   UNL A   1      34.350  30.953  27.623  1.00  0.00     0.039 A 
ATOM     35  C   UNL A   1      35.333  31.936  27.784  1.00  0.00     0.014 A 
ATOM     36  C   UNL A   1      34.585  29.657  28.088  1.00  0.00     0.014 A 
ATOM     37  C   UNL A   1      36.520  31.638  28.461  1.00  0.00     0.010 A 
ATOM     38  C   UNL A   1      35.742  29.375  28.815  1.00  0.00     0.010 A 
ATOM     39  C   UNL A   1      36.721  30.363  29.009  1.00  0.00    -0.014 A 
BRANCH  39  40
ATOM     40  C   UNL A   1      37.941  30.048  29.795  1.00  0.00     0.031 A 
ATOM     41  C   UNL A   1      38.971  29.095  29.253  1.00  0.00     0.074 A 
ATOM     42  C   UNL A   1      38.092  30.569  31.028  1.00  0.00     0.049 A 
ATOM     43  N   UNL A   1      40.051  28.628  29.828  1.00  0.00    -0.248 NA
ATOM     44  C   UNL A   1      38.745  28.582  27.893  1.00  0.00     0.031 C 
ATOM     45  C   UNL A   1      37.147  31.473  31.684  1.00  0.00     0.029 A 
ATOM     46  N   UNL A   1      39.089  30.399  31.957  1.00  0.00    -0.354 N 
ATOM     47  C   UNL A   1      40.619  27.752  28.913  1.00  0.00     0.074 A 
ATOM     48  C   UNL A   1      39.749  27.726  27.756  1.00  0.00     0.031 C 
ATOM     49  C   UNL A   1      37.612  31.787  32.904  1.00  0.00     0.029 A 
ATOM     50  C   UNL A   1      38.868  31.080  33.130  1.00  0.00     0.049 A 
ATOM     51  H   UNL A   1      39.885  29.843  31.798  1.00  0.00     0.167 HD
ATOM     52  C   UNL A   1      41.770  27.046  29.021  1.00  0.00     0.037 A 
ATOM     53  C   UNL A   1      39.592  31.119  34.265  1.00  0.00     0.037 A 
ATOM     54  C   UNL A   1      42.656  27.100  30.154  1.00  0.00     0.049 A 
ATOM     55  C   UNL A   1      40.875  30.338  34.351  1.00  0.00     0.074 A 
ATOM     56  C   UNL A   1      43.877  26.471  30.326  1.00  0.00     0.029 A 
ATOM     57  N   UNL A   1      42.415  27.828  31.309  1.00  0.00    -0.354 N 
ATOM     58  N   UNL A   1      41.429  29.558  33.456  1.00  0.00    -0.248 NA
ATOM     59  C   UNL A   1      41.635  30.447  35.604  1.00  0.00     0.031 C 
ATOM     60  C   UNL A   1      44.360  26.793  31.600  1.00  0.00     0.029 A 
ATOM     61  C   UNL A   1      43.458  27.652  32.205  1.00  0.00     0.049 A 
ATOM     62  H   UNL A   1      41.621  28.388  31.470  1.00  0.00     0.167 HD
ATOM     63  C   UNL A   1      42.611  29.105  34.024  1.00  0.00     0.074 A 
ATOM     64  C   UNL A   1      42.702  29.707  35.338  1.00  0.00     0.031 C 
ATOM     65  C   UNL A   1      43.538  28.265  33.504  1.00  0.00     0.037 A 
BRANCH  52  66
ATOM     66  C   UNL A   1      42.148  26.150  27.879  1.00  0.00     0.064 A 
ATOM     67  C   UNL A   1      41.575  24.878  27.723  1.00  0.00     0.173 A 
ATOM     68  C   UNL A   1      43.051  26.588  26.899  1.00  0.00     0.173 A 
ATOM     69  F   UNL A   1      40.713  24.411  28.639  1.00  0.00    -0.203 F 
ATOM     70  C   UNL A   1      41.908  24.072  26.638  1.00  0.00     0.198 A 
ATOM     71  C   UNL A   1      43.362  25.789  25.802  1.00  0.00     0.198 A 
ATOM     72  F   UNL A   1      43.620  27.800  26.999  1.00  0.00    -0.203 F 
ATOM     73  F   UNL A   1      41.376  22.847  26.529  1.00  0.00    -0.200 F 
ATOM     74  C   UNL A   1      42.795  24.530  25.676  1.00  0.00     0.200 A 
ATOM     75  F   UNL A   1      44.210  26.238  24.867  1.00  0.00    -0.200 F 
ATOM     76  F   UNL A   1      43.106  23.757  24.626  1.00  0.00    -0.200 F 
ENDBRANCH  52  66
BRANCH  53  77
ATOM     77  C   UNL A   1      39.127  31.940  35.411  1.00  0.00     0.064 A 
ATOM     78  C   UNL A   1      38.355  31.374  36.435  1.00  0.00     0.173 A 
ATOM     79  C   UNL A   1      39.438  33.304  35.504  1.00  0.00     0.173 A 
ATOM     80  F   UNL A   1      38.015  30.078  36.377  1.00  0.00    -0.203 F 
ATOM     81  C   UNL A   1      37.894  32.147  37.498  1.00  0.00     0.198 A 
ATOM     82  C   UNL A   1      38.997  34.071  36.581  1.00  0.00     0.198 A 
ATOM     83  F   UNL A   1      40.177  33.892  34.552  1.00  0.00    -0.203 F 
ATOM     84  F   UNL A   1      37.121  31.591  38.442  1.00  0.00    -0.200 F 
ATOM     85  C   UNL A   1      38.219  33.492  37.573  1.00  0.00     0.200 A 
ATOM     86  F   UNL A   1      39.324  35.367  36.656  1.00  0.00    -0.200 F 
ATOM     87  F   UNL A   1      37.778  34.235  38.597  1.00  0.00    -0.200 F 
ENDBRANCH  53  77
BRANCH  65  88
ATOM     88  C   UNL A   1      44.746  27.971  34.343  1.00  0.00     0.064 A 
ATOM     89  C   UNL A   1      44.777  26.882  35.225  1.00  0.00     0.173 A 
ATOM     90  C   UNL A   1      45.896  28.766  34.235  1.00  0.00     0.173 A 
ATOM     91  F   UNL A   1      43.695  26.103  35.376  1.00  0.00    -0.203 F 
ATOM     92  C   UNL A   1      45.912  26.610  35.983  1.00  0.00     0.198 A 
ATOM     93  C   UNL A   1      47.038  28.477  34.977  1.00  0.00     0.198 A 
ATOM     94  F   UNL A   1      45.915  29.817  33.401  1.00  0.00    -0.203 F 
ATOM     95  F   UNL A   1      45.908  25.588  36.851  1.00  0.00    -0.200 F 
ATOM     96  C   UNL A   1      47.043  27.403  35.854  1.00  0.00     0.200 A 
ATOM     97  F   UNL A   1      48.133  29.238  34.844  1.00  0.00    -0.200 F 
ATOM     98  F   UNL A   1      48.136  27.137  36.582  1.00  0.00    -0.200 F 
ENDBRANCH  65  88
ENDBRANCH  39  40
ENDBRANCH  31  34
ENDBRANCH  29  30
ENDBRANCH  28  29
ENDBRANCH   1  28
TORSDOF 14
ENDMDL
MODEL 3
REMARK VINA RESULT:     -13.0      0.452      7.068
REMARK SMILES COc1ccc2[nH]c(C(=O)c3cc(C)ccn3)c(CC(=O)NCCCNC(=O)c3ccc(-c4c5nc(c(-c6c(F)c(F)c(F)c(F)c6F)c6ccc([nH]6)c(-c6c(F)c(F)c(F)c(F)c6F)c6nc(c(-c7c(F)c(F)c(F)c(F)c7F)c7ccc4[nH]7)C=C6)C=C5)cc3)c2c1
REMARK SMILES IDX 23 1 22 2 20 3 21 4 19 6 18 7 3 8 4 9 93 10 5 11 92 12 6 13
REMARK SMILES IDX 7 14 8 15 2 17 1 18 9 19 10 20 11 21 12 22 17 23 13 24 16 25
REMARK SMILES IDX 14 26 15 27 24 28 25 29 26 30 27 31 28 33 29 34 30 35 91 36
REMARK SMILES IDX 31 37 90 38 32 39 33 40 34 41 84 42 35 43 89 44 83 45 85 46
REMARK SMILES IDX 36 47 88 48 82 49 81 50 37 52 69 53 49 54 68 55 50 56 53 57
REMARK SMILES IDX 67 58 86 59 51 60 52 61 66 63 87 64 54 65 38 66 39 67 47 68
REMARK SMILES IDX 40 69 41 70 45 71 48 72 42 73 43 74 46 75 44 76 70 77 71 78
REMARK SMILES IDX 79 79 72 80 73 81 77 82 80 83 74 84 75 85 78 86 76 87 55 88
REMARK SMILES IDX 56 89 64 90 57 91 58 92 62 93 65 94 59 95 60 96 63 97 61 98
REMARK H PARENT 22 5 7 16 26 32 85 51 53 62
REMARK Flexibility Score: inf
ROOT
ATOM      1  C   UNL A   1      33.113  26.718  25.974  1.00  0.00     0.117 C 
ENDROOT
BRANCH   1   2
ATOM      2  N   UNL A   1      32.318  25.627  26.495  1.00  0.00    -0.356 N 
ATOM      3  C   UNL A   1      32.490  24.278  26.370  1.00  0.00     0.224 C 
ATOM      4  O   UNL A   1      31.784  23.564  27.088  1.00  0.00    -0.275 OA
ATOM      5  H   UNL A   1      31.531  25.899  27.021  1.00  0.00     0.163 HD
BRANCH   3   6
ATOM      6  C   UNL A   1      33.583  23.691  25.484  1.00  0.00     0.138 C 
BRANCH   6   7
ATOM      7  C   UNL A   1      33.089  22.944  24.273  1.00  0.00    -0.002 A 
ATOM      8  C   UNL A   1      32.487  19.192  24.807  1.00  0.00     0.119 A 
ATOM      9  C   UNL A   1      32.156  18.910  23.484  1.00  0.00     0.048 A 
ATOM     10  C   UNL A   1      32.774  20.507  25.191  1.00  0.00     0.057 A 
ATOM     11  C   UNL A   1      32.124  19.923  22.517  1.00  0.00     0.030 A 
ATOM     12  C   UNL A   1      32.776  21.542  24.233  1.00  0.00     0.008 A 
ATOM     13  C   UNL A   1      32.440  21.224  22.922  1.00  0.00     0.046 A 
ATOM     14  N   UNL A   1      32.494  22.391  22.200  1.00  0.00    -0.352 N 
ATOM     15  C   UNL A   1      32.802  23.466  23.009  1.00  0.00     0.093 A 
ATOM     16  H   UNL A   1      32.333  22.453  21.231  1.00  0.00     0.167 HD
BRANCH   8  17
ATOM     17  O   UNL A   1      32.539  18.278  25.825  1.00  0.00    -0.497 OA
ATOM     18  C   UNL A   1      32.650  16.915  25.437  1.00  0.00     0.278 C 
ENDBRANCH   8  17
BRANCH  15  19
ATOM     19  C   UNL A   1      32.824  24.860  22.578  1.00  0.00     0.227 C 
ATOM     20  O   UNL A   1      33.781  25.377  22.005  1.00  0.00    -0.285 OA
BRANCH  19  21
ATOM     21  C   UNL A   1      31.665  25.732  22.898  1.00  0.00     0.113 A 
ATOM     22  C   UNL A   1      31.648  27.047  22.441  1.00  0.00     0.036 A 
ATOM     23  N   UNL A   1      30.671  25.170  23.630  1.00  0.00    -0.253 NA
ATOM     24  C   UNL A   1      30.538  27.839  22.747  1.00  0.00    -0.047 A 
ATOM     25  C   UNL A   1      29.595  25.943  23.875  1.00  0.00     0.112 A 
ATOM     26  C   UNL A   1      30.450  29.265  22.294  1.00  0.00     0.044 C 
ATOM     27  C   UNL A   1      29.487  27.264  23.467  1.00  0.00     0.023 A 
ENDBRANCH  19  21
ENDBRANCH  15  19
ENDBRANCH   6   7
ENDBRANCH   3   6
ENDBRANCH   1   2
BRANCH   1  28
ATOM     28  C   UNL A   1      32.365  28.048  25.958  1.00  0.00     0.042 C 
BRANCH  28  29
ATOM     29  C   UNL A   1      33.148  29.209  25.348  1.00  0.00     0.118 C 
BRANCH  29  30
ATOM     30  N   UNL A   1      32.706  30.508  25.833  1.00  0.00    -0.352 N 
ATOM     31  C   UNL A   1      33.171  31.291  26.858  1.00  0.00     0.251 C 
ATOM     32  H   UNL A   1      31.944  30.891  25.341  1.00  0.00     0.163 HD
ATOM     33  O   UNL A   1      32.533  32.287  27.192  1.00  0.00    -0.269 OA
BRANCH  31  34
ATOM     34  C   UNL A   1      34.416  30.952  27.587  1.00  0.00     0.039 A 
ATOM     35  C   UNL A   1      35.413  31.929  27.689  1.00  0.00     0.014 A 
ATOM     36  C   UNL A   1      34.642  29.677  28.112  1.00  0.00     0.014 A 
ATOM     37  C   UNL A   1      36.604  31.649  28.367  1.00  0.00     0.010 A 
ATOM     38  C   UNL A   1      35.804  29.416  28.839  1.00  0.00     0.010 A 
ATOM     39  C   UNL A   1      36.796  30.399  28.973  1.00  0.00    -0.014 A 
BRANCH  39  40
ATOM     40  C   UNL A   1      38.022  30.107  29.760  1.00  0.00     0.031 A 
ATOM     41  C   UNL A   1      39.068  29.172  29.219  1.00  0.00     0.074 A 
ATOM     42  C   UNL A   1      38.163  30.633  30.992  1.00  0.00     0.049 A 
ATOM     43  N   UNL A   1      40.156  28.725  29.795  1.00  0.00    -0.248 NA
ATOM     44  C   UNL A   1      38.852  28.653  27.860  1.00  0.00     0.031 C 
ATOM     45  C   UNL A   1      37.202  31.521  31.646  1.00  0.00     0.029 A 
ATOM     46  N   UNL A   1      39.163  30.482  31.922  1.00  0.00    -0.354 N 
ATOM     47  C   UNL A   1      40.740  27.858  28.881  1.00  0.00     0.074 A 
ATOM     48  C   UNL A   1      39.870  27.815  27.724  1.00  0.00     0.031 C 
ATOM     49  C   UNL A   1      37.662  31.845  32.866  1.00  0.00     0.029 A 
ATOM     50  C   UNL A   1      38.931  31.160  33.094  1.00  0.00     0.049 A 
ATOM     51  H   UNL A   1      39.969  29.939  31.763  1.00  0.00     0.167 HD
ATOM     52  C   UNL A   1      41.903  27.173  28.990  1.00  0.00     0.037 A 
ATOM     53  C   UNL A   1      39.653  31.214  34.228  1.00  0.00     0.037 A 
ATOM     54  C   UNL A   1      42.788  27.244  30.123  1.00  0.00     0.049 A 
ATOM     55  C   UNL A   1      40.949  30.456  34.316  1.00  0.00     0.074 A 
ATOM     56  C   UNL A   1      44.020  26.637  30.296  1.00  0.00     0.029 A 
ATOM     57  N   UNL A   1      42.534  27.969  31.277  1.00  0.00    -0.354 N 
ATOM     58  N   UNL A   1      41.518  29.685  33.422  1.00  0.00    -0.248 NA
ATOM     59  C   UNL A   1      41.708  30.581  35.568  1.00  0.00     0.031 C 
ATOM     60  C   UNL A   1      44.498  26.969  31.569  1.00  0.00     0.029 A 
ATOM     61  C   UNL A   1      43.580  27.813  32.173  1.00  0.00     0.049 A 
ATOM     62  H   UNL A   1      41.731  28.515  31.437  1.00  0.00     0.167 HD
ATOM     63  C   UNL A   1      42.708  29.254  33.990  1.00  0.00     0.074 A 
ATOM     64  C   UNL A   1      42.787  29.859  35.303  1.00  0.00     0.031 C 
ATOM     65  C   UNL A   1      43.649  28.429  33.472  1.00  0.00     0.037 A 
BRANCH  52  66
ATOM     66  C   UNL A   1      42.297  26.282  27.849  1.00  0.00     0.064 A 
ATOM     67  C   UNL A   1      41.758  24.994  27.704  1.00  0.00     0.173 A 
ATOM     68  C   UNL A   1      43.181  26.740  26.861  1.00  0.00     0.173 A 
ATOM     69  F   UNL A   1      40.916  24.508  28.628  1.00  0.00    -0.203 F 
ATOM     70  C   UNL A   1      42.105  24.193  26.620  1.00  0.00     0.198 A 
ATOM     71  C   UNL A   1      43.505  25.944  25.765  1.00  0.00     0.198 A 
ATOM     72  F   UNL A   1      43.717  27.967  26.951  1.00  0.00    -0.203 F 
ATOM     73  F   UNL A   1      41.606  22.953  26.520  1.00  0.00    -0.200 F 
ATOM     74  C   UNL A   1      42.972  24.670  25.649  1.00  0.00     0.200 A 
ATOM     75  F   UNL A   1      44.334  26.412  24.822  1.00  0.00    -0.200 F 
ATOM     76  F   UNL A   1      43.296  23.900  24.600  1.00  0.00    -0.200 F 
ENDBRANCH  52  66
BRANCH  53  77
ATOM     77  C   UNL A   1      39.174  32.028  35.373  1.00  0.00     0.064 A 
ATOM     78  C   UNL A   1      39.501  33.388  35.475  1.00  0.00     0.173 A 
ATOM     79  C   UNL A   1      38.388  31.467  36.390  1.00  0.00     0.173 A 
ATOM     80  F   UNL A   1      40.268  33.963  34.537  1.00  0.00    -0.203 F 
ATOM     81  C   UNL A   1      39.076  34.150  36.561  1.00  0.00     0.198 A 
ATOM     82  C   UNL A   1      37.944  32.236  37.463  1.00  0.00     0.198 A 
ATOM     83  F   UNL A   1      38.046  30.172  36.337  1.00  0.00    -0.203 F 
ATOM     84  F   UNL A   1      39.438  35.437  36.655  1.00  0.00    -0.200 F 
ATOM     85  C   UNL A   1      38.295  33.575  37.550  1.00  0.00     0.200 A 
ATOM     86  F   UNL A   1      37.178  31.680  38.411  1.00  0.00    -0.200 F 
ATOM     87  F   UNL A   1      37.884  34.309  38.594  1.00  0.00    -0.200 F 
ENDBRANCH  53  77
BRANCH  65  88
ATOM     88  C   UNL A   1      44.862  28.158  34.311  1.00  0.00     0.064 A 
ATOM     89  C   UNL A   1      45.976  29.008  34.285  1.00  0.00     0.173 A 
ATOM     90  C   UNL A   1      44.893  27.054  35.177  1.00  0.00     0.173 A 
ATOM     91  F   UNL A   1      45.999  30.065  33.461  1.00  0.00    -0.203 F 
ATOM     92  C   UNL A   1      47.087  28.753  35.084  1.00  0.00     0.198 A 
ATOM     93  C   UNL A   1      45.996  26.816  35.992  1.00  0.00     0.198 A 
ATOM     94  F   UNL A   1      43.849  26.213  35.239  1.00  0.00    -0.203 F 
ATOM     95  F   UNL A   1      48.158  29.556  35.015  1.00  0.00    -0.200 F 
ATOM     96  C   UNL A   1      47.094  27.662  35.941  1.00  0.00     0.200 A 
ATOM     97  F   UNL A   1      45.998  25.768  36.826  1.00  0.00    -0.200 F 
ATOM     98  F   UNL A   1      48.162  27.421  36.712  1.00  0.00    -0.200 F 
ENDBRANCH  65  88
ENDBRANCH  39  40
ENDBRANCH  31  34
ENDBRANCH  29  30
ENDBRANCH  28  29
ENDBRANCH   1  28
TORSDOF 14
ENDMDL
