MODEL 1
REMARK VINA RESULT:     -13.4      0.000      0.000
REMARK SMILES CCN(CC)c1ncc(NC(=O)c2ccc(C)cc2)cc1C(=O)NCCCNC(=O)c1ccc(-c2c3nc(c(-c4c(F)c(F)c(F)c(F)c4F)c4ccc([nH]4)c(-c4c(F)c(F)c(F)c(F)c4F)c4nc(c(-c5c(F)c(F)c(F)c(F)c5F)c5ccc2[nH]5)C=C4)C=C3)cc1
REMARK SMILES IDX 26 1 25 2 24 3 22 4 23 5 21 7 6 8 7 9 8 10 20 11 9 12 3 13
REMARK SMILES IDX 2 14 1 15 4 16 5 17 10 18 11 19 12 21 13 22 14 23 19 24
REMARK SMILES IDX 15 25 18 26 16 27 17 28 27 29 28 30 29 31 30 33 31 34 32 35
REMARK SMILES IDX 93 36 33 37 92 38 34 39 35 40 36 41 86 42 37 43 91 44 85 45
REMARK SMILES IDX 87 46 38 47 90 48 84 49 83 50 39 52 71 53 51 54 70 55 52 56
REMARK SMILES IDX 55 57 69 58 88 59 53 60 54 61 68 63 89 64 56 65 40 66 41 67
REMARK SMILES IDX 49 68 42 69 43 70 47 71 50 72 44 73 45 74 48 75 46 76 72 77
REMARK SMILES IDX 73 78 81 79 74 80 75 81 79 82 82 83 76 84 77 85 80 86 78 87
REMARK SMILES IDX 57 88 58 89 66 90 59 91 60 92 64 93 67 94 61 95 62 96 65 97
REMARK SMILES IDX 63 98
REMARK H PARENT 24 6 10 20 28 32 87 51 55 62
REMARK Flexibility Score: inf
ROOT
ATOM      1  C   UNL A   1      32.673  31.195  27.226  1.00  0.00     0.042 C 
ENDROOT
BRANCH   1   2
ATOM      2  C   UNL A   1      32.099  30.360  26.085  1.00  0.00     0.118 C 
BRANCH   2   3
ATOM      3  N   UNL A   1      33.091  29.559  25.380  1.00  0.00    -0.352 N 
ATOM      4  C   UNL A   1      33.092  28.327  24.756  1.00  0.00     0.255 C 
ATOM      5  O   UNL A   1      33.998  28.200  23.930  1.00  0.00    -0.269 OA
ATOM      6  H   UNL A   1      33.969  30.001  25.338  1.00  0.00     0.163 HD
BRANCH   4   7
ATOM      7  C   UNL A   1      32.114  27.213  25.006  1.00  0.00     0.084 A 
ATOM      8  C   UNL A   1      30.881  27.147  24.320  1.00  0.00     0.141 A 
ATOM      9  N   UNL A   1      29.944  26.218  24.651  1.00  0.00    -0.236 NA
ATOM     10  C   UNL A   1      30.201  25.318  25.623  1.00  0.00     0.139 A 
ATOM     11  C   UNL A   1      32.348  26.226  25.979  1.00  0.00     0.045 A 
ATOM     12  C   UNL A   1      31.409  25.234  26.277  1.00  0.00     0.060 A 
BRANCH   8  13
ATOM     13  N   UNL A   1      30.527  27.965  23.259  1.00  0.00    -0.357 N 
BRANCH  13  14
ATOM     14  C   UNL A   1      31.272  27.807  22.010  1.00  0.00     0.114 C 
ATOM     15  C   UNL A   1      31.470  26.346  21.640  1.00  0.00     0.027 C 
ENDBRANCH  13  14
BRANCH  13  16
ATOM     16  C   UNL A   1      29.120  28.370  23.170  1.00  0.00     0.114 C 
ATOM     17  C   UNL A   1      28.913  29.795  22.662  1.00  0.00     0.027 C 
ENDBRANCH  13  16
ENDBRANCH   8  13
BRANCH  12  18
ATOM     18  N   UNL A   1      31.761  24.284  27.251  1.00  0.00    -0.321 N 
ATOM     19  C   UNL A   1      32.612  23.202  27.242  1.00  0.00     0.255 C 
ATOM     20  H   UNL A   1      31.306  24.418  28.114  1.00  0.00     0.170 HD
ATOM     21  O   UNL A   1      32.528  22.379  28.153  1.00  0.00    -0.269 OA
BRANCH  19  22
ATOM     22  C   UNL A   1      33.667  23.023  26.223  1.00  0.00     0.040 A 
ATOM     23  C   UNL A   1      34.933  23.558  26.478  1.00  0.00     0.014 A 
ATOM     24  C   UNL A   1      33.406  22.409  24.993  1.00  0.00     0.014 A 
ATOM     25  C   UNL A   1      35.955  23.414  25.538  1.00  0.00     0.004 A 
ATOM     26  C   UNL A   1      34.435  22.251  24.061  1.00  0.00     0.004 A 
ATOM     27  C   UNL A   1      35.721  22.735  24.335  1.00  0.00    -0.051 A 
ATOM     28  C   UNL A   1      36.828  22.583  23.333  1.00  0.00     0.044 C 
ENDBRANCH  19  22
ENDBRANCH  12  18
ENDBRANCH   4   7
ENDBRANCH   2   3
ENDBRANCH   1   2
BRANCH   1  29
ATOM     29  C   UNL A   1      33.968  30.619  27.784  1.00  0.00     0.118 C 
BRANCH  29  30
ATOM     30  N   UNL A   1      34.731  31.549  28.617  1.00  0.00    -0.352 N 
ATOM     31  C   UNL A   1      35.968  31.365  29.213  1.00  0.00     0.251 C 
ATOM     32  H   UNL A   1      34.307  32.424  28.774  1.00  0.00     0.163 HD
ATOM     33  O   UNL A   1      36.474  32.243  29.893  1.00  0.00    -0.269 OA
BRANCH  31  34
ATOM     34  C   UNL A   1      36.716  30.123  28.916  1.00  0.00     0.039 A 
ATOM     35  C   UNL A   1      36.963  29.229  29.963  1.00  0.00     0.014 A 
ATOM     36  C   UNL A   1      37.354  29.974  27.688  1.00  0.00     0.014 A 
ATOM     37  C   UNL A   1      38.034  28.344  29.857  1.00  0.00     0.010 A 
ATOM     38  C   UNL A   1      38.475  29.171  27.620  1.00  0.00     0.010 A 
ATOM     39  C   UNL A   1      38.855  28.409  28.731  1.00  0.00    -0.014 A 
BRANCH  39  40
ATOM     40  C   UNL A   1      40.188  27.821  28.687  1.00  0.00     0.031 A 
ATOM     41  C   UNL A   1      40.382  26.385  28.413  1.00  0.00     0.074 A 
ATOM     42  C   UNL A   1      41.280  28.611  28.811  1.00  0.00     0.049 A 
ATOM     43  N   UNL A   1      41.413  25.715  28.809  1.00  0.00    -0.248 NA
ATOM     44  C   UNL A   1      39.416  25.577  27.685  1.00  0.00     0.031 C 
ATOM     45  C   UNL A   1      42.666  28.246  28.521  1.00  0.00     0.029 A 
ATOM     46  N   UNL A   1      41.377  29.870  29.429  1.00  0.00    -0.354 N 
ATOM     47  C   UNL A   1      41.410  24.514  28.142  1.00  0.00     0.074 A 
ATOM     48  C   UNL A   1      40.106  24.442  27.520  1.00  0.00     0.031 C 
ATOM     49  C   UNL A   1      43.480  29.051  29.219  1.00  0.00     0.029 A 
ATOM     50  C   UNL A   1      42.642  29.877  30.066  1.00  0.00     0.049 A 
ATOM     51  H   UNL A   1      40.707  30.593  29.421  1.00  0.00     0.167 HD
ATOM     52  C   UNL A   1      42.564  23.787  28.073  1.00  0.00     0.037 A 
ATOM     53  C   UNL A   1      42.768  29.996  31.416  1.00  0.00     0.037 A 
ATOM     54  C   UNL A   1      43.660  24.424  28.810  1.00  0.00     0.049 A 
ATOM     55  C   UNL A   1      43.501  28.862  32.098  1.00  0.00     0.074 A 
ATOM     56  C   UNL A   1      44.801  25.116  28.433  1.00  0.00     0.029 A 
ATOM     57  N   UNL A   1      43.532  24.634  30.176  1.00  0.00    -0.354 N 
ATOM     58  N   UNL A   1      43.844  27.745  31.522  1.00  0.00    -0.248 NA
ATOM     59  C   UNL A   1      43.807  28.865  33.523  1.00  0.00     0.031 C 
ATOM     60  C   UNL A   1      45.405  25.663  29.596  1.00  0.00     0.029 A 
ATOM     61  C   UNL A   1      44.618  25.327  30.680  1.00  0.00     0.049 A 
ATOM     62  H   UNL A   1      42.768  24.330  30.717  1.00  0.00     0.167 HD
ATOM     63  C   UNL A   1      44.342  26.867  32.460  1.00  0.00     0.074 A 
ATOM     64  C   UNL A   1      44.280  27.619  33.700  1.00  0.00     0.031 C 
ATOM     65  C   UNL A   1      44.712  25.593  32.111  1.00  0.00     0.037 A 
BRANCH  52  66
ATOM     66  C   UNL A   1      42.770  22.640  27.100  1.00  0.00     0.064 A 
ATOM     67  C   UNL A   1      42.101  21.406  27.265  1.00  0.00     0.173 A 
ATOM     68  C   UNL A   1      43.659  22.675  26.010  1.00  0.00     0.173 A 
ATOM     69  F   UNL A   1      41.112  21.254  28.153  1.00  0.00    -0.203 F 
ATOM     70  C   UNL A   1      42.418  20.271  26.515  1.00  0.00     0.198 A 
ATOM     71  C   UNL A   1      44.020  21.527  25.296  1.00  0.00     0.198 A 
ATOM     72  F   UNL A   1      44.161  23.833  25.561  1.00  0.00    -0.203 F 
ATOM     73  F   UNL A   1      41.759  19.124  26.737  1.00  0.00    -0.200 F 
ATOM     74  C   UNL A   1      43.413  20.318  25.563  1.00  0.00     0.200 A 
ATOM     75  F   UNL A   1      44.964  21.603  24.347  1.00  0.00    -0.200 F 
ATOM     76  F   UNL A   1      43.759  19.216  24.886  1.00  0.00    -0.200 F 
ENDBRANCH  52  66
BRANCH  53  77
ATOM     77  C   UNL A   1      41.677  30.794  32.034  1.00  0.00     0.064 A 
ATOM     78  C   UNL A   1      41.768  32.198  31.990  1.00  0.00     0.173 A 
ATOM     79  C   UNL A   1      40.425  30.232  32.304  1.00  0.00     0.173 A 
ATOM     80  F   UNL A   1      42.946  32.785  31.727  1.00  0.00    -0.203 F 
ATOM     81  C   UNL A   1      40.634  33.000  32.099  1.00  0.00     0.198 A 
ATOM     82  C   UNL A   1      39.293  31.039  32.425  1.00  0.00     0.198 A 
ATOM     83  F   UNL A   1      40.272  28.900  32.333  1.00  0.00    -0.203 F 
ATOM     84  F   UNL A   1      40.735  34.327  31.941  1.00  0.00    -0.200 F 
ATOM     85  C   UNL A   1      39.393  32.417  32.289  1.00  0.00     0.200 A 
ATOM     86  F   UNL A   1      38.086  30.475  32.578  1.00  0.00    -0.200 F 
ATOM     87  F   UNL A   1      38.289  33.178  32.299  1.00  0.00    -0.200 F 
ENDBRANCH  53  77
BRANCH  65  88
ATOM     88  C   UNL A   1      45.188  24.459  33.017  1.00  0.00     0.064 A 
ATOM     89  C   UNL A   1      44.432  23.332  33.373  1.00  0.00     0.173 A 
ATOM     90  C   UNL A   1      46.473  24.512  33.626  1.00  0.00     0.173 A 
ATOM     91  F   UNL A   1      43.147  23.209  33.025  1.00  0.00    -0.203 F 
ATOM     92  C   UNL A   1      44.951  22.300  34.173  1.00  0.00     0.198 A 
ATOM     93  C   UNL A   1      46.972  23.506  34.455  1.00  0.00     0.198 A 
ATOM     94  F   UNL A   1      47.310  25.543  33.446  1.00  0.00    -0.203 F 
ATOM     95  F   UNL A   1      44.198  21.222  34.430  1.00  0.00    -0.200 F 
ATOM     96  C   UNL A   1      46.219  22.386  34.710  1.00  0.00     0.200 A 
ATOM     97  F   UNL A   1      48.192  23.637  34.997  1.00  0.00    -0.200 F 
ATOM     98  F   UNL A   1      46.705  21.406  35.483  1.00  0.00    -0.200 F 
ENDBRANCH  65  88
ENDBRANCH  39  40
ENDBRANCH  31  34
ENDBRANCH  29  30
ENDBRANCH   1  29
TORSDOF 15
ENDMDL
MODEL 2
REMARK VINA RESULT:     -13.1      1.652      2.149
REMARK SMILES CCN(CC)c1ncc(NC(=O)c2ccc(C)cc2)cc1C(=O)NCCCNC(=O)c1ccc(-c2c3nc(c(-c4c(F)c(F)c(F)c(F)c4F)c4ccc([nH]4)c(-c4c(F)c(F)c(F)c(F)c4F)c4nc(c(-c5c(F)c(F)c(F)c(F)c5F)c5ccc2[nH]5)C=C4)C=C3)cc1
REMARK SMILES IDX 26 1 25 2 24 3 22 4 23 5 21 7 6 8 7 9 8 10 20 11 9 12 3 13
REMARK SMILES IDX 2 14 1 15 4 16 5 17 10 18 11 19 12 21 13 22 14 23 19 24
REMARK SMILES IDX 15 25 18 26 16 27 17 28 27 29 28 30 29 31 30 33 31 34 32 35
REMARK SMILES IDX 93 36 33 37 92 38 34 39 35 40 36 41 86 42 37 43 91 44 85 45
REMARK SMILES IDX 87 46 38 47 90 48 84 49 83 50 39 52 71 53 51 54 70 55 52 56
REMARK SMILES IDX 55 57 69 58 88 59 53 60 54 61 68 63 89 64 56 65 40 66 41 67
REMARK SMILES IDX 49 68 42 69 43 70 47 71 50 72 44 73 45 74 48 75 46 76 72 77
REMARK SMILES IDX 73 78 81 79 74 80 75 81 79 82 82 83 76 84 77 85 80 86 78 87
REMARK SMILES IDX 57 88 58 89 66 90 59 91 60 92 64 93 67 94 61 95 62 96 65 97
REMARK SMILES IDX 63 98
REMARK H PARENT 24 6 10 20 28 32 87 51 55 62
REMARK Flexibility Score: inf
ROOT
ATOM      1  C   UNL A   1      32.749  29.228  27.394  1.00  0.00     0.042 C 
ENDROOT
BRANCH   1   2
ATOM      2  C   UNL A   1      32.634  27.790  26.896  1.00  0.00     0.118 C 
BRANCH   2   3
ATOM      3  N   UNL A   1      31.264  27.307  26.790  1.00  0.00    -0.352 N 
ATOM      4  C   UNL A   1      30.637  26.279  26.114  1.00  0.00     0.255 C 
ATOM      5  O   UNL A   1      29.557  25.955  26.613  1.00  0.00    -0.269 OA
ATOM      6  H   UNL A   1      30.636  27.840  27.328  1.00  0.00     0.163 HD
BRANCH   4   7
ATOM      7  C   UNL A   1      31.164  25.579  24.892  1.00  0.00     0.084 A 
ATOM      8  C   UNL A   1      31.318  26.258  23.662  1.00  0.00     0.141 A 
ATOM      9  N   UNL A   1      31.661  25.587  22.530  1.00  0.00    -0.236 NA
ATOM     10  C   UNL A   1      31.898  24.260  22.579  1.00  0.00     0.139 A 
ATOM     11  C   UNL A   1      31.464  24.206  24.896  1.00  0.00     0.045 A 
ATOM     12  C   UNL A   1      31.876  23.529  23.745  1.00  0.00     0.060 A 
BRANCH   8  13
ATOM     13  N   UNL A   1      31.175  27.626  23.497  1.00  0.00    -0.357 N 
BRANCH  13  14
ATOM     14  C   UNL A   1      32.339  28.371  23.017  1.00  0.00     0.114 C 
ATOM     15  C   UNL A   1      33.619  27.951  23.721  1.00  0.00     0.027 C 
ENDBRANCH  13  14
BRANCH  13  16
ATOM     16  C   UNL A   1      29.845  28.116  23.120  1.00  0.00     0.114 C 
ATOM     17  C   UNL A   1      29.862  29.434  22.349  1.00  0.00     0.027 C 
ENDBRANCH  13  16
ENDBRANCH   8  13
BRANCH  12  18
ATOM     18  N   UNL A   1      32.173  22.160  23.872  1.00  0.00    -0.321 N 
ATOM     19  C   UNL A   1      33.348  21.470  24.063  1.00  0.00     0.255 C 
ATOM     20  H   UNL A   1      31.381  21.578  23.810  1.00  0.00     0.170 HD
ATOM     21  O   UNL A   1      33.355  20.254  23.871  1.00  0.00    -0.269 OA
BRANCH  19  22
ATOM     22  C   UNL A   1      34.583  22.113  24.556  1.00  0.00     0.040 A 
ATOM     23  C   UNL A   1      34.720  22.318  25.933  1.00  0.00     0.014 A 
ATOM     24  C   UNL A   1      35.567  22.588  23.681  1.00  0.00     0.014 A 
ATOM     25  C   UNL A   1      35.871  22.927  26.438  1.00  0.00     0.004 A 
ATOM     26  C   UNL A   1      36.724  23.182  24.190  1.00  0.00     0.004 A 
ATOM     27  C   UNL A   1      36.893  23.338  25.572  1.00  0.00    -0.051 A 
ATOM     28  C   UNL A   1      38.127  23.989  26.125  1.00  0.00     0.044 C 
ENDBRANCH  19  22
ENDBRANCH  12  18
ENDBRANCH   4   7
ENDBRANCH   2   3
ENDBRANCH   1   2
BRANCH   1  29
ATOM     29  C   UNL A   1      34.116  29.840  27.115  1.00  0.00     0.118 C 
BRANCH  29  30
ATOM     30  N   UNL A   1      34.530  30.855  28.083  1.00  0.00    -0.352 N 
ATOM     31  C   UNL A   1      35.656  30.875  28.891  1.00  0.00     0.251 C 
ATOM     32  H   UNL A   1      33.927  31.628  28.173  1.00  0.00     0.163 HD
ATOM     33  O   UNL A   1      35.859  31.799  29.662  1.00  0.00    -0.269 OA
BRANCH  31  34
ATOM     34  C   UNL A   1      36.667  29.809  28.718  1.00  0.00     0.039 A 
ATOM     35  C   UNL A   1      36.925  28.955  29.796  1.00  0.00     0.014 A 
ATOM     36  C   UNL A   1      37.498  29.815  27.601  1.00  0.00     0.014 A 
ATOM     37  C   UNL A   1      38.151  28.298  29.858  1.00  0.00     0.010 A 
ATOM     38  C   UNL A   1      38.751  29.246  27.709  1.00  0.00     0.010 A 
ATOM     39  C   UNL A   1      39.102  28.546  28.868  1.00  0.00    -0.014 A 
BRANCH  39  40
ATOM     40  C   UNL A   1      40.516  28.229  29.030  1.00  0.00     0.031 A 
ATOM     41  C   UNL A   1      41.095  27.001  28.452  1.00  0.00     0.074 A 
ATOM     42  C   UNL A   1      41.341  29.109  29.643  1.00  0.00     0.049 A 
ATOM     43  N   UNL A   1      42.150  26.421  28.919  1.00  0.00    -0.248 NA
ATOM     44  C   UNL A   1      40.519  26.312  27.308  1.00  0.00     0.031 C 
ATOM     45  C   UNL A   1      42.803  29.085  29.648  1.00  0.00     0.029 A 
ATOM     46  N   UNL A   1      41.009  30.110  30.571  1.00  0.00    -0.354 N 
ATOM     47  C   UNL A   1      42.568  25.503  27.986  1.00  0.00     0.074 A 
ATOM     48  C   UNL A   1      41.475  25.415  27.042  1.00  0.00     0.031 C 
ATOM     49  C   UNL A   1      43.242  29.755  30.723  1.00  0.00     0.029 A 
ATOM     50  C   UNL A   1      42.077  30.127  31.502  1.00  0.00     0.049 A 
ATOM     51  H   UNL A   1      40.204  30.680  30.574  1.00  0.00     0.167 HD
ATOM     52  C   UNL A   1      43.849  25.034  28.040  1.00  0.00     0.037 A 
ATOM     53  C   UNL A   1      41.889  29.839  32.819  1.00  0.00     0.037 A 
ATOM     54  C   UNL A   1      44.587  25.581  29.182  1.00  0.00     0.049 A 
ATOM     55  C   UNL A   1      42.711  28.686  33.350  1.00  0.00     0.074 A 
ATOM     56  C   UNL A   1      45.586  26.533  29.318  1.00  0.00     0.029 A 
ATOM     57  N   UNL A   1      44.134  25.332  30.471  1.00  0.00    -0.354 N 
ATOM     58  N   UNL A   1      43.419  27.876  32.615  1.00  0.00    -0.248 NA
ATOM     59  C   UNL A   1      42.706  28.296  34.755  1.00  0.00     0.031 C 
ATOM     60  C   UNL A   1      45.790  26.782  30.701  1.00  0.00     0.029 A 
ATOM     61  C   UNL A   1      44.897  26.002  31.409  1.00  0.00     0.049 A 
ATOM     62  H   UNL A   1      43.368  24.753  30.689  1.00  0.00     0.167 HD
ATOM     63  C   UNL A   1      43.905  26.844  33.389  1.00  0.00     0.074 A 
ATOM     64  C   UNL A   1      43.412  27.152  34.720  1.00  0.00     0.031 C 
ATOM     65  C   UNL A   1      44.628  25.821  32.831  1.00  0.00     0.037 A 
BRANCH  52  66
ATOM     66  C   UNL A   1      44.516  24.297  26.893  1.00  0.00     0.064 A 
ATOM     67  C   UNL A   1      44.252  22.931  26.643  1.00  0.00     0.173 A 
ATOM     68  C   UNL A   1      45.471  24.868  26.031  1.00  0.00     0.173 A 
ATOM     69  F   UNL A   1      43.263  22.279  27.265  1.00  0.00    -0.203 F 
ATOM     70  C   UNL A   1      44.994  22.174  25.733  1.00  0.00     0.198 A 
ATOM     71  C   UNL A   1      46.255  24.101  25.161  1.00  0.00     0.198 A 
ATOM     72  F   UNL A   1      45.635  26.195  25.961  1.00  0.00    -0.203 F 
ATOM     73  F   UNL A   1      44.705  20.876  25.559  1.00  0.00    -0.200 F 
ATOM     74  C   UNL A   1      46.028  22.747  25.027  1.00  0.00     0.200 A 
ATOM     75  F   UNL A   1      47.232  24.687  24.455  1.00  0.00    -0.200 F 
ATOM     76  F   UNL A   1      46.779  22.010  24.199  1.00  0.00    -0.200 F 
ENDBRANCH  52  66
BRANCH  53  77
ATOM     77  C   UNL A   1      40.537  30.215  33.309  1.00  0.00     0.064 A 
ATOM     78  C   UNL A   1      40.259  31.578  33.525  1.00  0.00     0.173 A 
ATOM     79  C   UNL A   1      39.452  29.339  33.199  1.00  0.00     0.173 A 
ATOM     80  F   UNL A   1      41.267  32.459  33.630  1.00  0.00    -0.203 F 
ATOM     81  C   UNL A   1      38.952  32.059  33.518  1.00  0.00     0.198 A 
ATOM     82  C   UNL A   1      38.143  29.823  33.205  1.00  0.00     0.198 A 
ATOM     83  F   UNL A   1      39.655  28.034  32.967  1.00  0.00    -0.203 F 
ATOM     84  F   UNL A   1      38.722  33.375  33.614  1.00  0.00    -0.200 F 
ATOM     85  C   UNL A   1      37.896  31.184  33.330  1.00  0.00     0.200 A 
ATOM     86  F   UNL A   1      37.121  28.982  32.993  1.00  0.00    -0.200 F 
ATOM     87  F   UNL A   1      36.645  31.654  33.227  1.00  0.00    -0.200 F 
ENDBRANCH  53  77
BRANCH  65  88
ATOM     88  C   UNL A   1      45.160  24.556  33.502  1.00  0.00     0.064 A 
ATOM     89  C   UNL A   1      44.382  23.454  33.890  1.00  0.00     0.173 A 
ATOM     90  C   UNL A   1      46.538  24.440  33.838  1.00  0.00     0.173 A 
ATOM     91  F   UNL A   1      43.048  23.469  33.801  1.00  0.00    -0.203 F 
ATOM     92  C   UNL A   1      44.945  22.299  34.459  1.00  0.00     0.198 A 
ATOM     93  C   UNL A   1      47.089  23.310  34.443  1.00  0.00     0.198 A 
ATOM     94  F   UNL A   1      47.418  25.421  33.596  1.00  0.00    -0.203 F 
ATOM     95  F   UNL A   1      44.156  21.257  34.755  1.00  0.00    -0.200 F 
ATOM     96  C   UNL A   1      46.296  22.227  34.732  1.00  0.00     0.200 A 
ATOM     97  F   UNL A   1      48.398  23.285  34.734  1.00  0.00    -0.200 F 
ATOM     98  F   UNL A   1      46.826  21.129  35.287  1.00  0.00    -0.200 F 
ENDBRANCH  65  88
ENDBRANCH  39  40
ENDBRANCH  31  34
ENDBRANCH  29  30
ENDBRANCH   1  29
TORSDOF 15
ENDMDL
MODEL 3
REMARK VINA RESULT:     -13.0      1.541      2.010
REMARK SMILES CCN(CC)c1ncc(NC(=O)c2ccc(C)cc2)cc1C(=O)NCCCNC(=O)c1ccc(-c2c3nc(c(-c4c(F)c(F)c(F)c(F)c4F)c4ccc([nH]4)c(-c4c(F)c(F)c(F)c(F)c4F)c4nc(c(-c5c(F)c(F)c(F)c(F)c5F)c5ccc2[nH]5)C=C4)C=C3)cc1
REMARK SMILES IDX 26 1 25 2 24 3 22 4 23 5 21 7 6 8 7 9 8 10 20 11 9 12 3 13
REMARK SMILES IDX 2 14 1 15 4 16 5 17 10 18 11 19 12 21 13 22 14 23 19 24
REMARK SMILES IDX 15 25 18 26 16 27 17 28 27 29 28 30 29 31 30 33 31 34 32 35
REMARK SMILES IDX 93 36 33 37 92 38 34 39 35 40 36 41 86 42 37 43 91 44 85 45
REMARK SMILES IDX 87 46 38 47 90 48 84 49 83 50 39 52 71 53 51 54 70 55 52 56
REMARK SMILES IDX 55 57 69 58 88 59 53 60 54 61 68 63 89 64 56 65 40 66 41 67
REMARK SMILES IDX 49 68 42 69 43 70 47 71 50 72 44 73 45 74 48 75 46 76 72 77
REMARK SMILES IDX 73 78 81 79 74 80 75 81 79 82 82 83 76 84 77 85 80 86 78 87
REMARK SMILES IDX 57 88 58 89 66 90 59 91 60 92 64 93 67 94 61 95 62 96 65 97
REMARK SMILES IDX 63 98
REMARK H PARENT 24 6 10 20 28 32 87 51 55 62
REMARK Flexibility Score: inf
ROOT
ATOM      1  C   UNL A   1      33.064  30.091  27.528  1.00  0.00     0.042 C 
ENDROOT
BRANCH   1   2
ATOM      2  C   UNL A   1      33.484  28.682  27.119  1.00  0.00     0.118 C 
BRANCH   2   3
ATOM      3  N   UNL A   1      32.377  27.743  27.004  1.00  0.00    -0.352 N 
ATOM      4  C   UNL A   1      32.209  26.488  26.453  1.00  0.00     0.255 C 
ATOM      5  O   UNL A   1      31.254  25.870  26.928  1.00  0.00    -0.269 OA
ATOM      6  H   UNL A   1      31.551  28.084  27.417  1.00  0.00     0.163 HD
BRANCH   4   7
ATOM      7  C   UNL A   1      33.071  25.874  25.384  1.00  0.00     0.084 A 
ATOM      8  C   UNL A   1      32.715  25.950  24.018  1.00  0.00     0.141 A 
ATOM      9  N   UNL A   1      33.423  25.275  23.072  1.00  0.00    -0.236 NA
ATOM     10  C   UNL A   1      34.503  24.550  23.428  1.00  0.00     0.139 A 
ATOM     11  C   UNL A   1      34.228  25.141  25.694  1.00  0.00     0.045 A 
ATOM     12  C   UNL A   1      34.990  24.498  24.715  1.00  0.00     0.060 A 
BRANCH   8  13
ATOM     13  N   UNL A   1      31.675  26.716  23.517  1.00  0.00    -0.357 N 
BRANCH  13  14
ATOM     14  C   UNL A   1      32.027  27.889  22.718  1.00  0.00     0.114 C 
ATOM     15  C   UNL A   1      33.017  28.794  23.432  1.00  0.00     0.027 C 
ENDBRANCH  13  14
BRANCH  13  16
ATOM     16  C   UNL A   1      30.427  26.015  23.194  1.00  0.00     0.114 C 
ATOM     17  C   UNL A   1      29.259  26.368  24.109  1.00  0.00     0.027 C 
ENDBRANCH  13  16
ENDBRANCH   8  13
BRANCH  12  18
ATOM     18  N   UNL A   1      36.143  23.814  25.138  1.00  0.00    -0.321 N 
ATOM     19  C   UNL A   1      36.345  22.564  25.678  1.00  0.00     0.255 C 
ATOM     20  H   UNL A   1      36.972  24.333  25.028  1.00  0.00     0.170 HD
ATOM     21  O   UNL A   1      37.430  22.320  26.207  1.00  0.00    -0.269 OA
BRANCH  19  22
ATOM     22  C   UNL A   1      35.343  21.482  25.590  1.00  0.00     0.040 A 
ATOM     23  C   UNL A   1      35.637  20.369  24.797  1.00  0.00     0.014 A 
ATOM     24  C   UNL A   1      34.093  21.583  26.209  1.00  0.00     0.014 A 
ATOM     25  C   UNL A   1      34.715  19.327  24.684  1.00  0.00     0.004 A 
ATOM     26  C   UNL A   1      33.178  20.532  26.109  1.00  0.00     0.004 A 
ATOM     27  C   UNL A   1      33.490  19.389  25.361  1.00  0.00    -0.051 A 
ATOM     28  C   UNL A   1      32.507  18.263  25.236  1.00  0.00     0.044 C 
ENDBRANCH  19  22
ENDBRANCH  12  18
ENDBRANCH   4   7
ENDBRANCH   2   3
ENDBRANCH   1   2
BRANCH   1  29
ATOM     29  C   UNL A   1      34.201  31.099  27.417  1.00  0.00     0.118 C 
BRANCH  29  30
ATOM     30  N   UNL A   1      34.575  31.726  28.684  1.00  0.00    -0.352 N 
ATOM     31  C   UNL A   1      35.541  31.329  29.597  1.00  0.00     0.251 C 
ATOM     32  H   UNL A   1      34.073  32.539  28.921  1.00  0.00     0.163 HD
ATOM     33  O   UNL A   1      35.730  31.959  30.624  1.00  0.00    -0.269 OA
BRANCH  31  34
ATOM     34  C   UNL A   1      36.416  30.189  29.245  1.00  0.00     0.039 A 
ATOM     35  C   UNL A   1      36.761  29.280  30.252  1.00  0.00     0.014 A 
ATOM     36  C   UNL A   1      37.063  30.164  28.013  1.00  0.00     0.014 A 
ATOM     37  C   UNL A   1      37.921  28.522  30.109  1.00  0.00     0.010 A 
ATOM     38  C   UNL A   1      38.263  29.490  27.911  1.00  0.00     0.010 A 
ATOM     39  C   UNL A   1      38.726  28.724  28.987  1.00  0.00    -0.014 A 
BRANCH  39  40
ATOM     40  C   UNL A   1      40.115  28.285  28.919  1.00  0.00     0.031 A 
ATOM     41  C   UNL A   1      40.463  26.915  28.499  1.00  0.00     0.074 A 
ATOM     42  C   UNL A   1      41.114  29.165  29.159  1.00  0.00     0.049 A 
ATOM     43  N   UNL A   1      41.552  26.316  28.850  1.00  0.00    -0.248 NA
ATOM     44  C   UNL A   1      39.601  26.096  27.661  1.00  0.00     0.031 C 
ATOM     45  C   UNL A   1      42.536  28.978  28.872  1.00  0.00     0.029 A 
ATOM     46  N   UNL A   1      41.067  30.351  29.911  1.00  0.00    -0.354 N 
ATOM     47  C   UNL A   1      41.688  25.201  28.059  1.00  0.00     0.074 A 
ATOM     48  C   UNL A   1      40.410  25.064  27.396  1.00  0.00     0.031 C 
ATOM     49  C   UNL A   1      43.248  29.782  29.675  1.00  0.00     0.029 A 
ATOM     50  C   UNL A   1      42.313  30.419  30.581  1.00  0.00     0.049 A 
ATOM     51  H   UNL A   1      40.325  30.999  29.961  1.00  0.00     0.167 HD
ATOM     52  C   UNL A   1      42.913  24.609  27.946  1.00  0.00     0.037 A 
ATOM     53  C   UNL A   1      42.402  30.402  31.939  1.00  0.00     0.037 A 
ATOM     54  C   UNL A   1      43.923  25.271  28.778  1.00  0.00     0.049 A 
ATOM     55  C   UNL A   1      43.238  29.282  32.517  1.00  0.00     0.074 A 
ATOM     56  C   UNL A   1      44.991  26.114  28.510  1.00  0.00     0.029 A 
ATOM     57  N   UNL A   1      43.749  25.316  30.155  1.00  0.00    -0.354 N 
ATOM     58  N   UNL A   1      43.708  28.276  31.834  1.00  0.00    -0.248 NA
ATOM     59  C   UNL A   1      43.518  29.160  33.942  1.00  0.00     0.031 C 
ATOM     60  C   UNL A   1      45.513  26.589  29.742  1.00  0.00     0.029 A 
ATOM     61  C   UNL A   1      44.747  26.058  30.761  1.00  0.00     0.049 A 
ATOM     62  H   UNL A   1      43.013  24.877  30.637  1.00  0.00     0.167 HD
ATOM     63  C   UNL A   1      44.279  27.357  32.687  1.00  0.00     0.074 A 
ATOM     64  C   UNL A   1      44.116  27.959  33.998  1.00  0.00     0.031 C 
ATOM     65  C   UNL A   1      44.787  26.174  32.215  1.00  0.00     0.037 A 
BRANCH  52  66
ATOM     66  C   UNL A   1      43.256  23.603  26.862  1.00  0.00     0.064 A 
ATOM     67  C   UNL A   1      42.898  22.241  26.982  1.00  0.00     0.173 A 
ATOM     68  C   UNL A   1      43.988  23.907  25.700  1.00  0.00     0.173 A 
ATOM     69  F   UNL A   1      42.072  21.812  27.944  1.00  0.00    -0.203 F 
ATOM     70  C   UNL A   1      43.371  21.257  26.110  1.00  0.00     0.198 A 
ATOM     71  C   UNL A   1      44.511  22.919  24.858  1.00  0.00     0.198 A 
ATOM     72  F   UNL A   1      44.170  25.175  25.307  1.00  0.00    -0.203 F 
ATOM     73  F   UNL A   1      43.009  19.979  26.294  1.00  0.00    -0.200 F 
ATOM     74  C   UNL A   1      44.218  21.589  25.076  1.00  0.00     0.200 A 
ATOM     75  F   UNL A   1      45.303  23.268  23.834  1.00  0.00    -0.200 F 
ATOM     76  F   UNL A   1      44.720  20.640  24.276  1.00  0.00    -0.200 F 
ENDBRANCH  52  66
BRANCH  53  77
ATOM     77  C   UNL A   1      41.222  31.011  32.607  1.00  0.00     0.064 A 
ATOM     78  C   UNL A   1      41.122  32.415  32.637  1.00  0.00     0.173 A 
ATOM     79  C   UNL A   1      40.062  30.271  32.856  1.00  0.00     0.173 A 
ATOM     80  F   UNL A   1      42.205  33.170  32.397  1.00  0.00    -0.203 F 
ATOM     81  C   UNL A   1      39.891  33.048  32.798  1.00  0.00     0.198 A 
ATOM     82  C   UNL A   1      38.833  30.909  33.028  1.00  0.00     0.198 A 
ATOM     83  F   UNL A   1      40.091  28.931  32.814  1.00  0.00    -0.203 F 
ATOM     84  F   UNL A   1      39.809  34.383  32.711  1.00  0.00    -0.200 F 
ATOM     85  C   UNL A   1      38.744  32.293  32.966  1.00  0.00     0.200 A 
ATOM     86  F   UNL A   1      37.716  30.179  33.161  1.00  0.00    -0.200 F 
ATOM     87  F   UNL A   1      37.547  32.895  33.024  1.00  0.00    -0.200 F 
ENDBRANCH  53  77
BRANCH  65  88
ATOM     88  C   UNL A   1      45.365  25.003  33.008  1.00  0.00     0.064 A 
ATOM     89  C   UNL A   1      44.649  23.867  33.417  1.00  0.00     0.173 A 
ATOM     90  C   UNL A   1      46.719  25.023  33.445  1.00  0.00     0.173 A 
ATOM     91  F   UNL A   1      43.328  23.766  33.235  1.00  0.00    -0.203 F 
ATOM     92  C   UNL A   1      45.255  22.802  34.102  1.00  0.00     0.198 A 
ATOM     93  C   UNL A   1      47.310  23.983  34.163  1.00  0.00     0.198 A 
ATOM     94  F   UNL A   1      47.536  26.055  33.196  1.00  0.00    -0.203 F 
ATOM     95  F   UNL A   1      44.530  21.719  34.416  1.00  0.00    -0.200 F 
ATOM     96  C   UNL A   1      46.584  22.859  34.472  1.00  0.00     0.200 A 
ATOM     97  F   UNL A   1      48.591  24.085  34.545  1.00  0.00    -0.200 F 
ATOM     98  F   UNL A   1      47.155  21.846  35.138  1.00  0.00    -0.200 F 
ENDBRANCH  65  88
ENDBRANCH  39  40
ENDBRANCH  31  34
ENDBRANCH  29  30
ENDBRANCH   1  29
TORSDOF 15
ENDMDL
