MODEL 1
REMARK VINA RESULT:     -12.6      0.000      0.000
REMARK SMILES CCN(CC)S(=O)(=O)c1ccc(F)c(C(=O)N2CCC[C@H]2C(=O)NCCCNC(=O)c2ccc(-c3c4nc(c(-c5c(F)c(F)c(F)c(F)c5F)c5ccc([nH]5)c(-c5c(F)c(F)c(F)c(F)c5F)c5nc(c(-c6c(F)c(F)c(F)c(F)c6F)c6ccc3[nH]6)C=C5)C=C4)cc2)c1
REMARK SMILES IDX 22 1 23 2 24 3 21 5 17 6 18 7 19 8 20 9 15 10 16 11 14 12
REMARK SMILES IDX 9 13 10 14 94 15 11 16 12 17 13 18 6 19 7 20 8 21 3 22 2 23
REMARK SMILES IDX 1 24 4 25 5 26 25 27 26 28 27 29 28 30 29 31 30 33 31 34
REMARK SMILES IDX 32 35 93 36 33 37 92 38 34 39 35 40 36 41 86 42 37 43 91 44
REMARK SMILES IDX 85 45 87 46 38 47 90 48 84 49 83 50 39 52 71 53 51 54 70 55
REMARK SMILES IDX 52 56 55 57 69 58 88 59 53 60 54 61 68 63 89 64 56 65 40 66
REMARK SMILES IDX 41 67 49 68 42 69 43 70 47 71 50 72 44 73 45 74 48 75 46 76
REMARK SMILES IDX 72 77 73 78 81 79 74 80 75 81 79 82 82 83 76 84 77 85 80 86
REMARK SMILES IDX 78 87 57 88 58 89 66 90 59 91 60 92 64 93 67 94 61 95 62 96
REMARK SMILES IDX 65 97 63 98
REMARK H PARENT 24 4 28 32 87 51 55 62
REMARK Flexibility Score: inf
ROOT
ATOM      1  C   UNL A   1      30.971  29.280  23.827  1.00  0.00     0.242 C 
ATOM      2  O   UNL A   1      30.286  29.470  22.814  1.00  0.00    -0.273 OA
ATOM      3  N   UNL A   1      31.052  30.349  24.661  1.00  0.00    -0.354 N 
ATOM      4  H   UNL A   1      30.509  31.123  24.387  1.00  0.00     0.163 HD
ENDROOT
BRANCH   1   5
ATOM      5  C   UNL A   1      31.797  27.973  24.042  1.00  0.00     0.174 C 
ATOM      6  N   UNL A   1      31.226  26.779  23.407  1.00  0.00    -0.327 N 
ATOM      7  C   UNL A   1      31.869  26.509  22.142  1.00  0.00     0.121 C 
ATOM      8  C   UNL A   1      33.303  26.933  22.398  1.00  0.00     0.024 C 
ATOM      9  C   UNL A   1      33.168  28.133  23.333  1.00  0.00     0.037 C 
BRANCH   6  10
ATOM     10  C   UNL A   1      30.256  25.934  23.888  1.00  0.00     0.257 C 
ATOM     11  O   UNL A   1      29.091  25.994  23.501  1.00  0.00    -0.269 OA
BRANCH  10  12
ATOM     12  C   UNL A   1      30.631  24.803  24.778  1.00  0.00     0.077 A 
ATOM     13  C   UNL A   1      31.730  22.628  24.972  1.00  0.00     0.083 A 
ATOM     14  C   UNL A   1      32.075  22.936  26.290  1.00  0.00     0.025 A 
ATOM     15  C   UNL A   1      31.025  23.575  24.205  1.00  0.00     0.038 A 
ATOM     16  C   UNL A   1      31.613  24.110  26.881  1.00  0.00     0.041 A 
ATOM     17  C   UNL A   1      30.896  25.035  26.127  1.00  0.00     0.136 A 
ATOM     18  F   UNL A   1      30.580  26.191  26.719  1.00  0.00    -0.206 F 
BRANCH  13  19
ATOM     19  S   UNL A   1      32.407  21.171  24.173  1.00  0.00     0.243 S 
ATOM     20  O   UNL A   1      31.987  21.224  22.787  1.00  0.00    -0.207 OA
ATOM     21  O   UNL A   1      32.040  20.049  25.007  1.00  0.00    -0.207 OA
BRANCH  19  22
ATOM     22  N   UNL A   1      34.131  21.277  24.217  1.00  0.00    -0.198 NA
BRANCH  22  23
ATOM     23  C   UNL A   1      34.639  22.697  24.270  1.00  0.00     0.099 C 
ATOM     24  C   UNL A   1      34.568  23.400  22.928  1.00  0.00     0.022 C 
ENDBRANCH  22  23
BRANCH  22  25
ATOM     25  C   UNL A   1      34.898  20.433  25.184  1.00  0.00     0.099 C 
ATOM     26  C   UNL A   1      36.408  20.460  24.988  1.00  0.00     0.022 C 
ENDBRANCH  22  25
ENDBRANCH  19  22
ENDBRANCH  13  19
ENDBRANCH  10  12
ENDBRANCH   6  10
ENDBRANCH   1   5
BRANCH   3  27
ATOM     27  C   UNL A   1      31.801  30.541  25.883  1.00  0.00     0.117 C 
BRANCH  27  28
ATOM     28  C   UNL A   1      31.432  31.832  26.601  1.00  0.00     0.042 C 
BRANCH  28  29
ATOM     29  C   UNL A   1      32.611  32.563  27.233  1.00  0.00     0.118 C 
BRANCH  29  30
ATOM     30  N   UNL A   1      32.322  33.944  27.592  1.00  0.00    -0.352 N 
ATOM     31  C   UNL A   1      32.929  34.802  28.479  1.00  0.00     0.251 C 
ATOM     32  H   UNL A   1      31.553  34.332  27.116  1.00  0.00     0.163 HD
ATOM     33  O   UNL A   1      32.429  35.904  28.692  1.00  0.00    -0.269 OA
BRANCH  31  34
ATOM     34  C   UNL A   1      34.148  34.408  29.220  1.00  0.00     0.039 A 
ATOM     35  C   UNL A   1      34.004  33.841  30.490  1.00  0.00     0.014 A 
ATOM     36  C   UNL A   1      35.425  34.604  28.697  1.00  0.00     0.014 A 
ATOM     37  C   UNL A   1      35.126  33.374  31.181  1.00  0.00     0.010 A 
ATOM     38  C   UNL A   1      36.533  34.052  29.338  1.00  0.00     0.010 A 
ATOM     39  C   UNL A   1      36.394  33.417  30.580  1.00  0.00    -0.014 A 
BRANCH  39  40
ATOM     40  C   UNL A   1      37.579  32.774  31.206  1.00  0.00     0.031 A 
ATOM     41  C   UNL A   1      38.265  31.618  30.534  1.00  0.00     0.074 A 
ATOM     42  C   UNL A   1      37.978  33.170  32.432  1.00  0.00     0.049 A 
ATOM     43  N   UNL A   1      39.210  30.835  30.994  1.00  0.00    -0.248 NA
ATOM     44  C   UNL A   1      37.809  31.273  29.179  1.00  0.00     0.031 C 
ATOM     45  C   UNL A   1      37.370  34.249  33.213  1.00  0.00     0.029 A 
ATOM     46  N   UNL A   1      38.980  32.699  33.246  1.00  0.00    -0.354 N 
ATOM     47  C   UNL A   1      39.438  29.893  30.000  1.00  0.00     0.074 A 
ATOM     48  C   UNL A   1      38.509  30.175  28.927  1.00  0.00     0.031 C 
ATOM     49  C   UNL A   1      38.028  34.378  34.376  1.00  0.00     0.029 A 
ATOM     50  C   UNL A   1      39.069  33.357  34.448  1.00  0.00     0.049 A 
ATOM     51  H   UNL A   1      39.578  31.959  32.991  1.00  0.00     0.167 HD
ATOM     52  C   UNL A   1      40.354  28.897  29.977  1.00  0.00     0.037 A 
ATOM     53  C   UNL A   1      39.886  33.155  35.499  1.00  0.00     0.037 A 
ATOM     54  C   UNL A   1      41.317  28.655  31.018  1.00  0.00     0.049 A 
ATOM     55  C   UNL A   1      40.896  32.045  35.449  1.00  0.00     0.074 A 
ATOM     56  C   UNL A   1      42.344  27.728  31.041  1.00  0.00     0.029 A 
ATOM     57  N   UNL A   1      41.374  29.347  32.218  1.00  0.00    -0.354 N 
ATOM     58  N   UNL A   1      41.129  31.187  34.485  1.00  0.00    -0.248 NA
ATOM     59  C   UNL A   1      41.747  31.862  36.633  1.00  0.00     0.031 C 
ATOM     60  C   UNL A   1      43.003  27.836  32.268  1.00  0.00     0.029 A 
ATOM     61  C   UNL A   1      42.407  28.852  32.997  1.00  0.00     0.049 A 
ATOM     62  H   UNL A   1      40.771  30.081  32.477  1.00  0.00     0.167 HD
ATOM     63  C   UNL A   1      42.157  30.375  34.938  1.00  0.00     0.074 A 
ATOM     64  C   UNL A   1      42.515  30.846  36.260  1.00  0.00     0.031 C 
ATOM     65  C   UNL A   1      42.748  29.330  34.312  1.00  0.00     0.037 A 
BRANCH  52  66
ATOM     66  C   UNL A   1      40.382  27.998  28.778  1.00  0.00     0.064 A 
ATOM     67  C   UNL A   1      39.695  26.775  28.790  1.00  0.00     0.173 A 
ATOM     68  C   UNL A   1      41.146  28.312  27.646  1.00  0.00     0.173 A 
ATOM     69  F   UNL A   1      38.955  26.424  29.853  1.00  0.00    -0.203 F 
ATOM     70  C   UNL A   1      39.780  25.895  27.715  1.00  0.00     0.198 A 
ATOM     71  C   UNL A   1      41.211  27.440  26.562  1.00  0.00     0.198 A 
ATOM     72  F   UNL A   1      41.815  29.474  27.584  1.00  0.00    -0.203 F 
ATOM     73  F   UNL A   1      39.138  24.720  27.758  1.00  0.00    -0.200 F 
ATOM     74  C   UNL A   1      40.535  26.230  26.601  1.00  0.00     0.200 A 
ATOM     75  F   UNL A   1      41.925  27.775  25.478  1.00  0.00    -0.200 F 
ATOM     76  F   UNL A   1      40.611  25.386  25.562  1.00  0.00    -0.200 F 
ENDBRANCH  52  66
BRANCH  53  77
ATOM     77  C   UNL A   1      39.787  34.049  36.681  1.00  0.00     0.064 A 
ATOM     78  C   UNL A   1      40.550  35.222  36.779  1.00  0.00     0.173 A 
ATOM     79  C   UNL A   1      38.954  33.717  37.758  1.00  0.00     0.173 A 
ATOM     80  F   UNL A   1      41.364  35.581  35.775  1.00  0.00    -0.203 F 
ATOM     81  C   UNL A   1      40.502  36.015  37.923  1.00  0.00     0.198 A 
ATOM     82  C   UNL A   1      38.890  34.524  38.892  1.00  0.00     0.198 A 
ATOM     83  F   UNL A   1      38.191  32.616  37.699  1.00  0.00    -0.203 F 
ATOM     84  F   UNL A   1      41.269  37.112  38.010  1.00  0.00    -0.200 F 
ATOM     85  C   UNL A   1      39.671  35.667  38.977  1.00  0.00     0.200 A 
ATOM     86  F   UNL A   1      38.073  34.196  39.900  1.00  0.00    -0.200 F 
ATOM     87  F   UNL A   1      39.625  36.432  40.076  1.00  0.00    -0.200 F 
ENDBRANCH  53  77
BRANCH  65  88
ATOM     88  C   UNL A   1      43.847  28.615  35.037  1.00  0.00     0.064 A 
ATOM     89  C   UNL A   1      43.560  27.517  35.862  1.00  0.00     0.173 A 
ATOM     90  C   UNL A   1      45.169  29.078  34.988  1.00  0.00     0.173 A 
ATOM     91  F   UNL A   1      42.308  27.043  35.944  1.00  0.00    -0.203 F 
ATOM     92  C   UNL A   1      44.556  26.922  36.631  1.00  0.00     0.198 A 
ATOM     93  C   UNL A   1      46.166  28.467  35.742  1.00  0.00     0.198 A 
ATOM     94  F   UNL A   1      45.491  30.116  34.203  1.00  0.00    -0.203 F 
ATOM     95  F   UNL A   1      44.255  25.897  37.438  1.00  0.00    -0.200 F 
ATOM     96  C   UNL A   1      45.857  27.398  36.570  1.00  0.00     0.200 A 
ATOM     97  F   UNL A   1      47.427  28.916  35.670  1.00  0.00    -0.200 F 
ATOM     98  F   UNL A   1      46.815  26.825  37.312  1.00  0.00    -0.200 F 
ENDBRANCH  65  88
ENDBRANCH  39  40
ENDBRANCH  31  34
ENDBRANCH  29  30
ENDBRANCH  28  29
ENDBRANCH  27  28
ENDBRANCH   3  27
TORSDOF 16
ENDMDL
MODEL 2
REMARK VINA RESULT:     -12.5      5.374     11.096
REMARK SMILES CCN(CC)S(=O)(=O)c1ccc(F)c(C(=O)N2CCC[C@H]2C(=O)NCCCNC(=O)c2ccc(-c3c4nc(c(-c5c(F)c(F)c(F)c(F)c5F)c5ccc([nH]5)c(-c5c(F)c(F)c(F)c(F)c5F)c5nc(c(-c6c(F)c(F)c(F)c(F)c6F)c6ccc3[nH]6)C=C5)C=C4)cc2)c1
REMARK SMILES IDX 22 1 23 2 24 3 21 5 17 6 18 7 19 8 20 9 15 10 16 11 14 12
REMARK SMILES IDX 9 13 10 14 94 15 11 16 12 17 13 18 6 19 7 20 8 21 3 22 2 23
REMARK SMILES IDX 1 24 4 25 5 26 25 27 26 28 27 29 28 30 29 31 30 33 31 34
REMARK SMILES IDX 32 35 93 36 33 37 92 38 34 39 35 40 36 41 86 42 37 43 91 44
REMARK SMILES IDX 85 45 87 46 38 47 90 48 84 49 83 50 39 52 71 53 51 54 70 55
REMARK SMILES IDX 52 56 55 57 69 58 88 59 53 60 54 61 68 63 89 64 56 65 40 66
REMARK SMILES IDX 41 67 49 68 42 69 43 70 47 71 50 72 44 73 45 74 48 75 46 76
REMARK SMILES IDX 72 77 73 78 81 79 74 80 75 81 79 82 82 83 76 84 77 85 80 86
REMARK SMILES IDX 78 87 57 88 58 89 66 90 59 91 60 92 64 93 67 94 61 95 62 96
REMARK SMILES IDX 65 97 63 98
REMARK H PARENT 24 4 28 32 87 51 55 62
REMARK Flexibility Score: inf
ROOT
ATOM      1  C   UNL A   1      34.126  20.118  24.948  1.00  0.00     0.242 C 
ATOM      2  O   UNL A   1      33.394  19.152  24.700  1.00  0.00    -0.273 OA
ATOM      3  N   UNL A   1      35.456  19.849  24.887  1.00  0.00    -0.354 N 
ATOM      4  H   UNL A   1      35.675  18.934  24.595  1.00  0.00     0.163 HD
ENDROOT
BRANCH   1   5
ATOM      5  C   UNL A   1      33.561  21.487  25.444  1.00  0.00     0.174 C 
ATOM      6  N   UNL A   1      33.248  22.441  24.374  1.00  0.00    -0.327 N 
ATOM      7  C   UNL A   1      31.839  22.420  24.058  1.00  0.00     0.121 C 
ATOM      8  C   UNL A   1      31.197  22.167  25.409  1.00  0.00     0.024 C 
ATOM      9  C   UNL A   1      32.184  21.238  26.114  1.00  0.00     0.037 C 
BRANCH   6  10
ATOM     10  C   UNL A   1      34.091  23.317  23.734  1.00  0.00     0.257 C 
ATOM     11  O   UNL A   1      34.812  22.965  22.804  1.00  0.00    -0.269 OA
BRANCH  10  12
ATOM     12  C   UNL A   1      34.029  24.770  24.048  1.00  0.00     0.077 A 
ATOM     13  C   UNL A   1      32.869  26.893  23.695  1.00  0.00     0.083 A 
ATOM     14  C   UNL A   1      33.225  27.285  24.988  1.00  0.00     0.025 A 
ATOM     15  C   UNL A   1      33.252  25.620  23.232  1.00  0.00     0.038 A 
ATOM     16  C   UNL A   1      34.062  26.483  25.761  1.00  0.00     0.041 A 
ATOM     17  C   UNL A   1      34.459  25.234  25.291  1.00  0.00     0.136 A 
ATOM     18  F   UNL A   1      35.167  24.465  26.125  1.00  0.00    -0.206 F 
BRANCH  13  19
ATOM     19  S   UNL A   1      31.710  27.870  22.737  1.00  0.00     0.243 S 
ATOM     20  O   UNL A   1      31.271  27.034  21.638  1.00  0.00    -0.207 OA
ATOM     21  O   UNL A   1      32.365  29.132  22.481  1.00  0.00    -0.207 OA
BRANCH  19  22
ATOM     22  N   UNL A   1      30.338  28.217  23.729  1.00  0.00    -0.198 NA
BRANCH  22  23
ATOM     23  C   UNL A   1      29.729  29.570  23.450  1.00  0.00     0.099 C 
ATOM     24  C   UNL A   1      29.041  29.640  22.099  1.00  0.00     0.022 C 
ENDBRANCH  22  23
BRANCH  22  25
ATOM     25  C   UNL A   1      29.253  27.198  23.870  1.00  0.00     0.099 C 
ATOM     26  C   UNL A   1      29.528  26.122  24.912  1.00  0.00     0.022 C 
ENDBRANCH  22  25
ENDBRANCH  19  22
ENDBRANCH  13  19
ENDBRANCH  10  12
ENDBRANCH   6  10
ENDBRANCH   1   5
BRANCH   3  27
ATOM     27  C   UNL A   1      36.604  20.679  25.177  1.00  0.00     0.117 C 
BRANCH  27  28
ATOM     28  C   UNL A   1      37.922  20.006  24.816  1.00  0.00     0.042 C 
BRANCH  28  29
ATOM     29  C   UNL A   1      39.049  20.251  25.813  1.00  0.00     0.118 C 
BRANCH  29  30
ATOM     30  N   UNL A   1      40.057  19.200  25.829  1.00  0.00    -0.352 N 
ATOM     31  C   UNL A   1      41.415  19.241  26.042  1.00  0.00     0.251 C 
ATOM     32  H   UNL A   1      39.703  18.298  25.654  1.00  0.00     0.163 HD
ATOM     33  O   UNL A   1      42.081  18.219  25.897  1.00  0.00    -0.269 OA
BRANCH  31  34
ATOM     34  C   UNL A   1      42.101  20.504  26.399  1.00  0.00     0.039 A 
ATOM     35  C   UNL A   1      42.684  21.258  25.376  1.00  0.00     0.014 A 
ATOM     36  C   UNL A   1      42.195  20.945  27.718  1.00  0.00     0.014 A 
ATOM     37  C   UNL A   1      43.261  22.499  25.663  1.00  0.00     0.010 A 
ATOM     38  C   UNL A   1      42.679  22.223  27.992  1.00  0.00     0.010 A 
ATOM     39  C   UNL A   1      43.204  23.020  26.965  1.00  0.00    -0.014 A 
BRANCH  39  40
ATOM     40  C   UNL A   1      43.647  24.406  27.274  1.00  0.00     0.031 A 
ATOM     41  C   UNL A   1      42.666  25.426  27.780  1.00  0.00     0.074 A 
ATOM     42  C   UNL A   1      44.916  24.773  27.002  1.00  0.00     0.049 A 
ATOM     43  N   UNL A   1      42.829  26.715  27.957  1.00  0.00    -0.248 NA
ATOM     44  C   UNL A   1      41.313  24.945  28.100  1.00  0.00     0.031 C 
ATOM     45  C   UNL A   1      45.955  23.892  26.466  1.00  0.00     0.029 A 
ATOM     46  N   UNL A   1      45.545  25.988  27.124  1.00  0.00    -0.354 N 
ATOM     47  C   UNL A   1      41.597  27.197  28.378  1.00  0.00     0.074 A 
ATOM     48  C   UNL A   1      40.685  26.075  28.396  1.00  0.00     0.031 C 
ATOM     49  C   UNL A   1      47.097  24.585  26.334  1.00  0.00     0.029 A 
ATOM     50  C   UNL A   1      46.859  25.971  26.724  1.00  0.00     0.049 A 
ATOM     51  H   UNL A   1      45.096  26.795  27.466  1.00  0.00     0.167 HD
ATOM     52  C   UNL A   1      41.265  28.459  28.738  1.00  0.00     0.037 A 
ATOM     53  C   UNL A   1      47.769  26.962  26.663  1.00  0.00     0.037 A 
ATOM     54  C   UNL A   1      42.188  29.562  28.778  1.00  0.00     0.049 A 
ATOM     55  C   UNL A   1      47.377  28.353  27.070  1.00  0.00     0.074 A 
ATOM     56  C   UNL A   1      41.965  30.855  29.219  1.00  0.00     0.029 A 
ATOM     57  N   UNL A   1      43.511  29.501  28.368  1.00  0.00    -0.354 N 
ATOM     58  N   UNL A   1      46.219  28.787  27.507  1.00  0.00    -0.248 NA
ATOM     59  C   UNL A   1      48.408  29.395  26.965  1.00  0.00     0.031 C 
ATOM     60  C   UNL A   1      43.143  31.586  29.044  1.00  0.00     0.029 A 
ATOM     61  C   UNL A   1      44.109  30.740  28.524  1.00  0.00     0.049 A 
ATOM     62  H   UNL A   1      43.958  28.696  28.017  1.00  0.00     0.167 HD
ATOM     63  C   UNL A   1      46.385  30.144  27.740  1.00  0.00     0.074 A 
ATOM     64  C   UNL A   1      47.758  30.464  27.408  1.00  0.00     0.031 C 
ATOM     65  C   UNL A   1      45.476  31.043  28.187  1.00  0.00     0.037 A 
BRANCH  52  66
ATOM     66  C   UNL A   1      39.846  28.722  29.143  1.00  0.00     0.064 A 
ATOM     67  C   UNL A   1      38.907  29.162  28.198  1.00  0.00     0.173 A 
ATOM     68  C   UNL A   1      39.433  28.609  30.477  1.00  0.00     0.173 A 
ATOM     69  F   UNL A   1      39.255  29.294  26.909  1.00  0.00    -0.203 F 
ATOM     70  C   UNL A   1      37.608  29.488  28.577  1.00  0.00     0.198 A 
ATOM     71  C   UNL A   1      38.126  28.913  30.849  1.00  0.00     0.198 A 
ATOM     72  F   UNL A   1      40.292  28.185  31.416  1.00  0.00    -0.203 F 
ATOM     73  F   UNL A   1      36.735  29.932  27.663  1.00  0.00    -0.200 F 
ATOM     74  C   UNL A   1      37.218  29.360  29.902  1.00  0.00     0.200 A 
ATOM     75  F   UNL A   1      37.746  28.769  32.127  1.00  0.00    -0.200 F 
ATOM     76  F   UNL A   1      35.964  29.666  30.265  1.00  0.00    -0.200 F 
ENDBRANCH  52  66
BRANCH  53  77
ATOM     77  C   UNL A   1      49.151  26.655  26.214  1.00  0.00     0.064 A 
ATOM     78  C   UNL A   1      50.133  26.211  27.113  1.00  0.00     0.173 A 
ATOM     79  C   UNL A   1      49.524  26.845  24.877  1.00  0.00     0.173 A 
ATOM     80  F   UNL A   1      49.824  26.017  28.403  1.00  0.00    -0.203 F 
ATOM     81  C   UNL A   1      51.443  25.994  26.694  1.00  0.00     0.198 A 
ATOM     82  C   UNL A   1      50.831  26.605  24.455  1.00  0.00     0.198 A 
ATOM     83  F   UNL A   1      48.614  27.247  23.978  1.00  0.00    -0.203 F 
ATOM     84  F   UNL A   1      52.373  25.606  27.578  1.00  0.00    -0.200 F 
ATOM     85  C   UNL A   1      51.790  26.189  25.365  1.00  0.00     0.200 A 
ATOM     86  F   UNL A   1      51.158  26.776  23.168  1.00  0.00    -0.200 F 
ATOM     87  F   UNL A   1      53.051  25.979  24.963  1.00  0.00    -0.200 F 
ENDBRANCH  53  77
BRANCH  65  88
ATOM     88  C   UNL A   1      45.924  32.463  28.349  1.00  0.00     0.064 A 
ATOM     89  C   UNL A   1      45.820  33.370  27.283  1.00  0.00     0.173 A 
ATOM     90  C   UNL A   1      46.541  32.898  29.530  1.00  0.00     0.173 A 
ATOM     91  F   UNL A   1      45.242  32.996  26.133  1.00  0.00    -0.203 F 
ATOM     92  C   UNL A   1      46.341  34.656  27.387  1.00  0.00     0.198 A 
ATOM     93  C   UNL A   1      47.043  34.192  29.637  1.00  0.00     0.198 A 
ATOM     94  F   UNL A   1      46.650  32.069  30.578  1.00  0.00    -0.203 F 
ATOM     95  F   UNL A   1      46.263  35.495  26.346  1.00  0.00    -0.200 F 
ATOM     96  C   UNL A   1      46.952  35.065  28.563  1.00  0.00     0.200 A 
ATOM     97  F   UNL A   1      47.618  34.592  30.779  1.00  0.00    -0.200 F 
ATOM     98  F   UNL A   1      47.454  36.304  28.661  1.00  0.00    -0.200 F 
ENDBRANCH  65  88
ENDBRANCH  39  40
ENDBRANCH  31  34
ENDBRANCH  29  30
ENDBRANCH  28  29
ENDBRANCH  27  28
ENDBRANCH   3  27
TORSDOF 16
ENDMDL
MODEL 3
REMARK VINA RESULT:     -12.4      1.369      2.043
REMARK SMILES CCN(CC)S(=O)(=O)c1ccc(F)c(C(=O)N2CCC[C@H]2C(=O)NCCCNC(=O)c2ccc(-c3c4nc(c(-c5c(F)c(F)c(F)c(F)c5F)c5ccc([nH]5)c(-c5c(F)c(F)c(F)c(F)c5F)c5nc(c(-c6c(F)c(F)c(F)c(F)c6F)c6ccc3[nH]6)C=C5)C=C4)cc2)c1
REMARK SMILES IDX 22 1 23 2 24 3 21 5 17 6 18 7 19 8 20 9 15 10 16 11 14 12
REMARK SMILES IDX 9 13 10 14 94 15 11 16 12 17 13 18 6 19 7 20 8 21 3 22 2 23
REMARK SMILES IDX 1 24 4 25 5 26 25 27 26 28 27 29 28 30 29 31 30 33 31 34
REMARK SMILES IDX 32 35 93 36 33 37 92 38 34 39 35 40 36 41 86 42 37 43 91 44
REMARK SMILES IDX 85 45 87 46 38 47 90 48 84 49 83 50 39 52 71 53 51 54 70 55
REMARK SMILES IDX 52 56 55 57 69 58 88 59 53 60 54 61 68 63 89 64 56 65 40 66
REMARK SMILES IDX 41 67 49 68 42 69 43 70 47 71 50 72 44 73 45 74 48 75 46 76
REMARK SMILES IDX 72 77 73 78 81 79 74 80 75 81 79 82 82 83 76 84 77 85 80 86
REMARK SMILES IDX 78 87 57 88 58 89 66 90 59 91 60 92 64 93 67 94 61 95 62 96
REMARK SMILES IDX 65 97 63 98
REMARK H PARENT 24 4 28 32 87 51 55 62
REMARK Flexibility Score: inf
ROOT
ATOM      1  C   UNL A   1      31.948  28.271  27.383  1.00  0.00     0.242 C 
ATOM      2  O   UNL A   1      31.408  27.720  28.350  1.00  0.00    -0.273 OA
ATOM      3  N   UNL A   1      31.559  29.556  27.177  1.00  0.00    -0.354 N 
ATOM      4  H   UNL A   1      30.941  29.910  27.856  1.00  0.00     0.163 HD
ENDROOT
BRANCH   1   5
ATOM      5  C   UNL A   1      32.877  27.499  26.393  1.00  0.00     0.174 C 
ATOM      6  N   UNL A   1      32.168  26.762  25.340  1.00  0.00    -0.327 N 
ATOM      7  C   UNL A   1      32.142  27.517  24.109  1.00  0.00     0.121 C 
ATOM      8  C   UNL A   1      33.484  28.225  24.123  1.00  0.00     0.024 C 
ATOM      9  C   UNL A   1      33.721  28.532  25.600  1.00  0.00     0.037 C 
BRANCH   6  10
ATOM     10  C   UNL A   1      31.619  25.504  25.396  1.00  0.00     0.257 C 
ATOM     11  O   UNL A   1      30.531  25.292  25.928  1.00  0.00    -0.269 OA
BRANCH  10  12
ATOM     12  C   UNL A   1      32.258  24.382  24.658  1.00  0.00     0.077 A 
ATOM     13  C   UNL A   1      33.727  22.431  24.771  1.00  0.00     0.083 A 
ATOM     14  C   UNL A   1      32.988  21.834  23.746  1.00  0.00     0.025 A 
ATOM     15  C   UNL A   1      33.345  23.701  25.245  1.00  0.00     0.038 A 
ATOM     16  C   UNL A   1      31.969  22.541  23.110  1.00  0.00     0.041 A 
ATOM     17  C   UNL A   1      31.610  23.807  23.566  1.00  0.00     0.136 A 
ATOM     18  F   UNL A   1      30.552  24.385  22.989  1.00  0.00    -0.206 F 
BRANCH  13  19
ATOM     19  S   UNL A   1      34.967  21.490  25.662  1.00  0.00     0.243 S 
ATOM     20  O   UNL A   1      35.081  20.211  24.989  1.00  0.00    -0.207 OA
ATOM     21  O   UNL A   1      34.593  21.552  27.056  1.00  0.00    -0.207 OA
BRANCH  19  22
ATOM     22  N   UNL A   1      36.481  22.309  25.519  1.00  0.00    -0.198 NA
BRANCH  22  23
ATOM     23  C   UNL A   1      37.663  21.371  25.475  1.00  0.00     0.099 C 
ATOM     24  C   UNL A   1      38.936  22.000  26.008  1.00  0.00     0.022 C 
ENDBRANCH  22  23
BRANCH  22  25
ATOM     25  C   UNL A   1      36.649  23.376  24.484  1.00  0.00     0.099 C 
ATOM     26  C   UNL A   1      36.737  22.861  23.054  1.00  0.00     0.022 C 
ENDBRANCH  22  25
ENDBRANCH  19  22
ENDBRANCH  13  19
ENDBRANCH  10  12
ENDBRANCH   6  10
ENDBRANCH   1   5
BRANCH   3  27
ATOM     27  C   UNL A   1      31.902  30.492  26.129  1.00  0.00     0.117 C 
BRANCH  27  28
ATOM     28  C   UNL A   1      31.604  31.936  26.511  1.00  0.00     0.042 C 
BRANCH  28  29
ATOM     29  C   UNL A   1      32.725  32.632  27.274  1.00  0.00     0.118 C 
BRANCH  29  30
ATOM     30  N   UNL A   1      32.419  34.007  27.642  1.00  0.00    -0.352 N 
ATOM     31  C   UNL A   1      32.997  34.857  28.556  1.00  0.00     0.251 C 
ATOM     32  H   UNL A   1      31.662  34.398  27.150  1.00  0.00     0.163 HD
ATOM     33  O   UNL A   1      32.486  35.954  28.769  1.00  0.00    -0.269 OA
BRANCH  31  34
ATOM     34  C   UNL A   1      34.198  34.460  29.325  1.00  0.00     0.039 A 
ATOM     35  C   UNL A   1      34.026  33.957  30.619  1.00  0.00     0.014 A 
ATOM     36  C   UNL A   1      35.484  34.591  28.805  1.00  0.00     0.014 A 
ATOM     37  C   UNL A   1      35.127  33.488  31.340  1.00  0.00     0.010 A 
ATOM     38  C   UNL A   1      36.569  34.034  29.480  1.00  0.00     0.010 A 
ATOM     39  C   UNL A   1      36.400  33.463  30.749  1.00  0.00    -0.014 A 
BRANCH  39  40
ATOM     40  C   UNL A   1      37.560  32.813  31.415  1.00  0.00     0.031 A 
ATOM     41  C   UNL A   1      38.250  31.642  30.774  1.00  0.00     0.074 A 
ATOM     42  C   UNL A   1      37.929  33.216  32.648  1.00  0.00     0.049 A 
ATOM     43  N   UNL A   1      39.173  30.853  31.269  1.00  0.00    -0.248 NA
ATOM     44  C   UNL A   1      37.828  31.287  29.410  1.00  0.00     0.031 C 
ATOM     45  C   UNL A   1      37.312  34.311  33.400  1.00  0.00     0.029 A 
ATOM     46  N   UNL A   1      38.902  32.742  33.495  1.00  0.00    -0.354 N 
ATOM     47  C   UNL A   1      39.416  29.898  30.291  1.00  0.00     0.074 A 
ATOM     48  C   UNL A   1      38.522  30.179  29.190  1.00  0.00     0.031 C 
ATOM     49  C   UNL A   1      37.939  34.444  34.579  1.00  0.00     0.029 A 
ATOM     50  C   UNL A   1      38.965  33.412  34.691  1.00  0.00     0.049 A 
ATOM     51  H   UNL A   1      39.498  31.992  33.264  1.00  0.00     0.167 HD
ATOM     52  C   UNL A   1      40.320  28.890  30.304  1.00  0.00     0.037 A 
ATOM     53  C   UNL A   1      39.750  33.212  35.768  1.00  0.00     0.037 A 
ATOM     54  C   UNL A   1      41.251  28.647  31.374  1.00  0.00     0.049 A 
ATOM     55  C   UNL A   1      40.747  32.089  35.757  1.00  0.00     0.074 A 
ATOM     56  C   UNL A   1      42.266  27.709  31.435  1.00  0.00     0.029 A 
ATOM     57  N   UNL A   1      41.283  29.352  32.568  1.00  0.00    -0.354 N 
ATOM     58  N   UNL A   1      40.996  31.219  34.808  1.00  0.00    -0.248 NA
ATOM     59  C   UNL A   1      41.563  31.909  36.966  1.00  0.00     0.031 C 
ATOM     60  C   UNL A   1      42.892  27.822  32.679  1.00  0.00     0.029 A 
ATOM     61  C   UNL A   1      42.287  28.853  33.381  1.00  0.00     0.049 A 
ATOM     62  H   UNL A   1      40.682  30.095  32.803  1.00  0.00     0.167 HD
ATOM     63  C   UNL A   1      42.001  30.399  35.299  1.00  0.00     0.074 A 
ATOM     64  C   UNL A   1      42.328  30.879  36.625  1.00  0.00     0.031 C 
ATOM     65  C   UNL A   1      42.597  29.340  34.700  1.00  0.00     0.037 A 
BRANCH  52  66
ATOM     66  C   UNL A   1      40.371  27.978  29.115  1.00  0.00     0.064 A 
ATOM     67  C   UNL A   1      41.131  28.322  27.988  1.00  0.00     0.173 A 
ATOM     68  C   UNL A   1      39.611  26.802  29.063  1.00  0.00     0.173 A 
ATOM     69  F   UNL A   1      41.871  29.442  27.986  1.00  0.00    -0.203 F 
ATOM     70  C   UNL A   1      41.122  27.525  26.847  1.00  0.00     0.198 A 
ATOM     71  C   UNL A   1      39.621  25.994  27.929  1.00  0.00     0.198 A 
ATOM     72  F   UNL A   1      38.873  26.427  30.119  1.00  0.00    -0.203 F 
ATOM     73  F   UNL A   1      41.834  27.886  25.771  1.00  0.00    -0.200 F 
ATOM     74  C   UNL A   1      40.369  26.360  26.819  1.00  0.00     0.200 A 
ATOM     75  F   UNL A   1      38.909  24.859  27.911  1.00  0.00    -0.200 F 
ATOM     76  F   UNL A   1      40.366  25.588  25.724  1.00  0.00    -0.200 F 
ENDBRANCH  52  66
BRANCH  53  77
ATOM     77  C   UNL A   1      39.628  34.119  36.937  1.00  0.00     0.064 A 
ATOM     78  C   UNL A   1      40.332  35.331  37.001  1.00  0.00     0.173 A 
ATOM     79  C   UNL A   1      38.835  33.763  38.036  1.00  0.00     0.173 A 
ATOM     80  F   UNL A   1      41.107  35.713  35.975  1.00  0.00    -0.203 F 
ATOM     81  C   UNL A   1      40.266  36.139  38.132  1.00  0.00     0.198 A 
ATOM     82  C   UNL A   1      38.752  34.585  39.158  1.00  0.00     0.198 A 
ATOM     83  F   UNL A   1      38.128  32.624  38.010  1.00  0.00    -0.203 F 
ATOM     84  F   UNL A   1      40.977  37.275  38.187  1.00  0.00    -0.200 F 
ATOM     85  C   UNL A   1      39.474  35.767  39.209  1.00  0.00     0.200 A 
ATOM     86  F   UNL A   1      37.972  34.232  40.188  1.00  0.00    -0.200 F 
ATOM     87  F   UNL A   1      39.411  36.547  40.297  1.00  0.00    -0.200 F 
ENDBRANCH  53  77
BRANCH  65  88
ATOM     88  C   UNL A   1      43.666  28.620  35.463  1.00  0.00     0.064 A 
ATOM     89  C   UNL A   1      43.330  27.642  36.411  1.00  0.00     0.173 A 
ATOM     90  C   UNL A   1      45.017  28.968  35.322  1.00  0.00     0.173 A 
ATOM     91  F   UNL A   1      42.050  27.283  36.585  1.00  0.00    -0.203 F 
ATOM     92  C   UNL A   1      44.308  27.054  37.208  1.00  0.00     0.198 A 
ATOM     93  C   UNL A   1      45.995  28.362  36.106  1.00  0.00     0.198 A 
ATOM     94  F   UNL A   1      45.386  29.888  34.419  1.00  0.00    -0.203 F 
ATOM     95  F   UNL A   1      43.962  26.147  38.132  1.00  0.00    -0.200 F 
ATOM     96  C   UNL A   1      45.638  27.415  37.055  1.00  0.00     0.200 A 
ATOM     97  F   UNL A   1      47.282  28.698  35.945  1.00  0.00    -0.200 F 
ATOM     98  F   UNL A   1      46.579  26.848  37.823  1.00  0.00    -0.200 F 
ENDBRANCH  65  88
ENDBRANCH  39  40
ENDBRANCH  31  34
ENDBRANCH  29  30
ENDBRANCH  28  29
ENDBRANCH  27  28
ENDBRANCH   3  27
TORSDOF 16
ENDMDL
