MODEL 1
REMARK VINA RESULT:     -13.0      0.000      0.000
REMARK SMILES O=C(CCn1c(N2CC[NH2+]CC2)nc2ccccc2c1=O)NCCCNC(=O)c1ccc(-c2c3nc(c(-c4c(F)c(F)c(F)c(F)c4F)c4ccc([nH]4)c(-c4c(F)c(F)c(F)c(F)c4F)c4nc(c(-c5c(F)c(F)c(F)c(F)c5F)c5ccc2[nH]5)C=C4)C=C3)cc1
REMARK SMILES IDX 23 1 22 2 1 3 2 4 3 6 4 7 5 8 6 9 20 10 13 11 19 12 21 13
REMARK SMILES IDX 14 14 18 15 15 16 17 17 16 18 7 19 8 20 12 21 9 22 11 23
REMARK SMILES IDX 10 24 24 27 25 28 26 29 27 30 28 32 29 33 30 34 91 35 31 36
REMARK SMILES IDX 90 37 32 38 33 39 34 40 84 41 35 42 89 43 83 44 85 45 36 46
REMARK SMILES IDX 88 47 82 48 81 49 37 51 69 52 49 53 68 54 50 55 53 56 67 57
REMARK SMILES IDX 86 58 51 59 52 60 66 62 87 63 54 64 38 65 39 66 47 67 40 68
REMARK SMILES IDX 41 69 45 70 48 71 42 72 43 73 46 74 44 75 70 76 71 77 79 78
REMARK SMILES IDX 72 79 73 80 77 81 80 82 74 83 75 84 78 85 76 86 55 87 56 88
REMARK SMILES IDX 64 89 57 90 58 91 62 92 65 93 59 94 60 95 63 96 61 97
REMARK H PARENT 22 5 10 25 10 26 26 31 85 50 53 61
REMARK Flexibility Score: inf
ROOT
ATOM      1  C   UNL A   1      31.947  30.813  25.866  1.00  0.00     0.117 C 
ENDROOT
BRANCH   1   2
ATOM      2  N   UNL A   1      31.790  29.390  26.096  1.00  0.00    -0.356 N 
ATOM      3  O   UNL A   1      34.021  28.863  26.247  1.00  0.00    -0.275 OA
ATOM      4  C   UNL A   1      32.844  28.541  26.355  1.00  0.00     0.221 C 
ATOM      5  H   UNL A   1      30.882  29.010  26.064  1.00  0.00     0.163 HD
BRANCH   4   6
ATOM      6  C   UNL A   1      32.422  27.182  26.869  1.00  0.00     0.122 C 
BRANCH   6   7
ATOM      7  C   UNL A   1      31.186  26.641  26.130  1.00  0.00     0.139 C 
BRANCH   7   8
ATOM      8  N   UNL A   1      31.478  25.475  25.285  1.00  0.00    -0.278 N 
ATOM      9  C   UNL A   1      31.896  25.585  23.956  1.00  0.00     0.209 A 
ATOM     10  C   UNL A   1      31.242  24.229  25.872  1.00  0.00     0.262 A 
ATOM     11  N   UNL A   1      32.265  24.540  23.271  1.00  0.00    -0.214 NA
ATOM     12  C   UNL A   1      31.687  23.054  25.119  1.00  0.00     0.066 A 
ATOM     13  O   UNL A   1      30.749  24.076  26.987  1.00  0.00    -0.269 OA
ATOM     14  C   UNL A   1      32.226  23.271  23.858  1.00  0.00     0.080 A 
ATOM     15  C   UNL A   1      31.632  21.772  25.683  1.00  0.00     0.016 A 
ATOM     16  C   UNL A   1      32.731  22.174  23.156  1.00  0.00     0.029 A 
ATOM     17  C   UNL A   1      32.141  20.687  24.974  1.00  0.00     0.001 A 
ATOM     18  C   UNL A   1      32.696  20.891  23.713  1.00  0.00     0.002 A 
BRANCH   9  19
ATOM     19  N   UNL A   1      31.860  26.810  23.322  1.00  0.00    -0.331 N 
ATOM     20  C   UNL A   1      30.608  27.238  22.675  1.00  0.00     0.181 C 
ATOM     21  C   UNL A   1      33.034  27.417  22.682  1.00  0.00     0.181 C 
ATOM     22  C   UNL A   1      30.514  28.780  22.697  1.00  0.00     0.282 C 
ATOM     23  C   UNL A   1      32.918  28.956  22.712  1.00  0.00     0.282 C 
ATOM     24  N   UNL A   1      31.677  29.461  22.089  1.00  0.00    -0.343 N 
ATOM     25  H   UNL A   1      31.604  30.467  22.244  1.00  0.00     0.346 HD
ATOM     26  H   UNL A   1      31.697  29.275  21.086  1.00  0.00     0.346 HD
ENDBRANCH   9  19
ENDBRANCH   7   8
ENDBRANCH   6   7
ENDBRANCH   4   6
ENDBRANCH   1   2
BRANCH   1  27
ATOM     27  C   UNL A   1      31.823  31.630  27.141  1.00  0.00     0.042 C 
BRANCH  27  28
ATOM     28  C   UNL A   1      32.941  32.641  27.366  1.00  0.00     0.118 C 
BRANCH  28  29
ATOM     29  N   UNL A   1      32.482  33.996  27.644  1.00  0.00    -0.352 N 
ATOM     30  C   UNL A   1      33.001  34.913  28.532  1.00  0.00     0.251 C 
ATOM     31  H   UNL A   1      31.697  34.295  27.129  1.00  0.00     0.163 HD
ATOM     32  O   UNL A   1      32.466  36.004  28.700  1.00  0.00    -0.269 OA
BRANCH  30  33
ATOM     33  C   UNL A   1      34.192  34.548  29.332  1.00  0.00     0.039 A 
ATOM     34  C   UNL A   1      35.476  34.734  28.817  1.00  0.00     0.014 A 
ATOM     35  C   UNL A   1      34.010  33.935  30.574  1.00  0.00     0.014 A 
ATOM     36  C   UNL A   1      36.559  34.128  29.447  1.00  0.00     0.010 A 
ATOM     37  C   UNL A   1      35.112  33.396  31.245  1.00  0.00     0.010 A 
ATOM     38  C   UNL A   1      36.384  33.428  30.653  1.00  0.00    -0.014 A 
BRANCH  38  39
ATOM     39  C   UNL A   1      37.529  32.689  31.250  1.00  0.00     0.031 A 
ATOM     40  C   UNL A   1      37.995  33.003  32.647  1.00  0.00     0.074 A 
ATOM     41  C   UNL A   1      38.112  31.691  30.560  1.00  0.00     0.049 A 
ATOM     42  N   UNL A   1      38.986  32.480  33.327  1.00  0.00    -0.248 NA
ATOM     43  C   UNL A   1      37.253  34.042  33.381  1.00  0.00     0.031 C 
ATOM     44  C   UNL A   1      37.734  31.267  29.212  1.00  0.00     0.029 A 
ATOM     45  N   UNL A   1      39.129  30.838  30.906  1.00  0.00    -0.354 N 
ATOM     46  C   UNL A   1      38.999  33.136  34.551  1.00  0.00     0.074 A 
ATOM     47  C   UNL A   1      37.931  34.113  34.518  1.00  0.00     0.031 C 
ATOM     48  C   UNL A   1      38.475  30.205  28.863  1.00  0.00     0.029 A 
ATOM     49  C   UNL A   1      39.419  29.910  29.937  1.00  0.00     0.049 A 
ATOM     50  H   UNL A   1      39.605  30.886  31.767  1.00  0.00     0.167 HD
ATOM     51  C   UNL A   1      39.818  32.936  35.612  1.00  0.00     0.037 A 
ATOM     52  C   UNL A   1      40.350  28.939  29.909  1.00  0.00     0.037 A 
ATOM     53  C   UNL A   1      40.861  31.945  35.661  1.00  0.00     0.049 A 
ATOM     54  C   UNL A   1      41.273  28.765  31.082  1.00  0.00     0.074 A 
ATOM     55  C   UNL A   1      41.739  31.666  36.694  1.00  0.00     0.029 A 
ATOM     56  N   UNL A   1      41.160  31.061  34.634  1.00  0.00    -0.354 N 
ATOM     57  N   UNL A   1      41.294  29.413  32.219  1.00  0.00    -0.248 NA
ATOM     58  C   UNL A   1      42.310  27.731  30.959  1.00  0.00     0.031 C 
ATOM     59  C   UNL A   1      42.589  30.634  36.282  1.00  0.00     0.029 A 
ATOM     60  C   UNL A   1      42.216  30.245  35.006  1.00  0.00     0.049 A 
ATOM     61  H   UNL A   1      40.691  31.022  33.769  1.00  0.00     0.167 HD
ATOM     62  C   UNL A   1      42.337  28.866  32.950  1.00  0.00     0.074 A 
ATOM     63  C   UNL A   1      42.913  27.814  32.137  1.00  0.00     0.031 C 
ATOM     64  C   UNL A   1      42.781  29.207  34.184  1.00  0.00     0.037 A 
BRANCH  51  65
ATOM     65  C   UNL A   1      39.630  33.810  36.816  1.00  0.00     0.064 A 
ATOM     66  C   UNL A   1      40.204  35.087  36.891  1.00  0.00     0.173 A 
ATOM     67  C   UNL A   1      38.811  33.393  37.876  1.00  0.00     0.173 A 
ATOM     68  F   UNL A   1      41.005  35.526  35.909  1.00  0.00    -0.203 F 
ATOM     69  C   UNL A   1      39.973  35.912  37.990  1.00  0.00     0.198 A 
ATOM     70  C   UNL A   1      38.564  34.228  38.962  1.00  0.00     0.198 A 
ATOM     71  F   UNL A   1      38.234  32.183  37.849  1.00  0.00    -0.203 F 
ATOM     72  F   UNL A   1      40.554  37.118  38.055  1.00  0.00    -0.200 F 
ATOM     73  C   UNL A   1      39.147  35.485  39.020  1.00  0.00     0.200 A 
ATOM     74  F   UNL A   1      37.758  33.819  39.951  1.00  0.00    -0.200 F 
ATOM     75  F   UNL A   1      38.917  36.285  40.070  1.00  0.00    -0.200 F 
ENDBRANCH  51  65
BRANCH  52  76
ATOM     76  C   UNL A   1      40.449  28.056  28.720  1.00  0.00     0.064 A 
ATOM     77  C   UNL A   1      39.763  26.836  28.674  1.00  0.00     0.173 A 
ATOM     78  C   UNL A   1      41.205  28.428  27.598  1.00  0.00     0.173 A 
ATOM     79  F   UNL A   1      39.046  26.430  29.731  1.00  0.00    -0.203 F 
ATOM     80  C   UNL A   1      39.830  26.018  27.548  1.00  0.00     0.198 A 
ATOM     81  C   UNL A   1      41.251  27.621  26.464  1.00  0.00     0.198 A 
ATOM     82  F   UNL A   1      41.878  29.588  27.597  1.00  0.00    -0.203 F 
ATOM     83  F   UNL A   1      39.185  24.844  27.537  1.00  0.00    -0.200 F 
ATOM     84  C   UNL A   1      40.566  26.416  26.441  1.00  0.00     0.200 A 
ATOM     85  F   UNL A   1      41.951  28.015  25.393  1.00  0.00    -0.200 F 
ATOM     86  F   UNL A   1      40.618  25.635  25.353  1.00  0.00    -0.200 F 
ENDBRANCH  52  76
BRANCH  64  87
ATOM     87  C   UNL A   1      43.943  28.436  34.734  1.00  0.00     0.064 A 
ATOM     88  C   UNL A   1      43.755  27.237  35.435  1.00  0.00     0.173 A 
ATOM     89  C   UNL A   1      45.257  28.876  34.517  1.00  0.00     0.173 A 
ATOM     90  F   UNL A   1      42.515  26.785  35.678  1.00  0.00    -0.203 F 
ATOM     91  C   UNL A   1      44.842  26.513  35.916  1.00  0.00     0.198 A 
ATOM     92  C   UNL A   1      46.343  28.137  34.979  1.00  0.00     0.198 A 
ATOM     93  F   UNL A   1      45.487  30.014  33.846  1.00  0.00    -0.203 F 
ATOM     94  F   UNL A   1      44.640  25.387  36.614  1.00  0.00    -0.200 F 
ATOM     95  C   UNL A   1      46.135  26.960  35.681  1.00  0.00     0.200 A 
ATOM     96  F   UNL A   1      47.591  28.566  34.744  1.00  0.00    -0.200 F 
ATOM     97  F   UNL A   1      47.181  26.258  36.140  1.00  0.00    -0.200 F 
ENDBRANCH  64  87
ENDBRANCH  38  39
ENDBRANCH  30  33
ENDBRANCH  28  29
ENDBRANCH  27  28
ENDBRANCH   1  27
TORSDOF 13
ENDMDL
MODEL 2
REMARK VINA RESULT:     -12.8      5.527     10.993
REMARK SMILES O=C(CCn1c(N2CC[NH2+]CC2)nc2ccccc2c1=O)NCCCNC(=O)c1ccc(-c2c3nc(c(-c4c(F)c(F)c(F)c(F)c4F)c4ccc([nH]4)c(-c4c(F)c(F)c(F)c(F)c4F)c4nc(c(-c5c(F)c(F)c(F)c(F)c5F)c5ccc2[nH]5)C=C4)C=C3)cc1
REMARK SMILES IDX 23 1 22 2 1 3 2 4 3 6 4 7 5 8 6 9 20 10 13 11 19 12 21 13
REMARK SMILES IDX 14 14 18 15 15 16 17 17 16 18 7 19 8 20 12 21 9 22 11 23
REMARK SMILES IDX 10 24 24 27 25 28 26 29 27 30 28 32 29 33 30 34 91 35 31 36
REMARK SMILES IDX 90 37 32 38 33 39 34 40 84 41 35 42 89 43 83 44 85 45 36 46
REMARK SMILES IDX 88 47 82 48 81 49 37 51 69 52 49 53 68 54 50 55 53 56 67 57
REMARK SMILES IDX 86 58 51 59 52 60 66 62 87 63 54 64 38 65 39 66 47 67 40 68
REMARK SMILES IDX 41 69 45 70 48 71 42 72 43 73 46 74 44 75 70 76 71 77 79 78
REMARK SMILES IDX 72 79 73 80 77 81 80 82 74 83 75 84 78 85 76 86 55 87 56 88
REMARK SMILES IDX 64 89 57 90 58 91 62 92 65 93 59 94 60 95 63 96 61 97
REMARK H PARENT 22 5 10 25 10 26 26 31 85 50 53 61
REMARK Flexibility Score: inf
ROOT
ATOM      1  C   UNL A   1      36.829  20.640  25.366  1.00  0.00     0.117 C 
ENDROOT
BRANCH   1   2
ATOM      2  N   UNL A   1      36.120  21.758  24.774  1.00  0.00    -0.356 N 
ATOM      3  O   UNL A   1      36.844  23.379  26.233  1.00  0.00    -0.275 OA
ATOM      4  C   UNL A   1      36.254  23.059  25.207  1.00  0.00     0.221 C 
ATOM      5  H   UNL A   1      35.509  21.577  24.024  1.00  0.00     0.163 HD
BRANCH   4   6
ATOM      6  C   UNL A   1      35.675  24.083  24.256  1.00  0.00     0.122 C 
BRANCH   6   7
ATOM      7  C   UNL A   1      34.552  23.495  23.386  1.00  0.00     0.139 C 
BRANCH   7   8
ATOM      8  N   UNL A   1      33.253  24.152  23.589  1.00  0.00    -0.278 N 
ATOM      9  C   UNL A   1      32.367  23.784  24.606  1.00  0.00     0.209 A 
ATOM     10  C   UNL A   1      32.918  25.132  22.652  1.00  0.00     0.262 A 
ATOM     11  N   UNL A   1      31.280  24.465  24.838  1.00  0.00    -0.214 NA
ATOM     12  C   UNL A   1      31.715  25.922  22.929  1.00  0.00     0.066 A 
ATOM     13  O   UNL A   1      33.597  25.401  21.665  1.00  0.00    -0.269 OA
ATOM     14  C   UNL A   1      30.969  25.576  24.048  1.00  0.00     0.080 A 
ATOM     15  C   UNL A   1      31.376  27.024  22.132  1.00  0.00     0.016 A 
ATOM     16  C   UNL A   1      29.865  26.366  24.377  1.00  0.00     0.029 A 
ATOM     17  C   UNL A   1      30.273  27.804  22.472  1.00  0.00     0.001 A 
ATOM     18  C   UNL A   1      29.523  27.477  23.599  1.00  0.00     0.002 A 
BRANCH   9  19
ATOM     19  N   UNL A   1      32.600  22.642  25.344  1.00  0.00    -0.331 N 
ATOM     20  C   UNL A   1      32.069  21.359  24.853  1.00  0.00     0.181 C 
ATOM     21  C   UNL A   1      32.739  22.646  26.806  1.00  0.00     0.181 C 
ATOM     22  C   UNL A   1      32.983  20.205  25.323  1.00  0.00     0.282 C 
ATOM     23  C   UNL A   1      33.651  21.485  27.254  1.00  0.00     0.282 C 
ATOM     24  N   UNL A   1      33.188  20.162  26.787  1.00  0.00    -0.343 N 
ATOM     25  H   UNL A   1      33.889  19.456  27.013  1.00  0.00     0.346 HD
ATOM     26  H   UNL A   1      32.310  19.924  27.249  1.00  0.00     0.346 HD
ENDBRANCH   9  19
ENDBRANCH   7   8
ENDBRANCH   6   7
ENDBRANCH   4   6
ENDBRANCH   1   2
BRANCH   1  27
ATOM     27  C   UNL A   1      38.277  20.559  24.912  1.00  0.00     0.042 C 
BRANCH  27  28
ATOM     28  C   UNL A   1      39.295  20.431  26.039  1.00  0.00     0.118 C 
BRANCH  28  29
ATOM     29  N   UNL A   1      40.188  19.286  25.917  1.00  0.00    -0.352 N 
ATOM     30  C   UNL A   1      41.557  19.243  26.073  1.00  0.00     0.251 C 
ATOM     31  H   UNL A   1      39.756  18.429  25.694  1.00  0.00     0.163 HD
ATOM     32  O   UNL A   1      42.184  18.207  25.879  1.00  0.00    -0.269 OA
BRANCH  30  33
ATOM     33  C   UNL A   1      42.281  20.485  26.426  1.00  0.00     0.039 A 
ATOM     34  C   UNL A   1      42.354  20.910  27.753  1.00  0.00     0.014 A 
ATOM     35  C   UNL A   1      42.816  21.271  25.402  1.00  0.00     0.014 A 
ATOM     36  C   UNL A   1      42.778  22.206  28.034  1.00  0.00     0.010 A 
ATOM     37  C   UNL A   1      43.316  22.543  25.697  1.00  0.00     0.010 A 
ATOM     38  C   UNL A   1      43.237  23.046  27.005  1.00  0.00    -0.014 A 
BRANCH  38  39
ATOM     39  C   UNL A   1      43.574  24.463  27.305  1.00  0.00     0.031 A 
ATOM     40  C   UNL A   1      44.949  25.000  27.005  1.00  0.00     0.074 A 
ATOM     41  C   UNL A   1      42.626  25.287  27.790  1.00  0.00     0.049 A 
ATOM     42  N   UNL A   1      45.434  26.200  27.216  1.00  0.00    -0.248 NA
ATOM     43  C   UNL A   1      45.909  24.070  26.389  1.00  0.00     0.031 C 
ATOM     44  C   UNL A   1      41.248  24.899  28.092  1.00  0.00     0.029 A 
ATOM     45  N   UNL A   1      42.671  26.625  28.090  1.00  0.00    -0.354 N 
ATOM     46  C   UNL A   1      46.752  26.162  26.780  1.00  0.00     0.074 A 
ATOM     47  C   UNL A   1      47.003  24.816  26.311  1.00  0.00     0.031 C 
ATOM     48  C   UNL A   1      40.566  25.983  28.490  1.00  0.00     0.029 A 
ATOM     49  C   UNL A   1      41.471  27.128  28.527  1.00  0.00     0.049 A 
ATOM     50  H   UNL A   1      43.485  27.172  28.001  1.00  0.00     0.167 HD
ATOM     51  C   UNL A   1      47.667  27.161  26.760  1.00  0.00     0.037 A 
ATOM     52  C   UNL A   1      41.138  28.370  28.926  1.00  0.00     0.037 A 
ATOM     53  C   UNL A   1      47.412  28.509  27.196  1.00  0.00     0.049 A 
ATOM     54  C   UNL A   1      42.183  29.449  28.933  1.00  0.00     0.074 A 
ATOM     55  C   UNL A   1      48.277  29.590  27.209  1.00  0.00     0.029 A 
ATOM     56  N   UNL A   1      46.197  28.965  27.686  1.00  0.00    -0.354 N 
ATOM     57  N   UNL A   1      43.433  29.391  28.548  1.00  0.00    -0.248 NA
ATOM     58  C   UNL A   1      41.771  30.764  29.443  1.00  0.00     0.031 C 
ATOM     59  C   UNL A   1      47.595  30.692  27.736  1.00  0.00     0.029 A 
ATOM     60  C   UNL A   1      46.294  30.307  28.015  1.00  0.00     0.049 A 
ATOM     61  H   UNL A   1      45.387  28.414  27.786  1.00  0.00     0.167 HD
ATOM     62  C   UNL A   1      43.957  30.657  28.762  1.00  0.00     0.074 A 
ATOM     63  C   UNL A   1      42.882  31.472  29.290  1.00  0.00     0.031 C 
ATOM     64  C   UNL A   1      45.217  31.103  28.545  1.00  0.00     0.037 A 
BRANCH  51  65
ATOM     65  C   UNL A   1      49.043  26.840  26.255  1.00  0.00     0.064 A 
ATOM     66  C   UNL A   1      50.000  26.229  27.076  1.00  0.00     0.173 A 
ATOM     67  C   UNL A   1      49.382  27.082  24.916  1.00  0.00     0.173 A 
ATOM     68  F   UNL A   1      49.728  25.988  28.368  1.00  0.00    -0.203 F 
ATOM     69  C   UNL A   1      51.254  25.883  26.578  1.00  0.00     0.198 A 
ATOM     70  C   UNL A   1      50.628  26.715  24.415  1.00  0.00     0.198 A 
ATOM     71  F   UNL A   1      48.499  27.659  24.088  1.00  0.00    -0.203 F 
ATOM     72  F   UNL A   1      52.166  25.326  27.387  1.00  0.00    -0.200 F 
ATOM     73  C   UNL A   1      51.564  26.119  25.246  1.00  0.00     0.200 A 
ATOM     74  F   UNL A   1      50.922  26.934  23.126  1.00  0.00    -0.200 F 
ATOM     75  F   UNL A   1      52.767  25.774  24.766  1.00  0.00    -0.200 F 
ENDBRANCH  51  65
BRANCH  52  76
ATOM     76  C   UNL A   1      39.744  28.651  29.351  1.00  0.00     0.064 A 
ATOM     77  C   UNL A   1      39.342  28.435  30.675  1.00  0.00     0.173 A 
ATOM     78  C   UNL A   1      38.799  29.167  28.453  1.00  0.00     0.173 A 
ATOM     79  F   UNL A   1      40.206  27.923  31.563  1.00  0.00    -0.203 F 
ATOM     80  C   UNL A   1      38.043  28.724  31.087  1.00  0.00     0.198 A 
ATOM     81  C   UNL A   1      37.507  29.479  28.871  1.00  0.00     0.198 A 
ATOM     82  F   UNL A   1      39.139  29.391  27.176  1.00  0.00    -0.203 F 
ATOM     83  F   UNL A   1      37.673  28.486  32.352  1.00  0.00    -0.200 F 
ATOM     84  C   UNL A   1      37.130  29.254  30.186  1.00  0.00     0.200 A 
ATOM     85  F   UNL A   1      36.633  30.004  28.002  1.00  0.00    -0.200 F 
ATOM     86  F   UNL A   1      35.884  29.546  30.586  1.00  0.00    -0.200 F 
ENDBRANCH  52  76
BRANCH  64  87
ATOM     87  C   UNL A   1      45.505  32.537  28.872  1.00  0.00     0.064 A 
ATOM     88  C   UNL A   1      45.286  33.556  27.935  1.00  0.00     0.173 A 
ATOM     89  C   UNL A   1      45.959  32.899  30.149  1.00  0.00     0.173 A 
ATOM     90  F   UNL A   1      44.865  33.256  26.697  1.00  0.00    -0.203 F 
ATOM     91  C   UNL A   1      45.528  34.888  28.260  1.00  0.00     0.198 A 
ATOM     92  C   UNL A   1      46.178  34.234  30.477  1.00  0.00     0.198 A 
ATOM     93  F   UNL A   1      46.178  31.959  31.080  1.00  0.00    -0.203 F 
ATOM     94  F   UNL A   1      45.346  35.844  27.339  1.00  0.00    -0.200 F 
ATOM     95  C   UNL A   1      45.967  35.226  29.532  1.00  0.00     0.200 A 
ATOM     96  F   UNL A   1      46.594  34.559  31.709  1.00  0.00    -0.200 F 
ATOM     97  F   UNL A   1      46.194  36.510  29.845  1.00  0.00    -0.200 F 
ENDBRANCH  64  87
ENDBRANCH  38  39
ENDBRANCH  30  33
ENDBRANCH  28  29
ENDBRANCH  27  28
ENDBRANCH   1  27
TORSDOF 13
ENDMDL
MODEL 3
REMARK VINA RESULT:     -12.8      0.435      7.312
REMARK SMILES O=C(CCn1c(N2CC[NH2+]CC2)nc2ccccc2c1=O)NCCCNC(=O)c1ccc(-c2c3nc(c(-c4c(F)c(F)c(F)c(F)c4F)c4ccc([nH]4)c(-c4c(F)c(F)c(F)c(F)c4F)c4nc(c(-c5c(F)c(F)c(F)c(F)c5F)c5ccc2[nH]5)C=C4)C=C3)cc1
REMARK SMILES IDX 23 1 22 2 1 3 2 4 3 6 4 7 5 8 6 9 20 10 13 11 19 12 21 13
REMARK SMILES IDX 14 14 18 15 15 16 17 17 16 18 7 19 8 20 12 21 9 22 11 23
REMARK SMILES IDX 10 24 24 27 25 28 26 29 27 30 28 32 29 33 30 34 91 35 31 36
REMARK SMILES IDX 90 37 32 38 33 39 34 40 84 41 35 42 89 43 83 44 85 45 36 46
REMARK SMILES IDX 88 47 82 48 81 49 37 51 69 52 49 53 68 54 50 55 53 56 67 57
REMARK SMILES IDX 86 58 51 59 52 60 66 62 87 63 54 64 38 65 39 66 47 67 40 68
REMARK SMILES IDX 41 69 45 70 48 71 42 72 43 73 46 74 44 75 70 76 71 77 79 78
REMARK SMILES IDX 72 79 73 80 77 81 80 82 74 83 75 84 78 85 76 86 55 87 56 88
REMARK SMILES IDX 64 89 57 90 58 91 62 92 65 93 59 94 60 95 63 96 61 97
REMARK H PARENT 22 5 10 25 10 26 26 31 85 50 53 61
REMARK Flexibility Score: inf
ROOT
ATOM      1  C   UNL A   1      31.904  30.740  25.893  1.00  0.00     0.117 C 
ENDROOT
BRANCH   1   2
ATOM      2  N   UNL A   1      32.026  29.298  25.986  1.00  0.00    -0.356 N 
ATOM      3  O   UNL A   1      34.311  29.204  26.203  1.00  0.00    -0.275 OA
ATOM      4  C   UNL A   1      33.218  28.649  26.221  1.00  0.00     0.221 C 
ATOM      5  H   UNL A   1      31.213  28.754  25.874  1.00  0.00     0.163 HD
BRANCH   4   6
ATOM      6  C   UNL A   1      33.059  27.191  26.589  1.00  0.00     0.122 C 
BRANCH   6   7
ATOM      7  C   UNL A   1      31.686  26.635  26.173  1.00  0.00     0.139 C 
BRANCH   7   8
ATOM      8  N   UNL A   1      31.776  25.456  25.301  1.00  0.00    -0.278 N 
ATOM      9  C   UNL A   1      31.985  25.545  23.922  1.00  0.00     0.209 A 
ATOM     10  C   UNL A   1      31.566  24.225  25.926  1.00  0.00     0.262 A 
ATOM     11  N   UNL A   1      32.183  24.482  23.195  1.00  0.00    -0.214 NA
ATOM     12  C   UNL A   1      31.821  23.027  25.121  1.00  0.00     0.066 A 
ATOM     13  O   UNL A   1      31.247  24.097  27.106  1.00  0.00    -0.269 OA
ATOM     14  C   UNL A   1      32.166  23.215  23.790  1.00  0.00     0.080 A 
ATOM     15  C   UNL A   1      31.784  21.749  25.696  1.00  0.00     0.016 A 
ATOM     16  C   UNL A   1      32.493  22.093  23.025  1.00  0.00     0.029 A 
ATOM     17  C   UNL A   1      32.113  20.638  24.924  1.00  0.00     0.001 A 
ATOM     18  C   UNL A   1      32.474  20.813  23.589  1.00  0.00     0.002 A 
BRANCH   9  19
ATOM     19  N   UNL A   1      31.919  26.771  23.293  1.00  0.00    -0.331 N 
ATOM     20  C   UNL A   1      30.640  27.195  22.698  1.00  0.00     0.181 C 
ATOM     21  C   UNL A   1      33.064  27.383  22.606  1.00  0.00     0.181 C 
ATOM     22  C   UNL A   1      30.541  28.737  22.727  1.00  0.00     0.282 C 
ATOM     23  C   UNL A   1      32.942  28.922  22.644  1.00  0.00     0.282 C 
ATOM     24  N   UNL A   1      31.675  29.424  22.074  1.00  0.00    -0.343 N 
ATOM     25  H   UNL A   1      31.604  30.428  22.234  1.00  0.00     0.346 HD
ATOM     26  H   UNL A   1      31.655  29.239  21.070  1.00  0.00     0.346 HD
ENDBRANCH   9  19
ENDBRANCH   7   8
ENDBRANCH   6   7
ENDBRANCH   4   6
ENDBRANCH   1   2
BRANCH   1  27
ATOM     27  C   UNL A   1      31.935  31.419  27.252  1.00  0.00     0.042 C 
BRANCH  27  28
ATOM     28  C   UNL A   1      33.047  32.447  27.430  1.00  0.00     0.118 C 
BRANCH  28  29
ATOM     29  N   UNL A   1      32.580  33.812  27.629  1.00  0.00    -0.352 N 
ATOM     30  C   UNL A   1      33.065  34.767  28.497  1.00  0.00     0.251 C 
ATOM     31  H   UNL A   1      31.818  34.089  27.070  1.00  0.00     0.163 HD
ATOM     32  O   UNL A   1      32.525  35.865  28.595  1.00  0.00    -0.269 OA
BRANCH  30  33
ATOM     33  C   UNL A   1      34.221  34.437  29.360  1.00  0.00     0.039 A 
ATOM     34  C   UNL A   1      35.524  34.532  28.868  1.00  0.00     0.014 A 
ATOM     35  C   UNL A   1      33.986  33.946  30.647  1.00  0.00     0.014 A 
ATOM     36  C   UNL A   1      36.568  33.951  29.580  1.00  0.00     0.010 A 
ATOM     37  C   UNL A   1      35.051  33.433  31.395  1.00  0.00     0.010 A 
ATOM     38  C   UNL A   1      36.338  33.370  30.839  1.00  0.00    -0.014 A 
BRANCH  38  39
ATOM     39  C   UNL A   1      37.440  32.650  31.532  1.00  0.00     0.031 A 
ATOM     40  C   UNL A   1      38.184  31.542  30.834  1.00  0.00     0.074 A 
ATOM     41  C   UNL A   1      37.815  33.032  32.766  1.00  0.00     0.049 A 
ATOM     42  N   UNL A   1      39.158  30.787  31.282  1.00  0.00    -0.248 NA
ATOM     43  C   UNL A   1      37.784  31.236  29.450  1.00  0.00     0.031 C 
ATOM     44  C   UNL A   1      37.198  34.112  33.537  1.00  0.00     0.029 A 
ATOM     45  N   UNL A   1      38.821  32.574  33.578  1.00  0.00    -0.354 N 
ATOM     46  C   UNL A   1      39.469  29.911  30.251  1.00  0.00     0.074 A 
ATOM     47  C   UNL A   1      38.569  30.209  29.158  1.00  0.00     0.031 C 
ATOM     48  C   UNL A   1      37.867  34.264  34.690  1.00  0.00     0.029 A 
ATOM     49  C   UNL A   1      38.921  33.257  34.765  1.00  0.00     0.049 A 
ATOM     50  H   UNL A   1      39.414  31.827  33.335  1.00  0.00     0.167 HD
ATOM     51  C   UNL A   1      40.427  28.953  30.213  1.00  0.00     0.037 A 
ATOM     52  C   UNL A   1      39.758  33.084  35.805  1.00  0.00     0.037 A 
ATOM     53  C   UNL A   1      41.344  28.674  31.287  1.00  0.00     0.049 A 
ATOM     54  C   UNL A   1      40.783  31.987  35.754  1.00  0.00     0.074 A 
ATOM     55  C   UNL A   1      42.351  27.725  31.337  1.00  0.00     0.029 A 
ATOM     56  N   UNL A   1      41.375  29.352  32.496  1.00  0.00    -0.354 N 
ATOM     57  N   UNL A   1      41.045  31.147  34.785  1.00  0.00    -0.248 NA
ATOM     58  C   UNL A   1      41.620  31.809  36.948  1.00  0.00     0.031 C 
ATOM     59  C   UNL A   1      42.971  27.808  32.589  1.00  0.00     0.029 A 
ATOM     60  C   UNL A   1      42.375  28.834  33.303  1.00  0.00     0.049 A 
ATOM     61  H   UNL A   1      40.774  30.092  32.744  1.00  0.00     0.167 HD
ATOM     62  C   UNL A   1      42.078  30.344  35.246  1.00  0.00     0.074 A 
ATOM     63  C   UNL A   1      42.412  30.813  36.576  1.00  0.00     0.031 C 
ATOM     64  C   UNL A   1      42.691  29.308  34.625  1.00  0.00     0.037 A 
BRANCH  51  65
ATOM     65  C   UNL A   1      40.535  28.120  28.970  1.00  0.00     0.064 A 
ATOM     66  C   UNL A   1      39.807  26.932  28.818  1.00  0.00     0.173 A 
ATOM     67  C   UNL A   1      41.321  28.553  27.891  1.00  0.00     0.173 A 
ATOM     68  F   UNL A   1      39.051  26.470  29.825  1.00  0.00    -0.203 F 
ATOM     69  C   UNL A   1      39.872  26.199  27.635  1.00  0.00     0.198 A 
ATOM     70  C   UNL A   1      41.366  27.831  26.703  1.00  0.00     0.198 A 
ATOM     71  F   UNL A   1      42.031  29.687  27.984  1.00  0.00    -0.203 F 
ATOM     72  F   UNL A   1      39.191  25.051  27.521  1.00  0.00    -0.200 F 
ATOM     73  C   UNL A   1      40.645  26.653  26.575  1.00  0.00     0.200 A 
ATOM     74  F   UNL A   1      42.104  28.276  25.677  1.00  0.00    -0.200 F 
ATOM     75  F   UNL A   1      40.696  25.954  25.434  1.00  0.00    -0.200 F 
ENDBRANCH  51  65
BRANCH  52  76
ATOM     76  C   UNL A   1      39.653  33.979  36.983  1.00  0.00     0.064 A 
ATOM     77  C   UNL A   1      40.313  35.214  37.006  1.00  0.00     0.173 A 
ATOM     78  C   UNL A   1      38.869  33.632  38.094  1.00  0.00     0.173 A 
ATOM     79  F   UNL A   1      41.090  35.578  35.976  1.00  0.00    -0.203 F 
ATOM     80  C   UNL A   1      40.194  36.071  38.098  1.00  0.00     0.198 A 
ATOM     81  C   UNL A   1      38.731  34.500  39.175  1.00  0.00     0.198 A 
ATOM     82  F   UNL A   1      38.218  32.461  38.116  1.00  0.00    -0.203 F 
ATOM     83  F   UNL A   1      40.855  37.237  38.108  1.00  0.00    -0.200 F 
ATOM     84  C   UNL A   1      39.396  35.717  39.177  1.00  0.00     0.200 A 
ATOM     85  F   UNL A   1      37.949  34.162  40.208  1.00  0.00    -0.200 F 
ATOM     86  F   UNL A   1      39.271  36.549  40.221  1.00  0.00    -0.200 F 
ENDBRANCH  52  76
BRANCH  64  87
ATOM     87  C   UNL A   1      43.790  28.612  35.372  1.00  0.00     0.064 A 
ATOM     88  C   UNL A   1      43.516  27.567  36.264  1.00  0.00     0.173 A 
ATOM     89  C   UNL A   1      45.131  28.964  35.157  1.00  0.00     0.173 A 
ATOM     90  F   UNL A   1      42.247  27.205  36.511  1.00  0.00    -0.203 F 
ATOM     91  C   UNL A   1      44.546  26.908  36.929  1.00  0.00     0.198 A 
ATOM     92  C   UNL A   1      46.159  28.287  35.807  1.00  0.00     0.198 A 
ATOM     93  F   UNL A   1      45.442  29.955  34.309  1.00  0.00    -0.203 F 
ATOM     94  F   UNL A   1      44.260  25.934  37.804  1.00  0.00    -0.200 F 
ATOM     95  C   UNL A   1      45.866  27.264  36.695  1.00  0.00     0.200 A 
ATOM     96  F   UNL A   1      47.434  28.627  35.573  1.00  0.00    -0.200 F 
ATOM     97  F   UNL A   1      46.857  26.624  37.332  1.00  0.00    -0.200 F 
ENDBRANCH  64  87
ENDBRANCH  38  39
ENDBRANCH  30  33
ENDBRANCH  28  29
ENDBRANCH  27  28
ENDBRANCH   1  27
TORSDOF 13
ENDMDL
