MODEL 1
REMARK VINA RESULT:     -11.8      0.000      0.000
REMARK SMILES C[C@H](C(=O)NC1(C(=O)NCCCNC(=O)c2ccc(-c3c4nc(c(-c5c(F)c(F)c(F)c(F)c5F)c5ccc([nH]5)c(-c5c(F)c(F)c(F)c(F)c5F)c5nc(c(-c6c(F)c(F)c(F)c(F)c6F)c6ccc3[nH]6)C=C5)C=C4)cc2)CCCC1)c1cccs1
REMARK SMILES IDX 10 1 9 2 7 3 8 4 6 6 79 7 82 8 80 9 81 10 5 11 3 12 4 13
REMARK SMILES IDX 2 15 1 16 83 17 84 18 87 19 85 20 86 21 11 22 12 23 13 24
REMARK SMILES IDX 14 25 15 27 16 28 17 29 78 30 18 31 77 32 19 33 20 34 21 35
REMARK SMILES IDX 71 36 22 37 76 38 70 39 72 40 23 41 75 42 69 43 68 44 24 46
REMARK SMILES IDX 56 47 36 48 55 49 37 50 40 51 54 52 73 53 38 54 39 55 53 57
REMARK SMILES IDX 74 58 41 59 25 60 26 61 34 62 27 63 28 64 32 65 35 66 29 67
REMARK SMILES IDX 30 68 33 69 31 70 57 71 58 72 66 73 59 74 60 75 64 76 67 77
REMARK SMILES IDX 61 78 62 79 65 80 63 81 42 82 43 83 51 84 44 85 45 86 49 87
REMARK SMILES IDX 52 88 46 89 47 90 50 91 48 92
REMARK H PARENT 9 5 5 14 13 26 72 45 40 56
REMARK Flexibility Score: inf
ROOT
ATOM      1  C   UNL A   1      32.243  27.873  23.763  1.00  0.00     0.117 C 
ENDROOT
BRANCH   1   2
ATOM      2  N   UNL A   1      32.804  27.158  22.639  1.00  0.00    -0.354 N 
ATOM      3  C   UNL A   1      33.431  25.960  22.528  1.00  0.00     0.245 C 
ATOM      4  O   UNL A   1      33.630  25.602  21.357  1.00  0.00    -0.272 OA
ATOM      5  H   UNL A   1      32.711  27.635  21.783  1.00  0.00     0.163 HD
BRANCH   3   6
ATOM      6  C   UNL A   1      33.778  24.996  23.725  1.00  0.00     0.119 C 
ATOM      7  C   UNL A   1      32.539  24.154  24.101  1.00  0.00     0.038 C 
ATOM      8  C   UNL A   1      34.208  25.654  25.035  1.00  0.00     0.038 C 
ATOM      9  C   UNL A   1      31.983  24.697  25.406  1.00  0.00     0.003 C 
ATOM     10  C   UNL A   1      33.135  25.401  26.092  1.00  0.00     0.003 C 
BRANCH   6  11
ATOM     11  N   UNL A   1      34.759  24.040  23.119  1.00  0.00    -0.341 N 
ATOM     12  C   UNL A   1      35.778  23.241  23.531  1.00  0.00     0.228 C 
ATOM     13  O   UNL A   1      36.596  22.932  22.654  1.00  0.00    -0.274 OA
ATOM     14  H   UNL A   1      34.629  23.970  22.146  1.00  0.00     0.164 HD
BRANCH  12  15
ATOM     15  C   UNL A   1      35.854  22.613  24.921  1.00  0.00     0.115 C 
ATOM     16  C   UNL A   1      35.493  21.122  24.868  1.00  0.00     0.024 C 
BRANCH  15  17
ATOM     17  C   UNL A   1      37.187  22.803  25.610  1.00  0.00     0.017 A 
ATOM     18  C   UNL A   1      37.612  23.944  26.272  1.00  0.00     0.016 A 
ATOM     19  S   UNL A   1      38.378  21.573  25.687  1.00  0.00    -0.148 S 
ATOM     20  C   UNL A   1      38.953  23.843  26.735  1.00  0.00     0.012 A 
ATOM     21  C   UNL A   1      39.496  22.609  26.460  1.00  0.00     0.065 A 
ENDBRANCH  15  17
ENDBRANCH  12  15
ENDBRANCH   6  11
ENDBRANCH   3   6
ENDBRANCH   1   2
BRANCH   1  22
ATOM     22  C   UNL A   1      33.116  29.034  24.212  1.00  0.00     0.042 C 
BRANCH  22  23
ATOM     23  C   UNL A   1      33.102  29.240  25.721  1.00  0.00     0.118 C 
BRANCH  23  24
ATOM     24  N   UNL A   1      32.836  30.629  26.084  1.00  0.00    -0.352 N 
ATOM     25  C   UNL A   1      33.386  31.422  27.056  1.00  0.00     0.251 C 
ATOM     26  H   UNL A   1      32.145  31.070  25.538  1.00  0.00     0.163 HD
ATOM     27  O   UNL A   1      32.832  32.486  27.353  1.00  0.00    -0.269 OA
BRANCH  25  28
ATOM     28  C   UNL A   1      34.626  31.030  27.757  1.00  0.00     0.039 A 
ATOM     29  C   UNL A   1      35.611  31.996  27.992  1.00  0.00     0.014 A 
ATOM     30  C   UNL A   1      34.852  29.705  28.135  1.00  0.00     0.014 A 
ATOM     31  C   UNL A   1      36.790  31.643  28.654  1.00  0.00     0.010 A 
ATOM     32  C   UNL A   1      35.981  29.375  28.876  1.00  0.00     0.010 A 
ATOM     33  C   UNL A   1      36.970  30.334  29.130  1.00  0.00    -0.014 A 
BRANCH  33  34
ATOM     34  C   UNL A   1      38.199  29.934  29.862  1.00  0.00     0.031 A 
ATOM     35  C   UNL A   1      38.440  30.440  31.258  1.00  0.00     0.074 A 
ATOM     36  C   UNL A   1      39.130  29.180  29.246  1.00  0.00     0.049 A 
ATOM     37  N   UNL A   1      39.488  30.288  32.028  1.00  0.00    -0.248 NA
ATOM     38  C   UNL A   1      37.373  31.260  31.857  1.00  0.00     0.031 C 
ATOM     39  C   UNL A   1      39.036  28.669  27.878  1.00  0.00     0.029 A 
ATOM     40  N   UNL A   1      40.344  28.720  29.691  1.00  0.00    -0.354 N 
ATOM     41  C   UNL A   1      39.218  31.012  33.183  1.00  0.00     0.074 A 
ATOM     42  C   UNL A   1      37.934  31.648  32.991  1.00  0.00     0.031 C 
ATOM     43  C   UNL A   1      40.130  27.942  27.605  1.00  0.00     0.029 A 
ATOM     44  C   UNL A   1      41.019  27.966  28.763  1.00  0.00     0.049 A 
ATOM     45  H   UNL A   1      40.697  28.913  30.590  1.00  0.00     0.167 HD
ATOM     46  C   UNL A   1      39.959  31.112  34.311  1.00  0.00     0.037 A 
ATOM     47  C   UNL A   1      42.221  27.365  28.839  1.00  0.00     0.037 A 
ATOM     48  C   UNL A   1      41.216  30.442  34.513  1.00  0.00     0.049 A 
ATOM     49  C   UNL A   1      43.019  27.479  30.109  1.00  0.00     0.074 A 
ATOM     50  C   UNL A   1      42.014  30.424  35.643  1.00  0.00     0.029 A 
ATOM     51  N   UNL A   1      41.855  29.665  33.559  1.00  0.00    -0.354 N 
ATOM     52  N   UNL A   1      42.726  28.114  31.217  1.00  0.00    -0.248 NA
ATOM     53  C   UNL A   1      44.314  26.786  30.140  1.00  0.00     0.031 C 
ATOM     54  C   UNL A   1      43.155  29.665  35.361  1.00  0.00     0.029 A 
ATOM     55  C   UNL A   1      43.046  29.175  34.069  1.00  0.00     0.049 A 
ATOM     56  H   UNL A   1      41.514  29.488  32.653  1.00  0.00     0.167 HD
ATOM     57  C   UNL A   1      43.783  27.878  32.085  1.00  0.00     0.074 A 
ATOM     58  C   UNL A   1      44.719  27.028  31.379  1.00  0.00     0.031 C 
ATOM     59  C   UNL A   1      43.962  28.324  33.352  1.00  0.00     0.037 A 
BRANCH  46  60
ATOM     60  C   UNL A   1      39.420  31.975  35.416  1.00  0.00     0.064 A 
ATOM     61  C   UNL A   1      38.560  31.461  36.400  1.00  0.00     0.173 A 
ATOM     62  C   UNL A   1      39.777  33.329  35.503  1.00  0.00     0.173 A 
ATOM     63  F   UNL A   1      38.178  30.175  36.355  1.00  0.00    -0.203 F 
ATOM     64  C   UNL A   1      38.048  32.277  37.403  1.00  0.00     0.198 A 
ATOM     65  C   UNL A   1      39.287  34.136  36.528  1.00  0.00     0.198 A 
ATOM     66  F   UNL A   1      40.599  33.872  34.594  1.00  0.00    -0.203 F 
ATOM     67  F   UNL A   1      37.180  31.776  38.294  1.00  0.00    -0.200 F 
ATOM     68  C   UNL A   1      38.415  33.612  37.470  1.00  0.00     0.200 A 
ATOM     69  F   UNL A   1      39.652  35.424  36.598  1.00  0.00    -0.200 F 
ATOM     70  F   UNL A   1      37.921  34.397  38.438  1.00  0.00    -0.200 F 
ENDBRANCH  46  60
BRANCH  47  71
ATOM     71  C   UNL A   1      42.719  26.564  27.693  1.00  0.00     0.064 A 
ATOM     72  C   UNL A   1      43.536  27.150  26.715  1.00  0.00     0.173 A 
ATOM     73  C   UNL A   1      42.406  25.205  27.553  1.00  0.00     0.173 A 
ATOM     74  F   UNL A   1      43.848  28.452  26.796  1.00  0.00    -0.203 F 
ATOM     75  C   UNL A   1      44.009  26.409  25.634  1.00  0.00     0.198 A 
ATOM     76  C   UNL A   1      42.900  24.459  26.485  1.00  0.00     0.198 A 
ATOM     77  F   UNL A   1      41.634  24.597  28.466  1.00  0.00    -0.203 F 
ATOM     78  F   UNL A   1      44.759  27.002  24.695  1.00  0.00    -0.200 F 
ATOM     79  C   UNL A   1      43.696  25.063  25.523  1.00  0.00     0.200 A 
ATOM     80  F   UNL A   1      42.608  23.155  26.390  1.00  0.00    -0.200 F 
ATOM     81  F   UNL A   1      44.157  24.348  24.488  1.00  0.00    -0.200 F 
ENDBRANCH  47  71
BRANCH  59  82
ATOM     82  C   UNL A   1      45.201  27.874  34.068  1.00  0.00     0.064 A 
ATOM     83  C   UNL A   1      46.383  28.627  34.035  1.00  0.00     0.173 A 
ATOM     84  C   UNL A   1      45.190  26.697  34.831  1.00  0.00     0.173 A 
ATOM     85  F   UNL A   1      46.446  29.751  33.305  1.00  0.00    -0.203 F 
ATOM     86  C   UNL A   1      47.518  28.206  34.720  1.00  0.00     0.198 A 
ATOM     87  C   UNL A   1      46.319  26.293  35.539  1.00  0.00     0.198 A 
ATOM     88  F   UNL A   1      44.081  25.945  34.901  1.00  0.00    -0.203 F 
ATOM     89  F   UNL A   1      48.651  28.917  34.639  1.00  0.00    -0.200 F 
ATOM     90  C   UNL A   1      47.483  27.043  35.478  1.00  0.00     0.200 A 
ATOM     91  F   UNL A   1      46.280  25.177  36.279  1.00  0.00    -0.200 F 
ATOM     92  F   UNL A   1      48.575  26.643  36.143  1.00  0.00    -0.200 F 
ENDBRANCH  59  82
ENDBRANCH  33  34
ENDBRANCH  25  28
ENDBRANCH  23  24
ENDBRANCH  22  23
ENDBRANCH   1  22
TORSDOF 13
ENDMDL
MODEL 2
REMARK VINA RESULT:     -11.7      4.733      7.925
REMARK SMILES C[C@H](C(=O)NC1(C(=O)NCCCNC(=O)c2ccc(-c3c4nc(c(-c5c(F)c(F)c(F)c(F)c5F)c5ccc([nH]5)c(-c5c(F)c(F)c(F)c(F)c5F)c5nc(c(-c6c(F)c(F)c(F)c(F)c6F)c6ccc3[nH]6)C=C5)C=C4)cc2)CCCC1)c1cccs1
REMARK SMILES IDX 10 1 9 2 7 3 8 4 6 6 79 7 82 8 80 9 81 10 5 11 3 12 4 13
REMARK SMILES IDX 2 15 1 16 83 17 84 18 87 19 85 20 86 21 11 22 12 23 13 24
REMARK SMILES IDX 14 25 15 27 16 28 17 29 78 30 18 31 77 32 19 33 20 34 21 35
REMARK SMILES IDX 71 36 22 37 76 38 70 39 72 40 23 41 75 42 69 43 68 44 24 46
REMARK SMILES IDX 56 47 36 48 55 49 37 50 40 51 54 52 73 53 38 54 39 55 53 57
REMARK SMILES IDX 74 58 41 59 25 60 26 61 34 62 27 63 28 64 32 65 35 66 29 67
REMARK SMILES IDX 30 68 33 69 31 70 57 71 58 72 66 73 59 74 60 75 64 76 67 77
REMARK SMILES IDX 61 78 62 79 65 80 63 81 42 82 43 83 51 84 44 85 45 86 49 87
REMARK SMILES IDX 52 88 46 89 47 90 50 91 48 92
REMARK H PARENT 9 5 5 14 13 26 72 45 40 56
REMARK Flexibility Score: inf
ROOT
ATOM      1  C   UNL A   1      36.549  20.372  25.009  1.00  0.00     0.117 C 
ENDROOT
BRANCH   1   2
ATOM      2  N   UNL A   1      35.355  19.556  24.969  1.00  0.00    -0.354 N 
ATOM      3  C   UNL A   1      34.038  19.855  24.833  1.00  0.00     0.245 C 
ATOM      4  O   UNL A   1      33.311  18.863  24.680  1.00  0.00    -0.272 OA
ATOM      5  H   UNL A   1      35.533  18.593  25.059  1.00  0.00     0.163 HD
BRANCH   3   6
ATOM      6  C   UNL A   1      33.437  21.307  24.730  1.00  0.00     0.119 C 
ATOM      7  C   UNL A   1      32.172  21.293  23.842  1.00  0.00     0.038 C 
ATOM      8  C   UNL A   1      34.330  22.379  24.107  1.00  0.00     0.038 C 
ATOM      9  C   UNL A   1      32.528  21.927  22.509  1.00  0.00     0.003 C 
ATOM     10  C   UNL A   1      33.725  22.816  22.774  1.00  0.00     0.003 C 
BRANCH   6  11
ATOM     11  N   UNL A   1      32.961  21.579  26.123  1.00  0.00    -0.341 N 
ATOM     12  C   UNL A   1      32.357  22.586  26.807  1.00  0.00     0.228 C 
ATOM     13  O   UNL A   1      32.517  22.563  28.035  1.00  0.00    -0.274 OA
ATOM     14  H   UNL A   1      33.135  20.809  26.712  1.00  0.00     0.164 HD
BRANCH  12  15
ATOM     15  C   UNL A   1      31.405  23.594  26.166  1.00  0.00     0.115 C 
ATOM     16  C   UNL A   1      30.048  23.597  26.883  1.00  0.00     0.024 C 
BRANCH  15  17
ATOM     17  C   UNL A   1      31.957  24.999  26.089  1.00  0.00     0.017 A 
ATOM     18  C   UNL A   1      33.293  25.350  25.972  1.00  0.00     0.016 A 
ATOM     19  S   UNL A   1      30.960  26.393  26.110  1.00  0.00    -0.148 S 
ATOM     20  C   UNL A   1      33.498  26.756  26.018  1.00  0.00     0.012 A 
ATOM     21  C   UNL A   1      32.309  27.442  26.116  1.00  0.00     0.065 A 
ENDBRANCH  15  17
ENDBRANCH  12  15
ENDBRANCH   6  11
ENDBRANCH   3   6
ENDBRANCH   1   2
BRANCH   1  22
ATOM     22  C   UNL A   1      37.824  19.547  24.929  1.00  0.00     0.042 C 
BRANCH  22  23
ATOM     23  C   UNL A   1      38.972  20.150  25.727  1.00  0.00     0.118 C 
BRANCH  23  24
ATOM     24  N   UNL A   1      40.072  19.206  25.904  1.00  0.00    -0.352 N 
ATOM     25  C   UNL A   1      41.415  19.417  26.072  1.00  0.00     0.251 C 
ATOM     26  H   UNL A   1      39.804  18.258  25.901  1.00  0.00     0.163 HD
ATOM     27  O   UNL A   1      42.197  18.467  25.946  1.00  0.00    -0.269 OA
BRANCH  25  28
ATOM     28  C   UNL A   1      41.948  20.755  26.398  1.00  0.00     0.039 A 
ATOM     29  C   UNL A   1      42.182  21.667  25.363  1.00  0.00     0.014 A 
ATOM     30  C   UNL A   1      42.275  21.100  27.711  1.00  0.00     0.014 A 
ATOM     31  C   UNL A   1      42.687  22.937  25.654  1.00  0.00     0.010 A 
ATOM     32  C   UNL A   1      42.686  22.395  28.010  1.00  0.00     0.010 A 
ATOM     33  C   UNL A   1      42.913  23.322  26.985  1.00  0.00    -0.014 A 
BRANCH  33  34
ATOM     34  C   UNL A   1      43.420  24.675  27.329  1.00  0.00     0.031 A 
ATOM     35  C   UNL A   1      42.492  25.697  27.926  1.00  0.00     0.074 A 
ATOM     36  C   UNL A   1      44.692  25.007  27.035  1.00  0.00     0.049 A 
ATOM     37  N   UNL A   1      42.713  26.956  28.206  1.00  0.00    -0.248 NA
ATOM     38  C   UNL A   1      41.118  25.252  28.214  1.00  0.00     0.031 C 
ATOM     39  C   UNL A   1      45.676  24.121  26.411  1.00  0.00     0.029 A 
ATOM     40  N   UNL A   1      45.373  26.185  27.217  1.00  0.00    -0.354 N 
ATOM     41  C   UNL A   1      41.504  27.457  28.674  1.00  0.00     0.074 A 
ATOM     42  C   UNL A   1      40.540  26.383  28.587  1.00  0.00     0.031 C 
ATOM     43  C   UNL A   1      46.841  24.776  26.288  1.00  0.00     0.029 A 
ATOM     44  C   UNL A   1      46.677  26.137  26.789  1.00  0.00     0.049 A 
ATOM     45  H   UNL A   1      44.965  26.987  27.615  1.00  0.00     0.167 HD
ATOM     46  C   UNL A   1      41.231  28.692  29.158  1.00  0.00     0.037 A 
ATOM     47  C   UNL A   1      47.631  27.087  26.801  1.00  0.00     0.037 A 
ATOM     48  C   UNL A   1      42.203  29.744  29.282  1.00  0.00     0.049 A 
ATOM     49  C   UNL A   1      47.306  28.446  27.358  1.00  0.00     0.074 A 
ATOM     50  C   UNL A   1      42.046  31.008  29.822  1.00  0.00     0.029 A 
ATOM     51  N   UNL A   1      43.522  29.650  28.863  1.00  0.00    -0.354 N 
ATOM     52  N   UNL A   1      46.178  28.889  27.854  1.00  0.00    -0.248 NA
ATOM     53  C   UNL A   1      48.393  29.435  27.361  1.00  0.00     0.031 C 
ATOM     54  C   UNL A   1      43.260  31.693  29.696  1.00  0.00     0.029 A 
ATOM     55  C   UNL A   1      44.186  30.838  29.117  1.00  0.00     0.049 A 
ATOM     56  H   UNL A   1      43.927  28.855  28.446  1.00  0.00     0.167 HD
ATOM     57  C   UNL A   1      46.423  30.196  28.253  1.00  0.00     0.074 A 
ATOM     58  C   UNL A   1      47.813  30.470  27.952  1.00  0.00     0.031 C 
ATOM     59  C   UNL A   1      45.572  31.089  28.817  1.00  0.00     0.037 A 
BRANCH  46  60
ATOM     60  C   UNL A   1      39.820  28.964  29.597  1.00  0.00     0.064 A 
ATOM     61  C   UNL A   1      39.408  28.755  30.924  1.00  0.00     0.173 A 
ATOM     62  C   UNL A   1      38.871  29.452  28.687  1.00  0.00     0.173 A 
ATOM     63  F   UNL A   1      40.275  28.278  31.831  1.00  0.00    -0.203 F 
ATOM     64  C   UNL A   1      38.092  28.987  31.312  1.00  0.00     0.198 A 
ATOM     65  C   UNL A   1      37.562  29.712  29.087  1.00  0.00     0.198 A 
ATOM     66  F   UNL A   1      39.210  29.674  27.409  1.00  0.00    -0.203 F 
ATOM     67  F   UNL A   1      37.710  28.721  32.569  1.00  0.00    -0.200 F 
ATOM     68  C   UNL A   1      37.171  29.469  30.395  1.00  0.00     0.200 A 
ATOM     69  F   UNL A   1      36.675  30.191  28.203  1.00  0.00    -0.200 F 
ATOM     70  F   UNL A   1      35.904  29.693  30.770  1.00  0.00    -0.200 F 
ENDBRANCH  46  60
BRANCH  47  71
ATOM     71  C   UNL A   1      48.995  26.769  26.308  1.00  0.00     0.064 A 
ATOM     72  C   UNL A   1      49.346  27.012  24.972  1.00  0.00     0.173 A 
ATOM     73  C   UNL A   1      49.976  26.230  27.152  1.00  0.00     0.173 A 
ATOM     74  F   UNL A   1      48.436  27.510  24.121  1.00  0.00    -0.203 F 
ATOM     75  C   UNL A   1      50.622  26.717  24.498  1.00  0.00     0.198 A 
ATOM     76  C   UNL A   1      51.259  25.959  26.683  1.00  0.00     0.198 A 
ATOM     77  F   UNL A   1      49.691  25.986  28.440  1.00  0.00    -0.203 F 
ATOM     78  F   UNL A   1      50.920  26.928  23.209  1.00  0.00    -0.200 F 
ATOM     79  C   UNL A   1      51.580  26.196  25.355  1.00  0.00     0.200 A 
ATOM     80  F   UNL A   1      52.186  25.469  27.518  1.00  0.00    -0.200 F 
ATOM     81  F   UNL A   1      52.809  25.919  24.901  1.00  0.00    -0.200 F 
ENDBRANCH  47  71
BRANCH  59  82
ATOM     82  C   UNL A   1      46.132  32.433  29.176  1.00  0.00     0.064 A 
ATOM     83  C   UNL A   1      46.077  33.514  28.284  1.00  0.00     0.173 A 
ATOM     84  C   UNL A   1      46.689  32.653  30.444  1.00  0.00     0.173 A 
ATOM     85  F   UNL A   1      45.568  33.348  27.054  1.00  0.00    -0.203 F 
ATOM     86  C   UNL A   1      46.582  34.761  28.640  1.00  0.00     0.198 A 
ATOM     87  C   UNL A   1      47.168  33.909  30.808  1.00  0.00     0.198 A 
ATOM     88  F   UNL A   1      46.759  31.653  31.336  1.00  0.00    -0.203 F 
ATOM     89  F   UNL A   1      46.561  35.768  27.757  1.00  0.00    -0.200 F 
ATOM     90  C   UNL A   1      47.121  34.960  29.904  1.00  0.00     0.200 A 
ATOM     91  F   UNL A   1      47.677  34.102  32.032  1.00  0.00    -0.200 F 
ATOM     92  F   UNL A   1      47.601  36.162  30.247  1.00  0.00    -0.200 F 
ENDBRANCH  59  82
ENDBRANCH  33  34
ENDBRANCH  25  28
ENDBRANCH  23  24
ENDBRANCH  22  23
ENDBRANCH   1  22
TORSDOF 13
ENDMDL
MODEL 3
REMARK VINA RESULT:     -11.7      4.775      8.038
REMARK SMILES C[C@H](C(=O)NC1(C(=O)NCCCNC(=O)c2ccc(-c3c4nc(c(-c5c(F)c(F)c(F)c(F)c5F)c5ccc([nH]5)c(-c5c(F)c(F)c(F)c(F)c5F)c5nc(c(-c6c(F)c(F)c(F)c(F)c6F)c6ccc3[nH]6)C=C5)C=C4)cc2)CCCC1)c1cccs1
REMARK SMILES IDX 10 1 9 2 7 3 8 4 6 6 79 7 82 8 80 9 81 10 5 11 3 12 4 13
REMARK SMILES IDX 2 15 1 16 83 17 84 18 87 19 85 20 86 21 11 22 12 23 13 24
REMARK SMILES IDX 14 25 15 27 16 28 17 29 78 30 18 31 77 32 19 33 20 34 21 35
REMARK SMILES IDX 71 36 22 37 76 38 70 39 72 40 23 41 75 42 69 43 68 44 24 46
REMARK SMILES IDX 56 47 36 48 55 49 37 50 40 51 54 52 73 53 38 54 39 55 53 57
REMARK SMILES IDX 74 58 41 59 25 60 26 61 34 62 27 63 28 64 32 65 35 66 29 67
REMARK SMILES IDX 30 68 33 69 31 70 57 71 58 72 66 73 59 74 60 75 64 76 67 77
REMARK SMILES IDX 61 78 62 79 65 80 63 81 42 82 43 83 51 84 44 85 45 86 49 87
REMARK SMILES IDX 52 88 46 89 47 90 50 91 48 92
REMARK H PARENT 9 5 5 14 13 26 72 45 40 56
REMARK Flexibility Score: inf
ROOT
ATOM      1  C   UNL A   1      36.583  20.338  24.989  1.00  0.00     0.117 C 
ENDROOT
BRANCH   1   2
ATOM      2  N   UNL A   1      35.377  19.543  24.942  1.00  0.00    -0.354 N 
ATOM      3  C   UNL A   1      34.062  19.866  24.849  1.00  0.00     0.245 C 
ATOM      4  O   UNL A   1      33.316  18.892  24.671  1.00  0.00    -0.272 OA
ATOM      5  H   UNL A   1      35.542  18.573  24.986  1.00  0.00     0.163 HD
BRANCH   3   6
ATOM      6  C   UNL A   1      33.481  21.330  24.821  1.00  0.00     0.119 C 
ATOM      7  C   UNL A   1      32.213  21.378  23.939  1.00  0.00     0.038 C 
ATOM      8  C   UNL A   1      34.387  22.419  24.249  1.00  0.00     0.038 C 
ATOM      9  C   UNL A   1      32.573  22.073  22.638  1.00  0.00     0.003 C 
ATOM     10  C   UNL A   1      33.784  22.931  22.942  1.00  0.00     0.003 C 
BRANCH   6  11
ATOM     11  N   UNL A   1      33.014  21.538  26.229  1.00  0.00    -0.341 N 
ATOM     12  C   UNL A   1      32.251  22.425  26.920  1.00  0.00     0.228 C 
ATOM     13  O   UNL A   1      32.459  22.464  28.140  1.00  0.00    -0.274 OA
ATOM     14  H   UNL A   1      33.359  20.832  26.822  1.00  0.00     0.164 HD
BRANCH  12  15
ATOM     15  C   UNL A   1      31.095  23.211  26.303  1.00  0.00     0.115 C 
ATOM     16  C   UNL A   1      29.811  23.032  27.124  1.00  0.00     0.024 C 
BRANCH  15  17
ATOM     17  C   UNL A   1      31.388  24.681  26.105  1.00  0.00     0.017 A 
ATOM     18  C   UNL A   1      32.638  25.279  26.135  1.00  0.00     0.016 A 
ATOM     19  S   UNL A   1      30.165  25.837  25.779  1.00  0.00    -0.148 S 
ATOM     20  C   UNL A   1      32.572  26.694  26.007  1.00  0.00     0.012 A 
ATOM     21  C   UNL A   1      31.279  27.131  25.830  1.00  0.00     0.065 A 
ENDBRANCH  15  17
ENDBRANCH  12  15
ENDBRANCH   6  11
ENDBRANCH   3   6
ENDBRANCH   1   2
BRANCH   1  22
ATOM     22  C   UNL A   1      37.845  19.490  24.952  1.00  0.00     0.042 C 
BRANCH  22  23
ATOM     23  C   UNL A   1      39.011  20.126  25.697  1.00  0.00     0.118 C 
BRANCH  23  24
ATOM     24  N   UNL A   1      40.111  19.187  25.899  1.00  0.00    -0.352 N 
ATOM     25  C   UNL A   1      41.450  19.404  26.090  1.00  0.00     0.251 C 
ATOM     26  H   UNL A   1      39.846  18.238  25.896  1.00  0.00     0.163 HD
ATOM     27  O   UNL A   1      42.237  18.457  25.983  1.00  0.00    -0.269 OA
BRANCH  25  28
ATOM     28  C   UNL A   1      41.972  20.746  26.418  1.00  0.00     0.039 A 
ATOM     29  C   UNL A   1      42.220  21.654  25.382  1.00  0.00     0.014 A 
ATOM     30  C   UNL A   1      42.275  21.099  27.735  1.00  0.00     0.014 A 
ATOM     31  C   UNL A   1      42.715  22.928  25.675  1.00  0.00     0.010 A 
ATOM     32  C   UNL A   1      42.675  22.397  28.034  1.00  0.00     0.010 A 
ATOM     33  C   UNL A   1      42.916  23.320  27.008  1.00  0.00    -0.014 A 
BRANCH  33  34
ATOM     34  C   UNL A   1      43.413  24.676  27.353  1.00  0.00     0.031 A 
ATOM     35  C   UNL A   1      42.473  25.694  27.941  1.00  0.00     0.074 A 
ATOM     36  C   UNL A   1      44.685  25.015  27.070  1.00  0.00     0.049 A 
ATOM     37  N   UNL A   1      42.684  26.955  28.220  1.00  0.00    -0.248 NA
ATOM     38  C   UNL A   1      41.100  25.242  28.218  1.00  0.00     0.031 C 
ATOM     39  C   UNL A   1      45.679  24.135  26.455  1.00  0.00     0.029 A 
ATOM     40  N   UNL A   1      45.357  26.198  27.255  1.00  0.00    -0.354 N 
ATOM     41  C   UNL A   1      41.469  27.450  28.677  1.00  0.00     0.074 A 
ATOM     42  C   UNL A   1      40.512  26.370  28.584  1.00  0.00     0.031 C 
ATOM     43  C   UNL A   1      46.841  24.796  26.340  1.00  0.00     0.029 A 
ATOM     44  C   UNL A   1      46.665  26.157  26.838  1.00  0.00     0.049 A 
ATOM     45  H   UNL A   1      44.941  26.999  27.648  1.00  0.00     0.167 HD
ATOM     46  C   UNL A   1      41.183  28.683  29.156  1.00  0.00     0.037 A 
ATOM     47  C   UNL A   1      47.613  27.113  26.856  1.00  0.00     0.037 A 
ATOM     48  C   UNL A   1      42.149  29.742  29.286  1.00  0.00     0.049 A 
ATOM     49  C   UNL A   1      47.275  28.471  27.407  1.00  0.00     0.074 A 
ATOM     50  C   UNL A   1      41.979  31.006  29.822  1.00  0.00     0.029 A 
ATOM     51  N   UNL A   1      43.471  29.655  28.878  1.00  0.00    -0.354 N 
ATOM     52  N   UNL A   1      46.140  28.908  27.894  1.00  0.00    -0.248 NA
ATOM     53  C   UNL A   1      48.356  29.467  27.418  1.00  0.00     0.031 C 
ATOM     54  C   UNL A   1      43.190  31.698  29.705  1.00  0.00     0.029 A 
ATOM     55  C   UNL A   1      44.126  30.848  29.136  1.00  0.00     0.049 A 
ATOM     56  H   UNL A   1      43.885  28.861  28.466  1.00  0.00     0.167 HD
ATOM     57  C   UNL A   1      46.374  30.217  28.292  1.00  0.00     0.074 A 
ATOM     58  C   UNL A   1      47.764  30.499  28.002  1.00  0.00     0.031 C 
ATOM     59  C   UNL A   1      45.513  31.106  28.847  1.00  0.00     0.037 A 
BRANCH  46  60
ATOM     60  C   UNL A   1      39.767  28.948  29.583  1.00  0.00     0.064 A 
ATOM     61  C   UNL A   1      38.804  29.432  28.683  1.00  0.00     0.173 A 
ATOM     62  C   UNL A   1      39.363  28.702  30.904  1.00  0.00     0.173 A 
ATOM     63  F   UNL A   1      39.143  29.696  27.411  1.00  0.00    -0.203 F 
ATOM     64  C   UNL A   1      37.503  29.698  29.098  1.00  0.00     0.198 A 
ATOM     65  C   UNL A   1      38.051  28.939  31.308  1.00  0.00     0.198 A 
ATOM     66  F   UNL A   1      40.239  28.234  31.804  1.00  0.00    -0.203 F 
ATOM     67  F   UNL A   1      36.620  30.217  28.235  1.00  0.00    -0.200 F 
ATOM     68  C   UNL A   1      37.126  29.446  30.408  1.00  0.00     0.200 A 
ATOM     69  F   UNL A   1      37.684  28.684  32.572  1.00  0.00    -0.200 F 
ATOM     70  F   UNL A   1      35.872  29.701  30.806  1.00  0.00    -0.200 F 
ENDBRANCH  46  60
BRANCH  47  71
ATOM     71  C   UNL A   1      48.983  26.802  26.375  1.00  0.00     0.064 A 
ATOM     72  C   UNL A   1      49.336  27.024  25.036  1.00  0.00     0.173 A 
ATOM     73  C   UNL A   1      49.966  26.294  27.234  1.00  0.00     0.173 A 
ATOM     74  F   UNL A   1      48.424  27.492  24.172  1.00  0.00    -0.203 F 
ATOM     75  C   UNL A   1      50.618  26.735  24.573  1.00  0.00     0.198 A 
ATOM     76  C   UNL A   1      51.255  26.029  26.776  1.00  0.00     0.198 A 
ATOM     77  F   UNL A   1      49.680  26.072  28.525  1.00  0.00    -0.203 F 
ATOM     78  F   UNL A   1      50.919  26.923  23.281  1.00  0.00    -0.200 F 
ATOM     79  C   UNL A   1      51.579  26.244  25.444  1.00  0.00     0.200 A 
ATOM     80  F   UNL A   1      52.184  25.568  27.624  1.00  0.00    -0.200 F 
ATOM     81  F   UNL A   1      52.813  25.973  25.001  1.00  0.00    -0.200 F 
ENDBRANCH  47  71
BRANCH  59  82
ATOM     82  C   UNL A   1      46.061  32.455  29.208  1.00  0.00     0.064 A 
ATOM     83  C   UNL A   1      46.648  32.699  30.458  1.00  0.00     0.173 A 
ATOM     84  C   UNL A   1      46.036  33.503  28.276  1.00  0.00     0.173 A 
ATOM     85  F   UNL A   1      46.681  31.732  31.388  1.00  0.00    -0.203 F 
ATOM     86  C   UNL A   1      47.170  33.950  30.770  1.00  0.00     0.198 A 
ATOM     87  C   UNL A   1      46.585  34.745  28.582  1.00  0.00     0.198 A 
ATOM     88  F   UNL A   1      45.492  33.318  27.064  1.00  0.00    -0.203 F 
ATOM     89  F   UNL A   1      47.687  34.174  31.986  1.00  0.00    -0.200 F 
ATOM     90  C   UNL A   1      47.145  34.971  29.830  1.00  0.00     0.200 A 
ATOM     91  F   UNL A   1      46.570  35.726  27.668  1.00  0.00    -0.200 F 
ATOM     92  F   UNL A   1      47.654  36.173  30.130  1.00  0.00    -0.200 F 
ENDBRANCH  59  82
ENDBRANCH  33  34
ENDBRANCH  25  28
ENDBRANCH  23  24
ENDBRANCH  22  23
ENDBRANCH   1  22
TORSDOF 13
ENDMDL
