MODEL 1
REMARK VINA RESULT:     -11.0      0.000      0.000
REMARK SMILES CC[C@H](C)[C@@H](C(=O)NCCCNC(=O)c1ccc(-c2c3nc(c(-c4c(F)c(F)c(F)c(F)c4F)c4ccc([nH]4)c(-c4c(F)c(F)c(F)c(F)c4F)c4nc(c(-c5c(F)c(F)c(F)c(F)c5F)c5ccc2[nH]5)C=C4)C=C3)cc1)[NH+]1CC(C)(C)C1
REMARK SMILES IDX 10 1 9 2 8 3 6 4 7 5 5 7 3 8 4 9 2 10 1 11 78 12 79 13 83 14
REMARK SMILES IDX 80 16 81 17 82 18 11 19 12 20 13 21 14 23 15 24 16 25 77 26
REMARK SMILES IDX 17 27 76 28 18 29 19 30 20 31 70 32 21 33 75 34 69 35 71 36
REMARK SMILES IDX 22 37 74 38 68 39 67 40 23 42 55 43 35 44 54 45 36 46 39 47
REMARK SMILES IDX 53 48 72 49 37 50 38 51 52 53 73 54 40 55 24 56 25 57 33 58
REMARK SMILES IDX 26 59 27 60 31 61 34 62 28 63 29 64 32 65 30 66 56 67 57 68
REMARK SMILES IDX 65 69 58 70 59 71 63 72 66 73 60 74 61 75 64 76 62 77 41 78
REMARK SMILES IDX 42 79 50 80 43 81 44 82 48 83 51 84 45 85 46 86 49 87 47 88
REMARK H PARENT 8 6 78 15 12 22 71 41 39 52
REMARK Flexibility Score: inf
ROOT
ATOM      1  C   UNL A   1      33.030  28.933  23.257  1.00  0.00     0.042 C 
ENDROOT
BRANCH   1   2
ATOM      2  C   UNL A   1      33.999  28.110  22.398  1.00  0.00     0.118 C 
BRANCH   2   3
ATOM      3  N   UNL A   1      33.345  26.993  21.728  1.00  0.00    -0.351 N 
ATOM      4  C   UNL A   1      33.278  25.655  22.011  1.00  0.00     0.278 C 
ATOM      5  O   UNL A   1      32.764  24.949  21.137  1.00  0.00    -0.268 OA
ATOM      6  H   UNL A   1      32.856  27.252  20.913  1.00  0.00     0.163 HD
BRANCH   4   7
ATOM      7  C   UNL A   1      33.808  25.087  23.364  1.00  0.00     0.277 C 
BRANCH   7   8
ATOM      8  C   UNL A   1      34.492  23.686  23.153  1.00  0.00     0.054 C 
ATOM      9  C   UNL A   1      35.821  23.535  23.890  1.00  0.00     0.014 C 
BRANCH   8  10
ATOM     10  C   UNL A   1      33.524  22.527  23.507  1.00  0.00     0.006 C 
ATOM     11  C   UNL A   1      34.039  21.510  24.518  1.00  0.00     0.004 C 
ENDBRANCH   8  10
ENDBRANCH   7   8
BRANCH   7  12
ATOM     12  N   UNL A   1      32.673  24.878  24.306  1.00  0.00    -0.323 N 
ATOM     13  C   UNL A   1      32.924  25.410  25.679  1.00  0.00     0.275 C 
ATOM     14  C   UNL A   1      31.572  25.879  24.193  1.00  0.00     0.275 C 
ATOM     15  H   UNL A   1      32.511  23.887  24.126  1.00  0.00     0.348 HD
ATOM     16  C   UNL A   1      31.399  25.729  25.738  1.00  0.00     0.063 C 
ATOM     17  C   UNL A   1      31.028  27.001  26.487  1.00  0.00     0.023 C 
ATOM     18  C   UNL A   1      30.528  24.548  26.189  1.00  0.00     0.023 C 
ENDBRANCH   7  12
ENDBRANCH   4   7
ENDBRANCH   2   3
ENDBRANCH   1   2
BRANCH   1  19
ATOM     19  C   UNL A   1      33.427  29.083  24.725  1.00  0.00     0.118 C 
BRANCH  19  20
ATOM     20  N   UNL A   1      32.735  30.184  25.373  1.00  0.00    -0.352 N 
ATOM     21  C   UNL A   1      33.002  30.816  26.564  1.00  0.00     0.251 C 
ATOM     22  H   UNL A   1      31.955  30.531  24.883  1.00  0.00     0.163 HD
ATOM     23  O   UNL A   1      32.165  31.589  27.030  1.00  0.00    -0.269 OA
BRANCH  21  24
ATOM     24  C   UNL A   1      34.264  30.583  27.309  1.00  0.00     0.039 A 
ATOM     25  C   UNL A   1      34.534  29.292  27.780  1.00  0.00     0.014 A 
ATOM     26  C   UNL A   1      35.142  31.624  27.625  1.00  0.00     0.014 A 
ATOM     27  C   UNL A   1      35.691  29.039  28.526  1.00  0.00     0.010 A 
ATOM     28  C   UNL A   1      36.330  31.358  28.312  1.00  0.00     0.010 A 
ATOM     29  C   UNL A   1      36.611  30.066  28.785  1.00  0.00    -0.014 A 
BRANCH  29  30
ATOM     30  C   UNL A   1      37.842  29.820  29.587  1.00  0.00     0.031 A 
ATOM     31  C   UNL A   1      38.915  28.903  29.061  1.00  0.00     0.074 A 
ATOM     32  C   UNL A   1      37.986  30.385  30.803  1.00  0.00     0.049 A 
ATOM     33  N   UNL A   1      40.010  28.483  29.645  1.00  0.00    -0.248 NA
ATOM     34  C   UNL A   1      38.723  28.375  27.701  1.00  0.00     0.031 C 
ATOM     35  C   UNL A   1      37.021  31.280  31.441  1.00  0.00     0.029 A 
ATOM     36  N   UNL A   1      39.001  30.281  31.724  1.00  0.00    -0.354 N 
ATOM     37  C   UNL A   1      40.624  27.632  28.736  1.00  0.00     0.074 A 
ATOM     38  C   UNL A   1      39.762  27.561  27.575  1.00  0.00     0.031 C 
ATOM     39  C   UNL A   1      37.493  31.651  32.643  1.00  0.00     0.029 A 
ATOM     40  C   UNL A   1      38.776  30.994  32.876  1.00  0.00     0.049 A 
ATOM     41  H   UNL A   1      39.813  29.746  31.572  1.00  0.00     0.167 HD
ATOM     42  C   UNL A   1      41.809  26.984  28.844  1.00  0.00     0.037 A 
ATOM     43  C   UNL A   1      39.514  31.097  33.999  1.00  0.00     0.037 A 
ATOM     44  C   UNL A   1      42.687  27.075  29.981  1.00  0.00     0.049 A 
ATOM     45  C   UNL A   1      40.823  30.358  34.097  1.00  0.00     0.074 A 
ATOM     46  C   UNL A   1      43.915  26.466  30.174  1.00  0.00     0.029 A 
ATOM     47  N   UNL A   1      42.434  27.833  31.113  1.00  0.00    -0.354 N 
ATOM     48  N   UNL A   1      41.402  29.578  33.217  1.00  0.00    -0.248 NA
ATOM     49  C   UNL A   1      41.585  30.520  35.345  1.00  0.00     0.031 C 
ATOM     50  C   UNL A   1      44.397  26.838  31.433  1.00  0.00     0.029 A 
ATOM     51  C   UNL A   1      43.485  27.707  32.009  1.00  0.00     0.049 A 
ATOM     52  H   UNL A   1      41.629  28.379  31.260  1.00  0.00     0.167 HD
ATOM     53  C   UNL A   1      42.606  29.188  33.788  1.00  0.00     0.074 A 
ATOM     54  C   UNL A   1      42.682  29.823  35.086  1.00  0.00     0.031 C 
ATOM     55  C   UNL A   1      43.561  28.372  33.282  1.00  0.00     0.037 A 
BRANCH  42  56
ATOM     56  C   UNL A   1      42.242  26.128  27.692  1.00  0.00     0.064 A 
ATOM     57  C   UNL A   1      43.195  26.579  26.767  1.00  0.00     0.173 A 
ATOM     58  C   UNL A   1      41.749  24.823  27.545  1.00  0.00     0.173 A 
ATOM     59  F   UNL A   1      43.689  27.823  26.859  1.00  0.00    -0.203 F 
ATOM     60  C   UNL A   1      43.625  25.761  25.724  1.00  0.00     0.198 A 
ATOM     61  C   UNL A   1      42.199  24.000  26.516  1.00  0.00     0.198 A 
ATOM     62  F   UNL A   1      40.841  24.342  28.407  1.00  0.00    -0.203 F 
ATOM     63  F   UNL A   1      44.510  26.226  24.832  1.00  0.00    -0.200 F 
ATOM     64  C   UNL A   1      43.133  24.471  25.605  1.00  0.00     0.200 A 
ATOM     65  F   UNL A   1      41.734  22.747  26.409  1.00  0.00    -0.200 F 
ATOM     66  F   UNL A   1      43.556  23.680  24.609  1.00  0.00    -0.200 F 
ENDBRANCH  42  56
BRANCH  43  67
ATOM     67  C   UNL A   1      39.047  31.943  35.129  1.00  0.00     0.064 A 
ATOM     68  C   UNL A   1      39.316  33.318  35.157  1.00  0.00     0.173 A 
ATOM     69  C   UNL A   1      38.360  31.389  36.218  1.00  0.00     0.173 A 
ATOM     70  F   UNL A   1      39.993  33.887  34.149  1.00  0.00    -0.203 F 
ATOM     71  C   UNL A   1      38.940  34.103  36.245  1.00  0.00     0.198 A 
ATOM     72  C   UNL A   1      37.959  32.180  37.293  1.00  0.00     0.198 A 
ATOM     73  F   UNL A   1      38.076  30.078  36.239  1.00  0.00    -0.203 F 
ATOM     74  F   UNL A   1      39.261  35.404  36.272  1.00  0.00    -0.200 F 
ATOM     75  C   UNL A   1      38.260  33.534  37.311  1.00  0.00     0.200 A 
ATOM     76  F   UNL A   1      37.293  31.630  38.317  1.00  0.00    -0.200 F 
ATOM     77  F   UNL A   1      37.905  34.288  38.360  1.00  0.00    -0.200 F 
ENDBRANCH  43  67
BRANCH  55  78
ATOM     78  C   UNL A   1      44.799  28.165  34.102  1.00  0.00     0.064 A 
ATOM     79  C   UNL A   1      45.909  29.016  33.989  1.00  0.00     0.173 A 
ATOM     80  C   UNL A   1      44.858  27.129  35.046  1.00  0.00     0.173 A 
ATOM     81  F   UNL A   1      45.905  30.012  33.090  1.00  0.00    -0.203 F 
ATOM     82  C   UNL A   1      47.040  28.824  34.777  1.00  0.00     0.198 A 
ATOM     83  C   UNL A   1      45.981  26.954  35.849  1.00  0.00     0.198 A 
ATOM     84  F   UNL A   1      43.820  26.292  35.196  1.00  0.00    -0.203 F 
ATOM     85  F   UNL A   1      48.104  29.624  34.625  1.00  0.00    -0.200 F 
ATOM     86  C   UNL A   1      47.073  27.797  35.710  1.00  0.00     0.200 A 
ATOM     87  F   UNL A   1      46.008  25.969  36.757  1.00  0.00    -0.200 F 
ATOM     88  F   UNL A   1      48.161  27.618  36.471  1.00  0.00    -0.200 F 
ENDBRANCH  55  78
ENDBRANCH  29  30
ENDBRANCH  21  24
ENDBRANCH  19  20
ENDBRANCH   1  19
TORSDOF 13
ENDMDL
MODEL 2
REMARK VINA RESULT:     -11.0      1.930      8.086
REMARK SMILES CC[C@H](C)[C@@H](C(=O)NCCCNC(=O)c1ccc(-c2c3nc(c(-c4c(F)c(F)c(F)c(F)c4F)c4ccc([nH]4)c(-c4c(F)c(F)c(F)c(F)c4F)c4nc(c(-c5c(F)c(F)c(F)c(F)c5F)c5ccc2[nH]5)C=C4)C=C3)cc1)[NH+]1CC(C)(C)C1
REMARK SMILES IDX 10 1 9 2 8 3 6 4 7 5 5 7 3 8 4 9 2 10 1 11 78 12 79 13 83 14
REMARK SMILES IDX 80 16 81 17 82 18 11 19 12 20 13 21 14 23 15 24 16 25 77 26
REMARK SMILES IDX 17 27 76 28 18 29 19 30 20 31 70 32 21 33 75 34 69 35 71 36
REMARK SMILES IDX 22 37 74 38 68 39 67 40 23 42 55 43 35 44 54 45 36 46 39 47
REMARK SMILES IDX 53 48 72 49 37 50 38 51 52 53 73 54 40 55 24 56 25 57 33 58
REMARK SMILES IDX 26 59 27 60 31 61 34 62 28 63 29 64 32 65 30 66 56 67 57 68
REMARK SMILES IDX 65 69 58 70 59 71 63 72 66 73 60 74 61 75 64 76 62 77 41 78
REMARK SMILES IDX 42 79 50 80 43 81 44 82 48 83 51 84 45 85 46 86 49 87 47 88
REMARK H PARENT 8 6 78 15 12 22 71 41 39 52
REMARK Flexibility Score: inf
ROOT
ATOM      1  C   UNL A   1      31.403  32.382  26.518  1.00  0.00     0.042 C 
ENDROOT
BRANCH   1   2
ATOM      2  C   UNL A   1      31.386  30.849  26.443  1.00  0.00     0.118 C 
BRANCH   2   3
ATOM      3  N   UNL A   1      31.125  30.356  25.096  1.00  0.00    -0.351 N 
ATOM      4  C   UNL A   1      31.289  29.128  24.513  1.00  0.00     0.278 C 
ATOM      5  O   UNL A   1      31.115  29.090  23.290  1.00  0.00    -0.268 OA
ATOM      6  H   UNL A   1      30.761  31.039  24.489  1.00  0.00     0.163 HD
BRANCH   4   7
ATOM      7  C   UNL A   1      31.654  27.870  25.362  1.00  0.00     0.277 C 
BRANCH   7   8
ATOM      8  C   UNL A   1      33.209  27.772  25.575  1.00  0.00     0.054 C 
ATOM      9  C   UNL A   1      34.021  28.519  24.517  1.00  0.00     0.014 C 
BRANCH   8  10
ATOM     10  C   UNL A   1      33.612  28.220  27.004  1.00  0.00     0.006 C 
ATOM     11  C   UNL A   1      34.760  29.218  27.095  1.00  0.00     0.004 C 
ENDBRANCH   8  10
ENDBRANCH   7   8
BRANCH   7  12
ATOM     12  N   UNL A   1      31.235  26.635  24.644  1.00  0.00    -0.323 N 
ATOM     13  C   UNL A   1      32.126  25.462  24.891  1.00  0.00     0.275 C 
ATOM     14  C   UNL A   1      30.146  25.861  25.308  1.00  0.00     0.275 C 
ATOM     15  H   UNL A   1      31.109  27.038  23.715  1.00  0.00     0.348 HD
ATOM     16  C   UNL A   1      30.850  24.577  24.765  1.00  0.00     0.063 C 
ATOM     17  C   UNL A   1      30.805  23.362  25.681  1.00  0.00     0.023 C 
ATOM     18  C   UNL A   1      30.492  24.193  23.322  1.00  0.00     0.023 C 
ENDBRANCH   7  12
ENDBRANCH   4   7
ENDBRANCH   2   3
ENDBRANCH   1   2
BRANCH   1  19
ATOM     19  C   UNL A   1      32.729  32.998  26.962  1.00  0.00     0.118 C 
BRANCH  19  20
ATOM     20  N   UNL A   1      32.546  34.276  27.629  1.00  0.00    -0.352 N 
ATOM     21  C   UNL A   1      33.125  34.763  28.776  1.00  0.00     0.251 C 
ATOM     22  H   UNL A   1      31.911  34.886  27.191  1.00  0.00     0.163 HD
ATOM     23  O   UNL A   1      32.672  35.790  29.282  1.00  0.00    -0.269 OA
BRANCH  21  24
ATOM     24  C   UNL A   1      34.270  34.080  29.428  1.00  0.00     0.039 A 
ATOM     25  C   UNL A   1      35.565  34.375  28.983  1.00  0.00     0.014 A 
ATOM     26  C   UNL A   1      34.090  33.097  30.405  1.00  0.00     0.014 A 
ATOM     27  C   UNL A   1      36.670  33.720  29.541  1.00  0.00     0.010 A 
ATOM     28  C   UNL A   1      35.196  32.492  31.008  1.00  0.00     0.010 A 
ATOM     29  C   UNL A   1      36.499  32.784  30.572  1.00  0.00    -0.014 A 
BRANCH  29  30
ATOM     30  C   UNL A   1      37.660  32.068  31.169  1.00  0.00     0.031 A 
ATOM     31  C   UNL A   1      38.142  32.431  32.549  1.00  0.00     0.074 A 
ATOM     32  C   UNL A   1      38.309  31.118  30.466  1.00  0.00     0.049 A 
ATOM     33  N   UNL A   1      39.191  31.998  33.205  1.00  0.00    -0.248 NA
ATOM     34  C   UNL A   1      37.348  33.428  33.284  1.00  0.00     0.031 C 
ATOM     35  C   UNL A   1      37.960  30.678  29.115  1.00  0.00     0.029 A 
ATOM     36  N   UNL A   1      39.406  30.357  30.789  1.00  0.00    -0.354 N 
ATOM     37  C   UNL A   1      39.191  32.679  34.415  1.00  0.00     0.074 A 
ATOM     38  C   UNL A   1      38.063  33.585  34.390  1.00  0.00     0.031 C 
ATOM     39  C   UNL A   1      38.819  29.718  28.730  1.00  0.00     0.029 A 
ATOM     40  C   UNL A   1      39.799  29.501  29.789  1.00  0.00     0.049 A 
ATOM     41  H   UNL A   1      39.868  30.420  31.656  1.00  0.00     0.167 HD
ATOM     42  C   UNL A   1      40.040  32.548  35.463  1.00  0.00     0.037 A 
ATOM     43  C   UNL A   1      40.839  28.646  29.729  1.00  0.00     0.037 A 
ATOM     44  C   UNL A   1      41.145  31.627  35.508  1.00  0.00     0.049 A 
ATOM     45  C   UNL A   1      41.772  28.527  30.905  1.00  0.00     0.074 A 
ATOM     46  C   UNL A   1      42.049  31.414  36.534  1.00  0.00     0.029 A 
ATOM     47  N   UNL A   1      41.487  30.757  34.486  1.00  0.00    -0.354 N 
ATOM     48  N   UNL A   1      41.743  29.160  32.052  1.00  0.00    -0.248 NA
ATOM     49  C   UNL A   1      42.881  27.569  30.779  1.00  0.00     0.031 C 
ATOM     50  C   UNL A   1      42.954  30.430  36.125  1.00  0.00     0.029 A 
ATOM     51  C   UNL A   1      42.590  30.005  34.858  1.00  0.00     0.049 A 
ATOM     52  H   UNL A   1      41.017  30.684  33.624  1.00  0.00     0.167 HD
ATOM     53  C   UNL A   1      42.802  28.653  32.794  1.00  0.00     0.074 A 
ATOM     54  C   UNL A   1      43.450  27.653  31.973  1.00  0.00     0.031 C 
ATOM     55  C   UNL A   1      43.203  28.990  34.043  1.00  0.00     0.037 A 
BRANCH  42  56
ATOM     56  C   UNL A   1      39.798  33.412  36.665  1.00  0.00     0.064 A 
ATOM     57  C   UNL A   1      40.434  34.655  36.808  1.00  0.00     0.173 A 
ATOM     58  C   UNL A   1      38.880  33.026  37.652  1.00  0.00     0.173 A 
ATOM     59  F   UNL A   1      41.328  35.064  35.896  1.00  0.00    -0.203 F 
ATOM     60  C   UNL A   1      40.171  35.471  37.906  1.00  0.00     0.198 A 
ATOM     61  C   UNL A   1      38.602  33.856  38.735  1.00  0.00     0.198 A 
ATOM     62  F   UNL A   1      38.241  31.850  37.558  1.00  0.00    -0.203 F 
ATOM     63  F   UNL A   1      40.815  36.638  38.039  1.00  0.00    -0.200 F 
ATOM     64  C   UNL A   1      39.250  35.075  38.863  1.00  0.00     0.200 A 
ATOM     65  F   UNL A   1      37.701  33.478  39.654  1.00  0.00    -0.200 F 
ATOM     66  F   UNL A   1      38.989  35.867  39.912  1.00  0.00    -0.200 F 
ENDBRANCH  42  56
BRANCH  43  67
ATOM     67  C   UNL A   1      41.057  27.816  28.515  1.00  0.00     0.064 A 
ATOM     68  C   UNL A   1      41.887  28.264  27.478  1.00  0.00     0.173 A 
ATOM     69  C   UNL A   1      40.413  26.582  28.350  1.00  0.00     0.173 A 
ATOM     70  F   UNL A   1      42.504  29.449  27.580  1.00  0.00    -0.203 F 
ATOM     71  C   UNL A   1      42.042  27.522  26.309  1.00  0.00     0.198 A 
ATOM     72  C   UNL A   1      40.591  25.827  27.192  1.00  0.00     0.198 A 
ATOM     73  F   UNL A   1      39.609  26.108  29.313  1.00  0.00    -0.203 F 
ATOM     74  F   UNL A   1      42.796  28.000  25.310  1.00  0.00    -0.200 F 
ATOM     75  C   UNL A   1      41.396  26.303  26.168  1.00  0.00     0.200 A 
ATOM     76  F   UNL A   1      39.973  24.645  27.063  1.00  0.00    -0.200 F 
ATOM     77  F   UNL A   1      41.540  25.593  25.040  1.00  0.00    -0.200 F 
ENDBRANCH  43  67
BRANCH  55  78
ATOM     78  C   UNL A   1      44.358  28.232  34.626  1.00  0.00     0.064 A 
ATOM     79  C   UNL A   1      44.173  27.033  35.329  1.00  0.00     0.173 A 
ATOM     80  C   UNL A   1      45.671  28.690  34.439  1.00  0.00     0.173 A 
ATOM     81  F   UNL A   1      42.935  26.563  35.547  1.00  0.00    -0.203 F 
ATOM     82  C   UNL A   1      45.260  26.330  35.842  1.00  0.00     0.198 A 
ATOM     83  C   UNL A   1      46.757  27.972  34.932  1.00  0.00     0.198 A 
ATOM     84  F   UNL A   1      45.901  29.828  33.767  1.00  0.00    -0.203 F 
ATOM     85  F   UNL A   1      45.058  25.207  36.545  1.00  0.00    -0.200 F 
ATOM     86  C   UNL A   1      46.551  26.797  35.638  1.00  0.00     0.200 A 
ATOM     87  F   UNL A   1      48.004  28.419  34.725  1.00  0.00    -0.200 F 
ATOM     88  F   UNL A   1      47.595  26.115  36.127  1.00  0.00    -0.200 F 
ENDBRANCH  55  78
ENDBRANCH  29  30
ENDBRANCH  21  24
ENDBRANCH  19  20
ENDBRANCH   1  19
TORSDOF 13
ENDMDL
MODEL 3
REMARK VINA RESULT:     -10.8      4.960     10.100
REMARK SMILES CC[C@H](C)[C@@H](C(=O)NCCCNC(=O)c1ccc(-c2c3nc(c(-c4c(F)c(F)c(F)c(F)c4F)c4ccc([nH]4)c(-c4c(F)c(F)c(F)c(F)c4F)c4nc(c(-c5c(F)c(F)c(F)c(F)c5F)c5ccc2[nH]5)C=C4)C=C3)cc1)[NH+]1CC(C)(C)C1
REMARK SMILES IDX 10 1 9 2 8 3 6 4 7 5 5 7 3 8 4 9 2 10 1 11 78 12 79 13 83 14
REMARK SMILES IDX 80 16 81 17 82 18 11 19 12 20 13 21 14 23 15 24 16 25 77 26
REMARK SMILES IDX 17 27 76 28 18 29 19 30 20 31 70 32 21 33 75 34 69 35 71 36
REMARK SMILES IDX 22 37 74 38 68 39 67 40 23 42 55 43 35 44 54 45 36 46 39 47
REMARK SMILES IDX 53 48 72 49 37 50 38 51 52 53 73 54 40 55 24 56 25 57 33 58
REMARK SMILES IDX 26 59 27 60 31 61 34 62 28 63 29 64 32 65 30 66 56 67 57 68
REMARK SMILES IDX 65 69 58 70 59 71 63 72 66 73 60 74 61 75 64 76 62 77 41 78
REMARK SMILES IDX 42 79 50 80 43 81 44 82 48 83 51 84 45 85 46 86 49 87 47 88
REMARK H PARENT 8 6 78 15 12 22 71 41 39 52
REMARK Flexibility Score: inf
ROOT
ATOM      1  C   UNL A   1      38.270  20.075  24.789  1.00  0.00     0.042 C 
ENDROOT
BRANCH   1   2
ATOM      2  C   UNL A   1      37.335  21.282  24.626  1.00  0.00     0.118 C 
BRANCH   2   3
ATOM      3  N   UNL A   1      36.447  21.461  25.769  1.00  0.00    -0.351 N 
ATOM      4  C   UNL A   1      35.083  21.508  25.882  1.00  0.00     0.278 C 
ATOM      5  O   UNL A   1      34.651  21.837  26.992  1.00  0.00    -0.268 OA
ATOM      6  H   UNL A   1      36.921  21.570  26.625  1.00  0.00     0.163 HD
BRANCH   4   7
ATOM      7  C   UNL A   1      34.158  21.149  24.678  1.00  0.00     0.277 C 
BRANCH   7   8
ATOM      8  C   UNL A   1      32.960  22.162  24.572  1.00  0.00     0.054 C 
ATOM      9  C   UNL A   1      32.573  22.506  23.135  1.00  0.00     0.014 C 
BRANCH   8  10
ATOM     10  C   UNL A   1      31.729  21.666  25.376  1.00  0.00     0.006 C 
ATOM     11  C   UNL A   1      31.013  22.713  26.219  1.00  0.00     0.004 C 
ENDBRANCH   8  10
ENDBRANCH   7   8
BRANCH   7  12
ATOM     12  N   UNL A   1      33.567  19.797  24.879  1.00  0.00    -0.323 N 
ATOM     13  C   UNL A   1      32.963  19.214  23.644  1.00  0.00     0.275 C 
ATOM     14  C   UNL A   1      34.547  18.672  24.849  1.00  0.00     0.275 C 
ATOM     15  H   UNL A   1      33.016  19.998  25.714  1.00  0.00     0.348 HD
ATOM     16  C   UNL A   1      33.417  17.823  24.184  1.00  0.00     0.063 C 
ATOM     17  C   UNL A   1      33.873  16.830  23.126  1.00  0.00     0.023 C 
ATOM     18  C   UNL A   1      32.424  17.175  25.160  1.00  0.00     0.023 C 
ENDBRANCH   7  12
ENDBRANCH   4   7
ENDBRANCH   2   3
ENDBRANCH   1   2
BRANCH   1  19
ATOM     19  C   UNL A   1      39.072  20.043  26.088  1.00  0.00     0.118 C 
BRANCH  19  20
ATOM     20  N   UNL A   1      40.198  19.128  26.018  1.00  0.00    -0.352 N 
ATOM     21  C   UNL A   1      41.547  19.387  26.022  1.00  0.00     0.251 C 
ATOM     22  H   UNL A   1      39.957  18.176  25.960  1.00  0.00     0.163 HD
ATOM     23  O   UNL A   1      42.330  18.478  25.743  1.00  0.00    -0.269 OA
BRANCH  21  24
ATOM     24  C   UNL A   1      42.087  20.733  26.340  1.00  0.00     0.039 A 
ATOM     25  C   UNL A   1      42.327  21.057  27.680  1.00  0.00     0.014 A 
ATOM     26  C   UNL A   1      42.279  21.707  25.355  1.00  0.00     0.014 A 
ATOM     27  C   UNL A   1      42.794  22.331  28.028  1.00  0.00     0.010 A 
ATOM     28  C   UNL A   1      42.807  22.956  25.694  1.00  0.00     0.010 A 
ATOM     29  C   UNL A   1      43.056  23.288  27.036  1.00  0.00    -0.014 A 
BRANCH  29  30
ATOM     30  C   UNL A   1      43.540  24.653  27.385  1.00  0.00     0.031 A 
ATOM     31  C   UNL A   1      42.581  25.673  27.942  1.00  0.00     0.074 A 
ATOM     32  C   UNL A   1      44.826  24.995  27.171  1.00  0.00     0.049 A 
ATOM     33  N   UNL A   1      42.781  26.940  28.215  1.00  0.00    -0.248 NA
ATOM     34  C   UNL A   1      41.211  25.213  28.213  1.00  0.00     0.031 C 
ATOM     35  C   UNL A   1      45.857  24.113  26.623  1.00  0.00     0.029 A 
ATOM     36  N   UNL A   1      45.484  26.183  27.380  1.00  0.00    -0.354 N 
ATOM     37  C   UNL A   1      41.563  27.427  28.670  1.00  0.00     0.074 A 
ATOM     38  C   UNL A   1      40.617  26.333  28.599  1.00  0.00     0.031 C 
ATOM     39  C   UNL A   1      47.017  24.786  26.550  1.00  0.00     0.029 A 
ATOM     40  C   UNL A   1      46.806  26.156  27.010  1.00  0.00     0.049 A 
ATOM     41  H   UNL A   1      45.047  26.980  27.759  1.00  0.00     0.167 HD
ATOM     42  C   UNL A   1      41.261  28.666  29.128  1.00  0.00     0.037 A 
ATOM     43  C   UNL A   1      47.740  27.127  27.028  1.00  0.00     0.037 A 
ATOM     44  C   UNL A   1      42.203  29.750  29.231  1.00  0.00     0.049 A 
ATOM     45  C   UNL A   1      47.374  28.498  27.533  1.00  0.00     0.074 A 
ATOM     46  C   UNL A   1      41.991  31.036  29.697  1.00  0.00     0.029 A 
ATOM     47  N   UNL A   1      43.539  29.668  28.875  1.00  0.00    -0.354 N 
ATOM     48  N   UNL A   1      46.224  28.936  27.984  1.00  0.00    -0.248 NA
ATOM     49  C   UNL A   1      48.441  29.511  27.536  1.00  0.00     0.031 C 
ATOM     50  C   UNL A   1      43.195  31.741  29.602  1.00  0.00     0.029 A 
ATOM     51  C   UNL A   1      44.164  30.882  29.110  1.00  0.00     0.049 A 
ATOM     52  H   UNL A   1      43.979  28.867  28.508  1.00  0.00     0.167 HD
ATOM     53  C   UNL A   1      46.438  30.256  28.356  1.00  0.00     0.074 A 
ATOM     54  C   UNL A   1      47.830  30.549  28.087  1.00  0.00     0.031 C 
ATOM     55  C   UNL A   1      45.558  31.148  28.870  1.00  0.00     0.037 A 
BRANCH  42  56
ATOM     56  C   UNL A   1      39.851  28.919  29.572  1.00  0.00     0.064 A 
ATOM     57  C   UNL A   1      38.876  29.380  28.674  1.00  0.00     0.173 A 
ATOM     58  C   UNL A   1      39.454  28.642  30.888  1.00  0.00     0.173 A 
ATOM     59  F   UNL A   1      39.208  29.669  27.407  1.00  0.00    -0.203 F 
ATOM     60  C   UNL A   1      37.559  29.571  29.084  1.00  0.00     0.198 A 
ATOM     61  C   UNL A   1      38.131  28.810  31.287  1.00  0.00     0.198 A 
ATOM     62  F   UNL A   1      40.347  28.193  31.784  1.00  0.00    -0.203 F 
ATOM     63  F   UNL A   1      36.652  30.044  28.218  1.00  0.00    -0.200 F 
ATOM     64  C   UNL A   1      37.186  29.278  30.386  1.00  0.00     0.200 A 
ATOM     65  F   UNL A   1      37.768  28.515  32.544  1.00  0.00    -0.200 F 
ATOM     66  F   UNL A   1      35.915  29.451  30.776  1.00  0.00    -0.200 F 
ENDBRANCH  42  56
BRANCH  43  67
ATOM     67  C   UNL A   1      49.124  26.845  26.565  1.00  0.00     0.064 A 
ATOM     68  C   UNL A   1      49.480  27.009  25.219  1.00  0.00     0.173 A 
ATOM     69  C   UNL A   1      50.105  26.370  27.447  1.00  0.00     0.173 A 
ATOM     70  F   UNL A   1      48.568  27.437  24.335  1.00  0.00    -0.203 F 
ATOM     71  C   UNL A   1      50.756  26.683  24.767  1.00  0.00     0.198 A 
ATOM     72  C   UNL A   1      51.390  26.070  26.999  1.00  0.00     0.198 A 
ATOM     73  F   UNL A   1      49.816  26.197  28.745  1.00  0.00    -0.203 F 
ATOM     74  F   UNL A   1      51.052  26.795  23.465  1.00  0.00    -0.200 F 
ATOM     75  C   UNL A   1      51.712  26.216  25.657  1.00  0.00     0.200 A 
ATOM     76  F   UNL A   1      52.314  25.629  27.864  1.00  0.00    -0.200 F 
ATOM     77  F   UNL A   1      52.937  25.895  25.221  1.00  0.00    -0.200 F 
ENDBRANCH  43  67
BRANCH  55  78
ATOM     78  C   UNL A   1      46.082  32.504  29.235  1.00  0.00     0.064 A 
ATOM     79  C   UNL A   1      46.622  32.769  30.502  1.00  0.00     0.173 A 
ATOM     80  C   UNL A   1      46.082  33.541  28.290  1.00  0.00     0.173 A 
ATOM     81  F   UNL A   1      46.629  31.814  31.445  1.00  0.00    -0.203 F 
ATOM     82  C   UNL A   1      47.126  34.028  30.815  1.00  0.00     0.198 A 
ATOM     83  C   UNL A   1      46.609  34.791  28.598  1.00  0.00     0.198 A 
ATOM     84  F   UNL A   1      45.582  33.336  27.062  1.00  0.00    -0.203 F 
ATOM     85  F   UNL A   1      47.603  34.270  32.044  1.00  0.00    -0.200 F 
ATOM     86  C   UNL A   1      47.125  35.036  29.861  1.00  0.00     0.200 A 
ATOM     87  F   UNL A   1      46.617  35.761  27.673  1.00  0.00    -0.200 F 
ATOM     88  F   UNL A   1      47.617  36.245  30.163  1.00  0.00    -0.200 F 
ENDBRANCH  55  78
ENDBRANCH  29  30
ENDBRANCH  21  24
ENDBRANCH  19  20
ENDBRANCH   1  19
TORSDOF 13
ENDMDL
