MODEL 1
REMARK VINA RESULT:     -12.9      0.000      0.000
REMARK SMILES O=C(NCCCNC(=O)c1ccccc1[C@@H]1SCC(=O)N1NC(=S)Nc1ccccc1)c1ccc(-c2c3nc(c(-c4c(F)c(F)c(F)c(F)c4F)c4ccc([nH]4)c(-c4c(F)c(F)c(F)c(F)c4F)c4nc(c(-c5c(F)c(F)c(F)c(F)c5F)c5ccc2[nH]5)C=C4)C=C3)cc1
REMARK SMILES IDX 7 1 8 2 9 3 6 5 5 6 4 7 3 8 1 9 2 10 32 12 33 13 94 14 34 15
REMARK SMILES IDX 93 16 35 17 36 18 37 19 87 20 38 21 92 22 86 23 88 24 39 25
REMARK SMILES IDX 91 26 85 27 84 28 40 30 72 31 52 32 71 33 53 34 56 35 70 36
REMARK SMILES IDX 89 37 54 38 55 39 69 41 90 42 57 43 41 44 42 45 50 46 43 47
REMARK SMILES IDX 44 48 48 49 51 50 45 51 46 52 49 53 47 54 73 55 74 56 82 57
REMARK SMILES IDX 75 58 76 59 80 60 83 61 77 62 78 63 81 64 79 65 58 66 59 67
REMARK SMILES IDX 67 68 60 69 61 70 65 71 68 72 62 73 63 74 66 75 64 76 10 77
REMARK SMILES IDX 11 78 15 79 12 80 14 81 13 82 16 83 17 84 21 85 18 86 19 87
REMARK SMILES IDX 20 88 22 89 23 91 24 92 25 93 26 95 27 96 31 97 28 98 30 99
REMARK SMILES IDX 29 100
REMARK H PARENT 7 4 3 11 88 29 56 40 22 90 25 94
REMARK Flexibility Score: inf
ROOT
ATOM      1  N   UNL A   1      33.389  26.458  26.096  1.00  0.00    -0.352 N 
ATOM      2  C   UNL A   1      33.113  25.157  25.782  1.00  0.00     0.251 C 
ATOM      3  O   UNL A   1      32.441  24.462  26.538  1.00  0.00    -0.269 OA
ATOM      4  H   UNL A   1      33.101  26.733  26.996  1.00  0.00     0.163 HD
ENDROOT
BRANCH   1   5
ATOM      5  C   UNL A   1      34.036  27.501  25.324  1.00  0.00     0.118 C 
BRANCH   5   6
ATOM      6  C   UNL A   1      33.439  28.912  25.461  1.00  0.00     0.042 C 
BRANCH   6   7
ATOM      7  C   UNL A   1      32.597  29.206  26.700  1.00  0.00     0.118 C 
BRANCH   7   8
ATOM      8  N   UNL A   1      32.445  30.629  26.996  1.00  0.00    -0.352 N 
ATOM      9  O   UNL A   1      32.998  32.812  27.272  1.00  0.00    -0.269 OA
ATOM     10  C   UNL A   1      33.322  31.626  27.355  1.00  0.00     0.251 C 
ATOM     11  H   UNL A   1      31.514  30.940  26.924  1.00  0.00     0.163 HD
BRANCH  10  12
ATOM     12  C   UNL A   1      34.623  31.361  27.983  1.00  0.00     0.039 A 
ATOM     13  C   UNL A   1      34.965  30.117  28.485  1.00  0.00     0.014 A 
ATOM     14  C   UNL A   1      35.557  32.416  28.026  1.00  0.00     0.014 A 
ATOM     15  C   UNL A   1      36.145  29.972  29.191  1.00  0.00     0.010 A 
ATOM     16  C   UNL A   1      36.794  32.244  28.642  1.00  0.00     0.010 A 
ATOM     17  C   UNL A   1      37.072  31.028  29.265  1.00  0.00    -0.014 A 
BRANCH  17  18
ATOM     18  C   UNL A   1      38.353  30.744  29.936  1.00  0.00     0.031 A 
ATOM     19  C   UNL A   1      38.568  31.138  31.360  1.00  0.00     0.074 A 
ATOM     20  C   UNL A   1      39.220  29.965  29.265  1.00  0.00     0.049 A 
ATOM     21  N   UNL A   1      39.486  30.724  32.195  1.00  0.00    -0.248 NA
ATOM     22  C   UNL A   1      37.640  32.128  31.929  1.00  0.00     0.031 C 
ATOM     23  C   UNL A   1      39.065  29.575  27.860  1.00  0.00     0.029 A 
ATOM     24  N   UNL A   1      40.332  29.287  29.679  1.00  0.00    -0.354 N 
ATOM     25  C   UNL A   1      39.259  31.413  33.377  1.00  0.00     0.074 A 
ATOM     26  C   UNL A   1      38.125  32.282  33.153  1.00  0.00     0.031 C 
ATOM     27  C   UNL A   1      39.967  28.631  27.566  1.00  0.00     0.029 A 
ATOM     28  C   UNL A   1      40.798  28.397  28.740  1.00  0.00     0.049 A 
ATOM     29  H   UNL A   1      40.756  29.422  30.558  1.00  0.00     0.167 HD
ATOM     30  C   UNL A   1      39.951  31.314  34.538  1.00  0.00     0.037 A 
ATOM     31  C   UNL A   1      41.768  27.473  28.836  1.00  0.00     0.037 A 
ATOM     32  C   UNL A   1      41.071  30.426  34.715  1.00  0.00     0.049 A 
ATOM     33  C   UNL A   1      42.475  27.343  30.154  1.00  0.00     0.074 A 
ATOM     34  C   UNL A   1      41.860  30.234  35.834  1.00  0.00     0.029 A 
ATOM     35  N   UNL A   1      41.559  29.573  33.730  1.00  0.00    -0.354 N 
ATOM     36  N   UNL A   1      42.243  27.978  31.278  1.00  0.00    -0.248 NA
ATOM     37  C   UNL A   1      43.577  26.379  30.218  1.00  0.00     0.031 C 
ATOM     38  C   UNL A   1      42.850  29.296  35.512  1.00  0.00     0.029 A 
ATOM     39  C   UNL A   1      42.647  28.865  34.209  1.00  0.00     0.049 A 
ATOM     40  H   UNL A   1      41.184  29.486  32.824  1.00  0.00     0.167 HD
ATOM     41  C   UNL A   1      43.173  27.500  32.185  1.00  0.00     0.074 A 
ATOM     42  C   UNL A   1      43.944  26.486  31.487  1.00  0.00     0.031 C 
ATOM     43  C   UNL A   1      43.390  27.872  33.472  1.00  0.00     0.037 A 
BRANCH  30  44
ATOM     44  C   UNL A   1      39.547  32.216  35.669  1.00  0.00     0.064 A 
ATOM     45  C   UNL A   1      40.098  33.497  35.835  1.00  0.00     0.173 A 
ATOM     46  C   UNL A   1      38.581  31.797  36.597  1.00  0.00     0.173 A 
ATOM     47  F   UNL A   1      41.035  33.945  34.986  1.00  0.00    -0.203 F 
ATOM     48  C   UNL A   1      39.716  34.311  36.902  1.00  0.00     0.198 A 
ATOM     49  C   UNL A   1      38.183  32.623  37.646  1.00  0.00     0.198 A 
ATOM     50  F   UNL A   1      38.019  30.584  36.487  1.00  0.00    -0.203 F 
ATOM     51  F   UNL A   1      40.290  35.511  37.066  1.00  0.00    -0.200 F 
ATOM     52  C   UNL A   1      38.756  33.876  37.803  1.00  0.00     0.200 A 
ATOM     53  F   UNL A   1      37.248  32.204  38.511  1.00  0.00    -0.200 F 
ATOM     54  F   UNL A   1      38.390  34.660  38.826  1.00  0.00    -0.200 F 
ENDBRANCH  30  44
BRANCH  31  55
ATOM     55  C   UNL A   1      42.083  26.605  27.671  1.00  0.00     0.064 A 
ATOM     56  C   UNL A   1      43.112  26.925  26.776  1.00  0.00     0.173 A 
ATOM     57  C   UNL A   1      41.393  25.400  27.461  1.00  0.00     0.173 A 
ATOM     58  F   UNL A   1      43.797  28.069  26.923  1.00  0.00    -0.203 F 
ATOM     59  C   UNL A   1      43.434  26.080  25.715  1.00  0.00     0.198 A 
ATOM     60  C   UNL A   1      41.738  24.540  26.422  1.00  0.00     0.198 A 
ATOM     61  F   UNL A   1      40.405  25.038  28.294  1.00  0.00    -0.203 F 
ATOM     62  F   UNL A   1      44.402  26.426  24.855  1.00  0.00    -0.200 F 
ATOM     63  C   UNL A   1      42.754  24.883  25.545  1.00  0.00     0.200 A 
ATOM     64  F   UNL A   1      41.094  23.373  26.280  1.00  0.00    -0.200 F 
ATOM     65  F   UNL A   1      43.079  24.061  24.538  1.00  0.00    -0.200 F 
ENDBRANCH  31  55
BRANCH  43  66
ATOM     66  C   UNL A   1      44.501  27.166  34.186  1.00  0.00     0.064 A 
ATOM     67  C   UNL A   1      44.277  25.965  34.876  1.00  0.00     0.173 A 
ATOM     68  C   UNL A   1      45.800  27.692  34.172  1.00  0.00     0.173 A 
ATOM     69  F   UNL A   1      43.046  25.436  34.928  1.00  0.00    -0.203 F 
ATOM     70  C   UNL A   1      45.311  25.334  35.559  1.00  0.00     0.198 A 
ATOM     71  C   UNL A   1      46.838  27.042  34.832  1.00  0.00     0.198 A 
ATOM     72  F   UNL A   1      46.061  28.835  33.520  1.00  0.00    -0.203 F 
ATOM     73  F   UNL A   1      45.065  24.219  36.261  1.00  0.00    -0.200 F 
ATOM     74  C   UNL A   1      46.590  25.871  35.533  1.00  0.00     0.200 A 
ATOM     75  F   UNL A   1      48.074  27.556  34.801  1.00  0.00    -0.200 F 
ATOM     76  F   UNL A   1      47.584  25.264  36.195  1.00  0.00    -0.200 F 
ENDBRANCH  43  66
ENDBRANCH  17  18
ENDBRANCH  10  12
ENDBRANCH   7   8
ENDBRANCH   6   7
ENDBRANCH   5   6
ENDBRANCH   1   5
BRANCH   2  77
ATOM     77  C   UNL A   1      33.622  24.559  24.542  1.00  0.00     0.046 A 
ATOM     78  C   UNL A   1      32.884  24.876  23.389  1.00  0.00     0.014 A 
ATOM     79  C   UNL A   1      34.671  23.609  24.515  1.00  0.00    -0.001 A 
ATOM     80  C   UNL A   1      33.181  24.262  22.178  1.00  0.00     0.001 A 
ATOM     81  C   UNL A   1      34.941  23.003  23.269  1.00  0.00     0.007 A 
ATOM     82  C   UNL A   1      34.207  23.326  22.119  1.00  0.00     0.000 A 
BRANCH  79  83
ATOM     83  C   UNL A   1      35.508  23.157  25.719  1.00  0.00     0.197 C 
ATOM     84  S   UNL A   1      37.201  23.785  25.668  1.00  0.00    -0.120 SA
ATOM     85  N   UNL A   1      35.612  21.722  25.892  1.00  0.00    -0.236 N 
ATOM     86  C   UNL A   1      37.926  22.125  25.518  1.00  0.00     0.174 C 
ATOM     87  C   UNL A   1      36.772  21.144  25.380  1.00  0.00     0.252 C 
ATOM     88  O   UNL A   1      36.885  20.020  24.900  1.00  0.00    -0.272 OA
BRANCH  85  89
ATOM     89  N   UNL A   1      34.429  21.056  26.244  1.00  0.00    -0.270 N 
ATOM     90  H   UNL A   1      34.238  21.021  27.208  1.00  0.00     0.191 HD
BRANCH  89  91
ATOM     91  C   UNL A   1      33.507  20.450  25.446  1.00  0.00     0.189 C 
ATOM     92  S   UNL A   1      31.987  21.161  25.357  1.00  0.00    -0.039 S 
BRANCH  91  93
ATOM     93  N   UNL A   1      33.811  19.441  24.604  1.00  0.00    -0.331 N 
ATOM     94  H   UNL A   1      34.128  19.727  23.716  1.00  0.00     0.169 HD
BRANCH  93  95
ATOM     95  C   UNL A   1      33.750  18.051  24.781  1.00  0.00     0.040 A 
ATOM     96  C   UNL A   1      32.626  17.506  25.409  1.00  0.00     0.026 A 
ATOM     97  C   UNL A   1      34.822  17.224  24.474  1.00  0.00     0.026 A 
ATOM     98  C   UNL A   1      32.522  16.149  25.676  1.00  0.00     0.002 A 
ATOM     99  C   UNL A   1      34.753  15.867  24.814  1.00  0.00     0.002 A 
ATOM    100  C   UNL A   1      33.600  15.328  25.395  1.00  0.00     0.000 A 
ENDBRANCH  93  95
ENDBRANCH  91  93
ENDBRANCH  89  91
ENDBRANCH  85  89
ENDBRANCH  79  83
ENDBRANCH   2  77
TORSDOF 15
ENDMDL
MODEL 2
REMARK VINA RESULT:     -12.8      1.372      2.159
REMARK SMILES O=C(NCCCNC(=O)c1ccccc1[C@@H]1SCC(=O)N1NC(=S)Nc1ccccc1)c1ccc(-c2c3nc(c(-c4c(F)c(F)c(F)c(F)c4F)c4ccc([nH]4)c(-c4c(F)c(F)c(F)c(F)c4F)c4nc(c(-c5c(F)c(F)c(F)c(F)c5F)c5ccc2[nH]5)C=C4)C=C3)cc1
REMARK SMILES IDX 7 1 8 2 9 3 6 5 5 6 4 7 3 8 1 9 2 10 32 12 33 13 94 14 34 15
REMARK SMILES IDX 93 16 35 17 36 18 37 19 87 20 38 21 92 22 86 23 88 24 39 25
REMARK SMILES IDX 91 26 85 27 84 28 40 30 72 31 52 32 71 33 53 34 56 35 70 36
REMARK SMILES IDX 89 37 54 38 55 39 69 41 90 42 57 43 41 44 42 45 50 46 43 47
REMARK SMILES IDX 44 48 48 49 51 50 45 51 46 52 49 53 47 54 73 55 74 56 82 57
REMARK SMILES IDX 75 58 76 59 80 60 83 61 77 62 78 63 81 64 79 65 58 66 59 67
REMARK SMILES IDX 67 68 60 69 61 70 65 71 68 72 62 73 63 74 66 75 64 76 10 77
REMARK SMILES IDX 11 78 15 79 12 80 14 81 13 82 16 83 17 84 21 85 18 86 19 87
REMARK SMILES IDX 20 88 22 89 23 91 24 92 25 93 26 95 27 96 31 97 28 98 30 99
REMARK SMILES IDX 29 100
REMARK H PARENT 7 4 3 11 88 29 56 40 22 90 25 94
REMARK Flexibility Score: inf
ROOT
ATOM      1  N   UNL A   1      32.266  26.163  27.280  1.00  0.00    -0.352 N 
ATOM      2  C   UNL A   1      31.519  25.168  26.715  1.00  0.00     0.251 C 
ATOM      3  O   UNL A   1      31.412  24.078  27.267  1.00  0.00    -0.269 OA
ATOM      4  H   UNL A   1      32.774  25.892  28.079  1.00  0.00     0.163 HD
ENDROOT
BRANCH   1   5
ATOM      5  C   UNL A   1      32.437  27.552  26.899  1.00  0.00     0.118 C 
BRANCH   5   6
ATOM      6  C   UNL A   1      33.486  27.829  25.807  1.00  0.00     0.042 C 
BRANCH   6   7
ATOM      7  C   UNL A   1      33.594  29.256  25.278  1.00  0.00     0.118 C 
BRANCH   7   8
ATOM      8  N   UNL A   1      33.017  30.267  26.161  1.00  0.00    -0.352 N 
ATOM      9  O   UNL A   1      32.891  32.093  27.503  1.00  0.00    -0.269 OA
ATOM     10  C   UNL A   1      33.546  31.135  27.088  1.00  0.00     0.251 C 
ATOM     11  H   UNL A   1      32.040  30.343  26.073  1.00  0.00     0.163 HD
BRANCH  10  12
ATOM     12  C   UNL A   1      34.839  30.911  27.748  1.00  0.00     0.039 A 
ATOM     13  C   UNL A   1      35.196  29.688  28.288  1.00  0.00     0.014 A 
ATOM     14  C   UNL A   1      35.751  31.986  27.782  1.00  0.00     0.014 A 
ATOM     15  C   UNL A   1      36.365  29.585  29.019  1.00  0.00     0.010 A 
ATOM     16  C   UNL A   1      36.979  31.854  28.425  1.00  0.00     0.010 A 
ATOM     17  C   UNL A   1      37.269  30.660  29.084  1.00  0.00    -0.014 A 
BRANCH  17  18
ATOM     18  C   UNL A   1      38.542  30.419  29.786  1.00  0.00     0.031 A 
ATOM     19  C   UNL A   1      38.709  30.818  31.215  1.00  0.00     0.074 A 
ATOM     20  C   UNL A   1      39.452  29.671  29.136  1.00  0.00     0.049 A 
ATOM     21  N   UNL A   1      39.619  30.435  32.071  1.00  0.00    -0.248 NA
ATOM     22  C   UNL A   1      37.734  31.775  31.761  1.00  0.00     0.031 C 
ATOM     23  C   UNL A   1      39.344  29.277  27.728  1.00  0.00     0.029 A 
ATOM     24  N   UNL A   1      40.576  29.030  29.577  1.00  0.00    -0.354 N 
ATOM     25  C   UNL A   1      39.340  31.113  33.249  1.00  0.00     0.074 A 
ATOM     26  C   UNL A   1      38.184  31.945  32.997  1.00  0.00     0.031 C 
ATOM     27  C   UNL A   1      40.285  28.365  27.455  1.00  0.00     0.029 A 
ATOM     28  C   UNL A   1      41.094  28.158  28.649  1.00  0.00     0.049 A 
ATOM     29  H   UNL A   1      40.973  29.179  30.466  1.00  0.00     0.167 HD
ATOM     30  C   UNL A   1      40.007  31.037  34.426  1.00  0.00     0.037 A 
ATOM     31  C   UNL A   1      42.093  27.267  28.768  1.00  0.00     0.037 A 
ATOM     32  C   UNL A   1      41.152  30.187  34.630  1.00  0.00     0.049 A 
ATOM     33  C   UNL A   1      42.770  27.159  30.103  1.00  0.00     0.074 A 
ATOM     34  C   UNL A   1      41.920  30.020  35.768  1.00  0.00     0.029 A 
ATOM     35  N   UNL A   1      41.692  29.352  33.657  1.00  0.00    -0.354 N 
ATOM     36  N   UNL A   1      42.490  27.785  31.221  1.00  0.00    -0.248 NA
ATOM     37  C   UNL A   1      43.903  26.233  30.194  1.00  0.00     0.031 C 
ATOM     38  C   UNL A   1      42.948  29.117  35.470  1.00  0.00     0.029 A 
ATOM     39  C   UNL A   1      42.792  28.681  34.162  1.00  0.00     0.049 A 
ATOM     40  H   UNL A   1      41.343  29.254  32.741  1.00  0.00     0.167 HD
ATOM     41  C   UNL A   1      43.413  27.337  32.151  1.00  0.00     0.074 A 
ATOM     42  C   UNL A   1      44.235  26.351  31.471  1.00  0.00     0.031 C 
ATOM     43  C   UNL A   1      43.586  27.714  33.443  1.00  0.00     0.037 A 
BRANCH  30  44
ATOM     44  C   UNL A   1      39.545  31.924  35.547  1.00  0.00     0.064 A 
ATOM     45  C   UNL A   1      40.057  33.217  35.734  1.00  0.00     0.173 A 
ATOM     46  C   UNL A   1      38.563  31.476  36.444  1.00  0.00     0.173 A 
ATOM     47  F   UNL A   1      41.008  33.693  34.917  1.00  0.00    -0.203 F 
ATOM     48  C   UNL A   1      39.621  34.016  36.792  1.00  0.00     0.198 A 
ATOM     49  C   UNL A   1      38.111  32.286  37.483  1.00  0.00     0.198 A 
ATOM     50  F   UNL A   1      38.036  30.248  36.312  1.00  0.00    -0.203 F 
ATOM     51  F   UNL A   1      40.158  35.231  36.978  1.00  0.00    -0.200 F 
ATOM     52  C   UNL A   1      38.646  33.552  37.661  1.00  0.00     0.200 A 
ATOM     53  F   UNL A   1      37.162  31.839  38.317  1.00  0.00    -0.200 F 
ATOM     54  F   UNL A   1      38.228  34.322  38.675  1.00  0.00    -0.200 F 
ENDBRANCH  30  44
BRANCH  31  55
ATOM     55  C   UNL A   1      42.464  26.411  27.611  1.00  0.00     0.064 A 
ATOM     56  C   UNL A   1      43.491  26.777  26.731  1.00  0.00     0.173 A 
ATOM     57  C   UNL A   1      41.834  25.176  27.394  1.00  0.00     0.173 A 
ATOM     58  F   UNL A   1      44.121  27.951  26.885  1.00  0.00    -0.203 F 
ATOM     59  C   UNL A   1      43.868  25.945  25.677  1.00  0.00     0.198 A 
ATOM     60  C   UNL A   1      42.235  24.330  26.363  1.00  0.00     0.198 A 
ATOM     61  F   UNL A   1      40.851  24.770  28.213  1.00  0.00    -0.203 F 
ATOM     62  F   UNL A   1      44.833  26.333  24.832  1.00  0.00    -0.200 F 
ATOM     63  C   UNL A   1      43.248  24.717  25.501  1.00  0.00     0.200 A 
ATOM     64  F   UNL A   1      41.647  23.134  26.214  1.00  0.00    -0.200 F 
ATOM     65  F   UNL A   1      43.625  23.909  24.502  1.00  0.00    -0.200 F 
ENDBRANCH  31  55
BRANCH  43  66
ATOM     66  C   UNL A   1      44.703  27.045  34.183  1.00  0.00     0.064 A 
ATOM     67  C   UNL A   1      45.991  27.599  34.213  1.00  0.00     0.173 A 
ATOM     68  C   UNL A   1      44.479  25.846  34.873  1.00  0.00     0.173 A 
ATOM     69  F   UNL A   1      46.253  28.737  33.552  1.00  0.00    -0.203 F 
ATOM     70  C   UNL A   1      47.027  26.953  34.879  1.00  0.00     0.198 A 
ATOM     71  C   UNL A   1      45.511  25.219  35.563  1.00  0.00     0.198 A 
ATOM     72  F   UNL A   1      43.260  25.284  34.875  1.00  0.00    -0.203 F 
ATOM     73  F   UNL A   1      48.264  27.468  34.848  1.00  0.00    -0.200 F 
ATOM     74  C   UNL A   1      46.785  25.768  35.557  1.00  0.00     0.200 A 
ATOM     75  F   UNL A   1      45.275  24.077  36.223  1.00  0.00    -0.200 F 
ATOM     76  F   UNL A   1      47.785  25.145  36.195  1.00  0.00    -0.200 F 
ENDBRANCH  43  66
ENDBRANCH  17  18
ENDBRANCH  10  12
ENDBRANCH   7   8
ENDBRANCH   6   7
ENDBRANCH   5   6
ENDBRANCH   1   5
BRANCH   2  77
ATOM     77  C   UNL A   1      30.836  25.379  25.432  1.00  0.00     0.046 A 
ATOM     78  C   UNL A   1      29.572  25.984  25.529  1.00  0.00     0.014 A 
ATOM     79  C   UNL A   1      31.326  24.872  24.204  1.00  0.00    -0.001 A 
ATOM     80  C   UNL A   1      28.769  26.110  24.401  1.00  0.00     0.001 A 
ATOM     81  C   UNL A   1      30.480  25.013  23.082  1.00  0.00     0.007 A 
ATOM     82  C   UNL A   1      29.223  25.623  23.181  1.00  0.00     0.000 A 
BRANCH  79  83
ATOM     83  C   UNL A   1      32.666  24.156  23.995  1.00  0.00     0.197 C 
ATOM     84  S   UNL A   1      33.513  24.684  22.489  1.00  0.00    -0.120 SA
ATOM     85  N   UNL A   1      32.588  22.710  23.931  1.00  0.00    -0.236 N 
ATOM     86  C   UNL A   1      33.394  23.042  21.719  1.00  0.00     0.174 C 
ATOM     87  C   UNL A   1      32.560  22.173  22.646  1.00  0.00     0.252 C 
ATOM     88  O   UNL A   1      31.978  21.153  22.287  1.00  0.00    -0.272 OA
BRANCH  85  89
ATOM     89  N   UNL A   1      32.228  22.059  25.120  1.00  0.00    -0.270 N 
ATOM     90  H   UNL A   1      31.360  22.326  25.499  1.00  0.00     0.191 HD
BRANCH  89  91
ATOM     91  C   UNL A   1      32.904  21.112  25.828  1.00  0.00     0.189 C 
ATOM     92  S   UNL A   1      34.171  21.640  26.796  1.00  0.00    -0.039 S 
BRANCH  91  93
ATOM     93  N   UNL A   1      32.492  19.831  25.924  1.00  0.00    -0.331 N 
ATOM     94  H   UNL A   1      31.761  19.682  26.567  1.00  0.00     0.169 HD
BRANCH  93  95
ATOM     95  C   UNL A   1      32.931  18.675  25.263  1.00  0.00     0.040 A 
ATOM     96  C   UNL A   1      32.467  17.433  25.709  1.00  0.00     0.026 A 
ATOM     97  C   UNL A   1      33.903  18.719  24.274  1.00  0.00     0.026 A 
ATOM     98  C   UNL A   1      32.905  16.242  25.148  1.00  0.00     0.002 A 
ATOM     99  C   UNL A   1      34.405  17.517  23.760  1.00  0.00     0.002 A 
ATOM    100  C   UNL A   1      33.894  16.284  24.181  1.00  0.00     0.000 A 
ENDBRANCH  93  95
ENDBRANCH  91  93
ENDBRANCH  89  91
ENDBRANCH  85  89
ENDBRANCH  79  83
ENDBRANCH   2  77
TORSDOF 15
ENDMDL
MODEL 3
REMARK VINA RESULT:     -12.8      4.443     10.459
REMARK SMILES O=C(NCCCNC(=O)c1ccccc1[C@@H]1SCC(=O)N1NC(=S)Nc1ccccc1)c1ccc(-c2c3nc(c(-c4c(F)c(F)c(F)c(F)c4F)c4ccc([nH]4)c(-c4c(F)c(F)c(F)c(F)c4F)c4nc(c(-c5c(F)c(F)c(F)c(F)c5F)c5ccc2[nH]5)C=C4)C=C3)cc1
REMARK SMILES IDX 7 1 8 2 9 3 6 5 5 6 4 7 3 8 1 9 2 10 32 12 33 13 94 14 34 15
REMARK SMILES IDX 93 16 35 17 36 18 37 19 87 20 38 21 92 22 86 23 88 24 39 25
REMARK SMILES IDX 91 26 85 27 84 28 40 30 72 31 52 32 71 33 53 34 56 35 70 36
REMARK SMILES IDX 89 37 54 38 55 39 69 41 90 42 57 43 41 44 42 45 50 46 43 47
REMARK SMILES IDX 44 48 48 49 51 50 45 51 46 52 49 53 47 54 73 55 74 56 82 57
REMARK SMILES IDX 75 58 76 59 80 60 83 61 77 62 78 63 81 64 79 65 58 66 59 67
REMARK SMILES IDX 67 68 60 69 61 70 65 71 68 72 62 73 63 74 66 75 64 76 10 77
REMARK SMILES IDX 11 78 15 79 12 80 14 81 13 82 16 83 17 84 21 85 18 86 19 87
REMARK SMILES IDX 20 88 22 89 23 91 24 92 25 93 26 95 27 96 31 97 28 98 30 99
REMARK SMILES IDX 29 100
REMARK H PARENT 7 4 3 11 88 29 56 40 22 90 25 94
REMARK Flexibility Score: inf
ROOT
ATOM      1  N   UNL A   1      34.991  24.720  24.585  1.00  0.00    -0.352 N 
ATOM      2  C   UNL A   1      33.849  25.309  24.119  1.00  0.00     0.251 C 
ATOM      3  O   UNL A   1      33.737  25.602  22.933  1.00  0.00    -0.269 OA
ATOM      4  H   UNL A   1      35.720  24.659  23.926  1.00  0.00     0.163 HD
ENDROOT
BRANCH   1   5
ATOM      5  C   UNL A   1      35.309  24.170  25.888  1.00  0.00     0.118 C 
BRANCH   5   6
ATOM      6  C   UNL A   1      35.985  22.788  25.892  1.00  0.00     0.042 C 
BRANCH   6   7
ATOM      7  C   UNL A   1      37.034  22.512  24.818  1.00  0.00     0.118 C 
BRANCH   7   8
ATOM      8  N   UNL A   1      38.003  21.479  25.179  1.00  0.00    -0.352 N 
ATOM      9  O   UNL A   1      39.543  20.346  26.400  1.00  0.00    -0.269 OA
ATOM     10  C   UNL A   1      39.049  21.425  26.070  1.00  0.00     0.251 C 
ATOM     11  H   UNL A   1      37.881  20.642  24.675  1.00  0.00     0.163 HD
BRANCH  10  12
ATOM     12  C   UNL A   1      39.736  22.623  26.572  1.00  0.00     0.039 A 
ATOM     13  C   UNL A   1      39.423  23.898  26.132  1.00  0.00     0.014 A 
ATOM     14  C   UNL A   1      40.717  22.446  27.569  1.00  0.00     0.014 A 
ATOM     15  C   UNL A   1      40.203  24.965  26.537  1.00  0.00     0.010 A 
ATOM     16  C   UNL A   1      41.433  23.534  28.061  1.00  0.00     0.010 A 
ATOM     17  C   UNL A   1      41.204  24.795  27.510  1.00  0.00    -0.014 A 
BRANCH  17  18
ATOM     18  C   UNL A   1      41.903  26.010  27.967  1.00  0.00     0.031 A 
ATOM     19  C   UNL A   1      43.240  26.371  27.408  1.00  0.00     0.074 A 
ATOM     20  C   UNL A   1      41.201  26.844  28.755  1.00  0.00     0.049 A 
ATOM     21  N   UNL A   1      43.864  27.519  27.457  1.00  0.00    -0.248 NA
ATOM     22  C   UNL A   1      43.980  25.313  26.704  1.00  0.00     0.031 C 
ATOM     23  C   UNL A   1      39.899  26.522  29.347  1.00  0.00     0.029 A 
ATOM     24  N   UNL A   1      41.418  28.145  29.111  1.00  0.00    -0.354 N 
ATOM     25  C   UNL A   1      45.074  27.318  26.810  1.00  0.00     0.074 A 
ATOM     26  C   UNL A   1      45.107  25.936  26.386  1.00  0.00     0.031 C 
ATOM     27  C   UNL A   1      39.377  27.631  29.884  1.00  0.00     0.029 A 
ATOM     28  C   UNL A   1      40.331  28.720  29.725  1.00  0.00     0.049 A 
ATOM     29  H   UNL A   1      42.265  28.620  28.946  1.00  0.00     0.167 HD
ATOM     30  C   UNL A   1      46.061  28.223  26.600  1.00  0.00     0.037 A 
ATOM     31  C   UNL A   1      40.122  29.998  30.088  1.00  0.00     0.037 A 
ATOM     32  C   UNL A   1      45.979  29.594  27.036  1.00  0.00     0.049 A 
ATOM     33  C   UNL A   1      41.206  30.991  29.786  1.00  0.00     0.074 A 
ATOM     34  C   UNL A   1      46.907  30.609  26.893  1.00  0.00     0.029 A 
ATOM     35  N   UNL A   1      44.888  30.140  27.706  1.00  0.00    -0.354 N 
ATOM     36  N   UNL A   1      42.340  30.804  29.153  1.00  0.00    -0.248 NA
ATOM     37  C   UNL A   1      40.991  32.364  30.251  1.00  0.00     0.031 C 
ATOM     38  C   UNL A   1      46.395  31.756  27.513  1.00  0.00     0.029 A 
ATOM     39  C   UNL A   1      45.126  31.472  27.998  1.00  0.00     0.049 A 
ATOM     40  H   UNL A   1      44.067  29.649  27.939  1.00  0.00     0.167 HD
ATOM     41  C   UNL A   1      42.981  32.032  29.147  1.00  0.00     0.074 A 
ATOM     42  C   UNL A   1      42.084  32.966  29.804  1.00  0.00     0.031 C 
ATOM     43  C   UNL A   1      44.205  32.360  28.663  1.00  0.00     0.037 A 
BRANCH  30  44
ATOM     44  C   UNL A   1      47.312  27.745  25.922  1.00  0.00     0.064 A 
ATOM     45  C   UNL A   1      47.433  27.701  24.524  1.00  0.00     0.173 A 
ATOM     46  C   UNL A   1      48.417  27.335  26.684  1.00  0.00     0.173 A 
ATOM     47  F   UNL A   1      46.404  28.067  23.745  1.00  0.00    -0.203 F 
ATOM     48  C   UNL A   1      48.601  27.240  23.917  1.00  0.00     0.198 A 
ATOM     49  C   UNL A   1      49.592  26.900  26.075  1.00  0.00     0.198 A 
ATOM     50  F   UNL A   1      48.360  27.357  28.024  1.00  0.00    -0.203 F 
ATOM     51  F   UNL A   1      48.676  27.164  22.581  1.00  0.00    -0.200 F 
ATOM     52  C   UNL A   1      49.681  26.845  24.692  1.00  0.00     0.200 A 
ATOM     53  F   UNL A   1      50.638  26.527  26.826  1.00  0.00    -0.200 F 
ATOM     54  F   UNL A   1      50.803  26.404  24.107  1.00  0.00    -0.200 F 
ENDBRANCH  30  44
BRANCH  31  55
ATOM     55  C   UNL A   1      38.840  30.386  30.731  1.00  0.00     0.064 A 
ATOM     56  C   UNL A   1      38.705  30.432  32.125  1.00  0.00     0.173 A 
ATOM     57  C   UNL A   1      37.733  30.774  29.960  1.00  0.00     0.173 A 
ATOM     58  F   UNL A   1      39.727  30.062  32.911  1.00  0.00    -0.203 F 
ATOM     59  C   UNL A   1      37.514  30.845  32.721  1.00  0.00     0.198 A 
ATOM     60  C   UNL A   1      36.556  31.220  30.555  1.00  0.00     0.198 A 
ATOM     61  F   UNL A   1      37.810  30.759  28.620  1.00  0.00    -0.203 F 
ATOM     62  F   UNL A   1      37.402  30.852  34.056  1.00  0.00    -0.200 F 
ATOM     63  C   UNL A   1      36.445  31.250  31.936  1.00  0.00     0.200 A 
ATOM     64  F   UNL A   1      35.536  31.634  29.791  1.00  0.00    -0.200 F 
ATOM     65  F   UNL A   1      35.308  31.668  32.509  1.00  0.00    -0.200 F 
ENDBRANCH  31  55
BRANCH  43  66
ATOM     66  C   UNL A   1      44.620  33.789  28.833  1.00  0.00     0.064 A 
ATOM     67  C   UNL A   1      45.334  34.211  29.965  1.00  0.00     0.173 A 
ATOM     68  C   UNL A   1      44.307  34.741  27.853  1.00  0.00     0.173 A 
ATOM     69  F   UNL A   1      45.640  33.337  30.935  1.00  0.00    -0.203 F 
ATOM     70  C   UNL A   1      45.688  35.546  30.125  1.00  0.00     0.198 A 
ATOM     71  C   UNL A   1      44.689  36.069  28.003  1.00  0.00     0.198 A 
ATOM     72  F   UNL A   1      43.630  34.380  26.752  1.00  0.00    -0.203 F 
ATOM     73  F   UNL A   1      46.319  35.941  31.239  1.00  0.00    -0.200 F 
ATOM     74  C   UNL A   1      45.370  36.472  29.142  1.00  0.00     0.200 A 
ATOM     75  F   UNL A   1      44.387  36.962  27.050  1.00  0.00    -0.200 F 
ATOM     76  F   UNL A   1      45.708  37.759  29.300  1.00  0.00    -0.200 F 
ENDBRANCH  43  66
ENDBRANCH  17  18
ENDBRANCH  10  12
ENDBRANCH   7   8
ENDBRANCH   6   7
ENDBRANCH   5   6
ENDBRANCH   1   5
BRANCH   2  77
ATOM     77  C   UNL A   1      32.736  25.612  25.028  1.00  0.00     0.046 A 
ATOM     78  C   UNL A   1      31.827  24.558  25.219  1.00  0.00     0.014 A 
ATOM     79  C   UNL A   1      32.495  26.906  25.548  1.00  0.00    -0.001 A 
ATOM     80  C   UNL A   1      30.660  24.764  25.945  1.00  0.00     0.001 A 
ATOM     81  C   UNL A   1      31.297  27.079  26.276  1.00  0.00     0.007 A 
ATOM     82  C   UNL A   1      30.396  26.024  26.470  1.00  0.00     0.000 A 
BRANCH  79  83
ATOM     83  C   UNL A   1      33.394  28.135  25.362  1.00  0.00     0.197 C 
ATOM     84  S   UNL A   1      34.275  28.592  26.871  1.00  0.00    -0.120 SA
ATOM     85  N   UNL A   1      32.714  29.332  24.910  1.00  0.00    -0.236 N 
ATOM     86  C   UNL A   1      33.425  30.193  27.009  1.00  0.00     0.174 C 
ATOM     87  C   UNL A   1      32.372  30.236  25.914  1.00  0.00     0.252 C 
ATOM     88  O   UNL A   1      31.393  30.976  25.935  1.00  0.00    -0.272 OA
BRANCH  85  89
ATOM     89  N   UNL A   1      32.200  29.294  23.605  1.00  0.00    -0.270 N 
ATOM     90  H   UNL A   1      32.825  29.574  22.899  1.00  0.00     0.191 HD
BRANCH  89  91
ATOM     91  C   UNL A   1      30.961  28.927  23.174  1.00  0.00     0.189 C 
ATOM     92  S   UNL A   1      30.836  27.454  22.376  1.00  0.00    -0.039 S 
BRANCH  91  93
ATOM     93  N   UNL A   1      29.836  29.588  23.515  1.00  0.00    -0.331 N 
ATOM     94  H   UNL A   1      29.409  29.273  24.344  1.00  0.00     0.169 HD
BRANCH  93  95
ATOM     95  C   UNL A   1      29.171  30.650  22.884  1.00  0.00     0.040 A 
ATOM     96  C   UNL A   1      28.676  30.454  21.591  1.00  0.00     0.026 A 
ATOM     97  C   UNL A   1      29.109  31.916  23.449  1.00  0.00     0.026 A 
ATOM     98  C   UNL A   1      28.064  31.475  20.878  1.00  0.00     0.002 A 
ATOM     99  C   UNL A   1      28.563  32.968  22.702  1.00  0.00     0.002 A 
ATOM    100  C   UNL A   1      28.025  32.744  21.429  1.00  0.00     0.000 A 
ENDBRANCH  93  95
ENDBRANCH  91  93
ENDBRANCH  89  91
ENDBRANCH  85  89
ENDBRANCH  79  83
ENDBRANCH   2  77
TORSDOF 15
ENDMDL
