MODEL 1
REMARK VINA RESULT:     -12.6      0.000      0.000
REMARK SMILES CC1(C)CCSC[C@@H]1[N@@H+]1CCNC(=O)[C@@H]1CC(=O)NCCCNC(=O)c1ccc(-c2c3nc(c(-c4c(F)c(F)c(F)c(F)c4F)c4ccc([nH]4)c(-c4c(F)c(F)c(F)c(F)c4F)c4nc(c(-c5c(F)c(F)c(F)c(F)c5F)c5ccc2[nH]5)C=C4)C=C3)cc1
REMARK SMILES IDX 21 1 20 2 19 3 17 4 18 5 16 7 15 8 9 9 10 10 11 12 13 13
REMARK SMILES IDX 12 14 14 15 8 17 1 18 2 19 3 20 4 21 5 22 7 23 6 24 22 25
REMARK SMILES IDX 23 26 24 27 25 29 26 30 27 31 88 32 28 33 87 34 29 35 30 36
REMARK SMILES IDX 31 37 81 38 32 39 86 40 80 41 82 42 33 43 85 44 79 45 78 46
REMARK SMILES IDX 34 48 66 49 46 50 65 51 47 52 50 53 64 54 83 55 48 56 49 57
REMARK SMILES IDX 63 59 84 60 51 61 35 62 36 63 44 64 37 65 38 66 42 67 45 68
REMARK SMILES IDX 39 69 40 70 43 71 41 72 67 73 68 74 76 75 69 76 70 77 74 78
REMARK SMILES IDX 77 79 71 80 72 81 75 82 73 83 52 84 53 85 61 86 54 87 55 88
REMARK SMILES IDX 59 89 62 90 56 91 57 92 60 93 58 94
REMARK H PARENT 19 6 9 11 12 16 23 28 82 47 50 58
REMARK Flexibility Score: inf
ROOT
ATOM      1  C   UNL A   1      31.244  32.114  26.502  1.00  0.00     0.042 C 
ENDROOT
BRANCH   1   2
ATOM      2  C   UNL A   1      31.425  30.681  26.019  1.00  0.00     0.117 C 
BRANCH   2   3
ATOM      3  N   UNL A   1      30.902  30.509  24.673  1.00  0.00    -0.356 N 
ATOM      4  C   UNL A   1      30.748  29.384  23.919  1.00  0.00     0.226 C 
ATOM      5  O   UNL A   1      30.278  29.493  22.786  1.00  0.00    -0.275 OA
ATOM      6  H   UNL A   1      30.611  31.341  24.234  1.00  0.00     0.163 HD
BRANCH   4   7
ATOM      7  C   UNL A   1      31.084  28.033  24.504  1.00  0.00     0.175 C 
BRANCH   7   8
ATOM      8  C   UNL A   1      32.528  27.541  24.318  1.00  0.00     0.283 C 
ATOM      9  N   UNL A   1      33.042  26.611  25.366  1.00  0.00    -0.319 N 
ATOM     10  C   UNL A   1      33.307  27.317  26.628  1.00  0.00     0.284 C 
ATOM     11  H   UNL A   1      33.907  26.318  24.911  1.00  0.00     0.349 HD
ATOM     12  C   UNL A   1      34.393  28.378  26.423  1.00  0.00     0.177 C 
ATOM     13  C   UNL A   1      33.525  28.716  24.124  1.00  0.00     0.279 C 
ATOM     14  N   UNL A   1      34.249  29.139  25.206  1.00  0.00    -0.345 N 
ATOM     15  O   UNL A   1      33.646  29.327  23.063  1.00  0.00    -0.268 OA
ATOM     16  H   UNL A   1      34.698  30.014  25.150  1.00  0.00     0.163 HD
BRANCH   9  17
ATOM     17  C   UNL A   1      32.506  25.242  25.543  1.00  0.00     0.200 C 
ATOM     18  C   UNL A   1      33.034  22.746  25.703  1.00  0.00     0.017 C 
ATOM     19  C   UNL A   1      33.474  24.101  25.085  1.00  0.00     0.018 C 
ATOM     20  C   UNL A   1      34.903  24.367  25.626  1.00  0.00     0.017 C 
ATOM     21  C   UNL A   1      33.552  23.955  23.557  1.00  0.00     0.023 C 
ATOM     22  C   UNL A   1      32.258  24.054  22.751  1.00  0.00     0.070 C 
ATOM     23  C   UNL A   1      31.037  24.995  25.146  1.00  0.00     0.135 C 
ATOM     24  S   UNL A   1      30.653  24.130  23.593  1.00  0.00    -0.156 SA
ENDBRANCH   9  17
ENDBRANCH   7   8
ENDBRANCH   4   7
ENDBRANCH   2   3
ENDBRANCH   1   2
BRANCH   1  25
ATOM     25  C   UNL A   1      32.464  32.628  27.251  1.00  0.00     0.118 C 
BRANCH  25  26
ATOM     26  N   UNL A   1      32.359  34.050  27.534  1.00  0.00    -0.352 N 
ATOM     27  C   UNL A   1      32.959  34.815  28.504  1.00  0.00     0.251 C 
ATOM     28  H   UNL A   1      31.759  34.548  26.932  1.00  0.00     0.163 HD
ATOM     29  O   UNL A   1      32.527  35.948  28.719  1.00  0.00    -0.269 OA
BRANCH  27  30
ATOM     30  C   UNL A   1      34.101  34.311  29.305  1.00  0.00     0.039 A 
ATOM     31  C   UNL A   1      35.393  34.423  28.777  1.00  0.00     0.014 A 
ATOM     32  C   UNL A   1      33.918  33.643  30.518  1.00  0.00     0.014 A 
ATOM     33  C   UNL A   1      36.486  33.889  29.468  1.00  0.00     0.010 A 
ATOM     34  C   UNL A   1      35.016  33.209  31.257  1.00  0.00     0.010 A 
ATOM     35  C   UNL A   1      36.309  33.286  30.722  1.00  0.00    -0.014 A 
BRANCH  35  36
ATOM     36  C   UNL A   1      37.434  32.632  31.442  1.00  0.00     0.031 A 
ATOM     37  C   UNL A   1      38.179  31.497  30.786  1.00  0.00     0.074 A 
ATOM     38  C   UNL A   1      37.761  33.013  32.691  1.00  0.00     0.049 A 
ATOM     39  N   UNL A   1      39.114  30.722  31.274  1.00  0.00    -0.248 NA
ATOM     40  C   UNL A   1      37.793  31.169  29.404  1.00  0.00     0.031 C 
ATOM     41  C   UNL A   1      37.106  34.074  33.454  1.00  0.00     0.029 A 
ATOM     42  N   UNL A   1      38.732  32.543  33.540  1.00  0.00    -0.354 N 
ATOM     43  C   UNL A   1      39.389  29.790  30.280  1.00  0.00     0.074 A 
ATOM     44  C   UNL A   1      38.493  30.066  29.180  1.00  0.00     0.031 C 
ATOM     45  C   UNL A   1      37.717  34.202  34.643  1.00  0.00     0.029 A 
ATOM     46  C   UNL A   1      38.781  33.206  34.741  1.00  0.00     0.049 A 
ATOM     47  H   UNL A   1      39.336  31.800  33.310  1.00  0.00     0.167 HD
ATOM     48  C   UNL A   1      40.320  28.807  30.271  1.00  0.00     0.037 A 
ATOM     49  C   UNL A   1      39.596  33.031  35.798  1.00  0.00     0.037 A 
ATOM     50  C   UNL A   1      41.263  28.577  31.332  1.00  0.00     0.049 A 
ATOM     51  C   UNL A   1      40.646  31.956  35.753  1.00  0.00     0.074 A 
ATOM     52  C   UNL A   1      42.299  27.660  31.386  1.00  0.00     0.029 A 
ATOM     53  N   UNL A   1      41.292  29.285  32.524  1.00  0.00    -0.354 N 
ATOM     54  N   UNL A   1      40.922  31.107  34.794  1.00  0.00    -0.248 NA
ATOM     55  C   UNL A   1      41.499  31.815  36.943  1.00  0.00     0.031 C 
ATOM     56  C   UNL A   1      42.939  27.798  32.622  1.00  0.00     0.029 A 
ATOM     57  C   UNL A   1      42.322  28.822  33.324  1.00  0.00     0.049 A 
ATOM     58  H   UNL A   1      40.672  30.010  32.765  1.00  0.00     0.167 HD
ATOM     59  C   UNL A   1      41.993  30.351  35.249  1.00  0.00     0.074 A 
ATOM     60  C   UNL A   1      42.324  30.847  36.569  1.00  0.00     0.031 C 
ATOM     61  C   UNL A   1      42.644  29.337  34.629  1.00  0.00     0.037 A 
BRANCH  48  62
ATOM     62  C   UNL A   1      40.367  27.912  29.067  1.00  0.00     0.064 A 
ATOM     63  C   UNL A   1      41.127  28.238  27.933  1.00  0.00     0.173 A 
ATOM     64  C   UNL A   1      39.642  26.711  29.046  1.00  0.00     0.173 A 
ATOM     65  F   UNL A   1      41.826  29.383  27.898  1.00  0.00    -0.203 F 
ATOM     66  C   UNL A   1      41.128  27.417  26.810  1.00  0.00     0.198 A 
ATOM     67  C   UNL A   1      39.669  25.877  27.932  1.00  0.00     0.198 A 
ATOM     68  F   UNL A   1      38.903  26.348  30.106  1.00  0.00    -0.203 F 
ATOM     69  F   UNL A   1      41.813  27.780  25.717  1.00  0.00    -0.200 F 
ATOM     70  C   UNL A   1      40.403  26.235  26.811  1.00  0.00     0.200 A 
ATOM     71  F   UNL A   1      38.977  24.729  27.939  1.00  0.00    -0.200 F 
ATOM     72  F   UNL A   1      40.402  25.447  25.727  1.00  0.00    -0.200 F 
ENDBRANCH  48  62
BRANCH  49  73
ATOM     73  C   UNL A   1      39.485  33.935  36.971  1.00  0.00     0.064 A 
ATOM     74  C   UNL A   1      38.744  33.549  38.097  1.00  0.00     0.173 A 
ATOM     75  C   UNL A   1      40.119  35.184  37.001  1.00  0.00     0.173 A 
ATOM     76  F   UNL A   1      38.104  32.370  38.104  1.00  0.00    -0.203 F 
ATOM     77  C   UNL A   1      38.633  34.384  39.206  1.00  0.00     0.198 A 
ATOM     78  C   UNL A   1      40.025  36.009  38.120  1.00  0.00     0.198 A 
ATOM     79  F   UNL A   1      40.842  35.595  35.950  1.00  0.00    -0.203 F 
ATOM     80  F   UNL A   1      37.894  34.003  40.257  1.00  0.00    -0.200 F 
ATOM     81  C   UNL A   1      39.278  35.611  39.219  1.00  0.00     0.200 A 
ATOM     82  F   UNL A   1      40.660  37.190  38.134  1.00  0.00    -0.200 F 
ATOM     83  F   UNL A   1      39.179  36.411  40.289  1.00  0.00    -0.200 F 
ENDBRANCH  49  73
BRANCH  61  84
ATOM     84  C   UNL A   1      43.803  28.722  35.354  1.00  0.00     0.064 A 
ATOM     85  C   UNL A   1      43.632  27.624  36.208  1.00  0.00     0.173 A 
ATOM     86  C   UNL A   1      45.103  29.211  35.158  1.00  0.00     0.173 A 
ATOM     87  F   UNL A   1      42.405  27.133  36.440  1.00  0.00    -0.203 F 
ATOM     88  C   UNL A   1      44.721  27.049  36.856  1.00  0.00     0.198 A 
ATOM     89  C   UNL A   1      46.192  28.618  35.789  1.00  0.00     0.198 A 
ATOM     90  F   UNL A   1      45.316  30.257  34.345  1.00  0.00    -0.203 F 
ATOM     91  F   UNL A   1      44.532  26.024  37.699  1.00  0.00    -0.200 F 
ATOM     92  C   UNL A   1      46.000  27.542  36.642  1.00  0.00     0.200 A 
ATOM     93  F   UNL A   1      47.428  29.091  35.575  1.00  0.00    -0.200 F 
ATOM     94  F   UNL A   1      47.047  26.983  37.264  1.00  0.00    -0.200 F 
ENDBRANCH  61  84
ENDBRANCH  35  36
ENDBRANCH  27  30
ENDBRANCH  25  26
ENDBRANCH   1  25
TORSDOF 12
ENDMDL
MODEL 2
REMARK VINA RESULT:     -12.6      0.182      1.612
REMARK SMILES CC1(C)CCSC[C@@H]1[N@@H+]1CCNC(=O)[C@@H]1CC(=O)NCCCNC(=O)c1ccc(-c2c3nc(c(-c4c(F)c(F)c(F)c(F)c4F)c4ccc([nH]4)c(-c4c(F)c(F)c(F)c(F)c4F)c4nc(c(-c5c(F)c(F)c(F)c(F)c5F)c5ccc2[nH]5)C=C4)C=C3)cc1
REMARK SMILES IDX 21 1 20 2 19 3 17 4 18 5 16 7 15 8 9 9 10 10 11 12 13 13
REMARK SMILES IDX 12 14 14 15 8 17 1 18 2 19 3 20 4 21 5 22 7 23 6 24 22 25
REMARK SMILES IDX 23 26 24 27 25 29 26 30 27 31 88 32 28 33 87 34 29 35 30 36
REMARK SMILES IDX 31 37 81 38 32 39 86 40 80 41 82 42 33 43 85 44 79 45 78 46
REMARK SMILES IDX 34 48 66 49 46 50 65 51 47 52 50 53 64 54 83 55 48 56 49 57
REMARK SMILES IDX 63 59 84 60 51 61 35 62 36 63 44 64 37 65 38 66 42 67 45 68
REMARK SMILES IDX 39 69 40 70 43 71 41 72 67 73 68 74 76 75 69 76 70 77 74 78
REMARK SMILES IDX 77 79 71 80 72 81 75 82 73 83 52 84 53 85 61 86 54 87 55 88
REMARK SMILES IDX 59 89 62 90 56 91 57 92 60 93 58 94
REMARK H PARENT 19 6 9 11 12 16 23 28 82 47 50 58
REMARK Flexibility Score: inf
ROOT
ATOM      1  C   UNL A   1      31.243  32.121  26.512  1.00  0.00     0.042 C 
ENDROOT
BRANCH   1   2
ATOM      2  C   UNL A   1      31.435  30.697  26.007  1.00  0.00     0.117 C 
BRANCH   2   3
ATOM      3  N   UNL A   1      30.879  30.532  24.673  1.00  0.00    -0.356 N 
ATOM      4  C   UNL A   1      30.703  29.411  23.919  1.00  0.00     0.226 C 
ATOM      5  O   UNL A   1      30.206  29.527  22.798  1.00  0.00    -0.275 OA
ATOM      6  H   UNL A   1      30.583  31.367  24.244  1.00  0.00     0.163 HD
BRANCH   4   7
ATOM      7  C   UNL A   1      31.045  28.056  24.491  1.00  0.00     0.175 C 
BRANCH   7   8
ATOM      8  C   UNL A   1      32.484  27.560  24.275  1.00  0.00     0.283 C 
ATOM      9  N   UNL A   1      33.016  26.626  25.310  1.00  0.00    -0.319 N 
ATOM     10  C   UNL A   1      33.308  27.327  26.568  1.00  0.00     0.284 C 
ATOM     11  H   UNL A   1      33.870  26.331  24.837  1.00  0.00     0.349 HD
ATOM     12  C   UNL A   1      34.393  28.386  26.345  1.00  0.00     0.177 C 
ATOM     13  C   UNL A   1      33.481  28.733  24.065  1.00  0.00     0.279 C 
ATOM     14  N   UNL A   1      34.227  29.151  25.133  1.00  0.00    -0.345 N 
ATOM     15  O   UNL A   1      33.582  29.347  23.003  1.00  0.00    -0.268 OA
ATOM     16  H   UNL A   1      34.677  30.023  25.071  1.00  0.00     0.163 HD
BRANCH   9  17
ATOM     17  C   UNL A   1      32.478  25.258  25.494  1.00  0.00     0.200 C 
ATOM     18  C   UNL A   1      33.009  22.766  25.704  1.00  0.00     0.017 C 
ATOM     19  C   UNL A   1      33.461  24.113  25.076  1.00  0.00     0.018 C 
ATOM     20  C   UNL A   1      34.875  24.391  25.650  1.00  0.00     0.017 C 
ATOM     21  C   UNL A   1      33.577  23.945  23.554  1.00  0.00     0.023 C 
ATOM     22  C   UNL A   1      32.304  24.028  22.714  1.00  0.00     0.070 C 
ATOM     23  C   UNL A   1      31.021  25.000  25.064  1.00  0.00     0.135 C 
ATOM     24  S   UNL A   1      30.678  24.111  23.514  1.00  0.00    -0.156 SA
ENDBRANCH   9  17
ENDBRANCH   7   8
ENDBRANCH   4   7
ENDBRANCH   2   3
ENDBRANCH   1   2
BRANCH   1  25
ATOM     25  C   UNL A   1      32.477  32.649  27.229  1.00  0.00     0.118 C 
BRANCH  25  26
ATOM     26  N   UNL A   1      32.356  34.066  27.530  1.00  0.00    -0.352 N 
ATOM     27  C   UNL A   1      32.955  34.827  28.503  1.00  0.00     0.251 C 
ATOM     28  H   UNL A   1      31.743  34.562  26.941  1.00  0.00     0.163 HD
ATOM     29  O   UNL A   1      32.511  35.952  28.736  1.00  0.00    -0.269 OA
BRANCH  27  30
ATOM     30  C   UNL A   1      34.113  34.329  29.286  1.00  0.00     0.039 A 
ATOM     31  C   UNL A   1      35.399  34.479  28.753  1.00  0.00     0.014 A 
ATOM     32  C   UNL A   1      33.951  33.631  30.485  1.00  0.00     0.014 A 
ATOM     33  C   UNL A   1      36.507  33.953  29.425  1.00  0.00     0.010 A 
ATOM     34  C   UNL A   1      35.063  33.204  31.208  1.00  0.00     0.010 A 
ATOM     35  C   UNL A   1      36.350  33.319  30.666  1.00  0.00    -0.014 A 
BRANCH  35  36
ATOM     36  C   UNL A   1      37.492  32.672  31.365  1.00  0.00     0.031 A 
ATOM     37  C   UNL A   1      38.255  31.566  30.680  1.00  0.00     0.074 A 
ATOM     38  C   UNL A   1      37.821  33.034  32.619  1.00  0.00     0.049 A 
ATOM     39  N   UNL A   1      39.208  30.799  31.146  1.00  0.00    -0.248 NA
ATOM     40  C   UNL A   1      37.866  31.258  29.295  1.00  0.00     0.031 C 
ATOM     41  C   UNL A   1      37.151  34.066  33.409  1.00  0.00     0.029 A 
ATOM     42  N   UNL A   1      38.808  32.566  33.452  1.00  0.00    -0.354 N 
ATOM     43  C   UNL A   1      39.494  29.893  30.132  1.00  0.00     0.074 A 
ATOM     44  C   UNL A   1      38.585  30.175  29.044  1.00  0.00     0.031 C 
ATOM     45  C   UNL A   1      37.769  34.182  34.596  1.00  0.00     0.029 A 
ATOM     46  C   UNL A   1      38.853  33.205  34.666  1.00  0.00     0.049 A 
ATOM     47  H   UNL A   1      39.424  31.840  33.202  1.00  0.00     0.167 HD
ATOM     48  C   UNL A   1      40.444  28.929  30.096  1.00  0.00     0.037 A 
ATOM     49  C   UNL A   1      39.678  33.024  35.714  1.00  0.00     0.037 A 
ATOM     50  C   UNL A   1      41.398  28.695  31.145  1.00  0.00     0.049 A 
ATOM     51  C   UNL A   1      40.749  31.971  35.639  1.00  0.00     0.074 A 
ATOM     52  C   UNL A   1      42.453  27.799  31.173  1.00  0.00     0.029 A 
ATOM     53  N   UNL A   1      41.423  29.380  32.351  1.00  0.00    -0.354 N 
ATOM     54  N   UNL A   1      41.034  31.147  34.661  1.00  0.00    -0.248 NA
ATOM     55  C   UNL A   1      41.613  31.822  36.819  1.00  0.00     0.031 C 
ATOM     56  C   UNL A   1      43.099  27.924  32.407  1.00  0.00     0.029 A 
ATOM     57  C   UNL A   1      42.467  28.920  33.134  1.00  0.00     0.049 A 
ATOM     58  H   UNL A   1      40.791  30.088  32.612  1.00  0.00     0.167 HD
ATOM     59  C   UNL A   1      42.123  30.403  35.093  1.00  0.00     0.074 A 
ATOM     60  C   UNL A   1      42.454  30.878  36.420  1.00  0.00     0.031 C 
ATOM     61  C   UNL A   1      42.789  29.415  34.448  1.00  0.00     0.037 A 
BRANCH  48  62
ATOM     62  C   UNL A   1      40.499  28.060  28.873  1.00  0.00     0.064 A 
ATOM     63  C   UNL A   1      41.265  28.412  27.751  1.00  0.00     0.173 A 
ATOM     64  C   UNL A   1      39.777  26.858  28.823  1.00  0.00     0.173 A 
ATOM     65  F   UNL A   1      41.962  29.558  27.743  1.00  0.00    -0.203 F 
ATOM     66  C   UNL A   1      41.274  27.615  26.610  1.00  0.00     0.198 A 
ATOM     67  C   UNL A   1      39.812  26.048  27.691  1.00  0.00     0.198 A 
ATOM     68  F   UNL A   1      39.033  26.472  29.870  1.00  0.00    -0.203 F 
ATOM     69  F   UNL A   1      41.964  28.003  25.529  1.00  0.00    -0.200 F 
ATOM     70  C   UNL A   1      40.551  26.432  26.582  1.00  0.00     0.200 A 
ATOM     71  F   UNL A   1      39.122  24.899  27.669  1.00  0.00    -0.200 F 
ATOM     72  F   UNL A   1      40.558  25.667  25.482  1.00  0.00    -0.200 F 
ENDBRANCH  48  62
BRANCH  49  73
ATOM     73  C   UNL A   1      39.559  33.901  36.906  1.00  0.00     0.064 A 
ATOM     74  C   UNL A   1      40.205  35.145  36.940  1.00  0.00     0.173 A 
ATOM     75  C   UNL A   1      38.797  33.528  38.020  1.00  0.00     0.173 A 
ATOM     76  F   UNL A   1      40.961  35.534  35.903  1.00  0.00    -0.203 F 
ATOM     77  C   UNL A   1      40.100  35.979  38.050  1.00  0.00     0.198 A 
ATOM     78  C   UNL A   1      38.676  34.373  39.122  1.00  0.00     0.198 A 
ATOM     79  F   UNL A   1      38.157  32.350  38.033  1.00  0.00    -0.203 F 
ATOM     80  F   UNL A   1      40.752  37.150  38.069  1.00  0.00    -0.200 F 
ATOM     81  C   UNL A   1      39.331  35.596  39.138  1.00  0.00     0.200 A 
ATOM     82  F   UNL A   1      37.921  34.005  40.167  1.00  0.00    -0.200 F 
ATOM     83  F   UNL A   1      39.224  36.402  40.202  1.00  0.00    -0.200 F 
ENDBRANCH  49  73
BRANCH  61  84
ATOM     84  C   UNL A   1      43.964  28.808  35.151  1.00  0.00     0.064 A 
ATOM     85  C   UNL A   1      45.255  29.338  35.012  1.00  0.00     0.173 A 
ATOM     86  C   UNL A   1      43.789  27.710  36.007  1.00  0.00     0.173 A 
ATOM     87  F   UNL A   1      45.473  30.376  34.192  1.00  0.00    -0.203 F 
ATOM     88  C   UNL A   1      46.333  28.777  35.691  1.00  0.00     0.198 A 
ATOM     89  C   UNL A   1      44.866  27.166  36.702  1.00  0.00     0.198 A 
ATOM     90  F   UNL A   1      42.572  27.172  36.175  1.00  0.00    -0.203 F 
ATOM     91  F   UNL A   1      47.565  29.274  35.515  1.00  0.00    -0.200 F 
ATOM     92  C   UNL A   1      46.136  27.697  36.539  1.00  0.00     0.200 A 
ATOM     93  F   UNL A   1      44.673  26.128  37.527  1.00  0.00    -0.200 F 
ATOM     94  F   UNL A   1      47.175  27.162  37.195  1.00  0.00    -0.200 F 
ENDBRANCH  61  84
ENDBRANCH  35  36
ENDBRANCH  27  30
ENDBRANCH  25  26
ENDBRANCH   1  25
TORSDOF 12
ENDMDL
MODEL 3
REMARK VINA RESULT:     -12.5      0.792      7.551
REMARK SMILES CC1(C)CCSC[C@@H]1[N@@H+]1CCNC(=O)[C@@H]1CC(=O)NCCCNC(=O)c1ccc(-c2c3nc(c(-c4c(F)c(F)c(F)c(F)c4F)c4ccc([nH]4)c(-c4c(F)c(F)c(F)c(F)c4F)c4nc(c(-c5c(F)c(F)c(F)c(F)c5F)c5ccc2[nH]5)C=C4)C=C3)cc1
REMARK SMILES IDX 21 1 20 2 19 3 17 4 18 5 16 7 15 8 9 9 10 10 11 12 13 13
REMARK SMILES IDX 12 14 14 15 8 17 1 18 2 19 3 20 4 21 5 22 7 23 6 24 22 25
REMARK SMILES IDX 23 26 24 27 25 29 26 30 27 31 88 32 28 33 87 34 29 35 30 36
REMARK SMILES IDX 31 37 81 38 32 39 86 40 80 41 82 42 33 43 85 44 79 45 78 46
REMARK SMILES IDX 34 48 66 49 46 50 65 51 47 52 50 53 64 54 83 55 48 56 49 57
REMARK SMILES IDX 63 59 84 60 51 61 35 62 36 63 44 64 37 65 38 66 42 67 45 68
REMARK SMILES IDX 39 69 40 70 43 71 41 72 67 73 68 74 76 75 69 76 70 77 74 78
REMARK SMILES IDX 77 79 71 80 72 81 75 82 73 83 52 84 53 85 61 86 54 87 55 88
REMARK SMILES IDX 59 89 62 90 56 91 57 92 60 93 58 94
REMARK H PARENT 19 6 9 11 12 16 23 28 82 47 50 58
REMARK Flexibility Score: inf
ROOT
ATOM      1  C   UNL A   1      31.150  32.032  26.285  1.00  0.00     0.042 C 
ENDROOT
BRANCH   1   2
ATOM      2  C   UNL A   1      31.189  30.568  25.870  1.00  0.00     0.117 C 
BRANCH   2   3
ATOM      3  N   UNL A   1      30.786  30.403  24.482  1.00  0.00    -0.356 N 
ATOM      4  C   UNL A   1      30.749  29.290  23.696  1.00  0.00     0.226 C 
ATOM      5  O   UNL A   1      30.368  29.404  22.531  1.00  0.00    -0.275 OA
ATOM      6  H   UNL A   1      30.492  31.231  24.037  1.00  0.00     0.163 HD
BRANCH   4   7
ATOM      7  C   UNL A   1      31.101  27.944  24.280  1.00  0.00     0.175 C 
BRANCH   7   8
ATOM      8  C   UNL A   1      32.574  27.514  24.186  1.00  0.00     0.283 C 
ATOM      9  N   UNL A   1      33.069  26.628  25.280  1.00  0.00    -0.319 N 
ATOM     10  C   UNL A   1      33.230  27.368  26.539  1.00  0.00     0.284 C 
ATOM     11  H   UNL A   1      33.970  26.366  24.880  1.00  0.00     0.349 HD
ATOM     12  C   UNL A   1      34.278  28.474  26.374  1.00  0.00     0.177 C 
ATOM     13  C   UNL A   1      33.527  28.730  24.023  1.00  0.00     0.279 C 
ATOM     14  N   UNL A   1      34.169  29.206  25.134  1.00  0.00    -0.345 N 
ATOM     15  O   UNL A   1      33.681  29.326  22.958  1.00  0.00    -0.268 OA
ATOM     16  H   UNL A   1      34.581  30.098  25.086  1.00  0.00     0.163 HD
BRANCH   9  17
ATOM     17  C   UNL A   1      32.584  25.239  25.455  1.00  0.00     0.200 C 
ATOM     18  C   UNL A   1      33.207  22.765  25.608  1.00  0.00     0.017 C 
ATOM     19  C   UNL A   1      33.594  24.137  24.991  1.00  0.00     0.018 C 
ATOM     20  C   UNL A   1      35.013  24.455  25.529  1.00  0.00     0.017 C 
ATOM     21  C   UNL A   1      33.672  23.997  23.463  1.00  0.00     0.023 C 
ATOM     22  C   UNL A   1      32.373  24.049  22.661  1.00  0.00     0.070 C 
ATOM     23  C   UNL A   1      31.125  24.938  25.063  1.00  0.00     0.135 C 
ATOM     24  S   UNL A   1      30.769  24.063  23.508  1.00  0.00    -0.156 SA
ENDBRANCH   9  17
ENDBRANCH   7   8
ENDBRANCH   4   7
ENDBRANCH   2   3
ENDBRANCH   1   2
BRANCH   1  25
ATOM     25  C   UNL A   1      32.431  32.468  26.982  1.00  0.00     0.118 C 
BRANCH  25  26
ATOM     26  N   UNL A   1      32.370  33.861  27.394  1.00  0.00    -0.352 N 
ATOM     27  C   UNL A   1      33.019  34.522  28.407  1.00  0.00     0.251 C 
ATOM     28  H   UNL A   1      31.764  34.423  26.858  1.00  0.00     0.163 HD
ATOM     29  O   UNL A   1      32.623  35.641  28.736  1.00  0.00    -0.269 OA
BRANCH  27  30
ATOM     30  C   UNL A   1      34.173  33.924  29.121  1.00  0.00     0.039 A 
ATOM     31  C   UNL A   1      35.463  34.355  28.792  1.00  0.00     0.014 A 
ATOM     32  C   UNL A   1      34.018  32.880  30.035  1.00  0.00     0.014 A 
ATOM     33  C   UNL A   1      36.580  33.759  29.388  1.00  0.00     0.010 A 
ATOM     34  C   UNL A   1      35.122  32.362  30.709  1.00  0.00     0.010 A 
ATOM     35  C   UNL A   1      36.418  32.762  30.362  1.00  0.00    -0.014 A 
BRANCH  35  36
ATOM     36  C   UNL A   1      37.582  32.047  30.951  1.00  0.00     0.031 A 
ATOM     37  C   UNL A   1      38.026  32.375  32.354  1.00  0.00     0.074 A 
ATOM     38  C   UNL A   1      38.269  31.144  30.226  1.00  0.00     0.049 A 
ATOM     39  N   UNL A   1      39.073  31.953  33.017  1.00  0.00    -0.248 NA
ATOM     40  C   UNL A   1      37.199  33.339  33.097  1.00  0.00     0.031 C 
ATOM     41  C   UNL A   1      37.966  30.753  28.850  1.00  0.00     0.029 A 
ATOM     42  N   UNL A   1      39.370  30.392  30.552  1.00  0.00    -0.354 N 
ATOM     43  C   UNL A   1      39.054  32.634  34.228  1.00  0.00     0.074 A 
ATOM     44  C   UNL A   1      37.920  33.530  34.192  1.00  0.00     0.031 C 
ATOM     45  C   UNL A   1      38.835  29.806  28.461  1.00  0.00     0.029 A 
ATOM     46  C   UNL A   1      39.779  29.551  29.547  1.00  0.00     0.049 A 
ATOM     47  H   UNL A   1      39.824  30.451  31.423  1.00  0.00     0.167 HD
ATOM     48  C   UNL A   1      39.889  32.508  35.287  1.00  0.00     0.037 A 
ATOM     49  C   UNL A   1      40.798  28.672  29.509  1.00  0.00     0.037 A 
ATOM     50  C   UNL A   1      40.971  31.565  35.355  1.00  0.00     0.049 A 
ATOM     51  C   UNL A   1      41.692  28.524  30.710  1.00  0.00     0.074 A 
ATOM     52  C   UNL A   1      41.825  31.302  36.413  1.00  0.00     0.029 A 
ATOM     53  N   UNL A   1      41.340  30.716  34.322  1.00  0.00    -0.354 N 
ATOM     54  N   UNL A   1      41.641  29.145  31.862  1.00  0.00    -0.248 NA
ATOM     55  C   UNL A   1      42.789  27.551  30.601  1.00  0.00     0.031 C 
ATOM     56  C   UNL A   1      42.726  30.310  36.010  1.00  0.00     0.029 A 
ATOM     57  C   UNL A   1      42.413  29.934  34.713  1.00  0.00     0.049 A 
ATOM     58  H   UNL A   1      40.903  30.676  33.441  1.00  0.00     0.167 HD
ATOM     59  C   UNL A   1      42.676  28.621  32.625  1.00  0.00     0.074 A 
ATOM     60  C   UNL A   1      43.336  27.626  31.806  1.00  0.00     0.031 C 
ATOM     61  C   UNL A   1      43.047  28.938  33.889  1.00  0.00     0.037 A 
BRANCH  48  62
ATOM     62  C   UNL A   1      39.652  33.411  36.462  1.00  0.00     0.064 A 
ATOM     63  C   UNL A   1      38.798  33.047  37.514  1.00  0.00     0.173 A 
ATOM     64  C   UNL A   1      40.289  34.659  36.538  1.00  0.00     0.173 A 
ATOM     65  F   UNL A   1      38.153  31.870  37.482  1.00  0.00    -0.203 F 
ATOM     66  C   UNL A   1      38.559  33.913  38.577  1.00  0.00     0.198 A 
ATOM     67  C   UNL A   1      40.071  35.511  37.618  1.00  0.00     0.198 A 
ATOM     68  F   UNL A   1      41.120  35.055  35.562  1.00  0.00    -0.203 F 
ATOM     69  F   UNL A   1      37.692  33.568  39.539  1.00  0.00    -0.200 F 
ATOM     70  C   UNL A   1      39.199  35.142  38.631  1.00  0.00     0.200 A 
ATOM     71  F   UNL A   1      40.698  36.694  37.674  1.00  0.00    -0.200 F 
ATOM     72  F   UNL A   1      38.965  35.976  39.653  1.00  0.00    -0.200 F 
ENDBRANCH  48  62
BRANCH  49  73
ATOM     73  C   UNL A   1      40.995  27.823  28.308  1.00  0.00     0.064 A 
ATOM     74  C   UNL A   1      41.807  28.262  27.253  1.00  0.00     0.173 A 
ATOM     75  C   UNL A   1      40.395  26.562  28.192  1.00  0.00     0.173 A 
ATOM     76  F   UNL A   1      42.385  29.470  27.313  1.00  0.00    -0.203 F 
ATOM     77  C   UNL A   1      42.002  27.475  26.121  1.00  0.00     0.198 A 
ATOM     78  C   UNL A   1      40.609  25.767  27.068  1.00  0.00     0.198 A 
ATOM     79  F   UNL A   1      39.613  26.097  29.176  1.00  0.00    -0.203 F 
ATOM     80  F   UNL A   1      42.759  27.932  25.113  1.00  0.00    -0.200 F 
ATOM     81  C   UNL A   1      41.409  26.226  26.031  1.00  0.00     0.200 A 
ATOM     82  F   UNL A   1      40.043  24.554  26.990  1.00  0.00    -0.200 F 
ATOM     83  F   UNL A   1      41.604  25.465  24.946  1.00  0.00    -0.200 F 
ENDBRANCH  49  73
BRANCH  61  84
ATOM     84  C   UNL A   1      44.193  28.174  34.479  1.00  0.00     0.064 A 
ATOM     85  C   UNL A   1      45.508  28.654  34.403  1.00  0.00     0.173 A 
ATOM     86  C   UNL A   1      43.967  26.970  35.162  1.00  0.00     0.173 A 
ATOM     87  F   UNL A   1      45.775  29.792  33.746  1.00  0.00    -0.203 F 
ATOM     88  C   UNL A   1      46.560  27.945  34.977  1.00  0.00     0.198 A 
ATOM     89  C   UNL A   1      45.018  26.276  35.754  1.00  0.00     0.198 A 
ATOM     90  F   UNL A   1      42.725  26.474  35.264  1.00  0.00    -0.203 F 
ATOM     91  F   UNL A   1      47.815  28.400  34.861  1.00  0.00    -0.200 F 
ATOM     92  C   UNL A   1      46.313  26.760  35.656  1.00  0.00     0.200 A 
ATOM     93  F   UNL A   1      44.777  25.135  36.416  1.00  0.00    -0.200 F 
ATOM     94  F   UNL A   1      47.327  26.082  36.210  1.00  0.00    -0.200 F 
ENDBRANCH  61  84
ENDBRANCH  35  36
ENDBRANCH  27  30
ENDBRANCH  25  26
ENDBRANCH   1  25
TORSDOF 12
ENDMDL
