MODEL 1
REMARK VINA RESULT:     -14.4      0.000      0.000
REMARK SMILES O=C(Cn1nc(C(=O)NCCCNC(=O)c2ccc(-c3c4nc(c(-c5c(F)c(F)c(F)c(F)c5F)c5ccc([nH]5)c(-c5c(F)c(F)c(F)c(F)c5F)c5nc(c(-c6c(F)c(F)c(F)c(F)c6F)c6ccc3[nH]6)C=C5)C=C4)cc2)c2ccccc2c1=O)c1ccc2c(c1)-c1ccccc1C2
REMARK SMILES IDX 10 1 9 2 7 3 8 4 6 6 4 7 5 8 85 9 84 10 86 11 79 12 83 13
REMARK SMILES IDX 80 14 82 15 81 16 3 17 2 18 1 19 87 20 88 21 92 22 89 23
REMARK SMILES IDX 91 24 90 25 93 26 99 27 94 28 98 29 95 30 97 31 96 32 11 33
REMARK SMILES IDX 12 34 13 35 14 36 15 38 16 39 17 40 78 41 18 42 77 43 19 44
REMARK SMILES IDX 20 45 21 46 71 47 22 48 76 49 70 50 72 51 23 52 75 53 69 54
REMARK SMILES IDX 68 55 24 57 56 58 36 59 55 60 37 61 40 62 54 63 73 64 38 65
REMARK SMILES IDX 39 66 53 68 74 69 41 70 25 71 26 72 34 73 27 74 28 75 32 76
REMARK SMILES IDX 35 77 29 78 30 79 33 80 31 81 57 82 58 83 66 84 59 85 60 86
REMARK SMILES IDX 64 87 67 88 61 89 62 90 65 91 63 92 42 93 43 94 51 95 44 96
REMARK SMILES IDX 45 97 49 98 52 99 46 100 47 101 50 102 48 103
REMARK H PARENT 9 5 13 37 72 56 40 67
REMARK Flexibility Score: inf
ROOT
ATOM      1  C   UNL A   1      33.325  29.339  25.648  1.00  0.00     0.118 C 
ENDROOT
BRANCH   1   2
ATOM      2  N   UNL A   1      33.722  29.033  24.277  1.00  0.00    -0.351 N 
ATOM      3  C   UNL A   1      33.055  28.524  23.183  1.00  0.00     0.272 C 
ATOM      4  O   UNL A   1      33.628  28.605  22.099  1.00  0.00    -0.267 OA
ATOM      5  H   UNL A   1      34.669  29.232  24.095  1.00  0.00     0.163 HD
BRANCH   3   6
ATOM      6  C   UNL A   1      31.668  27.845  23.252  1.00  0.00     0.156 A 
ATOM      7  N   UNL A   1      30.399  25.944  23.626  1.00  0.00    -0.221 N 
ATOM      8  N   UNL A   1      31.616  26.588  23.591  1.00  0.00    -0.163 NA
ATOM      9  C   UNL A   1      29.172  26.601  23.626  1.00  0.00     0.275 A 
ATOM     10  C   UNL A   1      29.203  28.009  23.206  1.00  0.00     0.051 A 
ATOM     11  O   UNL A   1      28.101  26.058  23.861  1.00  0.00    -0.267 OA
ATOM     12  C   UNL A   1      30.425  28.614  22.911  1.00  0.00     0.020 A 
ATOM     13  C   UNL A   1      27.983  28.672  22.979  1.00  0.00     0.014 A 
ATOM     14  C   UNL A   1      30.399  29.867  22.284  1.00  0.00     0.011 A 
ATOM     15  C   UNL A   1      27.977  29.933  22.393  1.00  0.00     0.001 A 
ATOM     16  C   UNL A   1      29.184  30.519  22.024  1.00  0.00     0.001 A 
BRANCH   7  17
ATOM     17  C   UNL A   1      30.398  24.497  23.781  1.00  0.00     0.229 C 
BRANCH  17  18
ATOM     18  C   UNL A   1      31.164  23.859  24.936  1.00  0.00     0.184 C 
ATOM     19  O   UNL A   1      30.709  23.952  26.083  1.00  0.00    -0.292 OA
BRANCH  18  20
ATOM     20  C   UNL A   1      32.362  22.966  24.740  1.00  0.00     0.020 A 
ATOM     21  C   UNL A   1      32.138  21.569  24.824  1.00  0.00     0.012 A 
ATOM     22  C   UNL A   1      33.678  23.432  24.613  1.00  0.00     0.021 A 
ATOM     23  C   UNL A   1      33.192  20.648  24.808  1.00  0.00     0.005 A 
ATOM     24  C   UNL A   1      34.724  22.527  24.751  1.00  0.00    -0.014 A 
ATOM     25  C   UNL A   1      34.481  21.142  24.786  1.00  0.00    -0.036 A 
ATOM     26  C   UNL A   1      36.111  22.754  25.120  1.00  0.00    -0.015 A 
ATOM     27  C   UNL A   1      35.786  20.387  24.939  1.00  0.00     0.072 C 
ATOM     28  C   UNL A   1      36.745  23.904  25.562  1.00  0.00     0.009 A 
ATOM     29  C   UNL A   1      36.762  21.508  25.227  1.00  0.00    -0.036 A 
ATOM     30  C   UNL A   1      38.044  23.805  26.072  1.00  0.00     0.001 A 
ATOM     31  C   UNL A   1      38.070  21.405  25.673  1.00  0.00     0.005 A 
ATOM     32  C   UNL A   1      38.711  22.569  26.102  1.00  0.00     0.000 A 
ENDBRANCH  18  20
ENDBRANCH  17  18
ENDBRANCH   7  17
ENDBRANCH   3   6
ENDBRANCH   1   2
BRANCH   1  33
ATOM     33  C   UNL A   1      32.223  30.390  25.749  1.00  0.00     0.042 C 
BRANCH  33  34
ATOM     34  C   UNL A   1      32.021  31.085  27.095  1.00  0.00     0.118 C 
BRANCH  34  35
ATOM     35  N   UNL A   1      32.400  32.491  27.078  1.00  0.00    -0.352 N 
ATOM     36  C   UNL A   1      33.466  33.170  27.623  1.00  0.00     0.251 C 
ATOM     37  H   UNL A   1      31.775  33.065  26.580  1.00  0.00     0.163 HD
ATOM     38  O   UNL A   1      33.453  34.400  27.580  1.00  0.00    -0.269 OA
BRANCH  36  39
ATOM     39  C   UNL A   1      34.621  32.499  28.281  1.00  0.00     0.039 A 
ATOM     40  C   UNL A   1      34.593  31.175  28.715  1.00  0.00     0.014 A 
ATOM     41  C   UNL A   1      35.836  33.199  28.354  1.00  0.00     0.014 A 
ATOM     42  C   UNL A   1      35.719  30.606  29.334  1.00  0.00     0.010 A 
ATOM     43  C   UNL A   1      36.978  32.608  28.917  1.00  0.00     0.010 A 
ATOM     44  C   UNL A   1      36.924  31.318  29.461  1.00  0.00    -0.014 A 
BRANCH  44  45
ATOM     45  C   UNL A   1      38.105  30.723  30.164  1.00  0.00     0.031 A 
ATOM     46  C   UNL A   1      38.407  31.068  31.604  1.00  0.00     0.074 A 
ATOM     47  C   UNL A   1      38.922  29.859  29.525  1.00  0.00     0.049 A 
ATOM     48  N   UNL A   1      39.384  30.648  32.374  1.00  0.00    -0.248 NA
ATOM     49  C   UNL A   1      37.496  32.011  32.267  1.00  0.00     0.031 C 
ATOM     50  C   UNL A   1      38.774  29.434  28.135  1.00  0.00     0.029 A 
ATOM     51  N   UNL A   1      40.040  29.185  29.962  1.00  0.00    -0.354 N 
ATOM     52  C   UNL A   1      39.208  31.282  33.599  1.00  0.00     0.074 A 
ATOM     53  C   UNL A   1      38.051  32.140  33.463  1.00  0.00     0.031 C 
ATOM     54  C   UNL A   1      39.742  28.552  27.840  1.00  0.00     0.029 A 
ATOM     55  C   UNL A   1      40.616  28.389  29.001  1.00  0.00     0.049 A 
ATOM     56  H   UNL A   1      40.394  29.266  30.876  1.00  0.00     0.167 HD
ATOM     57  C   UNL A   1      39.934  31.158  34.739  1.00  0.00     0.037 A 
ATOM     58  C   UNL A   1      41.729  27.628  29.031  1.00  0.00     0.037 A 
ATOM     59  C   UNL A   1      41.087  30.306  34.890  1.00  0.00     0.049 A 
ATOM     60  C   UNL A   1      42.550  27.544  30.290  1.00  0.00     0.074 A 
ATOM     61  C   UNL A   1      41.847  30.085  36.027  1.00  0.00     0.029 A 
ATOM     62  N   UNL A   1      41.656  29.550  33.877  1.00  0.00    -0.354 N 
ATOM     63  N   UNL A   1      42.338  28.107  31.453  1.00  0.00    -0.248 NA
ATOM     64  C   UNL A   1      43.766  26.718  30.238  1.00  0.00     0.031 C 
ATOM     65  C   UNL A   1      42.914  29.248  35.686  1.00  0.00     0.029 A 
ATOM     66  C   UNL A   1      42.781  28.892  34.354  1.00  0.00     0.049 A 
ATOM     67  H   UNL A   1      41.313  29.489  32.956  1.00  0.00     0.167 HD
ATOM     68  C   UNL A   1      43.381  27.696  32.274  1.00  0.00     0.074 A 
ATOM     69  C   UNL A   1      44.216  26.817  31.482  1.00  0.00     0.031 C 
ATOM     70  C   UNL A   1      43.620  28.022  33.568  1.00  0.00     0.037 A 
BRANCH  57  71
ATOM     71  C   UNL A   1      39.516  31.976  35.929  1.00  0.00     0.064 A 
ATOM     72  C   UNL A   1      40.113  33.212  36.221  1.00  0.00     0.173 A 
ATOM     73  C   UNL A   1      38.456  31.553  36.748  1.00  0.00     0.173 A 
ATOM     74  F   UNL A   1      41.134  33.661  35.474  1.00  0.00    -0.203 F 
ATOM     75  C   UNL A   1      39.681  33.981  37.298  1.00  0.00     0.198 A 
ATOM     76  C   UNL A   1      38.005  32.340  37.804  1.00  0.00     0.198 A 
ATOM     77  F   UNL A   1      37.841  30.385  36.507  1.00  0.00    -0.203 F 
ATOM     78  F   UNL A   1      40.294  35.139  37.581  1.00  0.00    -0.200 F 
ATOM     79  C   UNL A   1      38.622  33.550  38.083  1.00  0.00     0.200 A 
ATOM     80  F   UNL A   1      36.970  31.930  38.549  1.00  0.00    -0.200 F 
ATOM     81  F   UNL A   1      38.197  34.299  39.110  1.00  0.00    -0.200 F 
ENDBRANCH  57  71
BRANCH  58  82
ATOM     82  C   UNL A   1      42.125  26.872  27.812  1.00  0.00     0.064 A 
ATOM     83  C   UNL A   1      42.955  27.451  26.843  1.00  0.00     0.173 A 
ATOM     84  C   UNL A   1      41.716  25.545  27.614  1.00  0.00     0.173 A 
ATOM     85  F   UNL A   1      43.350  28.726  26.974  1.00  0.00    -0.203 F 
ATOM     86  C   UNL A   1      43.368  26.728  25.726  1.00  0.00     0.198 A 
ATOM     87  C   UNL A   1      42.153  24.814  26.512  1.00  0.00     0.198 A 
ATOM     88  F   UNL A   1      40.918  24.947  28.511  1.00  0.00    -0.203 F 
ATOM     89  F   UNL A   1      44.144  27.311  24.802  1.00  0.00    -0.200 F 
ATOM     90  C   UNL A   1      42.978  25.406  25.568  1.00  0.00     0.200 A 
ATOM     91  F   UNL A   1      41.788  23.532  26.373  1.00  0.00    -0.200 F 
ATOM     92  F   UNL A   1      43.398  24.703  24.507  1.00  0.00    -0.200 F 
ENDBRANCH  58  82
BRANCH  70  93
ATOM     93  C   UNL A   1      44.829  27.428  34.234  1.00  0.00     0.064 A 
ATOM     94  C   UNL A   1      44.777  26.179  34.872  1.00  0.00     0.173 A 
ATOM     95  C   UNL A   1      46.073  28.075  34.166  1.00  0.00     0.173 A 
ATOM     96  F   UNL A   1      43.613  25.523  34.977  1.00  0.00    -0.203 F 
ATOM     97  C   UNL A   1      45.921  25.609  35.427  1.00  0.00     0.198 A 
ATOM     98  C   UNL A   1      47.220  27.488  34.693  1.00  0.00     0.198 A 
ATOM     99  F   UNL A   1      46.182  29.268  33.561  1.00  0.00    -0.203 F 
ATOM    100  F   UNL A   1      45.840  24.431  36.061  1.00  0.00    -0.200 F 
ATOM    101  C   UNL A   1      47.143  26.258  35.328  1.00  0.00     0.200 A 
ATOM    102  F   UNL A   1      48.402  28.109  34.580  1.00  0.00    -0.200 F 
ATOM    103  F   UNL A   1      48.245  25.698  35.844  1.00  0.00    -0.200 F 
ENDBRANCH  70  93
ENDBRANCH  44  45
ENDBRANCH  36  39
ENDBRANCH  34  35
ENDBRANCH  33  34
ENDBRANCH   1  33
TORSDOF 13
ENDMDL
MODEL 2
REMARK VINA RESULT:     -14.3      1.383      2.411
REMARK SMILES O=C(Cn1nc(C(=O)NCCCNC(=O)c2ccc(-c3c4nc(c(-c5c(F)c(F)c(F)c(F)c5F)c5ccc([nH]5)c(-c5c(F)c(F)c(F)c(F)c5F)c5nc(c(-c6c(F)c(F)c(F)c(F)c6F)c6ccc3[nH]6)C=C5)C=C4)cc2)c2ccccc2c1=O)c1ccc2c(c1)-c1ccccc1C2
REMARK SMILES IDX 10 1 9 2 7 3 8 4 6 6 4 7 5 8 85 9 84 10 86 11 79 12 83 13
REMARK SMILES IDX 80 14 82 15 81 16 3 17 2 18 1 19 87 20 88 21 92 22 89 23
REMARK SMILES IDX 91 24 90 25 93 26 99 27 94 28 98 29 95 30 97 31 96 32 11 33
REMARK SMILES IDX 12 34 13 35 14 36 15 38 16 39 17 40 78 41 18 42 77 43 19 44
REMARK SMILES IDX 20 45 21 46 71 47 22 48 76 49 70 50 72 51 23 52 75 53 69 54
REMARK SMILES IDX 68 55 24 57 56 58 36 59 55 60 37 61 40 62 54 63 73 64 38 65
REMARK SMILES IDX 39 66 53 68 74 69 41 70 25 71 26 72 34 73 27 74 28 75 32 76
REMARK SMILES IDX 35 77 29 78 30 79 33 80 31 81 57 82 58 83 66 84 59 85 60 86
REMARK SMILES IDX 64 87 67 88 61 89 62 90 65 91 63 92 42 93 43 94 51 95 44 96
REMARK SMILES IDX 45 97 49 98 52 99 46 100 47 101 50 102 48 103
REMARK H PARENT 9 5 13 37 72 56 40 67
REMARK Flexibility Score: inf
ROOT
ATOM      1  C   UNL A   1      31.783  30.217  26.807  1.00  0.00     0.118 C 
ENDROOT
BRANCH   1   2
ATOM      2  N   UNL A   1      32.685  29.888  25.707  1.00  0.00    -0.351 N 
ATOM      3  C   UNL A   1      32.524  29.223  24.509  1.00  0.00     0.272 C 
ATOM      4  O   UNL A   1      33.440  29.319  23.697  1.00  0.00    -0.267 OA
ATOM      5  H   UNL A   1      33.604  30.209  25.851  1.00  0.00     0.163 HD
BRANCH   3   6
ATOM      6  C   UNL A   1      31.293  28.358  24.156  1.00  0.00     0.156 A 
ATOM      7  N   UNL A   1      30.318  26.266  23.967  1.00  0.00    -0.221 N 
ATOM      8  N   UNL A   1      31.386  27.067  24.307  1.00  0.00    -0.163 NA
ATOM      9  C   UNL A   1      29.026  26.738  23.759  1.00  0.00     0.275 A 
ATOM     10  C   UNL A   1      28.904  28.188  23.546  1.00  0.00     0.051 A 
ATOM     11  O   UNL A   1      28.039  26.022  23.660  1.00  0.00    -0.267 OA
ATOM     12  C   UNL A   1      30.038  28.995  23.632  1.00  0.00     0.020 A 
ATOM     13  C   UNL A   1      27.667  28.705  23.122  1.00  0.00     0.014 A 
ATOM     14  C   UNL A   1      29.933  30.319  23.186  1.00  0.00     0.011 A 
ATOM     15  C   UNL A   1      27.570  30.033  22.721  1.00  0.00     0.001 A 
ATOM     16  C   UNL A   1      28.709  30.832  22.730  1.00  0.00     0.001 A 
BRANCH   7  17
ATOM     17  C   UNL A   1      30.533  24.827  23.927  1.00  0.00     0.229 C 
BRANCH  17  18
ATOM     18  C   UNL A   1      31.788  24.267  23.262  1.00  0.00     0.184 C 
ATOM     19  O   UNL A   1      32.194  24.784  22.214  1.00  0.00    -0.292 OA
BRANCH  18  20
ATOM     20  C   UNL A   1      32.667  23.224  23.903  1.00  0.00     0.020 A 
ATOM     21  C   UNL A   1      33.982  23.622  24.248  1.00  0.00     0.012 A 
ATOM     22  C   UNL A   1      32.309  21.877  24.053  1.00  0.00     0.021 A 
ATOM     23  C   UNL A   1      34.936  22.708  24.710  1.00  0.00     0.005 A 
ATOM     24  C   UNL A   1      33.299  20.953  24.364  1.00  0.00    -0.014 A 
ATOM     25  C   UNL A   1      34.584  21.373  24.750  1.00  0.00    -0.036 A 
ATOM     26  C   UNL A   1      33.339  19.518  24.139  1.00  0.00    -0.015 A 
ATOM     27  C   UNL A   1      35.463  20.172  25.034  1.00  0.00     0.072 C 
ATOM     28  C   UNL A   1      32.472  18.695  23.439  1.00  0.00     0.009 A 
ATOM     29  C   UNL A   1      34.601  19.031  24.535  1.00  0.00    -0.036 A 
ATOM     30  C   UNL A   1      32.857  17.377  23.175  1.00  0.00     0.001 A 
ATOM     31  C   UNL A   1      34.970  17.710  24.334  1.00  0.00     0.005 A 
ATOM     32  C   UNL A   1      34.085  16.881  23.643  1.00  0.00     0.000 A 
ENDBRANCH  18  20
ENDBRANCH  17  18
ENDBRANCH   7  17
ENDBRANCH   3   6
ENDBRANCH   1   2
BRANCH   1  33
ATOM     33  C   UNL A   1      31.423  31.698  26.885  1.00  0.00     0.042 C 
BRANCH  33  34
ATOM     34  C   UNL A   1      32.523  32.716  26.591  1.00  0.00     0.118 C 
BRANCH  34  35
ATOM     35  N   UNL A   1      32.359  33.966  27.320  1.00  0.00    -0.352 N 
ATOM     36  C   UNL A   1      33.013  34.497  28.408  1.00  0.00     0.251 C 
ATOM     37  H   UNL A   1      31.644  34.542  26.966  1.00  0.00     0.163 HD
ATOM     38  O   UNL A   1      32.556  35.521  28.917  1.00  0.00    -0.269 OA
BRANCH  36  39
ATOM     39  C   UNL A   1      34.228  33.889  29.018  1.00  0.00     0.039 A 
ATOM     40  C   UNL A   1      35.516  34.382  28.813  1.00  0.00     0.014 A 
ATOM     41  C   UNL A   1      34.052  32.845  29.939  1.00  0.00     0.014 A 
ATOM     42  C   UNL A   1      36.620  33.754  29.415  1.00  0.00     0.010 A 
ATOM     43  C   UNL A   1      35.151  32.260  30.587  1.00  0.00     0.010 A 
ATOM     44  C   UNL A   1      36.458  32.673  30.297  1.00  0.00    -0.014 A 
BRANCH  44  45
ATOM     45  C   UNL A   1      37.642  31.979  30.898  1.00  0.00     0.031 A 
ATOM     46  C   UNL A   1      38.112  32.315  32.294  1.00  0.00     0.074 A 
ATOM     47  C   UNL A   1      38.311  31.035  30.203  1.00  0.00     0.049 A 
ATOM     48  N   UNL A   1      39.117  31.816  32.977  1.00  0.00    -0.248 NA
ATOM     49  C   UNL A   1      37.360  33.348  33.020  1.00  0.00     0.031 C 
ATOM     50  C   UNL A   1      37.992  30.607  28.843  1.00  0.00     0.029 A 
ATOM     51  N   UNL A   1      39.400  30.266  30.547  1.00  0.00    -0.354 N 
ATOM     52  C   UNL A   1      39.118  32.480  34.199  1.00  0.00     0.074 A 
ATOM     53  C   UNL A   1      38.037  33.440  34.154  1.00  0.00     0.031 C 
ATOM     54  C   UNL A   1      38.842  29.635  28.478  1.00  0.00     0.029 A 
ATOM     55  C   UNL A   1      39.806  29.407  29.553  1.00  0.00     0.049 A 
ATOM     56  H   UNL A   1      39.847  30.325  31.422  1.00  0.00     0.167 HD
ATOM     57  C   UNL A   1      39.937  32.303  35.267  1.00  0.00     0.037 A 
ATOM     58  C   UNL A   1      40.842  28.545  29.495  1.00  0.00     0.037 A 
ATOM     59  C   UNL A   1      41.016  31.350  35.327  1.00  0.00     0.049 A 
ATOM     60  C   UNL A   1      41.769  28.402  30.672  1.00  0.00     0.074 A 
ATOM     61  C   UNL A   1      41.859  31.074  36.391  1.00  0.00     0.029 A 
ATOM     62  N   UNL A   1      41.413  30.531  34.282  1.00  0.00    -0.354 N 
ATOM     63  N   UNL A   1      41.723  28.998  31.837  1.00  0.00    -0.248 NA
ATOM     64  C   UNL A   1      42.894  27.466  30.524  1.00  0.00     0.031 C 
ATOM     65  C   UNL A   1      42.807  30.137  35.970  1.00  0.00     0.029 A 
ATOM     66  C   UNL A   1      42.514  29.777  34.664  1.00  0.00     0.049 A 
ATOM     67  H   UNL A   1      40.978  30.490  33.400  1.00  0.00     0.167 HD
ATOM     68  C   UNL A   1      42.799  28.503  32.564  1.00  0.00     0.074 A 
ATOM     69  C   UNL A   1      43.469  27.540  31.716  1.00  0.00     0.031 C 
ATOM     70  C   UNL A   1      43.190  28.823  33.822  1.00  0.00     0.037 A 
BRANCH  57  71
ATOM     71  C   UNL A   1      39.712  33.173  36.473  1.00  0.00     0.064 A 
ATOM     72  C   UNL A   1      40.351  34.414  36.618  1.00  0.00     0.173 A 
ATOM     73  C   UNL A   1      38.791  32.794  37.464  1.00  0.00     0.173 A 
ATOM     74  F   UNL A   1      41.244  34.823  35.703  1.00  0.00    -0.203 F 
ATOM     75  C   UNL A   1      40.095  35.230  37.716  1.00  0.00     0.198 A 
ATOM     76  C   UNL A   1      38.514  33.627  38.545  1.00  0.00     0.198 A 
ATOM     77  F   UNL A   1      38.143  31.622  37.371  1.00  0.00    -0.203 F 
ATOM     78  F   UNL A   1      40.748  36.393  37.852  1.00  0.00    -0.200 F 
ATOM     79  C   UNL A   1      39.170  34.841  38.674  1.00  0.00     0.200 A 
ATOM     80  F   UNL A   1      37.606  33.256  39.458  1.00  0.00    -0.200 F 
ATOM     81  F   UNL A   1      38.913  35.635  39.722  1.00  0.00    -0.200 F 
ENDBRANCH  57  71
BRANCH  58  82
ATOM     82  C   UNL A   1      41.047  27.740  28.261  1.00  0.00     0.064 A 
ATOM     83  C   UNL A   1      41.835  28.223  27.208  1.00  0.00     0.173 A 
ATOM     84  C   UNL A   1      40.496  26.456  28.130  1.00  0.00     0.173 A 
ATOM     85  F   UNL A   1      42.360  29.456  27.275  1.00  0.00    -0.203 F 
ATOM     86  C   UNL A   1      42.070  27.450  26.073  1.00  0.00     0.198 A 
ATOM     87  C   UNL A   1      40.757  25.673  27.008  1.00  0.00     0.198 A 
ATOM     88  F   UNL A   1      39.733  25.950  29.109  1.00  0.00    -0.203 F 
ATOM     89  F   UNL A   1      42.808  27.944  25.069  1.00  0.00    -0.200 F 
ATOM     90  C   UNL A   1      41.542  26.170  25.980  1.00  0.00     0.200 A 
ATOM     91  F   UNL A   1      40.260  24.431  26.931  1.00  0.00    -0.200 F 
ATOM     92  F   UNL A   1      41.791  25.417  24.899  1.00  0.00    -0.200 F 
ENDBRANCH  58  82
BRANCH  70  93
ATOM     93  C   UNL A   1      44.398  28.127  34.384  1.00  0.00     0.064 A 
ATOM     94  C   UNL A   1      45.673  28.711  34.331  1.00  0.00     0.173 A 
ATOM     95  C   UNL A   1      44.269  26.900  35.054  1.00  0.00     0.173 A 
ATOM     96  F   UNL A   1      45.857  29.875  33.692  1.00  0.00    -0.203 F 
ATOM     97  C   UNL A   1      46.773  28.086  34.916  1.00  0.00     0.198 A 
ATOM     98  C   UNL A   1      45.363  26.294  35.666  1.00  0.00     0.198 A 
ATOM     99  F   UNL A   1      43.071  26.302  35.143  1.00  0.00    -0.203 F 
ATOM    100  F   UNL A   1      47.987  28.645  34.822  1.00  0.00    -0.200 F 
ATOM    101  C   UNL A   1      46.616  26.885  35.592  1.00  0.00     0.200 A 
ATOM    102  F   UNL A   1      45.205  25.144  36.333  1.00  0.00    -0.200 F 
ATOM    103  F   UNL A   1      47.671  26.296  36.171  1.00  0.00    -0.200 F 
ENDBRANCH  70  93
ENDBRANCH  44  45
ENDBRANCH  36  39
ENDBRANCH  34  35
ENDBRANCH  33  34
ENDBRANCH   1  33
TORSDOF 13
ENDMDL
MODEL 3
REMARK VINA RESULT:     -14.3      1.606      7.341
REMARK SMILES O=C(Cn1nc(C(=O)NCCCNC(=O)c2ccc(-c3c4nc(c(-c5c(F)c(F)c(F)c(F)c5F)c5ccc([nH]5)c(-c5c(F)c(F)c(F)c(F)c5F)c5nc(c(-c6c(F)c(F)c(F)c(F)c6F)c6ccc3[nH]6)C=C5)C=C4)cc2)c2ccccc2c1=O)c1ccc2c(c1)-c1ccccc1C2
REMARK SMILES IDX 10 1 9 2 7 3 8 4 6 6 4 7 5 8 85 9 84 10 86 11 79 12 83 13
REMARK SMILES IDX 80 14 82 15 81 16 3 17 2 18 1 19 87 20 88 21 92 22 89 23
REMARK SMILES IDX 91 24 90 25 93 26 99 27 94 28 98 29 95 30 97 31 96 32 11 33
REMARK SMILES IDX 12 34 13 35 14 36 15 38 16 39 17 40 78 41 18 42 77 43 19 44
REMARK SMILES IDX 20 45 21 46 71 47 22 48 76 49 70 50 72 51 23 52 75 53 69 54
REMARK SMILES IDX 68 55 24 57 56 58 36 59 55 60 37 61 40 62 54 63 73 64 38 65
REMARK SMILES IDX 39 66 53 68 74 69 41 70 25 71 26 72 34 73 27 74 28 75 32 76
REMARK SMILES IDX 35 77 29 78 30 79 33 80 31 81 57 82 58 83 66 84 59 85 60 86
REMARK SMILES IDX 64 87 67 88 61 89 62 90 65 91 63 92 42 93 43 94 51 95 44 96
REMARK SMILES IDX 45 97 49 98 52 99 46 100 47 101 50 102 48 103
REMARK H PARENT 9 5 13 37 72 56 40 67
REMARK Flexibility Score: inf
ROOT
ATOM      1  C   UNL A   1      31.515  30.644  26.602  1.00  0.00     0.118 C 
ENDROOT
BRANCH   1   2
ATOM      2  N   UNL A   1      32.514  30.155  25.656  1.00  0.00    -0.351 N 
ATOM      3  C   UNL A   1      32.461  29.313  24.565  1.00  0.00     0.272 C 
ATOM      4  O   UNL A   1      33.452  29.289  23.838  1.00  0.00    -0.267 OA
ATOM      5  H   UNL A   1      33.418  30.499  25.836  1.00  0.00     0.163 HD
BRANCH   3   6
ATOM      6  C   UNL A   1      31.261  28.398  24.233  1.00  0.00     0.156 A 
ATOM      7  N   UNL A   1      30.315  26.284  24.213  1.00  0.00    -0.221 N 
ATOM      8  N   UNL A   1      31.354  27.133  24.529  1.00  0.00    -0.163 NA
ATOM      9  C   UNL A   1      29.036  26.714  23.874  1.00  0.00     0.275 A 
ATOM     10  C   UNL A   1      28.918  28.129  23.496  1.00  0.00     0.051 A 
ATOM     11  O   UNL A   1      28.062  25.977  23.792  1.00  0.00    -0.267 OA
ATOM     12  C   UNL A   1      30.039  28.956  23.564  1.00  0.00     0.020 A 
ATOM     13  C   UNL A   1      27.706  28.580  22.942  1.00  0.00     0.014 A 
ATOM     14  C   UNL A   1      29.953  30.223  22.969  1.00  0.00     0.011 A 
ATOM     15  C   UNL A   1      27.626  29.855  22.392  1.00  0.00     0.001 A 
ATOM     16  C   UNL A   1      28.757  30.666  22.385  1.00  0.00     0.001 A 
BRANCH   7  17
ATOM     17  C   UNL A   1      30.542  24.853  24.345  1.00  0.00     0.229 C 
BRANCH  17  18
ATOM     18  C   UNL A   1      31.651  24.185  23.536  1.00  0.00     0.184 C 
ATOM     19  O   UNL A   1      31.903  24.605  22.400  1.00  0.00    -0.292 OA
BRANCH  18  20
ATOM     20  C   UNL A   1      32.579  23.145  24.109  1.00  0.00     0.020 A 
ATOM     21  C   UNL A   1      33.895  23.568  24.424  1.00  0.00     0.012 A 
ATOM     22  C   UNL A   1      32.264  21.784  24.222  1.00  0.00     0.021 A 
ATOM     23  C   UNL A   1      34.888  22.666  24.821  1.00  0.00     0.005 A 
ATOM     24  C   UNL A   1      33.289  20.878  24.466  1.00  0.00    -0.014 A 
ATOM     25  C   UNL A   1      34.575  21.321  24.823  1.00  0.00    -0.036 A 
ATOM     26  C   UNL A   1      33.361  19.454  24.187  1.00  0.00    -0.015 A 
ATOM     27  C   UNL A   1      35.495  20.137  25.034  1.00  0.00     0.072 C 
ATOM     28  C   UNL A   1      32.493  18.631  23.487  1.00  0.00     0.009 A 
ATOM     29  C   UNL A   1      34.649  18.990  24.523  1.00  0.00    -0.036 A 
ATOM     30  C   UNL A   1      32.905  17.335  23.163  1.00  0.00     0.001 A 
ATOM     31  C   UNL A   1      35.046  17.688  24.262  1.00  0.00     0.005 A 
ATOM     32  C   UNL A   1      34.161  16.858  23.571  1.00  0.00     0.000 A 
ENDBRANCH  18  20
ENDBRANCH  17  18
ENDBRANCH   7  17
ENDBRANCH   3   6
ENDBRANCH   1   2
BRANCH   1  33
ATOM     33  C   UNL A   1      31.404  32.166  26.647  1.00  0.00     0.042 C 
BRANCH  33  34
ATOM     34  C   UNL A   1      32.685  32.968  26.870  1.00  0.00     0.118 C 
BRANCH  34  35
ATOM     35  N   UNL A   1      32.466  34.206  27.605  1.00  0.00    -0.352 N 
ATOM     36  C   UNL A   1      33.055  34.731  28.732  1.00  0.00     0.251 C 
ATOM     37  H   UNL A   1      31.763  34.777  27.221  1.00  0.00     0.163 HD
ATOM     38  O   UNL A   1      32.559  35.742  29.229  1.00  0.00    -0.269 OA
BRANCH  36  39
ATOM     39  C   UNL A   1      34.245  34.131  29.396  1.00  0.00     0.039 A 
ATOM     40  C   UNL A   1      35.556  34.507  29.105  1.00  0.00     0.014 A 
ATOM     41  C   UNL A   1      34.028  33.232  30.452  1.00  0.00     0.014 A 
ATOM     42  C   UNL A   1      36.634  33.893  29.767  1.00  0.00     0.010 A 
ATOM     43  C   UNL A   1      35.105  32.667  31.154  1.00  0.00     0.010 A 
ATOM     44  C   UNL A   1      36.427  32.952  30.789  1.00  0.00    -0.014 A 
BRANCH  44  45
ATOM     45  C   UNL A   1      37.581  32.268  31.456  1.00  0.00     0.031 A 
ATOM     46  C   UNL A   1      38.328  31.152  30.764  1.00  0.00     0.074 A 
ATOM     47  C   UNL A   1      37.979  32.640  32.691  1.00  0.00     0.049 A 
ATOM     48  N   UNL A   1      39.352  30.447  31.188  1.00  0.00    -0.248 NA
ATOM     49  C   UNL A   1      37.866  30.774  29.421  1.00  0.00     0.031 C 
ATOM     50  C   UNL A   1      37.356  33.688  33.496  1.00  0.00     0.029 A 
ATOM     51  N   UNL A   1      39.003  32.175  33.485  1.00  0.00    -0.354 N 
ATOM     52  C   UNL A   1      39.643  29.543  30.172  1.00  0.00     0.074 A 
ATOM     53  C   UNL A   1      38.671  29.765  29.124  1.00  0.00     0.031 C 
ATOM     54  C   UNL A   1      38.024  33.809  34.653  1.00  0.00     0.029 A 
ATOM     55  C   UNL A   1      39.090  32.810  34.702  1.00  0.00     0.049 A 
ATOM     56  H   UNL A   1      39.616  31.457  33.208  1.00  0.00     0.167 HD
ATOM     57  C   UNL A   1      40.634  28.619  30.108  1.00  0.00     0.037 A 
ATOM     58  C   UNL A   1      39.914  32.606  35.750  1.00  0.00     0.037 A 
ATOM     59  C   UNL A   1      41.611  28.387  31.142  1.00  0.00     0.049 A 
ATOM     60  C   UNL A   1      40.974  31.540  35.679  1.00  0.00     0.074 A 
ATOM     61  C   UNL A   1      42.678  27.504  31.133  1.00  0.00     0.029 A 
ATOM     62  N   UNL A   1      41.633  29.027  32.372  1.00  0.00    -0.354 N 
ATOM     63  N   UNL A   1      41.269  30.733  34.692  1.00  0.00    -0.248 NA
ATOM     64  C   UNL A   1      41.815  31.356  36.873  1.00  0.00     0.031 C 
ATOM     65  C   UNL A   1      43.306  27.561  32.381  1.00  0.00     0.029 A 
ATOM     66  C   UNL A   1      42.674  28.528  33.144  1.00  0.00     0.049 A 
ATOM     67  H   UNL A   1      41.005  29.729  32.655  1.00  0.00     0.167 HD
ATOM     68  C   UNL A   1      42.333  29.957  35.134  1.00  0.00     0.074 A 
ATOM     69  C   UNL A   1      42.648  30.404  36.475  1.00  0.00     0.031 C 
ATOM     70  C   UNL A   1      42.987  28.964  34.482  1.00  0.00     0.037 A 
BRANCH  57  71
ATOM     71  C   UNL A   1      40.715  27.761  28.875  1.00  0.00     0.064 A 
ATOM     72  C   UNL A   1      39.908  26.624  28.713  1.00  0.00     0.173 A 
ATOM     73  C   UNL A   1      41.558  28.121  27.811  1.00  0.00     0.173 A 
ATOM     74  F   UNL A   1      39.089  26.233  29.700  1.00  0.00    -0.203 F 
ATOM     75  C   UNL A   1      39.959  25.869  27.544  1.00  0.00     0.198 A 
ATOM     76  C   UNL A   1      41.582  27.382  26.631  1.00  0.00     0.198 A 
ATOM     77  F   UNL A   1      42.343  29.206  27.907  1.00  0.00    -0.203 F 
ATOM     78  F   UNL A   1      39.208  24.765  27.428  1.00  0.00    -0.200 F 
ATOM     79  C   UNL A   1      40.788  26.253  26.501  1.00  0.00     0.200 A 
ATOM     80  F   UNL A   1      42.370  27.767  25.618  1.00  0.00    -0.200 F 
ATOM     81  F   UNL A   1      40.824  25.534  25.370  1.00  0.00    -0.200 F 
ENDBRANCH  57  71
BRANCH  58  82
ATOM     82  C   UNL A   1      39.764  33.451  36.965  1.00  0.00     0.064 A 
ATOM     83  C   UNL A   1      40.465  34.657  37.096  1.00  0.00     0.173 A 
ATOM     84  C   UNL A   1      38.884  33.091  37.998  1.00  0.00     0.173 A 
ATOM     85  F   UNL A   1      41.338  35.031  36.149  1.00  0.00    -0.203 F 
ATOM     86  C   UNL A   1      40.286  35.475  38.210  1.00  0.00     0.198 A 
ATOM     87  C   UNL A   1      38.684  33.924  39.096  1.00  0.00     0.198 A 
ATOM     88  F   UNL A   1      38.192  31.945  37.921  1.00  0.00    -0.203 F 
ATOM     89  F   UNL A   1      40.986  36.612  38.323  1.00  0.00    -0.200 F 
ATOM     90  C   UNL A   1      39.387  35.114  39.203  1.00  0.00     0.200 A 
ATOM     91  F   UNL A   1      37.801  33.580  40.043  1.00  0.00    -0.200 F 
ATOM     92  F   UNL A   1      39.196  35.915  40.261  1.00  0.00    -0.200 F 
ENDBRANCH  58  82
BRANCH  70  93
ATOM     93  C   UNL A   1      44.122  28.281  35.192  1.00  0.00     0.064 A 
ATOM     94  C   UNL A   1      45.425  28.800  35.164  1.00  0.00     0.173 A 
ATOM     95  C   UNL A   1      43.891  27.139  35.976  1.00  0.00     0.173 A 
ATOM     96  F   UNL A   1      45.705  29.881  34.421  1.00  0.00    -0.203 F 
ATOM     97  C   UNL A   1      46.454  28.195  35.881  1.00  0.00     0.198 A 
ATOM     98  C   UNL A   1      44.914  26.555  36.718  1.00  0.00     0.198 A 
ATOM     99  F   UNL A   1      42.661  26.605  36.046  1.00  0.00    -0.203 F 
ATOM    100  F   UNL A   1      47.698  28.689  35.811  1.00  0.00    -0.200 F 
ATOM    101  C   UNL A   1      46.197  27.080  36.667  1.00  0.00     0.200 A 
ATOM    102  F   UNL A   1      44.658  25.490  37.489  1.00  0.00    -0.200 F 
ATOM    103  F   UNL A   1      47.183  26.512  37.372  1.00  0.00    -0.200 F 
ENDBRANCH  70  93
ENDBRANCH  44  45
ENDBRANCH  36  39
ENDBRANCH  34  35
ENDBRANCH  33  34
ENDBRANCH   1  33
TORSDOF 13
ENDMDL
