MODEL 1
REMARK VINA RESULT:     -13.1      0.000      0.000
REMARK SMILES O=C(NCCCNC(=O)c1ccc(-c2c3nc(c(-c4c(F)c(F)c(F)c(F)c4F)c4ccc([nH]4)c(-c4c(F)c(F)c(F)c(F)c4F)c4nc(c(-c5c(F)c(F)c(F)c(F)c5F)c5ccc2[nH]5)C=C4)C=C3)cc1)c1ccc(C[C@H]2SC(=O)N(c3ccccc3)C2=O)cc1
REMARK SMILES IDX 4 1 3 2 1 3 2 4 73 6 74 7 92 8 75 9 91 10 76 11 77 12 78 13
REMARK SMILES IDX 79 14 89 15 80 16 82 17 90 18 81 19 83 20 84 21 88 22 85 23
REMARK SMILES IDX 87 24 86 25 5 26 6 27 7 28 8 29 9 31 10 32 11 33 72 34 12 35
REMARK SMILES IDX 71 36 13 37 14 38 15 39 65 40 16 41 70 42 64 43 66 44 17 45
REMARK SMILES IDX 69 46 63 47 62 48 18 50 50 51 30 52 49 53 31 54 34 55 48 56
REMARK SMILES IDX 67 57 32 58 33 59 47 61 68 62 35 63 19 64 20 65 28 66 21 67
REMARK SMILES IDX 22 68 26 69 29 70 23 71 24 72 27 73 25 74 51 75 52 76 60 77
REMARK SMILES IDX 53 78 54 79 58 80 61 81 55 82 56 83 59 84 57 85 36 86 37 87
REMARK SMILES IDX 45 88 38 89 39 90 43 91 46 92 40 93 41 94 44 95 42 96
REMARK H PARENT 3 5 7 30 66 49 34 60
REMARK Flexibility Score: inf
ROOT
ATOM      1  C   UNL A   1      31.994  30.672  26.907  1.00  0.00     0.118 C 
ENDROOT
BRANCH   1   2
ATOM      2  N   UNL A   1      33.341  30.442  27.411  1.00  0.00    -0.352 N 
ATOM      3  O   UNL A   1      35.231  29.271  27.804  1.00  0.00    -0.269 OA
ATOM      4  C   UNL A   1      34.202  29.403  27.151  1.00  0.00     0.251 C 
ATOM      5  H   UNL A   1      33.684  31.130  28.027  1.00  0.00     0.163 HD
BRANCH   4   6
ATOM      6  C   UNL A   1      33.863  28.430  26.094  1.00  0.00     0.039 A 
ATOM      7  C   UNL A   1      33.574  27.104  26.421  1.00  0.00     0.014 A 
ATOM      8  C   UNL A   1      33.847  28.846  24.762  1.00  0.00     0.014 A 
ATOM      9  C   UNL A   1      33.380  26.169  25.408  1.00  0.00     0.004 A 
ATOM     10  C   UNL A   1      33.653  27.905  23.747  1.00  0.00     0.004 A 
ATOM     11  C   UNL A   1      33.458  26.551  24.061  1.00  0.00    -0.046 A 
BRANCH  11  12
ATOM     12  C   UNL A   1      33.335  25.511  22.969  1.00  0.00     0.060 C 
BRANCH  12  13
ATOM     13  C   UNL A   1      31.893  25.071  22.651  1.00  0.00     0.151 C 
ATOM     14  S   UNL A   1      31.028  24.333  24.063  1.00  0.00    -0.050 SA
ATOM     15  C   UNL A   1      31.078  26.304  22.308  1.00  0.00     0.248 C 
ATOM     16  C   UNL A   1      30.150  25.807  24.410  1.00  0.00     0.293 C 
ATOM     17  N   UNL A   1      30.250  26.686  23.355  1.00  0.00    -0.240 N 
ATOM     18  O   UNL A   1      31.260  26.904  21.252  1.00  0.00    -0.273 OA
ATOM     19  O   UNL A   1      29.525  25.918  25.451  1.00  0.00    -0.261 OA
BRANCH  17  20
ATOM     20  C   UNL A   1      29.540  27.923  23.347  1.00  0.00     0.053 A 
ATOM     21  C   UNL A   1      28.157  27.961  23.126  1.00  0.00     0.027 A 
ATOM     22  C   UNL A   1      30.214  29.139  23.548  1.00  0.00     0.027 A 
ATOM     23  C   UNL A   1      27.466  29.177  23.112  1.00  0.00     0.002 A 
ATOM     24  C   UNL A   1      29.528  30.355  23.500  1.00  0.00     0.002 A 
ATOM     25  C   UNL A   1      28.153  30.374  23.286  1.00  0.00     0.000 A 
ENDBRANCH  17  20
ENDBRANCH  12  13
ENDBRANCH  11  12
ENDBRANCH   4   6
ENDBRANCH   1   2
BRANCH   1  26
ATOM     26  C   UNL A   1      31.616  32.146  26.904  1.00  0.00     0.042 C 
BRANCH  26  27
ATOM     27  C   UNL A   1      32.803  33.096  26.934  1.00  0.00     0.118 C 
BRANCH  27  28
ATOM     28  N   UNL A   1      32.515  34.345  27.626  1.00  0.00    -0.352 N 
ATOM     29  C   UNL A   1      33.049  34.878  28.772  1.00  0.00     0.251 C 
ATOM     30  H   UNL A   1      31.819  34.898  27.201  1.00  0.00     0.163 HD
ATOM     31  O   UNL A   1      32.530  35.872  29.273  1.00  0.00    -0.269 OA
BRANCH  29  32
ATOM     32  C   UNL A   1      34.226  34.260  29.423  1.00  0.00     0.039 A 
ATOM     33  C   UNL A   1      34.016  33.371  30.480  1.00  0.00     0.014 A 
ATOM     34  C   UNL A   1      35.529  34.568  29.026  1.00  0.00     0.014 A 
ATOM     35  C   UNL A   1      35.105  32.744  31.090  1.00  0.00     0.010 A 
ATOM     36  C   UNL A   1      36.606  33.868  29.564  1.00  0.00     0.010 A 
ATOM     37  C   UNL A   1      36.408  32.956  30.611  1.00  0.00    -0.014 A 
BRANCH  37  38
ATOM     38  C   UNL A   1      37.565  32.230  31.196  1.00  0.00     0.031 A 
ATOM     39  C   UNL A   1      38.065  32.571  32.574  1.00  0.00     0.074 A 
ATOM     40  C   UNL A   1      38.192  31.286  30.467  1.00  0.00     0.049 A 
ATOM     41  N   UNL A   1      39.068  32.056  33.242  1.00  0.00    -0.248 NA
ATOM     42  C   UNL A   1      37.366  33.651  33.286  1.00  0.00     0.031 C 
ATOM     43  C   UNL A   1      37.841  30.902  29.099  1.00  0.00     0.029 A 
ATOM     44  N   UNL A   1      39.259  30.478  30.773  1.00  0.00    -0.354 N 
ATOM     45  C   UNL A   1      39.120  32.752  34.443  1.00  0.00     0.074 A 
ATOM     46  C   UNL A   1      38.095  33.770  34.386  1.00  0.00     0.031 C 
ATOM     47  C   UNL A   1      38.649  29.909  28.699  1.00  0.00     0.029 A 
ATOM     48  C   UNL A   1      39.603  29.614  29.762  1.00  0.00     0.049 A 
ATOM     49  H   UNL A   1      39.733  30.514  31.635  1.00  0.00     0.167 HD
ATOM     50  C   UNL A   1      39.931  32.543  35.509  1.00  0.00     0.037 A 
ATOM     51  C   UNL A   1      40.581  28.690  29.698  1.00  0.00     0.037 A 
ATOM     52  C   UNL A   1      40.944  31.519  35.567  1.00  0.00     0.049 A 
ATOM     53  C   UNL A   1      41.476  28.488  30.891  1.00  0.00     0.074 A 
ATOM     54  C   UNL A   1      41.781  31.195  36.618  1.00  0.00     0.029 A 
ATOM     55  N   UNL A   1      41.261  30.661  34.524  1.00  0.00    -0.354 N 
ATOM     56  N   UNL A   1      41.465  29.100  32.050  1.00  0.00    -0.248 NA
ATOM     57  C   UNL A   1      42.513  27.455  30.769  1.00  0.00     0.031 C 
ATOM     58  C   UNL A   1      42.646  30.181  36.192  1.00  0.00     0.029 A 
ATOM     59  C   UNL A   1      42.301  29.824  34.898  1.00  0.00     0.049 A 
ATOM     60  H   UNL A   1      40.813  30.648  33.647  1.00  0.00     0.167 HD
ATOM     61  C   UNL A   1      42.469  28.506  32.805  1.00  0.00     0.074 A 
ATOM     62  C   UNL A   1      43.052  27.470  31.979  1.00  0.00     0.031 C 
ATOM     63  C   UNL A   1      42.872  28.794  34.068  1.00  0.00     0.037 A 
BRANCH  50  64
ATOM     64  C   UNL A   1      39.755  33.440  36.703  1.00  0.00     0.064 A 
ATOM     65  C   UNL A   1      40.450  34.655  36.822  1.00  0.00     0.173 A 
ATOM     66  C   UNL A   1      38.856  33.101  37.724  1.00  0.00     0.173 A 
ATOM     67  F   UNL A   1      41.330  35.025  35.879  1.00  0.00    -0.203 F 
ATOM     68  C   UNL A   1      40.275  35.477  37.932  1.00  0.00     0.198 A 
ATOM     69  C   UNL A   1      38.657  33.942  38.816  1.00  0.00     0.198 A 
ATOM     70  F   UNL A   1      38.161  31.955  37.662  1.00  0.00    -0.203 F 
ATOM     71  F   UNL A   1      40.991  36.604  38.049  1.00  0.00    -0.200 F 
ATOM     72  C   UNL A   1      39.373  35.124  38.923  1.00  0.00     0.200 A 
ATOM     73  F   UNL A   1      37.772  33.607  39.766  1.00  0.00    -0.200 F 
ATOM     74  F   UNL A   1      39.199  35.921  39.988  1.00  0.00    -0.200 F 
ENDBRANCH  50  64
BRANCH  51  75
ATOM     75  C   UNL A   1      40.748  27.865  28.472  1.00  0.00     0.064 A 
ATOM     76  C   UNL A   1      41.531  28.315  27.399  1.00  0.00     0.173 A 
ATOM     77  C   UNL A   1      40.117  26.619  28.338  1.00  0.00     0.173 A 
ATOM     78  F   UNL A   1      42.140  29.509  27.469  1.00  0.00    -0.203 F 
ATOM     79  C   UNL A   1      41.653  27.566  26.230  1.00  0.00     0.198 A 
ATOM     80  C   UNL A   1      40.269  25.855  27.183  1.00  0.00     0.198 A 
ATOM     81  F   UNL A   1      39.362  26.138  29.336  1.00  0.00    -0.203 F 
ATOM     82  F   UNL A   1      42.361  28.048  25.199  1.00  0.00    -0.200 F 
ATOM     83  C   UNL A   1      41.026  26.334  26.126  1.00  0.00     0.200 A 
ATOM     84  F   UNL A   1      39.675  24.656  27.093  1.00  0.00    -0.200 F 
ATOM     85  F   UNL A   1      41.145  25.612  25.003  1.00  0.00    -0.200 F 
ENDBRANCH  51  75
BRANCH  63  86
ATOM     86  C   UNL A   1      43.969  27.945  34.648  1.00  0.00     0.064 A 
ATOM     87  C   UNL A   1      45.319  28.315  34.562  1.00  0.00     0.173 A 
ATOM     88  C   UNL A   1      43.660  26.746  35.309  1.00  0.00     0.173 A 
ATOM     89  F   UNL A   1      45.671  29.445  33.931  1.00  0.00    -0.203 F 
ATOM     90  C   UNL A   1      46.321  27.495  35.075  1.00  0.00     0.198 A 
ATOM     91  C   UNL A   1      44.662  25.948  35.857  1.00  0.00     0.198 A 
ATOM     92  F   UNL A   1      42.386  26.347  35.430  1.00  0.00    -0.203 F 
ATOM     93  F   UNL A   1      47.608  27.836  34.919  1.00  0.00    -0.200 F 
ATOM     94  C   UNL A   1      45.992  26.316  35.727  1.00  0.00     0.200 A 
ATOM     95  F   UNL A   1      44.339  24.819  36.502  1.00  0.00    -0.200 F 
ATOM     96  F   UNL A   1      46.958  25.529  36.221  1.00  0.00    -0.200 F 
ENDBRANCH  63  86
ENDBRANCH  37  38
ENDBRANCH  29  32
ENDBRANCH  27  28
ENDBRANCH  26  27
ENDBRANCH   1  26
TORSDOF 13
ENDMDL
MODEL 2
REMARK VINA RESULT:     -13.1      2.267      8.292
REMARK SMILES O=C(NCCCNC(=O)c1ccc(-c2c3nc(c(-c4c(F)c(F)c(F)c(F)c4F)c4ccc([nH]4)c(-c4c(F)c(F)c(F)c(F)c4F)c4nc(c(-c5c(F)c(F)c(F)c(F)c5F)c5ccc2[nH]5)C=C4)C=C3)cc1)c1ccc(C[C@H]2SC(=O)N(c3ccccc3)C2=O)cc1
REMARK SMILES IDX 4 1 3 2 1 3 2 4 73 6 74 7 92 8 75 9 91 10 76 11 77 12 78 13
REMARK SMILES IDX 79 14 89 15 80 16 82 17 90 18 81 19 83 20 84 21 88 22 85 23
REMARK SMILES IDX 87 24 86 25 5 26 6 27 7 28 8 29 9 31 10 32 11 33 72 34 12 35
REMARK SMILES IDX 71 36 13 37 14 38 15 39 65 40 16 41 70 42 64 43 66 44 17 45
REMARK SMILES IDX 69 46 63 47 62 48 18 50 50 51 30 52 49 53 31 54 34 55 48 56
REMARK SMILES IDX 67 57 32 58 33 59 47 61 68 62 35 63 19 64 20 65 28 66 21 67
REMARK SMILES IDX 22 68 26 69 29 70 23 71 24 72 27 73 25 74 51 75 52 76 60 77
REMARK SMILES IDX 53 78 54 79 58 80 61 81 55 82 56 83 59 84 57 85 36 86 37 87
REMARK SMILES IDX 45 88 38 89 39 90 43 91 46 92 40 93 41 94 44 95 42 96
REMARK H PARENT 3 5 7 30 66 49 34 60
REMARK Flexibility Score: inf
ROOT
ATOM      1  C   UNL A   1      31.673  30.742  26.174  1.00  0.00     0.118 C 
ENDROOT
BRANCH   1   2
ATOM      2  N   UNL A   1      30.887  30.526  24.967  1.00  0.00    -0.352 N 
ATOM      3  O   UNL A   1      30.312  29.530  23.024  1.00  0.00    -0.269 OA
ATOM      4  C   UNL A   1      30.910  29.467  24.092  1.00  0.00     0.251 C 
ATOM      5  H   UNL A   1      30.248  31.242  24.746  1.00  0.00     0.163 HD
BRANCH   4   6
ATOM      6  C   UNL A   1      31.685  28.259  24.438  1.00  0.00     0.039 A 
ATOM      7  C   UNL A   1      31.082  27.207  25.131  1.00  0.00     0.014 A 
ATOM      8  C   UNL A   1      33.031  28.183  24.077  1.00  0.00     0.014 A 
ATOM      9  C   UNL A   1      31.853  26.132  25.562  1.00  0.00     0.004 A 
ATOM     10  C   UNL A   1      33.803  27.103  24.511  1.00  0.00     0.004 A 
ATOM     11  C   UNL A   1      33.229  26.086  25.291  1.00  0.00    -0.046 A 
BRANCH  11  12
ATOM     12  C   UNL A   1      34.074  24.958  25.841  1.00  0.00     0.060 C 
BRANCH  12  13
ATOM     13  C   UNL A   1      33.893  23.605  25.125  1.00  0.00     0.151 C 
ATOM     14  S   UNL A   1      34.220  23.673  23.344  1.00  0.00    -0.050 SA
ATOM     15  C   UNL A   1      34.924  22.633  25.665  1.00  0.00     0.248 C 
ATOM     16  C   UNL A   1      35.822  22.989  23.521  1.00  0.00     0.293 C 
ATOM     17  N   UNL A   1      35.977  22.449  24.779  1.00  0.00    -0.240 N 
ATOM     18  O   UNL A   1      34.830  22.184  26.805  1.00  0.00    -0.273 OA
ATOM     19  O   UNL A   1      36.599  22.996  22.583  1.00  0.00    -0.261 OA
BRANCH  17  20
ATOM     20  C   UNL A   1      37.159  21.740  25.144  1.00  0.00     0.053 A 
ATOM     21  C   UNL A   1      38.225  22.391  25.779  1.00  0.00     0.027 A 
ATOM     22  C   UNL A   1      37.290  20.370  24.863  1.00  0.00     0.027 A 
ATOM     23  C   UNL A   1      39.385  21.693  26.130  1.00  0.00     0.002 A 
ATOM     24  C   UNL A   1      38.464  19.681  25.184  1.00  0.00     0.002 A 
ATOM     25  C   UNL A   1      39.509  20.343  25.821  1.00  0.00     0.000 A 
ENDBRANCH  17  20
ENDBRANCH  12  13
ENDBRANCH  11  12
ENDBRANCH   4   6
ENDBRANCH   1   2
BRANCH   1  26
ATOM     26  C   UNL A   1      31.445  32.119  26.780  1.00  0.00     0.042 C 
BRANCH  26  27
ATOM     27  C   UNL A   1      32.722  32.884  27.094  1.00  0.00     0.118 C 
BRANCH  27  28
ATOM     28  N   UNL A   1      32.471  34.234  27.579  1.00  0.00    -0.352 N 
ATOM     29  C   UNL A   1      33.016  34.923  28.633  1.00  0.00     0.251 C 
ATOM     30  H   UNL A   1      31.797  34.736  27.064  1.00  0.00     0.163 HD
ATOM     31  O   UNL A   1      32.527  36.000  28.966  1.00  0.00    -0.269 OA
BRANCH  29  32
ATOM     32  C   UNL A   1      34.167  34.378  29.386  1.00  0.00     0.039 A 
ATOM     33  C   UNL A   1      33.923  33.706  30.587  1.00  0.00     0.014 A 
ATOM     34  C   UNL A   1      35.480  34.546  28.941  1.00  0.00     0.014 A 
ATOM     35  C   UNL A   1      34.986  33.149  31.301  1.00  0.00     0.010 A 
ATOM     36  C   UNL A   1      36.527  33.905  29.599  1.00  0.00     0.010 A 
ATOM     37  C   UNL A   1      36.294  33.208  30.793  1.00  0.00    -0.014 A 
BRANCH  37  38
ATOM     38  C   UNL A   1      37.419  32.545  31.501  1.00  0.00     0.031 A 
ATOM     39  C   UNL A   1      38.138  31.380  30.877  1.00  0.00     0.074 A 
ATOM     40  C   UNL A   1      37.769  32.970  32.732  1.00  0.00     0.049 A 
ATOM     41  N   UNL A   1      39.130  30.668  31.351  1.00  0.00    -0.248 NA
ATOM     42  C   UNL A   1      37.662  30.936  29.558  1.00  0.00     0.031 C 
ATOM     43  C   UNL A   1      37.115  34.052  33.470  1.00  0.00     0.029 A 
ATOM     44  N   UNL A   1      38.761  32.543  33.580  1.00  0.00    -0.354 N 
ATOM     45  C   UNL A   1      39.390  29.695  30.394  1.00  0.00     0.074 A 
ATOM     46  C   UNL A   1      38.409  29.864  29.345  1.00  0.00     0.031 C 
ATOM     47  C   UNL A   1      37.746  34.229  34.642  1.00  0.00     0.029 A 
ATOM     48  C   UNL A   1      38.819  33.248  34.758  1.00  0.00     0.049 A 
ATOM     49  H   UNL A   1      39.371  31.801  33.365  1.00  0.00     0.167 HD
ATOM     50  C   UNL A   1      40.375  28.765  30.377  1.00  0.00     0.037 A 
ATOM     51  C   UNL A   1      39.643  33.116  35.814  1.00  0.00     0.037 A 
ATOM     52  C   UNL A   1      41.358  28.608  31.419  1.00  0.00     0.049 A 
ATOM     53  C   UNL A   1      40.719  32.065  35.776  1.00  0.00     0.074 A 
ATOM     54  C   UNL A   1      42.425  27.729  31.472  1.00  0.00     0.029 A 
ATOM     55  N   UNL A   1      41.387  29.343  32.595  1.00  0.00    -0.354 N 
ATOM     56  N   UNL A   1      41.004  31.201  34.831  1.00  0.00    -0.248 NA
ATOM     57  C   UNL A   1      41.599  31.979  36.949  1.00  0.00     0.031 C 
ATOM     58  C   UNL A   1      43.064  27.891  32.706  1.00  0.00     0.029 A 
ATOM     59  C   UNL A   1      42.439  28.919  33.393  1.00  0.00     0.049 A 
ATOM     60  H   UNL A   1      40.755  30.060  32.829  1.00  0.00     0.167 HD
ATOM     61  C   UNL A   1      42.111  30.493  35.280  1.00  0.00     0.074 A 
ATOM     62  C   UNL A   1      42.460  31.045  36.572  1.00  0.00     0.031 C 
ATOM     63  C   UNL A   1      42.778  29.477  34.678  1.00  0.00     0.037 A 
BRANCH  50  64
ATOM     64  C   UNL A   1      40.439  27.840  29.192  1.00  0.00     0.064 A 
ATOM     65  C   UNL A   1      39.652  26.679  29.118  1.00  0.00     0.173 A 
ATOM     66  C   UNL A   1      41.270  28.136  28.101  1.00  0.00     0.173 A 
ATOM     67  F   UNL A   1      38.847  26.343  30.138  1.00  0.00    -0.203 F 
ATOM     68  C   UNL A   1      39.720  25.835  28.013  1.00  0.00     0.198 A 
ATOM     69  C   UNL A   1      41.308  27.307  26.983  1.00  0.00     0.198 A 
ATOM     70  F   UNL A   1      42.040  29.234  28.114  1.00  0.00    -0.203 F 
ATOM     71  F   UNL A   1      39.001  24.704  27.992  1.00  0.00    -0.200 F 
ATOM     72  C   UNL A   1      40.541  26.154  26.943  1.00  0.00     0.200 A 
ATOM     73  F   UNL A   1      42.091  27.626  25.941  1.00  0.00    -0.200 F 
ATOM     74  F   UNL A   1      40.599  25.343  25.876  1.00  0.00    -0.200 F 
ENDBRANCH  50  64
BRANCH  51  75
ATOM     75  C   UNL A   1      39.503  34.020  36.987  1.00  0.00     0.064 A 
ATOM     76  C   UNL A   1      40.126  35.276  37.010  1.00  0.00     0.173 A 
ATOM     77  C   UNL A   1      38.759  33.642  38.115  1.00  0.00     0.173 A 
ATOM     78  F   UNL A   1      40.865  35.676  35.964  1.00  0.00    -0.203 F 
ATOM     79  C   UNL A   1      40.034  36.106  38.125  1.00  0.00     0.198 A 
ATOM     80  C   UNL A   1      38.639  34.489  39.215  1.00  0.00     0.198 A 
ATOM     81  F   UNL A   1      38.137  32.455  38.143  1.00  0.00    -0.203 F 
ATOM     82  F   UNL A   1      40.688  37.277  38.141  1.00  0.00    -0.200 F 
ATOM     83  C   UNL A   1      39.286  35.714  39.225  1.00  0.00     0.200 A 
ATOM     84  F   UNL A   1      37.900  34.114  40.269  1.00  0.00    -0.200 F 
ATOM     85  F   UNL A   1      39.195  36.514  40.296  1.00  0.00    -0.200 F 
ENDBRANCH  51  75
BRANCH  63  86
ATOM     86  C   UNL A   1      43.981  28.928  35.393  1.00  0.00     0.064 A 
ATOM     87  C   UNL A   1      43.879  27.882  36.322  1.00  0.00     0.173 A 
ATOM     88  C   UNL A   1      45.258  29.451  35.135  1.00  0.00     0.173 A 
ATOM     89  F   UNL A   1      42.681  27.353  36.615  1.00  0.00    -0.203 F 
ATOM     90  C   UNL A   1      45.002  27.412  36.999  1.00  0.00     0.198 A 
ATOM     91  C   UNL A   1      46.384  28.951  35.783  1.00  0.00     0.198 A 
ATOM     92  F   UNL A   1      45.417  30.445  34.249  1.00  0.00    -0.203 F 
ATOM     93  F   UNL A   1      44.868  26.460  37.934  1.00  0.00    -0.200 F 
ATOM     94  C   UNL A   1      46.253  27.942  36.726  1.00  0.00     0.200 A 
ATOM     95  F   UNL A   1      47.594  29.453  35.504  1.00  0.00    -0.200 F 
ATOM     96  F   UNL A   1      47.333  27.489  37.378  1.00  0.00    -0.200 F 
ENDBRANCH  63  86
ENDBRANCH  37  38
ENDBRANCH  29  32
ENDBRANCH  27  28
ENDBRANCH  26  27
ENDBRANCH   1  26
TORSDOF 13
ENDMDL
MODEL 3
REMARK VINA RESULT:     -13.0      5.864      9.989
REMARK SMILES O=C(NCCCNC(=O)c1ccc(-c2c3nc(c(-c4c(F)c(F)c(F)c(F)c4F)c4ccc([nH]4)c(-c4c(F)c(F)c(F)c(F)c4F)c4nc(c(-c5c(F)c(F)c(F)c(F)c5F)c5ccc2[nH]5)C=C4)C=C3)cc1)c1ccc(C[C@H]2SC(=O)N(c3ccccc3)C2=O)cc1
REMARK SMILES IDX 4 1 3 2 1 3 2 4 73 6 74 7 92 8 75 9 91 10 76 11 77 12 78 13
REMARK SMILES IDX 79 14 89 15 80 16 82 17 90 18 81 19 83 20 84 21 88 22 85 23
REMARK SMILES IDX 87 24 86 25 5 26 6 27 7 28 8 29 9 31 10 32 11 33 72 34 12 35
REMARK SMILES IDX 71 36 13 37 14 38 15 39 65 40 16 41 70 42 64 43 66 44 17 45
REMARK SMILES IDX 69 46 63 47 62 48 18 50 50 51 30 52 49 53 31 54 34 55 48 56
REMARK SMILES IDX 67 57 32 58 33 59 47 61 68 62 35 63 19 64 20 65 28 66 21 67
REMARK SMILES IDX 22 68 26 69 29 70 23 71 24 72 27 73 25 74 51 75 52 76 60 77
REMARK SMILES IDX 53 78 54 79 58 80 61 81 55 82 56 83 59 84 57 85 36 86 37 87
REMARK SMILES IDX 45 88 38 89 39 90 43 91 46 92 40 93 41 94 44 95 42 96
REMARK H PARENT 3 5 7 30 66 49 34 60
REMARK Flexibility Score: inf
ROOT
ATOM      1  C   UNL A   1      37.590  21.173  24.689  1.00  0.00     0.118 C 
ENDROOT
BRANCH   1   2
ATOM      2  N   UNL A   1      38.204  22.302  25.376  1.00  0.00    -0.352 N 
ATOM      3  O   UNL A   1      38.327  24.394  26.215  1.00  0.00    -0.269 OA
ATOM      4  C   UNL A   1      37.628  23.468  25.820  1.00  0.00     0.251 C 
ATOM      5  H   UNL A   1      39.171  22.217  25.546  1.00  0.00     0.163 HD
BRANCH   4   6
ATOM      6  C   UNL A   1      36.159  23.606  25.792  1.00  0.00     0.039 A 
ATOM      7  C   UNL A   1      35.544  24.419  24.837  1.00  0.00     0.014 A 
ATOM      8  C   UNL A   1      35.390  22.924  26.737  1.00  0.00     0.014 A 
ATOM      9  C   UNL A   1      34.171  24.640  24.900  1.00  0.00     0.004 A 
ATOM     10  C   UNL A   1      34.013  23.149  26.798  1.00  0.00     0.004 A 
ATOM     11  C   UNL A   1      33.397  24.040  25.905  1.00  0.00    -0.046 A 
BRANCH  11  12
ATOM     12  C   UNL A   1      31.922  24.358  26.018  1.00  0.00     0.060 C 
BRANCH  12  13
ATOM     13  C   UNL A   1      31.018  23.601  25.026  1.00  0.00     0.151 C 
ATOM     14  S   UNL A   1      31.297  24.052  23.293  1.00  0.00    -0.050 SA
ATOM     15  C   UNL A   1      31.358  22.124  25.095  1.00  0.00     0.248 C 
ATOM     16  C   UNL A   1      32.266  22.627  22.985  1.00  0.00     0.293 C 
ATOM     17  N   UNL A   1      32.122  21.717  24.009  1.00  0.00    -0.240 N 
ATOM     18  O   UNL A   1      31.053  21.453  26.078  1.00  0.00    -0.273 OA
ATOM     19  O   UNL A   1      32.904  22.530  21.951  1.00  0.00    -0.261 OA
BRANCH  17  20
ATOM     20  C   UNL A   1      32.730  20.429  23.951  1.00  0.00     0.053 A 
ATOM     21  C   UNL A   1      32.153  19.389  23.209  1.00  0.00     0.027 A 
ATOM     22  C   UNL A   1      33.921  20.165  24.649  1.00  0.00     0.027 A 
ATOM     23  C   UNL A   1      32.750  18.126  23.161  1.00  0.00     0.002 A 
ATOM     24  C   UNL A   1      34.498  18.892  24.626  1.00  0.00     0.002 A 
ATOM     25  C   UNL A   1      33.914  17.874  23.879  1.00  0.00     0.000 A 
ENDBRANCH  17  20
ENDBRANCH  12  13
ENDBRANCH  11  12
ENDBRANCH   4   6
ENDBRANCH   1   2
BRANCH   1  26
ATOM     26  C   UNL A   1      38.300  19.858  24.978  1.00  0.00     0.042 C 
BRANCH  26  27
ATOM     27  C   UNL A   1      39.235  19.903  26.177  1.00  0.00     0.118 C 
BRANCH  27  28
ATOM     28  N   UNL A   1      40.358  18.984  26.057  1.00  0.00    -0.352 N 
ATOM     29  C   UNL A   1      41.710  19.218  26.037  1.00  0.00     0.251 C 
ATOM     30  H   UNL A   1      40.104  18.035  25.974  1.00  0.00     0.163 HD
ATOM     31  O   UNL A   1      42.477  18.302  25.751  1.00  0.00    -0.269 OA
BRANCH  29  32
ATOM     32  C   UNL A   1      42.254  20.562  26.334  1.00  0.00     0.039 A 
ATOM     33  C   UNL A   1      42.593  21.397  25.266  1.00  0.00     0.014 A 
ATOM     34  C   UNL A   1      42.462  20.996  27.645  1.00  0.00     0.014 A 
ATOM     35  C   UNL A   1      43.076  22.684  25.514  1.00  0.00     0.010 A 
ATOM     36  C   UNL A   1      42.845  22.312  27.892  1.00  0.00     0.010 A 
ATOM     37  C   UNL A   1      43.167  23.168  26.830  1.00  0.00    -0.014 A 
BRANCH  37  38
ATOM     38  C   UNL A   1      43.597  24.564  27.101  1.00  0.00     0.031 A 
ATOM     39  C   UNL A   1      42.619  25.578  27.629  1.00  0.00     0.074 A 
ATOM     40  C   UNL A   1      44.866  24.931  26.832  1.00  0.00     0.049 A 
ATOM     41  N   UNL A   1      42.808  26.844  27.911  1.00  0.00    -0.248 NA
ATOM     42  C   UNL A   1      41.238  25.120  27.844  1.00  0.00     0.031 C 
ATOM     43  C   UNL A   1      45.896  24.058  26.265  1.00  0.00     0.029 A 
ATOM     44  N   UNL A   1      45.507  26.134  26.998  1.00  0.00    -0.354 N 
ATOM     45  C   UNL A   1      41.575  27.328  28.329  1.00  0.00     0.074 A 
ATOM     46  C   UNL A   1      40.630  26.241  28.199  1.00  0.00     0.031 C 
ATOM     47  C   UNL A   1      47.046  24.742  26.166  1.00  0.00     0.029 A 
ATOM     48  C   UNL A   1      46.828  26.110  26.621  1.00  0.00     0.049 A 
ATOM     49  H   UNL A   1      45.062  26.937  27.353  1.00  0.00     0.167 HD
ATOM     50  C   UNL A   1      41.264  28.558  28.805  1.00  0.00     0.037 A 
ATOM     51  C   UNL A   1      47.758  27.084  26.638  1.00  0.00     0.037 A 
ATOM     52  C   UNL A   1      42.212  29.635  28.944  1.00  0.00     0.049 A 
ATOM     53  C   UNL A   1      47.382  28.445  27.158  1.00  0.00     0.074 A 
ATOM     54  C   UNL A   1      42.008  30.901  29.461  1.00  0.00     0.029 A 
ATOM     55  N   UNL A   1      43.542  29.573  28.555  1.00  0.00    -0.354 N 
ATOM     56  N   UNL A   1      46.231  28.869  27.622  1.00  0.00    -0.248 NA
ATOM     57  C   UNL A   1      48.442  29.462  27.167  1.00  0.00     0.031 C 
ATOM     58  C   UNL A   1      43.198  31.625  29.330  1.00  0.00     0.029 A 
ATOM     59  C   UNL A   1      44.164  30.788  28.796  1.00  0.00     0.049 A 
ATOM     60  H   UNL A   1      43.980  28.782  28.165  1.00  0.00     0.167 HD
ATOM     61  C   UNL A   1      46.437  30.188  28.007  1.00  0.00     0.074 A 
ATOM     62  C   UNL A   1      47.829  30.485  27.743  1.00  0.00     0.031 C 
ATOM     63  C   UNL A   1      45.552  31.073  28.531  1.00  0.00     0.037 A 
BRANCH  50  64
ATOM     64  C   UNL A   1      39.838  28.808  29.210  1.00  0.00     0.064 A 
ATOM     65  C   UNL A   1      39.398  28.603  30.528  1.00  0.00     0.173 A 
ATOM     66  C   UNL A   1      38.906  29.290  28.280  1.00  0.00     0.173 A 
ATOM     67  F   UNL A   1      40.245  28.133  31.458  1.00  0.00    -0.203 F 
ATOM     68  C   UNL A   1      38.075  28.842  30.890  1.00  0.00     0.198 A 
ATOM     69  C   UNL A   1      37.592  29.561  28.653  1.00  0.00     0.198 A 
ATOM     70  F   UNL A   1      39.270  29.509  27.007  1.00  0.00    -0.203 F 
ATOM     71  F   UNL A   1      37.667  28.586  32.141  1.00  0.00    -0.200 F 
ATOM     72  C   UNL A   1      37.175  29.328  29.954  1.00  0.00     0.200 A 
ATOM     73  F   UNL A   1      36.727  30.047  27.751  1.00  0.00    -0.200 F 
ATOM     74  F   UNL A   1      35.903  29.565  30.306  1.00  0.00    -0.200 F 
ENDBRANCH  50  64
BRANCH  51  75
ATOM     75  C   UNL A   1      49.142  26.801  26.173  1.00  0.00     0.064 A 
ATOM     76  C   UNL A   1      49.512  27.008  24.836  1.00  0.00     0.173 A 
ATOM     77  C   UNL A   1      50.118  26.303  27.049  1.00  0.00     0.173 A 
ATOM     78  F   UNL A   1      48.610  27.465  23.955  1.00  0.00    -0.203 F 
ATOM     79  C   UNL A   1      50.795  26.701  24.388  1.00  0.00     0.198 A 
ATOM     80  C   UNL A   1      51.411  26.030  26.606  1.00  0.00     0.198 A 
ATOM     81  F   UNL A   1      49.820  26.093  28.339  1.00  0.00    -0.203 F 
ATOM     82  F   UNL A   1      51.103  26.855  23.092  1.00  0.00    -0.200 F 
ATOM     83  C   UNL A   1      51.745  26.217  25.274  1.00  0.00     0.200 A 
ATOM     84  F   UNL A   1      52.331  25.579  27.470  1.00  0.00    -0.200 F 
ATOM     85  F   UNL A   1      52.980  25.925  24.843  1.00  0.00    -0.200 F 
ENDBRANCH  51  75
BRANCH  63  86
ATOM     86  C   UNL A   1      46.077  32.433  28.895  1.00  0.00     0.064 A 
ATOM     87  C   UNL A   1      46.622  32.705  30.158  1.00  0.00     0.173 A 
ATOM     88  C   UNL A   1      46.044  33.478  27.958  1.00  0.00     0.173 A 
ATOM     89  F   UNL A   1      46.667  31.746  31.095  1.00  0.00    -0.203 F 
ATOM     90  C   UNL A   1      47.071  33.982  30.486  1.00  0.00     0.198 A 
ATOM     91  C   UNL A   1      46.530  34.744  28.276  1.00  0.00     0.198 A 
ATOM     92  F   UNL A   1      45.543  33.274  26.731  1.00  0.00    -0.203 F 
ATOM     93  F   UNL A   1      47.521  34.235  31.723  1.00  0.00    -0.200 F 
ATOM     94  C   UNL A   1      47.030  34.999  29.544  1.00  0.00     0.200 A 
ATOM     95  F   UNL A   1      46.507  35.719  27.357  1.00  0.00    -0.200 F 
ATOM     96  F   UNL A   1      47.462  36.227  29.861  1.00  0.00    -0.200 F 
ENDBRANCH  63  86
ENDBRANCH  37  38
ENDBRANCH  29  32
ENDBRANCH  27  28
ENDBRANCH  26  27
ENDBRANCH   1  26
TORSDOF 13
ENDMDL
