MODEL 1
REMARK VINA RESULT:     -12.6      0.000      0.000
REMARK SMILES CCC[C@@H](C(=O)NCCCNC(=O)c1ccc(-c2c3nc(c(-c4c(F)c(F)c(F)c(F)c4F)c4ccc([nH]4)c(-c4c(F)c(F)c(F)c(F)c4F)c4nc(c(-c5c(F)c(F)c(F)c(F)c5F)c5ccc2[nH]5)C=C4)C=C3)cc1)n1nc(/C=C/c2ccc(OC)cc2)ccc1=O
REMARK SMILES IDX 8 1 7 2 5 3 6 4 4 6 3 7 2 8 1 9 77 10 78 11 92 12 79 13
REMARK SMILES IDX 91 14 93 15 90 16 80 17 81 18 82 19 83 20 89 21 84 22 88 23
REMARK SMILES IDX 85 24 86 25 87 26 9 27 10 28 11 29 12 30 13 32 14 33 15 34
REMARK SMILES IDX 76 35 16 36 75 37 17 38 18 39 19 40 69 41 20 42 74 43 68 44
REMARK SMILES IDX 70 45 21 46 73 47 67 48 66 49 22 51 54 52 34 53 53 54 35 55
REMARK SMILES IDX 38 56 52 57 71 58 36 59 37 60 51 62 72 63 39 64 23 65 24 66
REMARK SMILES IDX 32 67 25 68 26 69 30 70 33 71 27 72 28 73 31 74 29 75 55 76
REMARK SMILES IDX 56 77 64 78 57 79 58 80 62 81 65 82 59 83 60 84 63 85 61 86
REMARK SMILES IDX 40 87 41 88 49 89 42 90 43 91 47 92 50 93 44 94 45 95 48 96
REMARK SMILES IDX 46 97
REMARK H PARENT 7 5 11 31 70 50 38 61
REMARK Flexibility Score: inf
ROOT
ATOM      1  C   UNL A   1      32.639  27.157  26.633  1.00  0.00     0.117 C 
ENDROOT
BRANCH   1   2
ATOM      2  N   UNL A   1      31.548  26.211  26.785  1.00  0.00    -0.354 N 
ATOM      3  C   UNL A   1      30.462  25.952  25.992  1.00  0.00     0.245 C 
ATOM      4  O   UNL A   1      29.572  25.270  26.514  1.00  0.00    -0.273 OA
ATOM      5  H   UNL A   1      31.598  25.660  27.600  1.00  0.00     0.163 HD
BRANCH   3   6
ATOM      6  C   UNL A   1      30.374  26.479  24.535  1.00  0.00     0.200 C 
BRANCH   6   7
ATOM      7  C   UNL A   1      28.981  26.276  23.886  1.00  0.00     0.037 C 
BRANCH   7   8
ATOM      8  C   UNL A   1      28.156  27.472  23.422  1.00  0.00    -0.001 C 
ATOM      9  C   UNL A   1      28.941  28.736  23.133  1.00  0.00     0.004 C 
ENDBRANCH   7   8
ENDBRANCH   6   7
BRANCH   6  10
ATOM     10  N   UNL A   1      31.463  25.774  23.774  1.00  0.00    -0.217 N 
ATOM     11  N   UNL A   1      31.511  24.377  23.935  1.00  0.00    -0.170 NA
ATOM     12  C   UNL A   1      32.188  26.421  22.770  1.00  0.00     0.267 A 
ATOM     13  C   UNL A   1      32.369  23.708  23.217  1.00  0.00     0.084 A 
ATOM     14  C   UNL A   1      33.276  25.650  22.156  1.00  0.00     0.075 A 
ATOM     15  O   UNL A   1      32.066  27.586  22.397  1.00  0.00    -0.268 OA
ATOM     16  C   UNL A   1      33.396  24.343  22.368  1.00  0.00     0.036 A 
BRANCH  13  17
ATOM     17  C   UNL A   1      32.296  22.207  23.179  1.00  0.00     0.031 C 
ATOM     18  C   UNL A   1      32.442  21.391  24.238  1.00  0.00     0.010 C 
BRANCH  18  19
ATOM     19  C   UNL A   1      32.541  19.926  24.185  1.00  0.00    -0.025 A 
ATOM     20  C   UNL A   1      32.886  19.229  25.349  1.00  0.00     0.012 A 
ATOM     21  C   UNL A   1      32.453  19.220  22.980  1.00  0.00     0.012 A 
ATOM     22  C   UNL A   1      33.118  17.851  25.308  1.00  0.00     0.047 A 
ATOM     23  C   UNL A   1      32.690  17.838  22.941  1.00  0.00     0.047 A 
ATOM     24  C   UNL A   1      33.019  17.148  24.107  1.00  0.00     0.118 A 
BRANCH  24  25
ATOM     25  O   UNL A   1      33.283  15.809  24.208  1.00  0.00    -0.497 OA
ATOM     26  C   UNL A   1      32.834  15.151  25.385  1.00  0.00     0.278 C 
ENDBRANCH  24  25
ENDBRANCH  18  19
ENDBRANCH  13  17
ENDBRANCH   6  10
ENDBRANCH   3   6
ENDBRANCH   1   2
BRANCH   1  27
ATOM     27  C   UNL A   1      32.104  28.589  26.638  1.00  0.00     0.042 C 
BRANCH  27  28
ATOM     28  C   UNL A   1      32.960  29.585  25.873  1.00  0.00     0.118 C 
BRANCH  28  29
ATOM     29  N   UNL A   1      32.749  30.952  26.314  1.00  0.00    -0.352 N 
ATOM     30  C   UNL A   1      33.417  31.703  27.251  1.00  0.00     0.251 C 
ATOM     31  H   UNL A   1      32.005  31.417  25.868  1.00  0.00     0.163 HD
ATOM     32  O   UNL A   1      32.940  32.784  27.590  1.00  0.00    -0.269 OA
BRANCH  30  33
ATOM     33  C   UNL A   1      34.688  31.244  27.871  1.00  0.00     0.039 A 
ATOM     34  C   UNL A   1      34.744  29.942  28.385  1.00  0.00     0.014 A 
ATOM     35  C   UNL A   1      35.792  32.083  28.030  1.00  0.00     0.014 A 
ATOM     36  C   UNL A   1      35.900  29.484  29.026  1.00  0.00     0.010 A 
ATOM     37  C   UNL A   1      36.980  31.595  28.579  1.00  0.00     0.010 A 
ATOM     38  C   UNL A   1      37.036  30.301  29.117  1.00  0.00    -0.014 A 
BRANCH  38  39
ATOM     39  C   UNL A   1      38.258  29.851  29.836  1.00  0.00     0.031 A 
ATOM     40  C   UNL A   1      38.528  30.339  31.237  1.00  0.00     0.074 A 
ATOM     41  C   UNL A   1      39.143  29.037  29.230  1.00  0.00     0.049 A 
ATOM     42  N   UNL A   1      39.556  30.108  32.016  1.00  0.00    -0.248 NA
ATOM     43  C   UNL A   1      37.522  31.233  31.832  1.00  0.00     0.031 C 
ATOM     44  C   UNL A   1      39.027  28.527  27.863  1.00  0.00     0.029 A 
ATOM     45  N   UNL A   1      40.321  28.498  29.686  1.00  0.00    -0.354 N 
ATOM     46  C   UNL A   1      39.330  30.844  33.173  1.00  0.00     0.074 A 
ATOM     47  C   UNL A   1      38.098  31.576  32.973  1.00  0.00     0.031 C 
ATOM     48  C   UNL A   1      40.074  27.728  27.601  1.00  0.00     0.029 A 
ATOM     49  C   UNL A   1      40.952  27.694  28.767  1.00  0.00     0.049 A 
ATOM     50  H   UNL A   1      40.679  28.670  30.587  1.00  0.00     0.167 HD
ATOM     51  C   UNL A   1      40.064  30.887  34.310  1.00  0.00     0.037 A 
ATOM     52  C   UNL A   1      42.107  27.006  28.857  1.00  0.00     0.037 A 
ATOM     53  C   UNL A   1      41.265  30.126  34.527  1.00  0.00     0.049 A 
ATOM     54  C   UNL A   1      42.893  27.051  30.140  1.00  0.00     0.074 A 
ATOM     55  C   UNL A   1      42.048  30.054  35.665  1.00  0.00     0.029 A 
ATOM     56  N   UNL A   1      41.852  29.296  33.582  1.00  0.00    -0.354 N 
ATOM     57  N   UNL A   1      42.634  27.702  31.248  1.00  0.00    -0.248 NA
ATOM     58  C   UNL A   1      44.127  26.253  30.188  1.00  0.00     0.031 C 
ATOM     59  C   UNL A   1      43.131  29.208  35.397  1.00  0.00     0.029 A 
ATOM     60  C   UNL A   1      42.995  28.718  34.108  1.00  0.00     0.049 A 
ATOM     61  H   UNL A   1      41.507  29.143  32.674  1.00  0.00     0.167 HD
ATOM     62  C   UNL A   1      43.652  27.369  32.134  1.00  0.00     0.074 A 
ATOM     63  C   UNL A   1      44.525  26.447  31.438  1.00  0.00     0.031 C 
ATOM     64  C   UNL A   1      43.844  27.788  33.408  1.00  0.00     0.037 A 
BRANCH  51  65
ATOM     65  C   UNL A   1      39.580  31.783  35.415  1.00  0.00     0.064 A 
ATOM     66  C   UNL A   1      40.032  33.106  35.543  1.00  0.00     0.173 A 
ATOM     67  C   UNL A   1      38.632  31.323  36.341  1.00  0.00     0.173 A 
ATOM     68  F   UNL A   1      40.947  33.592  34.691  1.00  0.00    -0.203 F 
ATOM     69  C   UNL A   1      39.580  33.922  36.577  1.00  0.00     0.198 A 
ATOM     70  C   UNL A   1      38.158  32.152  37.355  1.00  0.00     0.198 A 
ATOM     71  F   UNL A   1      38.160  30.069  36.262  1.00  0.00    -0.203 F 
ATOM     72  F   UNL A   1      40.069  35.162  36.711  1.00  0.00    -0.200 F 
ATOM     73  C   UNL A   1      38.640  33.447  37.478  1.00  0.00     0.200 A 
ATOM     74  F   UNL A   1      37.239  31.697  38.218  1.00  0.00    -0.200 F 
ATOM     75  F   UNL A   1      38.203  34.235  38.470  1.00  0.00    -0.200 F 
ENDBRANCH  51  65
BRANCH  52  76
ATOM     76  C   UNL A   1      42.571  26.182  27.711  1.00  0.00     0.064 A 
ATOM     77  C   UNL A   1      43.458  26.709  26.761  1.00  0.00     0.173 A 
ATOM     78  C   UNL A   1      42.136  24.861  27.535  1.00  0.00     0.173 A 
ATOM     79  F   UNL A   1      43.885  27.976  26.874  1.00  0.00    -0.203 F 
ATOM     80  C   UNL A   1      43.876  25.953  25.669  1.00  0.00     0.198 A 
ATOM     81  C   UNL A   1      42.576  24.096  26.456  1.00  0.00     0.198 A 
ATOM     82  F   UNL A   1      41.291  24.310  28.417  1.00  0.00    -0.203 F 
ATOM     83  F   UNL A   1      44.688  26.496  24.751  1.00  0.00    -0.200 F 
ATOM     84  C   UNL A   1      43.439  24.645  25.520  1.00  0.00     0.200 A 
ATOM     85  F   UNL A   1      42.162  22.829  26.323  1.00  0.00    -0.200 F 
ATOM     86  F   UNL A   1      43.844  23.917  24.471  1.00  0.00    -0.200 F 
ENDBRANCH  52  76
BRANCH  64  87
ATOM     87  C   UNL A   1      45.017  27.220  34.151  1.00  0.00     0.064 A 
ATOM     88  C   UNL A   1      44.897  26.083  34.963  1.00  0.00     0.173 A 
ATOM     89  C   UNL A   1      46.288  27.799  34.013  1.00  0.00     0.173 A 
ATOM     90  F   UNL A   1      43.700  25.501  35.136  1.00  0.00    -0.203 F 
ATOM     91  C   UNL A   1      46.002  25.562  35.632  1.00  0.00     0.198 A 
ATOM     92  C   UNL A   1      47.395  27.258  34.660  1.00  0.00     0.198 A 
ATOM     93  F   UNL A   1      46.458  28.883  33.241  1.00  0.00    -0.203 F 
ATOM     94  F   UNL A   1      45.854  24.503  36.439  1.00  0.00    -0.200 F 
ATOM     95  C   UNL A   1      47.250  26.145  35.474  1.00  0.00     0.200 A 
ATOM     96  F   UNL A   1      48.604  27.815  34.497  1.00  0.00    -0.200 F 
ATOM     97  F   UNL A   1      48.313  25.638  36.114  1.00  0.00    -0.200 F 
ENDBRANCH  64  87
ENDBRANCH  38  39
ENDBRANCH  30  33
ENDBRANCH  28  29
ENDBRANCH  27  28
ENDBRANCH   1  27
TORSDOF 16
ENDMDL
MODEL 2
REMARK VINA RESULT:     -12.4      2.605      7.923
REMARK SMILES CCC[C@@H](C(=O)NCCCNC(=O)c1ccc(-c2c3nc(c(-c4c(F)c(F)c(F)c(F)c4F)c4ccc([nH]4)c(-c4c(F)c(F)c(F)c(F)c4F)c4nc(c(-c5c(F)c(F)c(F)c(F)c5F)c5ccc2[nH]5)C=C4)C=C3)cc1)n1nc(/C=C/c2ccc(OC)cc2)ccc1=O
REMARK SMILES IDX 8 1 7 2 5 3 6 4 4 6 3 7 2 8 1 9 77 10 78 11 92 12 79 13
REMARK SMILES IDX 91 14 93 15 90 16 80 17 81 18 82 19 83 20 89 21 84 22 88 23
REMARK SMILES IDX 85 24 86 25 87 26 9 27 10 28 11 29 12 30 13 32 14 33 15 34
REMARK SMILES IDX 76 35 16 36 75 37 17 38 18 39 19 40 69 41 20 42 74 43 68 44
REMARK SMILES IDX 70 45 21 46 73 47 67 48 66 49 22 51 54 52 34 53 53 54 35 55
REMARK SMILES IDX 38 56 52 57 71 58 36 59 37 60 51 62 72 63 39 64 23 65 24 66
REMARK SMILES IDX 32 67 25 68 26 69 30 70 33 71 27 72 28 73 31 74 29 75 55 76
REMARK SMILES IDX 56 77 64 78 57 79 58 80 62 81 65 82 59 83 60 84 63 85 61 86
REMARK SMILES IDX 40 87 41 88 49 89 42 90 43 91 47 92 50 93 44 94 45 95 48 96
REMARK SMILES IDX 46 97
REMARK H PARENT 7 5 11 31 70 50 38 61
REMARK Flexibility Score: inf
ROOT
ATOM      1  C   UNL A   1      31.353  30.759  26.328  1.00  0.00     0.117 C 
ENDROOT
BRANCH   1   2
ATOM      2  N   UNL A   1      31.906  30.391  25.037  1.00  0.00    -0.354 N 
ATOM      3  C   UNL A   1      32.569  29.265  24.628  1.00  0.00     0.245 C 
ATOM      4  O   UNL A   1      33.142  29.352  23.536  1.00  0.00    -0.273 OA
ATOM      5  H   UNL A   1      31.782  31.070  24.334  1.00  0.00     0.163 HD
BRANCH   3   6
ATOM      6  C   UNL A   1      32.581  27.971  25.485  1.00  0.00     0.200 C 
BRANCH   6   7
ATOM      7  C   UNL A   1      33.781  27.888  26.464  1.00  0.00     0.037 C 
BRANCH   7   8
ATOM      8  C   UNL A   1      33.955  28.921  27.571  1.00  0.00    -0.001 C 
ATOM      9  C   UNL A   1      35.080  29.916  27.370  1.00  0.00     0.004 C 
ENDBRANCH   7   8
ENDBRANCH   6   7
BRANCH   6  10
ATOM     10  N   UNL A   1      32.566  26.828  24.508  1.00  0.00    -0.217 N 
ATOM     11  N   UNL A   1      33.726  26.034  24.481  1.00  0.00    -0.170 NA
ATOM     12  C   UNL A   1      31.384  26.421  23.881  1.00  0.00     0.267 A 
ATOM     13  C   UNL A   1      33.723  24.970  23.728  1.00  0.00     0.084 A 
ATOM     14  C   UNL A   1      31.515  25.345  22.890  1.00  0.00     0.075 A 
ATOM     15  O   UNL A   1      30.265  26.911  24.011  1.00  0.00    -0.268 OA
ATOM     16  C   UNL A   1      32.637  24.641  22.784  1.00  0.00     0.036 A 
BRANCH  13  17
ATOM     17  C   UNL A   1      34.840  23.971  23.846  1.00  0.00     0.031 C 
ATOM     18  C   UNL A   1      35.370  23.525  24.999  1.00  0.00     0.010 C 
BRANCH  18  19
ATOM     19  C   UNL A   1      36.567  22.682  25.124  1.00  0.00    -0.025 A 
ATOM     20  C   UNL A   1      36.509  21.357  24.677  1.00  0.00     0.012 A 
ATOM     21  C   UNL A   1      37.707  23.111  25.812  1.00  0.00     0.012 A 
ATOM     22  C   UNL A   1      37.581  20.488  24.897  1.00  0.00     0.047 A 
ATOM     23  C   UNL A   1      38.780  22.235  26.035  1.00  0.00     0.047 A 
ATOM     24  C   UNL A   1      38.722  20.921  25.574  1.00  0.00     0.118 A 
BRANCH  24  25
ATOM     25  O   UNL A   1      39.688  19.965  25.731  1.00  0.00    -0.497 OA
ATOM     26  C   UNL A   1      40.893  20.366  26.369  1.00  0.00     0.278 C 
ENDBRANCH  24  25
ENDBRANCH  18  19
ENDBRANCH  13  17
ENDBRANCH   6  10
ENDBRANCH   3   6
ENDBRANCH   1   2
BRANCH   1  27
ATOM     27  C   UNL A   1      31.373  32.279  26.500  1.00  0.00     0.042 C 
BRANCH  27  28
ATOM     28  C   UNL A   1      32.607  32.818  27.202  1.00  0.00     0.118 C 
BRANCH  28  29
ATOM     29  N   UNL A   1      32.449  34.199  27.620  1.00  0.00    -0.352 N 
ATOM     30  C   UNL A   1      33.033  34.894  28.653  1.00  0.00     0.251 C 
ATOM     31  H   UNL A   1      31.821  34.725  27.074  1.00  0.00     0.163 HD
ATOM     32  O   UNL A   1      32.603  36.012  28.929  1.00  0.00    -0.269 OA
BRANCH  30  33
ATOM     33  C   UNL A   1      34.155  34.330  29.449  1.00  0.00     0.039 A 
ATOM     34  C   UNL A   1      35.455  34.445  28.941  1.00  0.00     0.014 A 
ATOM     35  C   UNL A   1      33.952  33.626  30.638  1.00  0.00     0.014 A 
ATOM     36  C   UNL A   1      36.536  33.883  29.628  1.00  0.00     0.010 A 
ATOM     37  C   UNL A   1      35.040  33.152  31.374  1.00  0.00     0.010 A 
ATOM     38  C   UNL A   1      36.342  33.243  30.860  1.00  0.00    -0.014 A 
BRANCH  38  39
ATOM     39  C   UNL A   1      37.470  32.597  31.584  1.00  0.00     0.031 A 
ATOM     40  C   UNL A   1      38.200  31.438  30.954  1.00  0.00     0.074 A 
ATOM     41  C   UNL A   1      37.821  33.020  32.813  1.00  0.00     0.049 A 
ATOM     42  N   UNL A   1      39.174  30.705  31.437  1.00  0.00    -0.248 NA
ATOM     43  C   UNL A   1      37.757  31.026  29.613  1.00  0.00     0.031 C 
ATOM     44  C   UNL A   1      37.169  34.100  33.555  1.00  0.00     0.029 A 
ATOM     45  N   UNL A   1      38.812  32.587  33.660  1.00  0.00    -0.354 N 
ATOM     46  C   UNL A   1      39.436  29.739  30.474  1.00  0.00     0.074 A 
ATOM     47  C   UNL A   1      38.483  29.940  29.405  1.00  0.00     0.031 C 
ATOM     48  C   UNL A   1      37.794  34.264  34.732  1.00  0.00     0.029 A 
ATOM     49  C   UNL A   1      38.869  33.282  34.844  1.00  0.00     0.049 A 
ATOM     50  H   UNL A   1      39.424  31.848  33.438  1.00  0.00     0.167 HD
ATOM     51  C   UNL A   1      40.401  28.788  30.466  1.00  0.00     0.037 A 
ATOM     52  C   UNL A   1      39.695  33.142  35.898  1.00  0.00     0.037 A 
ATOM     53  C   UNL A   1      41.377  28.617  31.507  1.00  0.00     0.049 A 
ATOM     54  C   UNL A   1      40.774  32.094  35.855  1.00  0.00     0.074 A 
ATOM     55  C   UNL A   1      42.432  27.723  31.564  1.00  0.00     0.029 A 
ATOM     56  N   UNL A   1      41.421  29.365  32.675  1.00  0.00    -0.354 N 
ATOM     57  N   UNL A   1      41.051  31.228  34.910  1.00  0.00    -0.248 NA
ATOM     58  C   UNL A   1      41.666  32.012  37.021  1.00  0.00     0.031 C 
ATOM     59  C   UNL A   1      43.093  27.905  32.784  1.00  0.00     0.029 A 
ATOM     60  C   UNL A   1      42.478  28.944  33.465  1.00  0.00     0.049 A 
ATOM     61  H   UNL A   1      40.794  30.087  32.907  1.00  0.00     0.167 HD
ATOM     62  C   UNL A   1      42.164  30.522  35.351  1.00  0.00     0.074 A 
ATOM     63  C   UNL A   1      42.520  31.071  36.643  1.00  0.00     0.031 C 
ATOM     64  C   UNL A   1      42.830  29.513  34.741  1.00  0.00     0.037 A 
BRANCH  51  65
ATOM     65  C   UNL A   1      40.452  27.864  29.282  1.00  0.00     0.064 A 
ATOM     66  C   UNL A   1      41.311  28.103  28.198  1.00  0.00     0.173 A 
ATOM     67  C   UNL A   1      39.654  26.711  29.242  1.00  0.00     0.173 A 
ATOM     68  F   UNL A   1      42.087  29.197  28.179  1.00  0.00    -0.203 F 
ATOM     69  C   UNL A   1      41.342  27.242  27.103  1.00  0.00     0.198 A 
ATOM     70  C   UNL A   1      39.711  25.835  28.161  1.00  0.00     0.198 A 
ATOM     71  F   UNL A   1      38.820  26.429  30.255  1.00  0.00    -0.203 F 
ATOM     72  F   UNL A   1      42.129  27.523  26.055  1.00  0.00    -0.200 F 
ATOM     73  C   UNL A   1      40.547  26.107  27.089  1.00  0.00     0.200 A 
ATOM     74  F   UNL A   1      38.953  24.730  28.154  1.00  0.00    -0.200 F 
ATOM     75  F   UNL A   1      40.582  25.276  26.037  1.00  0.00    -0.200 F 
ENDBRANCH  51  65
BRANCH  52  76
ATOM     76  C   UNL A   1      39.561  34.046  37.071  1.00  0.00     0.064 A 
ATOM     77  C   UNL A   1      40.225  35.281  37.105  1.00  0.00     0.173 A 
ATOM     78  C   UNL A   1      38.778  33.695  38.180  1.00  0.00     0.173 A 
ATOM     79  F   UNL A   1      41.004  35.650  36.078  1.00  0.00    -0.203 F 
ATOM     80  C   UNL A   1      40.126  36.120  38.212  1.00  0.00     0.198 A 
ATOM     81  C   UNL A   1      38.659  34.548  39.275  1.00  0.00     0.198 A 
ATOM     82  F   UNL A   1      38.121  32.527  38.194  1.00  0.00    -0.203 F 
ATOM     83  F   UNL A   1      40.808  37.274  38.238  1.00  0.00    -0.200 F 
ATOM     84  C   UNL A   1      39.339  35.756  39.293  1.00  0.00     0.200 A 
ATOM     85  F   UNL A   1      37.886  34.198  40.312  1.00  0.00    -0.200 F 
ATOM     86  F   UNL A   1      39.242  36.566  40.356  1.00  0.00    -0.200 F 
ENDBRANCH  52  76
BRANCH  64  87
ATOM     87  C   UNL A   1      44.040  28.964  35.439  1.00  0.00     0.064 A 
ATOM     88  C   UNL A   1      43.950  27.896  36.343  1.00  0.00     0.173 A 
ATOM     89  C   UNL A   1      45.312  29.491  35.165  1.00  0.00     0.173 A 
ATOM     90  F   UNL A   1      42.754  27.369  36.647  1.00  0.00    -0.203 F 
ATOM     91  C   UNL A   1      45.087  27.392  36.969  1.00  0.00     0.198 A 
ATOM     92  C   UNL A   1      46.449  28.964  35.771  1.00  0.00     0.198 A 
ATOM     93  F   UNL A   1      45.453  30.507  34.302  1.00  0.00    -0.203 F 
ATOM     94  F   UNL A   1      44.972  26.403  37.865  1.00  0.00    -0.200 F 
ATOM     95  C   UNL A   1      46.335  27.921  36.677  1.00  0.00     0.200 A 
ATOM     96  F   UNL A   1      47.657  29.468  35.479  1.00  0.00    -0.200 F 
ATOM     97  F   UNL A   1      47.428  27.430  37.277  1.00  0.00    -0.200 F 
ENDBRANCH  64  87
ENDBRANCH  38  39
ENDBRANCH  30  33
ENDBRANCH  28  29
ENDBRANCH  27  28
ENDBRANCH   1  27
TORSDOF 16
ENDMDL
MODEL 3
REMARK VINA RESULT:     -12.3      1.964      3.131
REMARK SMILES CCC[C@@H](C(=O)NCCCNC(=O)c1ccc(-c2c3nc(c(-c4c(F)c(F)c(F)c(F)c4F)c4ccc([nH]4)c(-c4c(F)c(F)c(F)c(F)c4F)c4nc(c(-c5c(F)c(F)c(F)c(F)c5F)c5ccc2[nH]5)C=C4)C=C3)cc1)n1nc(/C=C/c2ccc(OC)cc2)ccc1=O
REMARK SMILES IDX 8 1 7 2 5 3 6 4 4 6 3 7 2 8 1 9 77 10 78 11 92 12 79 13
REMARK SMILES IDX 91 14 93 15 90 16 80 17 81 18 82 19 83 20 89 21 84 22 88 23
REMARK SMILES IDX 85 24 86 25 87 26 9 27 10 28 11 29 12 30 13 32 14 33 15 34
REMARK SMILES IDX 76 35 16 36 75 37 17 38 18 39 19 40 69 41 20 42 74 43 68 44
REMARK SMILES IDX 70 45 21 46 73 47 67 48 66 49 22 51 54 52 34 53 53 54 35 55
REMARK SMILES IDX 38 56 52 57 71 58 36 59 37 60 51 62 72 63 39 64 23 65 24 66
REMARK SMILES IDX 32 67 25 68 26 69 30 70 33 71 27 72 28 73 31 74 29 75 55 76
REMARK SMILES IDX 56 77 64 78 57 79 58 80 62 81 65 82 59 83 60 84 63 85 61 86
REMARK SMILES IDX 40 87 41 88 49 89 42 90 43 91 47 92 50 93 44 94 45 95 48 96
REMARK SMILES IDX 46 97
REMARK H PARENT 7 5 11 31 70 50 38 61
REMARK Flexibility Score: inf
ROOT
ATOM      1  C   UNL A   1      32.469  27.618  27.120  1.00  0.00     0.117 C 
ENDROOT
BRANCH   1   2
ATOM      2  N   UNL A   1      31.397  26.643  27.018  1.00  0.00    -0.354 N 
ATOM      3  C   UNL A   1      30.677  26.206  25.939  1.00  0.00     0.245 C 
ATOM      4  O   UNL A   1      29.657  25.559  26.206  1.00  0.00    -0.273 OA
ATOM      5  H   UNL A   1      31.145  26.226  27.873  1.00  0.00     0.163 HD
BRANCH   3   6
ATOM      6  C   UNL A   1      31.129  26.501  24.483  1.00  0.00     0.200 C 
BRANCH   6   7
ATOM      7  C   UNL A   1      29.951  26.736  23.504  1.00  0.00     0.037 C 
BRANCH   7   8
ATOM      8  C   UNL A   1      29.523  28.150  23.127  1.00  0.00    -0.001 C 
ATOM      9  C   UNL A   1      30.528  29.243  23.433  1.00  0.00     0.004 C 
ENDBRANCH   7   8
ENDBRANCH   6   7
BRANCH   6  10
ATOM     10  N   UNL A   1      31.985  25.334  24.072  1.00  0.00    -0.217 N 
ATOM     11  N   UNL A   1      33.285  25.315  24.607  1.00  0.00    -0.170 NA
ATOM     12  C   UNL A   1      31.437  24.216  23.437  1.00  0.00     0.267 A 
ATOM     13  C   UNL A   1      34.031  24.274  24.365  1.00  0.00     0.084 A 
ATOM     14  C   UNL A   1      32.388  23.179  23.016  1.00  0.00     0.075 A 
ATOM     15  O   UNL A   1      30.262  24.038  23.125  1.00  0.00    -0.268 OA
ATOM     16  C   UNL A   1      33.649  23.193  23.436  1.00  0.00     0.036 A 
BRANCH  13  17
ATOM     17  C   UNL A   1      35.329  24.101  25.104  1.00  0.00     0.031 C 
ATOM     18  C   UNL A   1      36.433  23.507  24.615  1.00  0.00     0.010 C 
BRANCH  18  19
ATOM     19  C   UNL A   1      37.644  23.184  25.382  1.00  0.00    -0.025 A 
ATOM     20  C   UNL A   1      38.160  21.885  25.313  1.00  0.00     0.012 A 
ATOM     21  C   UNL A   1      38.206  24.084  26.294  1.00  0.00     0.012 A 
ATOM     22  C   UNL A   1      39.231  21.504  26.127  1.00  0.00     0.047 A 
ATOM     23  C   UNL A   1      39.277  23.697  27.113  1.00  0.00     0.047 A 
ATOM     24  C   UNL A   1      39.797  22.406  27.029  1.00  0.00     0.118 A 
BRANCH  24  25
ATOM     25  O   UNL A   1      40.828  21.899  27.771  1.00  0.00    -0.497 OA
ATOM     26  C   UNL A   1      41.154  20.531  27.569  1.00  0.00     0.278 C 
ENDBRANCH  24  25
ENDBRANCH  18  19
ENDBRANCH  13  17
ENDBRANCH   6  10
ENDBRANCH   3   6
ENDBRANCH   1   2
BRANCH   1  27
ATOM     27  C   UNL A   1      31.938  29.022  26.831  1.00  0.00     0.042 C 
BRANCH  27  28
ATOM     28  C   UNL A   1      32.917  29.929  26.104  1.00  0.00     0.118 C 
BRANCH  28  29
ATOM     29  N   UNL A   1      32.751  31.326  26.462  1.00  0.00    -0.352 N 
ATOM     30  C   UNL A   1      33.446  32.111  27.350  1.00  0.00     0.251 C 
ATOM     31  H   UNL A   1      32.020  31.787  25.990  1.00  0.00     0.163 HD
ATOM     32  O   UNL A   1      33.004  33.224  27.625  1.00  0.00    -0.269 OA
BRANCH  30  33
ATOM     33  C   UNL A   1      34.704  31.650  27.994  1.00  0.00     0.039 A 
ATOM     34  C   UNL A   1      34.761  30.338  28.480  1.00  0.00     0.014 A 
ATOM     35  C   UNL A   1      35.795  32.497  28.202  1.00  0.00     0.014 A 
ATOM     36  C   UNL A   1      35.903  29.876  29.142  1.00  0.00     0.010 A 
ATOM     37  C   UNL A   1      36.972  32.008  28.773  1.00  0.00     0.010 A 
ATOM     38  C   UNL A   1      37.028  30.702  29.282  1.00  0.00    -0.014 A 
BRANCH  38  39
ATOM     39  C   UNL A   1      38.235  30.248  30.024  1.00  0.00     0.031 A 
ATOM     40  C   UNL A   1      38.433  30.661  31.460  1.00  0.00     0.074 A 
ATOM     41  C   UNL A   1      39.169  29.498  29.409  1.00  0.00     0.049 A 
ATOM     42  N   UNL A   1      39.437  30.416  32.267  1.00  0.00    -0.248 NA
ATOM     43  C   UNL A   1      37.376  31.488  32.063  1.00  0.00     0.031 C 
ATOM     44  C   UNL A   1      39.122  29.066  28.012  1.00  0.00     0.029 A 
ATOM     45  N   UNL A   1      40.345  28.968  29.881  1.00  0.00    -0.354 N 
ATOM     46  C   UNL A   1      39.142  31.076  33.452  1.00  0.00     0.074 A 
ATOM     47  C   UNL A   1      37.896  31.781  33.245  1.00  0.00     0.031 C 
ATOM     48  C   UNL A   1      40.204  28.315  27.748  1.00  0.00     0.029 A 
ATOM     49  C   UNL A   1      41.037  28.239  28.945  1.00  0.00     0.049 A 
ATOM     50  H   UNL A   1      40.662  29.099  30.804  1.00  0.00     0.167 HD
ATOM     51  C   UNL A   1      39.830  31.075  34.620  1.00  0.00     0.037 A 
ATOM     52  C   UNL A   1      42.209  27.582  29.043  1.00  0.00     0.037 A 
ATOM     53  C   UNL A   1      41.045  30.338  34.842  1.00  0.00     0.049 A 
ATOM     54  C   UNL A   1      42.942  27.576  30.357  1.00  0.00     0.074 A 
ATOM     55  C   UNL A   1      41.785  30.224  36.005  1.00  0.00     0.029 A 
ATOM     56  N   UNL A   1      41.695  29.584  33.876  1.00  0.00    -0.354 N 
ATOM     57  N   UNL A   1      42.619  28.153  31.489  1.00  0.00    -0.248 NA
ATOM     58  C   UNL A   1      44.199  26.814  30.410  1.00  0.00     0.031 C 
ATOM     59  C   UNL A   1      42.904  29.429  35.734  1.00  0.00     0.029 A 
ATOM     60  C   UNL A   1      42.835  29.010  34.415  1.00  0.00     0.049 A 
ATOM     61  H   UNL A   1      41.391  29.473  32.947  1.00  0.00     0.167 HD
ATOM     62  C   UNL A   1      43.611  27.799  32.395  1.00  0.00     0.074 A 
ATOM     63  C   UNL A   1      44.541  26.946  31.684  1.00  0.00     0.031 C 
ATOM     64  C   UNL A   1      43.740  28.149  33.698  1.00  0.00     0.037 A 
BRANCH  51  65
ATOM     65  C   UNL A   1      39.273  31.890  35.753  1.00  0.00     0.064 A 
ATOM     66  C   UNL A   1      38.373  31.343  36.681  1.00  0.00     0.173 A 
ATOM     67  C   UNL A   1      39.664  33.225  35.930  1.00  0.00     0.173 A 
ATOM     68  F   UNL A   1      37.957  30.074  36.552  1.00  0.00    -0.203 F 
ATOM     69  C   UNL A   1      37.860  32.112  37.722  1.00  0.00     0.198 A 
ATOM     70  C   UNL A   1      39.174  33.983  36.991  1.00  0.00     0.198 A 
ATOM     71  F   UNL A   1      40.528  33.797  35.077  1.00  0.00    -0.203 F 
ATOM     72  F   UNL A   1      36.958  31.584  38.561  1.00  0.00    -0.200 F 
ATOM     73  C   UNL A   1      38.264  33.429  37.879  1.00  0.00     0.200 A 
ATOM     74  F   UNL A   1      39.575  35.251  37.150  1.00  0.00    -0.200 F 
ATOM     75  F   UNL A   1      37.772  34.167  38.884  1.00  0.00    -0.200 F 
ENDBRANCH  51  65
BRANCH  52  76
ATOM     76  C   UNL A   1      42.744  26.841  27.871  1.00  0.00     0.064 A 
ATOM     77  C   UNL A   1      42.551  25.457  27.746  1.00  0.00     0.173 A 
ATOM     78  C   UNL A   1      43.463  27.492  26.858  1.00  0.00     0.173 A 
ATOM     79  F   UNL A   1      41.889  24.786  28.701  1.00  0.00    -0.203 F 
ATOM     80  C   UNL A   1      43.073  24.751  26.666  1.00  0.00     0.198 A 
ATOM     81  C   UNL A   1      43.961  26.789  25.763  1.00  0.00     0.198 A 
ATOM     82  F   UNL A   1      43.671  28.815  26.928  1.00  0.00    -0.203 F 
ATOM     83  F   UNL A   1      42.913  23.423  26.596  1.00  0.00    -0.200 F 
ATOM     84  C   UNL A   1      43.773  25.419  25.672  1.00  0.00     0.200 A 
ATOM     85  F   UNL A   1      44.625  27.440  24.798  1.00  0.00    -0.200 F 
ATOM     86  F   UNL A   1      44.272  24.739  24.630  1.00  0.00    -0.200 F 
ENDBRANCH  52  76
BRANCH  64  87
ATOM     87  C   UNL A   1      44.901  27.573  34.455  1.00  0.00     0.064 A 
ATOM     88  C   UNL A   1      44.801  26.359  35.148  1.00  0.00     0.173 A 
ATOM     89  C   UNL A   1      46.142  28.229  34.448  1.00  0.00     0.173 A 
ATOM     90  F   UNL A   1      43.632  25.702  35.194  1.00  0.00    -0.203 F 
ATOM     91  C   UNL A   1      45.896  25.835  35.832  1.00  0.00     0.198 A 
ATOM     92  C   UNL A   1      47.241  27.686  35.109  1.00  0.00     0.198 A 
ATOM     93  F   UNL A   1      46.292  29.389  33.792  1.00  0.00    -0.203 F 
ATOM     94  F   UNL A   1      45.765  24.697  36.527  1.00  0.00    -0.200 F 
ATOM     95  C   UNL A   1      47.115  26.494  35.805  1.00  0.00     0.200 A 
ATOM     96  F   UNL A   1      48.423  28.318  35.071  1.00  0.00    -0.200 F 
ATOM     97  F   UNL A   1      48.168  25.984  36.458  1.00  0.00    -0.200 F 
ENDBRANCH  64  87
ENDBRANCH  38  39
ENDBRANCH  30  33
ENDBRANCH  28  29
ENDBRANCH  27  28
ENDBRANCH   1  27
TORSDOF 16
ENDMDL
