MODEL 1
REMARK VINA RESULT:     -14.6      0.000      0.000
REMARK SMILES Cc1ccc(CCC(=O)N2CCC3(CC2)[C@H](C(=O)NCCCNC(=O)c2ccc(-c4c5nc(c(-c6c(F)c(F)c(F)c(F)c6F)c6ccc([nH]6)c(-c6c(F)c(F)c(F)c(F)c6F)c6nc(c(-c7c(F)c(F)c(F)c(F)c7F)c7ccc4[nH]7)C=C6)C=C5)cc2)CC(=O)N3C)cc1
REMARK SMILES IDX 20 1 19 2 17 3 18 4 16 6 8 7 9 8 10 9 11 10 15 11 12 12
REMARK SMILES IDX 14 13 13 14 92 15 89 16 90 17 93 18 91 19 7 20 6 21 5 22
REMARK SMILES IDX 1 23 2 24 3 25 95 26 4 27 94 28 21 29 22 30 23 31 24 32
REMARK SMILES IDX 25 34 26 35 27 36 88 37 28 38 87 39 29 40 30 41 31 42 81 43
REMARK SMILES IDX 32 44 86 45 80 46 82 47 33 48 85 49 79 50 78 51 34 53 66 54
REMARK SMILES IDX 46 55 65 56 47 57 50 58 64 59 83 60 48 61 49 62 63 64 84 65
REMARK SMILES IDX 51 66 35 67 36 68 44 69 37 70 38 71 42 72 45 73 39 74 40 75
REMARK SMILES IDX 43 76 41 77 67 78 68 79 76 80 69 81 70 82 74 83 77 84 71 85
REMARK SMILES IDX 72 86 75 87 73 88 52 89 53 90 61 91 54 92 55 93 59 94 62 95
REMARK SMILES IDX 56 96 57 97 60 98 58 99
REMARK H PARENT 19 5 23 33 82 52 50 63
REMARK Flexibility Score: inf
ROOT
ATOM      1  C   UNL A   1      33.998  29.511  27.469  1.00  0.00     0.117 C 
ENDROOT
BRANCH   1   2
ATOM      2  N   UNL A   1      32.748  28.782  27.633  1.00  0.00    -0.356 N 
ATOM      3  C   UNL A   1      31.966  28.039  26.809  1.00  0.00     0.226 C 
ATOM      4  O   UNL A   1      31.062  27.405  27.368  1.00  0.00    -0.275 OA
ATOM      5  H   UNL A   1      32.387  28.843  28.546  1.00  0.00     0.163 HD
BRANCH   3   6
ATOM      6  C   UNL A   1      32.063  27.976  25.283  1.00  0.00     0.113 C 
ATOM      7  C   UNL A   1      32.414  22.942  23.718  1.00  0.00     0.222 C 
ATOM      8  O   UNL A   1      32.156  21.916  24.353  1.00  0.00    -0.275 OA
ATOM      9  N   UNL A   1      31.572  24.038  23.779  1.00  0.00    -0.343 N 
ATOM     10  C   UNL A   1      30.713  24.274  24.924  1.00  0.00     0.122 C 
ATOM     11  C   UNL A   1      31.461  25.064  22.781  1.00  0.00     0.122 C 
ATOM     12  C   UNL A   1      31.067  25.631  25.550  1.00  0.00     0.051 C 
ATOM     13  C   UNL A   1      32.032  26.367  23.314  1.00  0.00     0.051 C 
ATOM     14  C   UNL A   1      31.265  26.841  24.576  1.00  0.00     0.058 C 
ATOM     15  N   UNL A   1      30.075  27.592  24.132  1.00  0.00    -0.339 N 
ATOM     16  C   UNL A   1      31.676  29.268  24.583  1.00  0.00     0.116 C 
ATOM     17  C   UNL A   1      30.320  28.962  24.017  1.00  0.00     0.223 C 
ATOM     18  C   UNL A   1      28.896  27.027  23.503  1.00  0.00     0.147 C 
ATOM     19  O   UNL A   1      29.573  29.792  23.525  1.00  0.00    -0.275 OA
BRANCH   7  20
ATOM     20  C   UNL A   1      33.796  23.086  23.055  1.00  0.00     0.105 C 
BRANCH  20  21
ATOM     21  C   UNL A   1      34.884  23.998  23.654  1.00  0.00     0.045 C 
BRANCH  21  22
ATOM     22  C   UNL A   1      35.877  23.286  24.561  1.00  0.00    -0.047 A 
ATOM     23  C   UNL A   1      39.530  21.658  26.127  1.00  0.00     0.044 C 
ATOM     24  C   UNL A   1      38.171  22.146  25.721  1.00  0.00    -0.051 A 
ATOM     25  C   UNL A   1      37.351  21.382  24.886  1.00  0.00     0.004 A 
ATOM     26  C   UNL A   1      37.745  23.423  26.103  1.00  0.00     0.004 A 
ATOM     27  C   UNL A   1      36.190  21.935  24.337  1.00  0.00     0.004 A 
ATOM     28  C   UNL A   1      36.600  23.985  25.535  1.00  0.00     0.004 A 
ENDBRANCH  21  22
ENDBRANCH  20  21
ENDBRANCH   7  20
ENDBRANCH   3   6
ENDBRANCH   1   2
BRANCH   1  29
ATOM     29  C   UNL A   1      33.882  31.032  27.483  1.00  0.00     0.042 C 
BRANCH  29  30
ATOM     30  C   UNL A   1      35.129  31.770  27.944  1.00  0.00     0.118 C 
BRANCH  30  31
ATOM     31  N   UNL A   1      35.212  31.878  29.397  1.00  0.00    -0.352 N 
ATOM     32  C   UNL A   1      35.960  31.109  30.272  1.00  0.00     0.251 C 
ATOM     33  H   UNL A   1      34.669  32.588  29.807  1.00  0.00     0.163 HD
ATOM     34  O   UNL A   1      35.991  31.353  31.473  1.00  0.00    -0.269 OA
BRANCH  32  35
ATOM     35  C   UNL A   1      36.820  30.063  29.694  1.00  0.00     0.039 A 
ATOM     36  C   UNL A   1      37.072  28.935  30.477  1.00  0.00     0.014 A 
ATOM     37  C   UNL A   1      37.577  30.346  28.557  1.00  0.00     0.014 A 
ATOM     38  C   UNL A   1      38.240  28.214  30.256  1.00  0.00     0.010 A 
ATOM     39  C   UNL A   1      38.772  29.676  28.383  1.00  0.00     0.010 A 
ATOM     40  C   UNL A   1      39.134  28.661  29.278  1.00  0.00    -0.014 A 
BRANCH  40  41
ATOM     41  C   UNL A   1      40.511  28.194  29.225  1.00  0.00     0.031 A 
ATOM     42  C   UNL A   1      40.830  26.866  28.673  1.00  0.00     0.074 A 
ATOM     43  C   UNL A   1      41.512  28.972  29.701  1.00  0.00     0.049 A 
ATOM     44  N   UNL A   1      41.808  26.135  29.094  1.00  0.00    -0.248 NA
ATOM     45  C   UNL A   1      40.041  26.237  27.621  1.00  0.00     0.031 C 
ATOM     46  C   UNL A   1      42.947  28.740  29.560  1.00  0.00     0.029 A 
ATOM     47  N   UNL A   1      41.417  30.047  30.602  1.00  0.00    -0.354 N 
ATOM     48  C   UNL A   1      41.946  25.092  28.214  1.00  0.00     0.074 A 
ATOM     49  C   UNL A   1      40.781  25.154  27.359  1.00  0.00     0.031 C 
ATOM     50  C   UNL A   1      43.587  29.394  30.540  1.00  0.00     0.029 A 
ATOM     51  C   UNL A   1      42.574  29.964  31.411  1.00  0.00     0.049 A 
ATOM     52  H   UNL A   1      40.697  30.717  30.660  1.00  0.00     0.167 HD
ATOM     53  C   UNL A   1      43.097  24.364  28.198  1.00  0.00     0.037 A 
ATOM     54  C   UNL A   1      42.515  29.797  32.762  1.00  0.00     0.037 A 
ATOM     55  C   UNL A   1      44.058  24.838  29.184  1.00  0.00     0.049 A 
ATOM     56  C   UNL A   1      43.274  28.595  33.266  1.00  0.00     0.074 A 
ATOM     57  C   UNL A   1      45.138  25.700  29.087  1.00  0.00     0.029 A 
ATOM     58  N   UNL A   1      43.793  24.692  30.540  1.00  0.00    -0.354 N 
ATOM     59  N   UNL A   1      43.586  27.575  32.519  1.00  0.00    -0.248 NA
ATOM     60  C   UNL A   1      43.705  28.431  34.651  1.00  0.00     0.031 C 
ATOM     61  C   UNL A   1      45.522  26.081  30.393  1.00  0.00     0.029 A 
ATOM     62  C   UNL A   1      44.678  25.444  31.287  1.00  0.00     0.049 A 
ATOM     63  H   UNL A   1      43.075  24.131  30.915  1.00  0.00     0.167 HD
ATOM     64  C   UNL A   1      44.228  26.630  33.282  1.00  0.00     0.074 A 
ATOM     65  C   UNL A   1      44.292  27.221  34.604  1.00  0.00     0.031 C 
ATOM     66  C   UNL A   1      44.639  25.444  32.740  1.00  0.00     0.037 A 
BRANCH  53  67
ATOM     67  C   UNL A   1      43.435  23.442  27.057  1.00  0.00     0.064 A 
ATOM     68  C   UNL A   1      43.019  22.095  27.049  1.00  0.00     0.173 A 
ATOM     69  C   UNL A   1      44.231  23.833  25.965  1.00  0.00     0.173 A 
ATOM     70  F   UNL A   1      42.186  21.611  27.978  1.00  0.00    -0.203 F 
ATOM     71  C   UNL A   1      43.465  21.183  26.092  1.00  0.00     0.198 A 
ATOM     72  C   UNL A   1      44.718  22.910  25.035  1.00  0.00     0.198 A 
ATOM     73  F   UNL A   1      44.548  25.122  25.776  1.00  0.00    -0.203 F 
ATOM     74  F   UNL A   1      43.053  19.908  26.146  1.00  0.00    -0.200 F 
ATOM     75  C   UNL A   1      44.346  21.582  25.108  1.00  0.00     0.200 A 
ATOM     76  F   UNL A   1      45.566  23.313  24.078  1.00  0.00    -0.200 F 
ATOM     77  F   UNL A   1      44.824  20.692  24.227  1.00  0.00    -0.200 F 
ENDBRANCH  53  67
BRANCH  54  78
ATOM     78  C   UNL A   1      41.278  30.341  33.373  1.00  0.00     0.064 A 
ATOM     79  C   UNL A   1      41.199  31.729  33.600  1.00  0.00     0.173 A 
ATOM     80  C   UNL A   1      40.082  29.614  33.382  1.00  0.00     0.173 A 
ATOM     81  F   UNL A   1      42.316  32.474  33.595  1.00  0.00    -0.203 F 
ATOM     82  C   UNL A   1      39.971  32.375  33.711  1.00  0.00     0.198 A 
ATOM     83  C   UNL A   1      38.854  30.264  33.509  1.00  0.00     0.198 A 
ATOM     84  F   UNL A   1      40.091  28.293  33.154  1.00  0.00    -0.203 F 
ATOM     85  F   UNL A   1      39.926  33.713  33.802  1.00  0.00    -0.200 F 
ATOM     86  C   UNL A   1      38.798  31.645  33.638  1.00  0.00     0.200 A 
ATOM     87  F   UNL A   1      37.716  29.561  33.413  1.00  0.00    -0.200 F 
ATOM     88  F   UNL A   1      37.615  32.275  33.650  1.00  0.00    -0.200 F 
ENDBRANCH  54  78
BRANCH  66  89
ATOM     89  C   UNL A   1      45.150  24.220  33.474  1.00  0.00     0.064 A 
ATOM     90  C   UNL A   1      44.388  23.068  33.727  1.00  0.00     0.173 A 
ATOM     91  C   UNL A   1      46.521  24.124  33.833  1.00  0.00     0.173 A 
ATOM     92  F   UNL A   1      43.113  22.971  33.334  1.00  0.00    -0.203 F 
ATOM     93  C   UNL A   1      44.936  21.937  34.344  1.00  0.00     0.198 A 
ATOM     94  C   UNL A   1      47.076  22.974  34.392  1.00  0.00     0.198 A 
ATOM     95  F   UNL A   1      47.378  25.135  33.628  1.00  0.00    -0.203 F 
ATOM     96  F   UNL A   1      44.152  20.880  34.599  1.00  0.00    -0.200 F 
ATOM     97  C   UNL A   1      46.279  21.884  34.663  1.00  0.00     0.200 A 
ATOM     98  F   UNL A   1      48.391  22.925  34.645  1.00  0.00    -0.200 F 
ATOM     99  F   UNL A   1      46.807  20.780  35.207  1.00  0.00    -0.200 F 
ENDBRANCH  66  89
ENDBRANCH  40  41
ENDBRANCH  32  35
ENDBRANCH  30  31
ENDBRANCH  29  30
ENDBRANCH   1  29
TORSDOF 13
ENDMDL
MODEL 2
REMARK VINA RESULT:     -14.5      0.973      1.598
REMARK SMILES Cc1ccc(CCC(=O)N2CCC3(CC2)[C@H](C(=O)NCCCNC(=O)c2ccc(-c4c5nc(c(-c6c(F)c(F)c(F)c(F)c6F)c6ccc([nH]6)c(-c6c(F)c(F)c(F)c(F)c6F)c6nc(c(-c7c(F)c(F)c(F)c(F)c7F)c7ccc4[nH]7)C=C6)C=C5)cc2)CC(=O)N3C)cc1
REMARK SMILES IDX 20 1 19 2 17 3 18 4 16 6 8 7 9 8 10 9 11 10 15 11 12 12
REMARK SMILES IDX 14 13 13 14 92 15 89 16 90 17 93 18 91 19 7 20 6 21 5 22
REMARK SMILES IDX 1 23 2 24 3 25 95 26 4 27 94 28 21 29 22 30 23 31 24 32
REMARK SMILES IDX 25 34 26 35 27 36 88 37 28 38 87 39 29 40 30 41 31 42 81 43
REMARK SMILES IDX 32 44 86 45 80 46 82 47 33 48 85 49 79 50 78 51 34 53 66 54
REMARK SMILES IDX 46 55 65 56 47 57 50 58 64 59 83 60 48 61 49 62 63 64 84 65
REMARK SMILES IDX 51 66 35 67 36 68 44 69 37 70 38 71 42 72 45 73 39 74 40 75
REMARK SMILES IDX 43 76 41 77 67 78 68 79 76 80 69 81 70 82 74 83 77 84 71 85
REMARK SMILES IDX 72 86 75 87 73 88 52 89 53 90 61 91 54 92 55 93 59 94 62 95
REMARK SMILES IDX 56 96 57 97 60 98 58 99
REMARK H PARENT 19 5 23 33 82 52 50 63
REMARK Flexibility Score: inf
ROOT
ATOM      1  C   UNL A   1      33.786  28.982  26.429  1.00  0.00     0.117 C 
ENDROOT
BRANCH   1   2
ATOM      2  N   UNL A   1      32.694  29.843  25.994  1.00  0.00    -0.356 N 
ATOM      3  C   UNL A   1      31.700  29.727  25.078  1.00  0.00     0.226 C 
ATOM      4  O   UNL A   1      30.829  30.605  25.128  1.00  0.00    -0.275 OA
ATOM      5  H   UNL A   1      32.674  30.704  26.470  1.00  0.00     0.163 HD
BRANCH   3   6
ATOM      6  C   UNL A   1      31.606  28.671  23.975  1.00  0.00     0.113 C 
ATOM      7  C   UNL A   1      31.957  23.840  26.086  1.00  0.00     0.222 C 
ATOM      8  O   UNL A   1      31.823  23.501  27.265  1.00  0.00    -0.275 OA
ATOM      9  N   UNL A   1      31.086  24.749  25.511  1.00  0.00    -0.343 N 
ATOM     10  C   UNL A   1      30.370  25.725  26.310  1.00  0.00     0.122 C 
ATOM     11  C   UNL A   1      30.809  24.869  24.108  1.00  0.00     0.122 C 
ATOM     12  C   UNL A   1      30.746  27.138  25.839  1.00  0.00     0.051 C 
ATOM     13  C   UNL A   1      31.390  26.168  23.577  1.00  0.00     0.051 C 
ATOM     14  C   UNL A   1      30.771  27.396  24.295  1.00  0.00     0.058 C 
ATOM     15  N   UNL A   1      29.505  27.731  23.614  1.00  0.00    -0.339 N 
ATOM     16  C   UNL A   1      31.081  29.202  22.651  1.00  0.00     0.116 C 
ATOM     17  C   UNL A   1      29.679  28.672  22.596  1.00  0.00     0.223 C 
ATOM     18  C   UNL A   1      28.280  26.956  23.662  1.00  0.00     0.147 C 
ATOM     19  O   UNL A   1      28.842  29.012  21.776  1.00  0.00    -0.275 OA
BRANCH   7  20
ATOM     20  C   UNL A   1      33.237  23.439  25.331  1.00  0.00     0.105 C 
BRANCH  20  21
ATOM     21  C   UNL A   1      33.992  22.136  25.663  1.00  0.00     0.045 C 
BRANCH  21  22
ATOM     22  C   UNL A   1      35.496  22.206  25.450  1.00  0.00    -0.047 A 
ATOM     23  C   UNL A   1      39.730  21.972  26.139  1.00  0.00     0.044 C 
ATOM     24  C   UNL A   1      38.293  22.124  25.736  1.00  0.00    -0.051 A 
ATOM     25  C   UNL A   1      37.593  23.306  25.997  1.00  0.00     0.004 A 
ATOM     26  C   UNL A   1      37.608  21.042  25.172  1.00  0.00     0.004 A 
ATOM     27  C   UNL A   1      36.207  23.359  25.820  1.00  0.00     0.004 A 
ATOM     28  C   UNL A   1      36.220  21.086  25.020  1.00  0.00     0.004 A 
ENDBRANCH  21  22
ENDBRANCH  20  21
ENDBRANCH   7  20
ENDBRANCH   3   6
ENDBRANCH   1   2
BRANCH   1  29
ATOM     29  C   UNL A   1      34.501  29.417  27.704  1.00  0.00     0.042 C 
BRANCH  29  30
ATOM     30  C   UNL A   1      35.001  30.854  27.706  1.00  0.00     0.118 C 
BRANCH  30  31
ATOM     31  N   UNL A   1      35.312  31.338  29.047  1.00  0.00    -0.352 N 
ATOM     32  C   UNL A   1      36.306  30.903  29.907  1.00  0.00     0.251 C 
ATOM     33  H   UNL A   1      34.744  32.068  29.383  1.00  0.00     0.163 HD
ATOM     34  O   UNL A   1      36.502  31.448  30.987  1.00  0.00    -0.269 OA
BRANCH  32  35
ATOM     35  C   UNL A   1      37.205  29.842  29.424  1.00  0.00     0.039 A 
ATOM     36  C   UNL A   1      37.448  28.767  30.283  1.00  0.00     0.014 A 
ATOM     37  C   UNL A   1      37.999  30.070  28.300  1.00  0.00     0.014 A 
ATOM     38  C   UNL A   1      38.635  28.058  30.148  1.00  0.00     0.010 A 
ATOM     39  C   UNL A   1      39.211  29.415  28.211  1.00  0.00     0.010 A 
ATOM     40  C   UNL A   1      39.557  28.463  29.178  1.00  0.00    -0.014 A 
BRANCH  40  41
ATOM     41  C   UNL A   1      40.943  28.021  29.203  1.00  0.00     0.031 A 
ATOM     42  C   UNL A   1      41.320  26.710  28.647  1.00  0.00     0.074 A 
ATOM     43  C   UNL A   1      41.897  28.806  29.755  1.00  0.00     0.049 A 
ATOM     44  N   UNL A   1      42.283  25.987  29.115  1.00  0.00    -0.248 NA
ATOM     45  C   UNL A   1      40.610  26.088  27.536  1.00  0.00     0.031 C 
ATOM     46  C   UNL A   1      43.343  28.602  29.700  1.00  0.00     0.029 A 
ATOM     47  N   UNL A   1      41.727  29.862  30.668  1.00  0.00    -0.354 N 
ATOM     48  C   UNL A   1      42.495  24.964  28.227  1.00  0.00     0.074 A 
ATOM     49  C   UNL A   1      41.385  25.023  27.301  1.00  0.00     0.031 C 
ATOM     50  C   UNL A   1      43.908  29.248  30.731  1.00  0.00     0.029 A 
ATOM     51  C   UNL A   1      42.833  29.783  31.546  1.00  0.00     0.049 A 
ATOM     52  H   UNL A   1      40.993  30.518  30.692  1.00  0.00     0.167 HD
ATOM     53  C   UNL A   1      43.658  24.257  28.269  1.00  0.00     0.037 A 
ATOM     54  C   UNL A   1      42.693  29.588  32.888  1.00  0.00     0.037 A 
ATOM     55  C   UNL A   1      44.547  24.728  29.322  1.00  0.00     0.049 A 
ATOM     56  C   UNL A   1      43.440  28.390  33.416  1.00  0.00     0.074 A 
ATOM     57  C   UNL A   1      45.615  25.610  29.310  1.00  0.00     0.029 A 
ATOM     58  N   UNL A   1      44.200  24.550  30.656  1.00  0.00    -0.354 N 
ATOM     59  N   UNL A   1      43.817  27.390  32.672  1.00  0.00    -0.248 NA
ATOM     60  C   UNL A   1      43.786  28.206  34.822  1.00  0.00     0.031 C 
ATOM     61  C   UNL A   1      45.909  25.971  30.644  1.00  0.00     0.029 A 
ATOM     62  C   UNL A   1      45.023  25.303  31.471  1.00  0.00     0.049 A 
ATOM     63  H   UNL A   1      43.470  23.970  30.975  1.00  0.00     0.167 HD
ATOM     64  C   UNL A   1      44.427  26.441  33.456  1.00  0.00     0.074 A 
ATOM     65  C   UNL A   1      44.398  27.008  34.790  1.00  0.00     0.031 C 
ATOM     66  C   UNL A   1      44.894  25.273  32.918  1.00  0.00     0.037 A 
BRANCH  53  67
ATOM     67  C   UNL A   1      44.083  23.363  27.135  1.00  0.00     0.064 A 
ATOM     68  C   UNL A   1      45.064  23.767  26.206  1.00  0.00     0.173 A 
ATOM     69  C   UNL A   1      43.498  22.109  26.885  1.00  0.00     0.173 A 
ATOM     70  F   UNL A   1      45.765  24.895  26.369  1.00  0.00    -0.203 F 
ATOM     71  C   UNL A   1      45.346  23.031  25.053  1.00  0.00     0.198 A 
ATOM     72  C   UNL A   1      43.743  21.398  25.708  1.00  0.00     0.198 A 
ATOM     73  F   UNL A   1      42.677  21.546  27.784  1.00  0.00    -0.203 F 
ATOM     74  F   UNL A   1      46.274  23.475  24.194  1.00  0.00    -0.200 F 
ATOM     75  C   UNL A   1      44.657  21.867  24.785  1.00  0.00     0.200 A 
ATOM     76  F   UNL A   1      43.073  20.262  25.465  1.00  0.00    -0.200 F 
ATOM     77  F   UNL A   1      44.883  21.194  23.648  1.00  0.00    -0.200 F 
ENDBRANCH  53  67
BRANCH  54  78
ATOM     78  C   UNL A   1      41.410  30.099  33.430  1.00  0.00     0.064 A 
ATOM     79  C   UNL A   1      41.287  31.482  33.666  1.00  0.00     0.173 A 
ATOM     80  C   UNL A   1      40.232  29.346  33.360  1.00  0.00     0.173 A 
ATOM     81  F   UNL A   1      42.386  32.251  33.734  1.00  0.00    -0.203 F 
ATOM     82  C   UNL A   1      40.041  32.101  33.710  1.00  0.00     0.198 A 
ATOM     83  C   UNL A   1      38.984  29.969  33.420  1.00  0.00     0.198 A 
ATOM     84  F   UNL A   1      40.283  28.029  33.120  1.00  0.00    -0.203 F 
ATOM     85  F   UNL A   1      39.962  33.436  33.812  1.00  0.00    -0.200 F 
ATOM     86  C   UNL A   1      38.891  31.347  33.561  1.00  0.00     0.200 A 
ATOM     87  F   UNL A   1      37.869  29.243  33.251  1.00  0.00    -0.200 F 
ATOM     88  F   UNL A   1      37.696  31.951  33.508  1.00  0.00    -0.200 F 
ENDBRANCH  54  78
BRANCH  66  89
ATOM     89  C   UNL A   1      45.379  24.045  33.660  1.00  0.00     0.064 A 
ATOM     90  C   UNL A   1      44.620  22.880  33.856  1.00  0.00     0.173 A 
ATOM     91  C   UNL A   1      46.731  23.959  34.090  1.00  0.00     0.173 A 
ATOM     92  F   UNL A   1      43.368  22.775  33.395  1.00  0.00    -0.203 F 
ATOM     93  C   UNL A   1      45.148  21.746  34.485  1.00  0.00     0.198 A 
ATOM     94  C   UNL A   1      47.269  22.806  34.660  1.00  0.00     0.198 A 
ATOM     95  F   UNL A   1      47.586  24.982  33.944  1.00  0.00    -0.203 F 
ATOM     96  F   UNL A   1      44.365  20.676  34.682  1.00  0.00    -0.200 F 
ATOM     97  C   UNL A   1      46.473  21.703  34.873  1.00  0.00     0.200 A 
ATOM     98  F   UNL A   1      48.570  22.769  34.981  1.00  0.00    -0.200 F 
ATOM     99  F   UNL A   1      46.985  20.597  35.428  1.00  0.00    -0.200 F 
ENDBRANCH  66  89
ENDBRANCH  40  41
ENDBRANCH  32  35
ENDBRANCH  30  31
ENDBRANCH  29  30
ENDBRANCH   1  29
TORSDOF 13
ENDMDL
MODEL 3
REMARK VINA RESULT:     -14.5      4.023     10.289
REMARK SMILES Cc1ccc(CCC(=O)N2CCC3(CC2)[C@H](C(=O)NCCCNC(=O)c2ccc(-c4c5nc(c(-c6c(F)c(F)c(F)c(F)c6F)c6ccc([nH]6)c(-c6c(F)c(F)c(F)c(F)c6F)c6nc(c(-c7c(F)c(F)c(F)c(F)c7F)c7ccc4[nH]7)C=C6)C=C5)cc2)CC(=O)N3C)cc1
REMARK SMILES IDX 20 1 19 2 17 3 18 4 16 6 8 7 9 8 10 9 11 10 15 11 12 12
REMARK SMILES IDX 14 13 13 14 92 15 89 16 90 17 93 18 91 19 7 20 6 21 5 22
REMARK SMILES IDX 1 23 2 24 3 25 95 26 4 27 94 28 21 29 22 30 23 31 24 32
REMARK SMILES IDX 25 34 26 35 27 36 88 37 28 38 87 39 29 40 30 41 31 42 81 43
REMARK SMILES IDX 32 44 86 45 80 46 82 47 33 48 85 49 79 50 78 51 34 53 66 54
REMARK SMILES IDX 46 55 65 56 47 57 50 58 64 59 83 60 48 61 49 62 63 64 84 65
REMARK SMILES IDX 51 66 35 67 36 68 44 69 37 70 38 71 42 72 45 73 39 74 40 75
REMARK SMILES IDX 43 76 41 77 67 78 68 79 76 80 69 81 70 82 74 83 77 84 71 85
REMARK SMILES IDX 72 86 75 87 73 88 52 89 53 90 61 91 54 92 55 93 59 94 62 95
REMARK SMILES IDX 56 96 57 97 60 98 58 99
REMARK H PARENT 19 5 23 33 82 52 50 63
REMARK Flexibility Score: inf
ROOT
ATOM      1  C   UNL A   1      36.877  23.393  26.045  1.00  0.00     0.117 C 
ENDROOT
BRANCH   1   2
ATOM      2  N   UNL A   1      36.759  21.971  25.755  1.00  0.00    -0.356 N 
ATOM      3  C   UNL A   1      35.725  21.147  25.447  1.00  0.00     0.226 C 
ATOM      4  O   UNL A   1      36.047  20.012  25.071  1.00  0.00    -0.275 OA
ATOM      5  H   UNL A   1      37.622  21.500  25.793  1.00  0.00     0.163 HD
BRANCH   3   6
ATOM      6  C   UNL A   1      34.237  21.471  25.589  1.00  0.00     0.113 C 
ATOM      7  C   UNL A   1      33.069  25.787  22.774  1.00  0.00     0.222 C 
ATOM      8  O   UNL A   1      33.726  26.327  21.879  1.00  0.00    -0.275 OA
ATOM      9  N   UNL A   1      32.937  24.410  22.817  1.00  0.00    -0.343 N 
ATOM     10  C   UNL A   1      33.928  23.532  22.225  1.00  0.00     0.122 C 
ATOM     11  C   UNL A   1      31.868  23.693  23.453  1.00  0.00     0.122 C 
ATOM     12  C   UNL A   1      34.510  22.620  23.315  1.00  0.00     0.051 C 
ATOM     13  C   UNL A   1      32.393  22.970  24.682  1.00  0.00     0.051 C 
ATOM     14  C   UNL A   1      33.498  21.949  24.304  1.00  0.00     0.058 C 
ATOM     15  N   UNL A   1      32.839  20.693  23.896  1.00  0.00    -0.339 N 
ATOM     16  C   UNL A   1      33.406  20.335  26.160  1.00  0.00     0.116 C 
ATOM     17  C   UNL A   1      32.671  19.807  24.963  1.00  0.00     0.223 C 
ATOM     18  C   UNL A   1      32.084  20.484  22.675  1.00  0.00     0.147 C 
ATOM     19  O   UNL A   1      32.024  18.773  24.949  1.00  0.00    -0.275 OA
BRANCH   7  20
ATOM     20  C   UNL A   1      32.604  26.630  23.975  1.00  0.00     0.105 C 
BRANCH  20  21
ATOM     21  C   UNL A   1      33.443  26.723  25.265  1.00  0.00     0.045 C 
BRANCH  21  22
ATOM     22  C   UNL A   1      33.738  28.143  25.725  1.00  0.00    -0.047 A 
ATOM     23  C   UNL A   1      33.779  31.750  28.057  1.00  0.00     0.044 C 
ATOM     24  C   UNL A   1      33.858  30.583  27.117  1.00  0.00    -0.051 A 
ATOM     25  C   UNL A   1      32.884  30.380  26.136  1.00  0.00     0.004 A 
ATOM     26  C   UNL A   1      34.869  29.628  27.276  1.00  0.00     0.004 A 
ATOM     27  C   UNL A   1      32.844  29.182  25.417  1.00  0.00     0.004 A 
ATOM     28  C   UNL A   1      34.815  28.420  26.576  1.00  0.00     0.004 A 
ENDBRANCH  21  22
ENDBRANCH  20  21
ENDBRANCH   7  20
ENDBRANCH   3   6
ENDBRANCH   1   2
BRANCH   1  29
ATOM     29  C   UNL A   1      38.294  23.957  26.017  1.00  0.00     0.042 C 
BRANCH  29  30
ATOM     30  C   UNL A   1      39.326  23.146  26.787  1.00  0.00     0.118 C 
BRANCH  30  31
ATOM     31  N   UNL A   1      40.696  23.473  26.405  1.00  0.00    -0.352 N 
ATOM     32  C   UNL A   1      41.344  24.693  26.496  1.00  0.00     0.251 C 
ATOM     33  H   UNL A   1      41.228  22.732  26.035  1.00  0.00     0.163 HD
ATOM     34  O   UNL A   1      42.527  24.813  26.200  1.00  0.00    -0.269 OA
BRANCH  32  35
ATOM     35  C   UNL A   1      40.596  25.817  27.082  1.00  0.00     0.039 A 
ATOM     36  C   UNL A   1      40.654  27.043  26.416  1.00  0.00     0.014 A 
ATOM     37  C   UNL A   1      40.121  25.720  28.390  1.00  0.00     0.014 A 
ATOM     38  C   UNL A   1      40.460  28.211  27.144  1.00  0.00     0.010 A 
ATOM     39  C   UNL A   1      40.000  26.880  29.130  1.00  0.00     0.010 A 
ATOM     40  C   UNL A   1      40.242  28.118  28.522  1.00  0.00    -0.014 A 
BRANCH  40  41
ATOM     41  C   UNL A   1      40.384  29.268  29.402  1.00  0.00     0.031 A 
ATOM     42  C   UNL A   1      39.304  30.264  29.511  1.00  0.00     0.074 A 
ATOM     43  C   UNL A   1      41.521  29.443  30.115  1.00  0.00     0.049 A 
ATOM     44  N   UNL A   1      39.511  31.521  29.728  1.00  0.00    -0.248 NA
ATOM     45  C   UNL A   1      37.896  29.925  29.345  1.00  0.00     0.031 C 
ATOM     46  C   UNL A   1      41.755  30.427  31.169  1.00  0.00     0.029 A 
ATOM     47  N   UNL A   1      42.787  28.877  29.877  1.00  0.00    -0.354 N 
ATOM     48  C   UNL A   1      38.295  32.095  29.996  1.00  0.00     0.074 A 
ATOM     49  C   UNL A   1      37.313  31.083  29.673  1.00  0.00     0.031 C 
ATOM     50  C   UNL A   1      43.075  30.636  31.278  1.00  0.00     0.029 A 
ATOM     51  C   UNL A   1      43.719  29.885  30.216  1.00  0.00     0.049 A 
ATOM     52  H   UNL A   1      42.983  27.972  29.544  1.00  0.00     0.167 HD
ATOM     53  C   UNL A   1      38.238  33.314  30.601  1.00  0.00     0.037 A 
ATOM     54  C   UNL A   1      44.604  30.399  29.315  1.00  0.00     0.037 A 
ATOM     55  C   UNL A   1      39.563  33.849  30.880  1.00  0.00     0.049 A 
ATOM     56  C   UNL A   1      44.527  31.897  29.164  1.00  0.00     0.074 A 
ATOM     57  C   UNL A   1      40.351  33.829  32.019  1.00  0.00     0.029 A 
ATOM     58  N   UNL A   1      40.396  34.227  29.833  1.00  0.00    -0.354 N 
ATOM     59  N   UNL A   1      43.479  32.601  29.488  1.00  0.00    -0.248 NA
ATOM     60  C   UNL A   1      45.599  32.712  28.602  1.00  0.00     0.031 C 
ATOM     61  C   UNL A   1      41.669  34.189  31.655  1.00  0.00     0.029 A 
ATOM     62  C   UNL A   1      41.681  34.436  30.293  1.00  0.00     0.049 A 
ATOM     63  H   UNL A   1      40.110  34.328  28.896  1.00  0.00     0.167 HD
ATOM     64  C   UNL A   1      43.705  33.921  29.185  1.00  0.00     0.074 A 
ATOM     65  C   UNL A   1      45.052  33.940  28.649  1.00  0.00     0.031 C 
ATOM     66  C   UNL A   1      42.745  34.871  29.404  1.00  0.00     0.037 A 
BRANCH  53  67
ATOM     67  C   UNL A   1      36.964  33.836  31.211  1.00  0.00     0.064 A 
ATOM     68  C   UNL A   1      36.800  33.929  32.608  1.00  0.00     0.173 A 
ATOM     69  C   UNL A   1      35.842  34.202  30.447  1.00  0.00     0.173 A 
ATOM     70  F   UNL A   1      37.812  33.697  33.452  1.00  0.00    -0.203 F 
ATOM     71  C   UNL A   1      35.573  34.244  33.194  1.00  0.00     0.198 A 
ATOM     72  C   UNL A   1      34.601  34.468  31.033  1.00  0.00     0.198 A 
ATOM     73  F   UNL A   1      35.929  34.314  29.113  1.00  0.00    -0.203 F 
ATOM     74  F   UNL A   1      35.469  34.297  34.530  1.00  0.00    -0.200 F 
ATOM     75  C   UNL A   1      34.464  34.475  32.407  1.00  0.00     0.200 A 
ATOM     76  F   UNL A   1      33.534  34.701  30.255  1.00  0.00    -0.200 F 
ATOM     77  F   UNL A   1      33.272  34.714  32.970  1.00  0.00    -0.200 F 
ENDBRANCH  53  67
BRANCH  54  78
ATOM     78  C   UNL A   1      44.967  29.451  28.234  1.00  0.00     0.064 A 
ATOM     79  C   UNL A   1      45.933  28.462  28.507  1.00  0.00     0.173 A 
ATOM     80  C   UNL A   1      44.147  29.263  27.116  1.00  0.00     0.173 A 
ATOM     81  F   UNL A   1      46.741  28.591  29.572  1.00  0.00    -0.203 F 
ATOM     82  C   UNL A   1      45.993  27.285  27.767  1.00  0.00     0.198 A 
ATOM     83  C   UNL A   1      44.221  28.088  26.367  1.00  0.00     0.198 A 
ATOM     84  F   UNL A   1      43.197  30.160  26.815  1.00  0.00    -0.203 F 
ATOM     85  F   UNL A   1      46.840  26.310  28.130  1.00  0.00    -0.200 F 
ATOM     86  C   UNL A   1      45.118  27.087  26.713  1.00  0.00     0.200 A 
ATOM     87  F   UNL A   1      43.357  27.884  25.361  1.00  0.00    -0.200 F 
ATOM     88  F   UNL A   1      45.110  25.917  26.060  1.00  0.00    -0.200 F 
ENDBRANCH  54  78
BRANCH  66  89
ATOM     89  C   UNL A   1      42.743  36.309  28.927  1.00  0.00     0.064 A 
ATOM     90  C   UNL A   1      42.025  36.779  27.816  1.00  0.00     0.173 A 
ATOM     91  C   UNL A   1      43.385  37.316  29.696  1.00  0.00     0.173 A 
ATOM     92  F   UNL A   1      41.275  35.960  27.070  1.00  0.00    -0.203 F 
ATOM     93  C   UNL A   1      42.000  38.135  27.467  1.00  0.00     0.198 A 
ATOM     94  C   UNL A   1      43.308  38.672  29.379  1.00  0.00     0.198 A 
ATOM     95  F   UNL A   1      44.087  37.023  30.801  1.00  0.00    -0.203 F 
ATOM     96  F   UNL A   1      41.331  38.522  26.372  1.00  0.00    -0.200 F 
ATOM     97  C   UNL A   1      42.628  39.080  28.254  1.00  0.00     0.200 A 
ATOM     98  F   UNL A   1      43.881  39.577  30.185  1.00  0.00    -0.200 F 
ATOM     99  F   UNL A   1      42.559  40.381  27.941  1.00  0.00    -0.200 F 
ENDBRANCH  66  89
ENDBRANCH  40  41
ENDBRANCH  32  35
ENDBRANCH  30  31
ENDBRANCH  29  30
ENDBRANCH   1  29
TORSDOF 13
ENDMDL
