MODEL 1
REMARK VINA RESULT:     -11.4      0.000      0.000
REMARK SMILES C[C@@H](c1ccccc1)[C@@H]1[NH2+][C@@H](C(=O)NCCCNC(=O)c2ccc(-c3c4nc(c(-c5c(F)c(F)c(F)c(F)c5F)c5ccc([nH]5)c(-c5c(F)c(F)c(F)c(F)c5F)c5nc(c(-c6c(F)c(F)c(F)c(F)c6F)c6ccc3[nH]6)C=C5)C=C4)cc2)CS1
REMARK SMILES IDX 16 1 15 2 14 3 12 4 13 5 11 7 9 8 10 9 85 10 84 13 2 14 1 15
REMARK SMILES IDX 3 16 4 17 8 18 5 19 7 20 6 21 17 22 18 23 19 24 20 26 21 27
REMARK SMILES IDX 22 28 83 29 23 30 82 31 24 32 25 33 26 34 76 35 27 36 81 37
REMARK SMILES IDX 75 38 77 39 28 40 80 41 74 42 73 43 29 45 61 46 41 47 60 48
REMARK SMILES IDX 42 49 45 50 59 51 78 52 43 53 44 54 58 56 79 57 46 58 30 59
REMARK SMILES IDX 31 60 39 61 32 62 33 63 37 64 40 65 34 66 35 67 38 68 36 69
REMARK SMILES IDX 62 70 63 71 71 72 64 73 65 74 69 75 72 76 66 77 67 78 70 79
REMARK SMILES IDX 68 80 47 81 48 82 56 83 49 84 50 85 54 86 57 87 51 88 52 89
REMARK SMILES IDX 55 90 53 91
REMARK H PARENT 14 6 10 11 10 12 18 25 77 44 45 55
REMARK Flexibility Score: inf
ROOT
ATOM      1  C   UNL A   1      33.557  33.714  28.035  1.00  0.00     0.042 C 
ENDROOT
BRANCH   1   2
ATOM      2  C   UNL A   1      33.967  35.029  28.693  1.00  0.00     0.118 C 
BRANCH   2   3
ATOM      3  N   UNL A   1      33.064  35.412  29.760  1.00  0.00    -0.351 N 
ATOM      4  C   UNL A   1      33.204  35.280  31.111  1.00  0.00     0.279 C 
ATOM      5  O   UNL A   1      32.245  35.613  31.808  1.00  0.00    -0.268 OA
ATOM      6  H   UNL A   1      32.222  35.830  29.467  1.00  0.00     0.163 HD
BRANCH   4   7
ATOM      7  C   UNL A   1      34.513  34.707  31.699  1.00  0.00     0.283 C 
ATOM      8  C   UNL A   1      35.208  33.003  33.240  1.00  0.00     0.249 C 
ATOM      9  N   UNL A   1      34.259  33.308  32.158  1.00  0.00    -0.324 N 
ATOM     10  S   UNL A   1      35.148  34.482  34.286  1.00  0.00    -0.092 SA
ATOM     11  H   UNL A   1      33.302  33.225  32.503  1.00  0.00     0.347 HD
ATOM     12  H   UNL A   1      34.382  32.654  31.384  1.00  0.00     0.347 HD
ATOM     13  C   UNL A   1      35.028  35.583  32.853  1.00  0.00     0.151 C 
BRANCH   8  14
ATOM     14  C   UNL A   1      36.630  32.487  32.802  1.00  0.00     0.085 C 
ATOM     15  C   UNL A   1      36.641  30.953  32.674  1.00  0.00     0.020 C 
BRANCH  14  16
ATOM     16  C   UNL A   1      37.309  33.195  31.631  1.00  0.00    -0.038 A 
ATOM     17  C   UNL A   1      38.202  34.262  31.785  1.00  0.00     0.004 A 
ATOM     18  C   UNL A   1      37.035  32.748  30.321  1.00  0.00     0.004 A 
ATOM     19  C   UNL A   1      38.829  34.836  30.672  1.00  0.00     0.000 A 
ATOM     20  C   UNL A   1      37.672  33.309  29.215  1.00  0.00     0.000 A 
ATOM     21  C   UNL A   1      38.574  34.352  29.392  1.00  0.00     0.000 A 
ENDBRANCH  14  16
ENDBRANCH   8  14
ENDBRANCH   4   7
ENDBRANCH   2   3
ENDBRANCH   1   2
BRANCH   1  22
ATOM     22  C   UNL A   1      34.358  32.492  28.480  1.00  0.00     0.118 C 
BRANCH  22  23
ATOM     23  N   UNL A   1      33.822  31.233  27.982  1.00  0.00    -0.352 N 
ATOM     24  C   UNL A   1      34.441  30.029  27.765  1.00  0.00     0.251 C 
ATOM     25  H   UNL A   1      32.861  31.250  27.766  1.00  0.00     0.163 HD
ATOM     26  O   UNL A   1      33.822  29.122  27.207  1.00  0.00    -0.269 OA
BRANCH  24  27
ATOM     27  C   UNL A   1      35.849  29.812  28.162  1.00  0.00     0.039 A 
ATOM     28  C   UNL A   1      36.114  29.319  29.444  1.00  0.00     0.014 A 
ATOM     29  C   UNL A   1      36.906  30.109  27.300  1.00  0.00     0.014 A 
ATOM     30  C   UNL A   1      37.431  29.058  29.832  1.00  0.00     0.010 A 
ATOM     31  C   UNL A   1      38.212  29.778  27.659  1.00  0.00     0.010 A 
ATOM     32  C   UNL A   1      38.489  29.248  28.929  1.00  0.00    -0.014 A 
BRANCH  32  33
ATOM     33  C   UNL A   1      39.885  28.887  29.294  1.00  0.00     0.031 A 
ATOM     34  C   UNL A   1      40.710  29.807  30.151  1.00  0.00     0.074 A 
ATOM     35  C   UNL A   1      40.428  27.754  28.808  1.00  0.00     0.049 A 
ATOM     36  N   UNL A   1      41.960  29.691  30.526  1.00  0.00    -0.248 NA
ATOM     37  C   UNL A   1      40.051  31.031  30.633  1.00  0.00     0.031 C 
ATOM     38  C   UNL A   1      39.748  26.798  27.932  1.00  0.00     0.029 A 
ATOM     39  N   UNL A   1      41.681  27.217  28.972  1.00  0.00    -0.354 N 
ATOM     40  C   UNL A   1      42.237  30.826  31.277  1.00  0.00     0.074 A 
ATOM     41  C   UNL A   1      41.045  31.646  31.257  1.00  0.00     0.031 C 
ATOM     42  C   UNL A   1      40.579  25.780  27.660  1.00  0.00     0.029 A 
ATOM     43  C   UNL A   1      41.865  26.030  28.305  1.00  0.00     0.049 A 
ATOM     44  H   UNL A   1      42.381  27.642  29.519  1.00  0.00     0.167 HD
ATOM     45  C   UNL A   1      43.373  31.143  31.945  1.00  0.00     0.037 A 
ATOM     46  C   UNL A   1      42.950  25.237  28.216  1.00  0.00     0.037 A 
ATOM     47  C   UNL A   1      44.553  30.319  31.976  1.00  0.00     0.049 A 
ATOM     48  C   UNL A   1      44.207  25.628  28.946  1.00  0.00     0.074 A 
ATOM     49  C   UNL A   1      45.738  30.533  32.659  1.00  0.00     0.029 A 
ATOM     50  N   UNL A   1      44.699  29.121  31.291  1.00  0.00    -0.354 N 
ATOM     51  N   UNL A   1      44.435  26.672  29.704  1.00  0.00    -0.248 NA
ATOM     52  C   UNL A   1      45.358  24.723  28.809  1.00  0.00     0.031 C 
ATOM     53  C   UNL A   1      46.618  29.491  32.348  1.00  0.00     0.029 A 
ATOM     54  C   UNL A   1      45.962  28.597  31.518  1.00  0.00     0.049 A 
ATOM     55  H   UNL A   1      44.007  28.705  30.727  1.00  0.00     0.167 HD
ATOM     56  C   UNL A   1      45.738  26.533  30.163  1.00  0.00     0.074 A 
ATOM     57  C   UNL A   1      46.246  25.295  29.609  1.00  0.00     0.031 C 
ATOM     58  C   UNL A   1      46.450  27.357  30.971  1.00  0.00     0.037 A 
BRANCH  45  59
ATOM     59  C   UNL A   1      43.392  32.439  32.704  1.00  0.00     0.064 A 
ATOM     60  C   UNL A   1      43.805  33.638  32.102  1.00  0.00     0.173 A 
ATOM     61  C   UNL A   1      42.954  32.493  34.037  1.00  0.00     0.173 A 
ATOM     62  F   UNL A   1      44.242  33.640  30.834  1.00  0.00    -0.203 F 
ATOM     63  C   UNL A   1      43.809  34.835  32.813  1.00  0.00     0.198 A 
ATOM     64  C   UNL A   1      42.928  33.699  34.735  1.00  0.00     0.198 A 
ATOM     65  F   UNL A   1      42.541  31.380  34.660  1.00  0.00    -0.203 F 
ATOM     66  F   UNL A   1      44.256  35.956  32.232  1.00  0.00    -0.200 F 
ATOM     67  C   UNL A   1      43.363  34.865  34.126  1.00  0.00     0.200 A 
ATOM     68  F   UNL A   1      42.482  33.729  35.999  1.00  0.00    -0.200 F 
ATOM     69  F   UNL A   1      43.358  36.019  34.807  1.00  0.00    -0.200 F 
ENDBRANCH  45  59
BRANCH  46  70
ATOM     70  C   UNL A   1      42.893  23.980  27.424  1.00  0.00     0.064 A 
ATOM     71  C   UNL A   1      42.507  22.771  28.021  1.00  0.00     0.173 A 
ATOM     72  C   UNL A   1      43.240  23.953  26.065  1.00  0.00     0.173 A 
ATOM     73  F   UNL A   1      42.187  22.740  29.323  1.00  0.00    -0.203 F 
ATOM     74  C   UNL A   1      42.497  21.581  27.297  1.00  0.00     0.198 A 
ATOM     75  C   UNL A   1      43.199  22.768  25.335  1.00  0.00     0.198 A 
ATOM     76  F   UNL A   1      43.611  25.083  25.444  1.00  0.00    -0.203 F 
ATOM     77  F   UNL A   1      42.178  20.431  27.908  1.00  0.00    -0.200 F 
ATOM     78  C   UNL A   1      42.838  21.580  25.954  1.00  0.00     0.200 A 
ATOM     79  F   UNL A   1      43.514  22.774  24.033  1.00  0.00    -0.200 F 
ATOM     80  F   UNL A   1      42.828  20.435  25.258  1.00  0.00    -0.200 F 
ENDBRANCH  46  70
BRANCH  58  81
ATOM     81  C   UNL A   1      47.841  26.925  31.342  1.00  0.00     0.064 A 
ATOM     82  C   UNL A   1      48.088  26.093  32.444  1.00  0.00     0.173 A 
ATOM     83  C   UNL A   1      48.938  27.326  30.562  1.00  0.00     0.173 A 
ATOM     84  F   UNL A   1      47.076  25.695  33.231  1.00  0.00    -0.203 F 
ATOM     85  C   UNL A   1      49.385  25.703  32.769  1.00  0.00     0.198 A 
ATOM     86  C   UNL A   1      50.228  26.906  30.871  1.00  0.00     0.198 A 
ATOM     87  F   UNL A   1      48.755  28.115  29.493  1.00  0.00    -0.203 F 
ATOM     88  F   UNL A   1      49.603  24.952  33.857  1.00  0.00    -0.200 F 
ATOM     89  C   UNL A   1      50.451  26.103  31.979  1.00  0.00     0.200 A 
ATOM     90  F   UNL A   1      51.256  27.281  30.097  1.00  0.00    -0.200 F 
ATOM     91  F   UNL A   1      51.698  25.720  32.290  1.00  0.00    -0.200 F 
ENDBRANCH  58  81
ENDBRANCH  32  33
ENDBRANCH  24  27
ENDBRANCH  22  23
ENDBRANCH   1  22
TORSDOF 12
ENDMDL
MODEL 2
REMARK VINA RESULT:     -11.3      4.081     11.089
REMARK SMILES C[C@@H](c1ccccc1)[C@@H]1[NH2+][C@@H](C(=O)NCCCNC(=O)c2ccc(-c3c4nc(c(-c5c(F)c(F)c(F)c(F)c5F)c5ccc([nH]5)c(-c5c(F)c(F)c(F)c(F)c5F)c5nc(c(-c6c(F)c(F)c(F)c(F)c6F)c6ccc3[nH]6)C=C5)C=C4)cc2)CS1
REMARK SMILES IDX 16 1 15 2 14 3 12 4 13 5 11 7 9 8 10 9 85 10 84 13 2 14 1 15
REMARK SMILES IDX 3 16 4 17 8 18 5 19 7 20 6 21 17 22 18 23 19 24 20 26 21 27
REMARK SMILES IDX 22 28 83 29 23 30 82 31 24 32 25 33 26 34 76 35 27 36 81 37
REMARK SMILES IDX 75 38 77 39 28 40 80 41 74 42 73 43 29 45 61 46 41 47 60 48
REMARK SMILES IDX 42 49 45 50 59 51 78 52 43 53 44 54 58 56 79 57 46 58 30 59
REMARK SMILES IDX 31 60 39 61 32 62 33 63 37 64 40 65 34 66 35 67 38 68 36 69
REMARK SMILES IDX 62 70 63 71 71 72 64 73 65 74 69 75 72 76 66 77 67 78 70 79
REMARK SMILES IDX 68 80 47 81 48 82 56 83 49 84 50 85 54 86 57 87 51 88 52 89
REMARK SMILES IDX 55 90 53 91
REMARK H PARENT 14 6 10 11 10 12 18 25 77 44 45 55
REMARK Flexibility Score: inf
ROOT
ATOM      1  C   UNL A   1      40.725  20.143  26.790  1.00  0.00     0.042 C 
ENDROOT
BRANCH   1   2
ATOM      2  C   UNL A   1      42.150  19.692  27.099  1.00  0.00     0.118 C 
BRANCH   2   3
ATOM      3  N   UNL A   1      42.838  19.205  25.920  1.00  0.00    -0.351 N 
ATOM      4  C   UNL A   1      43.781  19.815  25.144  1.00  0.00     0.279 C 
ATOM      5  O   UNL A   1      44.153  19.213  24.137  1.00  0.00    -0.268 OA
ATOM      6  H   UNL A   1      42.588  18.296  25.635  1.00  0.00     0.163 HD
BRANCH   4   7
ATOM      7  C   UNL A   1      44.311  21.214  25.532  1.00  0.00     0.283 C 
ATOM      8  C   UNL A   1      44.558  23.389  24.549  1.00  0.00     0.249 C 
ATOM      9  N   UNL A   1      43.654  22.233  24.659  1.00  0.00    -0.324 N 
ATOM     10  S   UNL A   1      46.178  22.635  24.250  1.00  0.00    -0.092 SA
ATOM     11  H   UNL A   1      43.483  21.838  23.734  1.00  0.00     0.347 HD
ATOM     12  H   UNL A   1      42.761  22.519  25.060  1.00  0.00     0.347 HD
ATOM     13  C   UNL A   1      45.842  21.278  25.402  1.00  0.00     0.151 C 
BRANCH   8  14
ATOM     14  C   UNL A   1      44.463  24.466  25.694  1.00  0.00     0.085 C 
ATOM     15  C   UNL A   1      43.586  25.654  25.259  1.00  0.00     0.020 C 
BRANCH  14  16
ATOM     16  C   UNL A   1      44.151  23.971  27.105  1.00  0.00    -0.038 A 
ATOM     17  C   UNL A   1      45.133  23.734  28.076  1.00  0.00     0.004 A 
ATOM     18  C   UNL A   1      42.805  23.750  27.461  1.00  0.00     0.004 A 
ATOM     19  C   UNL A   1      44.777  23.328  29.367  1.00  0.00     0.000 A 
ATOM     20  C   UNL A   1      42.450  23.361  28.752  1.00  0.00     0.000 A 
ATOM     21  C   UNL A   1      43.438  23.154  29.708  1.00  0.00     0.000 A 
ENDBRANCH  14  16
ENDBRANCH   8  14
ENDBRANCH   4   7
ENDBRANCH   2   3
ENDBRANCH   1   2
BRANCH   1  22
ATOM     22  C   UNL A   1      40.585  21.612  26.395  1.00  0.00     0.118 C 
BRANCH  22  23
ATOM     23  N   UNL A   1      39.254  21.959  25.916  1.00  0.00    -0.352 N 
ATOM     24  C   UNL A   1      38.514  23.099  26.099  1.00  0.00     0.251 C 
ATOM     25  H   UNL A   1      38.816  21.264  25.372  1.00  0.00     0.163 HD
ATOM     26  O   UNL A   1      37.345  23.131  25.712  1.00  0.00    -0.269 OA
BRANCH  24  27
ATOM     27  C   UNL A   1      39.086  24.280  26.782  1.00  0.00     0.039 A 
ATOM     28  C   UNL A   1      39.828  25.195  26.028  1.00  0.00     0.014 A 
ATOM     29  C   UNL A   1      38.922  24.482  28.154  1.00  0.00     0.014 A 
ATOM     30  C   UNL A   1      40.341  26.344  26.634  1.00  0.00     0.010 A 
ATOM     31  C   UNL A   1      39.369  25.664  28.742  1.00  0.00     0.010 A 
ATOM     32  C   UNL A   1      40.082  26.609  27.988  1.00  0.00    -0.014 A 
BRANCH  32  33
ATOM     33  C   UNL A   1      40.542  27.872  28.625  1.00  0.00     0.031 A 
ATOM     34  C   UNL A   1      41.980  28.044  29.026  1.00  0.00     0.074 A 
ATOM     35  C   UNL A   1      39.648  28.845  28.893  1.00  0.00     0.049 A 
ATOM     36  N   UNL A   1      42.555  29.047  29.642  1.00  0.00    -0.248 NA
ATOM     37  C   UNL A   1      42.892  26.933  28.713  1.00  0.00     0.031 C 
ATOM     38  C   UNL A   1      38.217  28.785  28.593  1.00  0.00     0.029 A 
ATOM     39  N   UNL A   1      39.810  30.073  29.486  1.00  0.00    -0.354 N 
ATOM     40  C   UNL A   1      43.887  28.685  29.797  1.00  0.00     0.074 A 
ATOM     41  C   UNL A   1      44.024  27.347  29.263  1.00  0.00     0.031 C 
ATOM     42  C   UNL A   1      37.637  29.933  28.977  1.00  0.00     0.029 A 
ATOM     43  C   UNL A   1      38.645  30.794  29.589  1.00  0.00     0.049 A 
ATOM     44  H   UNL A   1      40.680  30.406  29.806  1.00  0.00     0.167 HD
ATOM     45  C   UNL A   1      44.908  29.411  30.313  1.00  0.00     0.037 A 
ATOM     46  C   UNL A   1      38.414  32.009  30.123  1.00  0.00     0.037 A 
ATOM     47  C   UNL A   1      44.773  30.747  30.831  1.00  0.00     0.049 A 
ATOM     48  C   UNL A   1      39.562  32.782  30.715  1.00  0.00     0.074 A 
ATOM     49  C   UNL A   1      45.756  31.582  31.335  1.00  0.00     0.029 A 
ATOM     50  N   UNL A   1      43.577  31.446  30.914  1.00  0.00    -0.354 N 
ATOM     51  N   UNL A   1      40.828  32.453  30.796  1.00  0.00    -0.248 NA
ATOM     52  C   UNL A   1      39.246  34.100  31.283  1.00  0.00     0.031 C 
ATOM     53  C   UNL A   1      45.148  32.765  31.768  1.00  0.00     0.029 A 
ATOM     54  C   UNL A   1      43.795  32.692  31.480  1.00  0.00     0.049 A 
ATOM     55  H   UNL A   1      42.703  31.106  30.613  1.00  0.00     0.167 HD
ATOM     56  C   UNL A   1      41.464  33.534  31.391  1.00  0.00     0.074 A 
ATOM     57  C   UNL A   1      40.447  34.535  31.637  1.00  0.00     0.031 C 
ATOM     58  C   UNL A   1      42.775  33.684  31.706  1.00  0.00     0.037 A 
BRANCH  45  59
ATOM     59  C   UNL A   1      46.269  28.774  30.337  1.00  0.00     0.064 A 
ATOM     60  C   UNL A   1      46.711  28.028  31.441  1.00  0.00     0.173 A 
ATOM     61  C   UNL A   1      47.125  28.875  29.230  1.00  0.00     0.173 A 
ATOM     62  F   UNL A   1      45.936  27.909  32.529  1.00  0.00    -0.203 F 
ATOM     63  C   UNL A   1      47.970  27.434  31.449  1.00  0.00     0.198 A 
ATOM     64  C   UNL A   1      48.372  28.252  29.228  1.00  0.00     0.198 A 
ATOM     65  F   UNL A   1      46.751  29.569  28.145  1.00  0.00    -0.203 F 
ATOM     66  F   UNL A   1      48.390  26.770  32.534  1.00  0.00    -0.200 F 
ATOM     67  C   UNL A   1      48.795  27.540  30.339  1.00  0.00     0.200 A 
ATOM     68  F   UNL A   1      49.162  28.342  28.149  1.00  0.00    -0.200 F 
ATOM     69  F   UNL A   1      50.004  26.960  30.344  1.00  0.00    -0.200 F 
ENDBRANCH  45  59
BRANCH  46  70
ATOM     70  C   UNL A   1      37.042  32.583  30.105  1.00  0.00     0.064 A 
ATOM     71  C   UNL A   1      36.606  33.370  29.029  1.00  0.00     0.173 A 
ATOM     72  C   UNL A   1      36.147  32.378  31.166  1.00  0.00     0.173 A 
ATOM     73  F   UNL A   1      37.432  33.613  28.001  1.00  0.00    -0.203 F 
ATOM     74  C   UNL A   1      35.340  33.951  29.027  1.00  0.00     0.198 A 
ATOM     75  C   UNL A   1      34.870  32.934  31.148  1.00  0.00     0.198 A 
ATOM     76  F   UNL A   1      36.513  31.629  32.217  1.00  0.00    -0.203 F 
ATOM     77  F   UNL A   1      34.971  34.743  28.011  1.00  0.00    -0.200 F 
ATOM     78  C   UNL A   1      34.471  33.728  30.083  1.00  0.00     0.200 A 
ATOM     79  F   UNL A   1      34.028  32.703  32.164  1.00  0.00    -0.200 F 
ATOM     80  F   UNL A   1      33.253  34.288  30.081  1.00  0.00    -0.200 F 
ENDBRANCH  46  70
BRANCH  58  81
ATOM     81  C   UNL A   1      43.193  34.995  32.311  1.00  0.00     0.064 A 
ATOM     82  C   UNL A   1      43.189  35.205  33.698  1.00  0.00     0.173 A 
ATOM     83  C   UNL A   1      43.633  36.045  31.489  1.00  0.00     0.173 A 
ATOM     84  F   UNL A   1      42.763  34.239  34.526  1.00  0.00    -0.203 F 
ATOM     85  C   UNL A   1      43.582  36.427  34.237  1.00  0.00     0.198 A 
ATOM     86  C   UNL A   1      44.057  37.252  32.034  1.00  0.00     0.198 A 
ATOM     87  F   UNL A   1      43.663  35.893  30.156  1.00  0.00    -0.203 F 
ATOM     88  F   UNL A   1      43.520  36.623  35.561  1.00  0.00    -0.200 F 
ATOM     89  C   UNL A   1      44.022  37.446  33.406  1.00  0.00     0.200 A 
ATOM     90  F   UNL A   1      44.496  38.231  31.231  1.00  0.00    -0.200 F 
ATOM     91  F   UNL A   1      44.407  38.619  33.929  1.00  0.00    -0.200 F 
ENDBRANCH  58  81
ENDBRANCH  32  33
ENDBRANCH  24  27
ENDBRANCH  22  23
ENDBRANCH   1  22
TORSDOF 12
ENDMDL
MODEL 3
REMARK VINA RESULT:     -11.3      0.184      1.640
REMARK SMILES C[C@@H](c1ccccc1)[C@@H]1[NH2+][C@@H](C(=O)NCCCNC(=O)c2ccc(-c3c4nc(c(-c5c(F)c(F)c(F)c(F)c5F)c5ccc([nH]5)c(-c5c(F)c(F)c(F)c(F)c5F)c5nc(c(-c6c(F)c(F)c(F)c(F)c6F)c6ccc3[nH]6)C=C5)C=C4)cc2)CS1
REMARK SMILES IDX 16 1 15 2 14 3 12 4 13 5 11 7 9 8 10 9 85 10 84 13 2 14 1 15
REMARK SMILES IDX 3 16 4 17 8 18 5 19 7 20 6 21 17 22 18 23 19 24 20 26 21 27
REMARK SMILES IDX 22 28 83 29 23 30 82 31 24 32 25 33 26 34 76 35 27 36 81 37
REMARK SMILES IDX 75 38 77 39 28 40 80 41 74 42 73 43 29 45 61 46 41 47 60 48
REMARK SMILES IDX 42 49 45 50 59 51 78 52 43 53 44 54 58 56 79 57 46 58 30 59
REMARK SMILES IDX 31 60 39 61 32 62 33 63 37 64 40 65 34 66 35 67 38 68 36 69
REMARK SMILES IDX 62 70 63 71 71 72 64 73 65 74 69 75 72 76 66 77 67 78 70 79
REMARK SMILES IDX 68 80 47 81 48 82 56 83 49 84 50 85 54 86 57 87 51 88 52 89
REMARK SMILES IDX 55 90 53 91
REMARK H PARENT 14 6 10 11 10 12 18 25 77 44 45 55
REMARK Flexibility Score: inf
ROOT
ATOM      1  C   UNL A   1      33.491  33.623  28.103  1.00  0.00     0.042 C 
ENDROOT
BRANCH   1   2
ATOM      2  C   UNL A   1      33.935  34.945  28.724  1.00  0.00     0.118 C 
BRANCH   2   3
ATOM      3  N   UNL A   1      33.057  35.367  29.797  1.00  0.00    -0.351 N 
ATOM      4  C   UNL A   1      33.219  35.266  31.148  1.00  0.00     0.279 C 
ATOM      5  O   UNL A   1      32.278  35.631  31.854  1.00  0.00    -0.268 OA
ATOM      6  H   UNL A   1      32.217  35.793  29.508  1.00  0.00     0.163 HD
BRANCH   4   7
ATOM      7  C   UNL A   1      34.528  34.684  31.727  1.00  0.00     0.283 C 
ATOM      8  C   UNL A   1      35.224  32.965  33.249  1.00  0.00     0.249 C 
ATOM      9  N   UNL A   1      34.273  33.281  32.172  1.00  0.00    -0.324 N 
ATOM     10  S   UNL A   1      35.169  34.433  34.310  1.00  0.00    -0.092 SA
ATOM     11  H   UNL A   1      33.317  33.197  32.519  1.00  0.00     0.347 HD
ATOM     12  H   UNL A   1      34.393  32.635  31.392  1.00  0.00     0.347 HD
ATOM     13  C   UNL A   1      35.048  35.548  32.888  1.00  0.00     0.151 C 
BRANCH   8  14
ATOM     14  C   UNL A   1      36.644  32.450  32.803  1.00  0.00     0.085 C 
ATOM     15  C   UNL A   1      36.657  30.917  32.675  1.00  0.00     0.020 C 
BRANCH  14  16
ATOM     16  C   UNL A   1      37.315  33.159  31.627  1.00  0.00    -0.038 A 
ATOM     17  C   UNL A   1      38.182  34.249  31.774  1.00  0.00     0.004 A 
ATOM     18  C   UNL A   1      37.061  32.689  30.322  1.00  0.00     0.004 A 
ATOM     19  C   UNL A   1      38.803  34.824  30.659  1.00  0.00     0.000 A 
ATOM     20  C   UNL A   1      37.693  33.251  29.213  1.00  0.00     0.000 A 
ATOM     21  C   UNL A   1      38.569  34.317  29.382  1.00  0.00     0.000 A 
ENDBRANCH  14  16
ENDBRANCH   8  14
ENDBRANCH   4   7
ENDBRANCH   2   3
ENDBRANCH   1   2
BRANCH   1  22
ATOM     22  C   UNL A   1      34.447  32.452  28.325  1.00  0.00     0.118 C 
BRANCH  22  23
ATOM     23  N   UNL A   1      33.878  31.162  27.963  1.00  0.00    -0.352 N 
ATOM     24  C   UNL A   1      34.474  29.933  27.837  1.00  0.00     0.251 C 
ATOM     25  H   UNL A   1      32.910  31.173  27.781  1.00  0.00     0.163 HD
ATOM     26  O   UNL A   1      33.824  28.988  27.388  1.00  0.00    -0.269 OA
BRANCH  24  27
ATOM     27  C   UNL A   1      35.892  29.731  28.204  1.00  0.00     0.039 A 
ATOM     28  C   UNL A   1      36.191  29.242  29.480  1.00  0.00     0.014 A 
ATOM     29  C   UNL A   1      36.927  30.038  27.318  1.00  0.00     0.014 A 
ATOM     30  C   UNL A   1      37.518  28.996  29.840  1.00  0.00     0.010 A 
ATOM     31  C   UNL A   1      38.244  29.722  27.649  1.00  0.00     0.010 A 
ATOM     32  C   UNL A   1      38.554  29.196  28.913  1.00  0.00    -0.014 A 
BRANCH  32  33
ATOM     33  C   UNL A   1      39.961  28.850  29.248  1.00  0.00     0.031 A 
ATOM     34  C   UNL A   1      40.801  29.787  30.071  1.00  0.00     0.074 A 
ATOM     35  C   UNL A   1      40.501  27.714  28.763  1.00  0.00     0.049 A 
ATOM     36  N   UNL A   1      42.060  29.686  30.416  1.00  0.00    -0.248 NA
ATOM     37  C   UNL A   1      40.145  31.013  30.553  1.00  0.00     0.031 C 
ATOM     38  C   UNL A   1      39.806  26.742  27.918  1.00  0.00     0.029 A 
ATOM     39  N   UNL A   1      41.762  27.189  28.903  1.00  0.00    -0.354 N 
ATOM     40  C   UNL A   1      42.348  30.833  31.144  1.00  0.00     0.074 A 
ATOM     41  C   UNL A   1      41.150  31.645  31.143  1.00  0.00     0.031 C 
ATOM     42  C   UNL A   1      40.638  25.727  27.638  1.00  0.00     0.029 A 
ATOM     43  C   UNL A   1      41.938  25.995  28.247  1.00  0.00     0.049 A 
ATOM     44  H   UNL A   1      42.472  27.627  29.426  1.00  0.00     0.167 HD
ATOM     45  C   UNL A   1      43.497  31.167  31.779  1.00  0.00     0.037 A 
ATOM     46  C   UNL A   1      43.026  25.209  28.142  1.00  0.00     0.037 A 
ATOM     47  C   UNL A   1      44.684  30.353  31.792  1.00  0.00     0.049 A 
ATOM     48  C   UNL A   1      44.299  25.619  28.834  1.00  0.00     0.074 A 
ATOM     49  C   UNL A   1      45.884  30.585  32.442  1.00  0.00     0.029 A 
ATOM     50  N   UNL A   1      44.823  29.147  31.119  1.00  0.00    -0.354 N 
ATOM     51  N   UNL A   1      44.537  26.674  29.573  1.00  0.00    -0.248 NA
ATOM     52  C   UNL A   1      45.452  24.720  28.681  1.00  0.00     0.031 C 
ATOM     53  C   UNL A   1      46.764  29.545  32.123  1.00  0.00     0.029 A 
ATOM     54  C   UNL A   1      46.095  28.635  31.322  1.00  0.00     0.049 A 
ATOM     55  H   UNL A   1      44.120  28.718  30.579  1.00  0.00     0.167 HD
ATOM     56  C   UNL A   1      45.852  26.551  30.001  1.00  0.00     0.074 A 
ATOM     57  C   UNL A   1      46.356  25.310  29.451  1.00  0.00     0.031 C 
ATOM     58  C   UNL A   1      46.578  27.391  30.779  1.00  0.00     0.037 A 
BRANCH  45  59
ATOM     59  C   UNL A   1      43.525  32.474  32.521  1.00  0.00     0.064 A 
ATOM     60  C   UNL A   1      43.164  32.558  33.875  1.00  0.00     0.173 A 
ATOM     61  C   UNL A   1      43.957  33.648  31.884  1.00  0.00     0.173 A 
ATOM     62  F   UNL A   1      42.735  31.468  34.528  1.00  0.00    -0.203 F 
ATOM     63  C   UNL A   1      43.204  33.773  34.555  1.00  0.00     0.198 A 
ATOM     64  C   UNL A   1      44.027  34.855  32.577  1.00  0.00     0.198 A 
ATOM     65  F   UNL A   1      44.322  33.625  30.595  1.00  0.00    -0.203 F 
ATOM     66  F   UNL A   1      42.805  33.837  35.832  1.00  0.00    -0.200 F 
ATOM     67  C   UNL A   1      43.643  34.918  33.907  1.00  0.00     0.200 A 
ATOM     68  F   UNL A   1      44.466  35.958  31.955  1.00  0.00    -0.200 F 
ATOM     69  F   UNL A   1      43.689  36.084  34.565  1.00  0.00    -0.200 F 
ENDBRANCH  45  59
BRANCH  46  70
ATOM     70  C   UNL A   1      42.959  23.940  27.369  1.00  0.00     0.064 A 
ATOM     71  C   UNL A   1      42.549  22.746  27.979  1.00  0.00     0.173 A 
ATOM     72  C   UNL A   1      43.321  23.887  26.014  1.00  0.00     0.173 A 
ATOM     73  F   UNL A   1      42.214  22.741  29.278  1.00  0.00    -0.203 F 
ATOM     74  C   UNL A   1      42.529  21.546  27.274  1.00  0.00     0.198 A 
ATOM     75  C   UNL A   1      43.270  22.692  25.302  1.00  0.00     0.198 A 
ATOM     76  F   UNL A   1      43.716  25.002  25.380  1.00  0.00    -0.203 F 
ATOM     77  F   UNL A   1      42.185  20.410  27.898  1.00  0.00    -0.200 F 
ATOM     78  C   UNL A   1      42.884  21.519  25.935  1.00  0.00     0.200 A 
ATOM     79  F   UNL A   1      43.599  22.674  24.003  1.00  0.00    -0.200 F 
ATOM     80  F   UNL A   1      42.865  20.364  25.256  1.00  0.00    -0.200 F 
ENDBRANCH  46  70
BRANCH  58  81
ATOM     81  C   UNL A   1      47.981  26.975  31.121  1.00  0.00     0.064 A 
ATOM     82  C   UNL A   1      49.086  27.424  30.383  1.00  0.00     0.173 A 
ATOM     83  C   UNL A   1      48.223  26.139  32.223  1.00  0.00     0.173 A 
ATOM     84  F   UNL A   1      48.908  28.212  29.312  1.00  0.00    -0.203 F 
ATOM     85  C   UNL A   1      50.379  27.027  30.718  1.00  0.00     0.198 A 
ATOM     86  C   UNL A   1      49.518  25.773  32.574  1.00  0.00     0.198 A 
ATOM     87  F   UNL A   1      47.201  25.687  32.966  1.00  0.00    -0.203 F 
ATOM     88  F   UNL A   1      51.415  27.426  29.967  1.00  0.00    -0.200 F 
ATOM     89  C   UNL A   1      50.594  26.209  31.816  1.00  0.00     0.200 A 
ATOM     90  F   UNL A   1      49.726  24.994  33.645  1.00  0.00    -0.200 F 
ATOM     91  F   UNL A   1      51.839  25.835  32.141  1.00  0.00    -0.200 F 
ENDBRANCH  58  81
ENDBRANCH  32  33
ENDBRANCH  24  27
ENDBRANCH  22  23
ENDBRANCH   1  22
TORSDOF 12
ENDMDL
