MODEL 1
REMARK VINA RESULT:     -12.7      0.000      0.000
REMARK SMILES COc1ccc(C(=O)NCCCNC(=O)c2ccc(-c3c4nc(c(-c5c(F)c(F)c(F)c(F)c5F)c5ccc([nH]5)c(-c5c(F)c(F)c(F)c(F)c5F)c5nc(c(-c6c(F)c(F)c(F)c(F)c6F)c6ccc3[nH]6)C=C5)C=C4)cc2)cc1Oc1nc(C(C)(C)C)ns1
REMARK SMILES IDX 10 1 9 2 7 3 8 4 6 6 3 7 4 8 80 9 5 10 79 11 2 12 1 13 81 14
REMARK SMILES IDX 82 15 83 16 90 17 84 18 89 19 85 20 86 21 87 22 88 23 11 24
REMARK SMILES IDX 12 25 13 26 14 27 15 29 16 30 17 31 78 32 18 33 77 34 19 35
REMARK SMILES IDX 20 36 21 37 71 38 22 39 76 40 70 41 72 42 23 43 75 44 69 45
REMARK SMILES IDX 68 46 24 48 56 49 36 50 55 51 37 52 40 53 54 54 73 55 38 56
REMARK SMILES IDX 39 57 53 59 74 60 41 61 25 62 26 63 34 64 27 65 28 66 32 67
REMARK SMILES IDX 35 68 29 69 30 70 33 71 31 72 57 73 58 74 66 75 59 76 60 77
REMARK SMILES IDX 64 78 67 79 61 80 62 81 65 82 63 83 42 84 43 85 51 86 44 87
REMARK SMILES IDX 45 88 49 89 52 90 46 91 47 92 50 93 48 94
REMARK H PARENT 9 5 13 28 72 47 40 58
REMARK Flexibility Score: inf
ROOT
ATOM      1  C   UNL A   1      32.806  28.769  22.871  1.00  0.00     0.118 C 
ENDROOT
BRANCH   1   2
ATOM      2  N   UNL A   1      33.060  27.617  22.028  1.00  0.00    -0.352 N 
ATOM      3  C   UNL A   1      33.042  26.266  22.244  1.00  0.00     0.251 C 
ATOM      4  O   UNL A   1      33.339  25.553  21.283  1.00  0.00    -0.269 OA
ATOM      5  H   UNL A   1      33.296  27.858  21.104  1.00  0.00     0.163 HD
BRANCH   3   6
ATOM      6  C   UNL A   1      32.644  25.614  23.526  1.00  0.00     0.043 A 
ATOM      7  C   UNL A   1      31.715  24.547  25.965  1.00  0.00     0.161 A 
ATOM      8  C   UNL A   1      30.904  25.405  25.222  1.00  0.00     0.051 A 
ATOM      9  C   UNL A   1      32.973  24.177  25.478  1.00  0.00     0.173 A 
ATOM     10  C   UNL A   1      31.374  25.946  24.023  1.00  0.00     0.018 A 
ATOM     11  C   UNL A   1      33.413  24.693  24.245  1.00  0.00     0.065 A 
BRANCH   7  12
ATOM     12  O   UNL A   1      31.191  24.022  27.112  1.00  0.00    -0.493 OA
ATOM     13  C   UNL A   1      30.330  22.921  26.824  1.00  0.00     0.278 C 
ENDBRANCH   7  12
BRANCH   9  14
ATOM     14  O   UNL A   1      33.900  23.382  26.116  1.00  0.00    -0.426 OA
BRANCH  14  15
ATOM     15  C   UNL A   1      34.292  22.207  25.631  1.00  0.00     0.298 A 
ATOM     16  N   UNL A   1      33.452  21.220  25.396  1.00  0.00    -0.185 NA
ATOM     17  S   UNL A   1      35.926  21.749  25.413  1.00  0.00     0.025 S 
ATOM     18  C   UNL A   1      34.189  20.121  24.947  1.00  0.00     0.151 A 
ATOM     19  N   UNL A   1      35.525  20.206  24.917  1.00  0.00    -0.172 NA
BRANCH  18  20
ATOM     20  C   UNL A   1      33.485  18.831  24.556  1.00  0.00     0.023 C 
ATOM     21  C   UNL A   1      32.554  19.094  23.357  1.00  0.00     0.019 C 
ATOM     22  C   UNL A   1      34.502  17.741  24.159  1.00  0.00     0.019 C 
ATOM     23  C   UNL A   1      32.641  18.272  25.723  1.00  0.00     0.019 C 
ENDBRANCH  18  20
ENDBRANCH  14  15
ENDBRANCH   9  14
ENDBRANCH   3   6
ENDBRANCH   1   2
BRANCH   1  24
ATOM     24  C   UNL A   1      33.907  28.915  23.919  1.00  0.00     0.042 C 
BRANCH  24  25
ATOM     25  C   UNL A   1      33.367  28.860  25.348  1.00  0.00     0.118 C 
BRANCH  25  26
ATOM     26  N   UNL A   1      32.810  30.144  25.762  1.00  0.00    -0.352 N 
ATOM     27  C   UNL A   1      33.161  30.952  26.809  1.00  0.00     0.251 C 
ATOM     28  H   UNL A   1      32.069  30.478  25.205  1.00  0.00     0.163 HD
ATOM     29  O   UNL A   1      32.414  31.869  27.156  1.00  0.00    -0.269 OA
BRANCH  27  30
ATOM     30  C   UNL A   1      34.432  30.734  27.525  1.00  0.00     0.039 A 
ATOM     31  C   UNL A   1      35.333  31.795  27.659  1.00  0.00     0.014 A 
ATOM     32  C   UNL A   1      34.752  29.472  28.031  1.00  0.00     0.014 A 
ATOM     33  C   UNL A   1      36.532  31.603  28.349  1.00  0.00     0.010 A 
ATOM     34  C   UNL A   1      35.909  29.301  28.779  1.00  0.00     0.010 A 
ATOM     35  C   UNL A   1      36.815  30.361  28.938  1.00  0.00    -0.014 A 
BRANCH  35  36
ATOM     36  C   UNL A   1      38.061  30.129  29.708  1.00  0.00     0.031 A 
ATOM     37  C   UNL A   1      39.099  29.183  29.174  1.00  0.00     0.074 A 
ATOM     38  C   UNL A   1      38.212  30.687  30.923  1.00  0.00     0.049 A 
ATOM     39  N   UNL A   1      40.179  28.721  29.752  1.00  0.00    -0.248 NA
ATOM     40  C   UNL A   1      38.873  28.662  27.817  1.00  0.00     0.031 C 
ATOM     41  C   UNL A   1      37.256  31.593  31.561  1.00  0.00     0.029 A 
ATOM     42  N   UNL A   1      39.215  30.552  31.851  1.00  0.00    -0.354 N 
ATOM     43  C   UNL A   1      40.745  27.842  28.838  1.00  0.00     0.074 A 
ATOM     44  C   UNL A   1      39.861  27.790  27.694  1.00  0.00     0.031 C 
ATOM     45  C   UNL A   1      37.718  31.932  32.775  1.00  0.00     0.029 A 
ATOM     46  C   UNL A   1      38.977  31.234  33.019  1.00  0.00     0.049 A 
ATOM     47  H   UNL A   1      40.026  30.017  31.694  1.00  0.00     0.167 HD
ATOM     48  C   UNL A   1      41.911  27.158  28.936  1.00  0.00     0.037 A 
ATOM     49  C   UNL A   1      39.682  31.271  34.166  1.00  0.00     0.037 A 
ATOM     50  C   UNL A   1      42.789  27.226  30.075  1.00  0.00     0.049 A 
ATOM     51  C   UNL A   1      40.963  30.488  34.263  1.00  0.00     0.074 A 
ATOM     52  C   UNL A   1      44.011  26.606  30.261  1.00  0.00     0.029 A 
ATOM     53  N   UNL A   1      42.531  27.959  31.226  1.00  0.00    -0.354 N 
ATOM     54  N   UNL A   1      41.520  29.700  33.375  1.00  0.00    -0.248 NA
ATOM     55  C   UNL A   1      41.719  30.604  35.517  1.00  0.00     0.031 C 
ATOM     56  C   UNL A   1      44.470  26.923  31.544  1.00  0.00     0.029 A 
ATOM     57  C   UNL A   1      43.564  27.791  32.133  1.00  0.00     0.049 A 
ATOM     58  H   UNL A   1      41.732  28.515  31.374  1.00  0.00     0.167 HD
ATOM     59  C   UNL A   1      42.703  29.254  33.946  1.00  0.00     0.074 A 
ATOM     60  C   UNL A   1      42.788  29.862  35.258  1.00  0.00     0.031 C 
ATOM     61  C   UNL A   1      43.639  28.420  33.428  1.00  0.00     0.037 A 
BRANCH  48  62
ATOM     62  C   UNL A   1      42.293  26.275  27.782  1.00  0.00     0.064 A 
ATOM     63  C   UNL A   1      41.744  24.992  27.622  1.00  0.00     0.173 A 
ATOM     64  C   UNL A   1      43.213  26.716  26.818  1.00  0.00     0.173 A 
ATOM     65  F   UNL A   1      40.867  24.516  28.520  1.00  0.00    -0.203 F 
ATOM     66  C   UNL A   1      42.135  24.169  26.570  1.00  0.00     0.198 A 
ATOM     67  C   UNL A   1      43.573  25.903  25.746  1.00  0.00     0.198 A 
ATOM     68  F   UNL A   1      43.762  27.935  26.915  1.00  0.00    -0.203 F 
ATOM     69  F   UNL A   1      41.648  22.924  26.479  1.00  0.00    -0.200 F 
ATOM     70  C   UNL A   1      43.045  24.627  25.630  1.00  0.00     0.200 A 
ATOM     71  F   UNL A   1      44.441  26.354  24.828  1.00  0.00    -0.200 F 
ATOM     72  F   UNL A   1      43.421  23.835  24.616  1.00  0.00    -0.200 F 
ENDBRANCH  48  62
BRANCH  49  73
ATOM     73  C   UNL A   1      39.190  32.090  35.304  1.00  0.00     0.064 A 
ATOM     74  C   UNL A   1      38.447  31.511  36.341  1.00  0.00     0.173 A 
ATOM     75  C   UNL A   1      39.474  33.462  35.391  1.00  0.00     0.173 A 
ATOM     76  F   UNL A   1      38.136  30.208  36.295  1.00  0.00    -0.203 F 
ATOM     77  C   UNL A   1      37.991  32.275  37.415  1.00  0.00     0.198 A 
ATOM     78  C   UNL A   1      39.043  34.218  36.479  1.00  0.00     0.198 A 
ATOM     79  F   UNL A   1      40.189  34.062  34.429  1.00  0.00    -0.203 F 
ATOM     80  F   UNL A   1      37.250  31.704  38.373  1.00  0.00    -0.200 F 
ATOM     81  C   UNL A   1      38.297  33.626  37.486  1.00  0.00     0.200 A 
ATOM     82  F   UNL A   1      39.356  35.519  36.554  1.00  0.00    -0.200 F 
ATOM     83  F   UNL A   1      37.868  34.357  38.524  1.00  0.00    -0.200 F 
ENDBRANCH  49  73
BRANCH  61  84
ATOM     84  C   UNL A   1      44.865  28.153  34.253  1.00  0.00     0.064 A 
ATOM     85  C   UNL A   1      45.987  28.991  34.202  1.00  0.00     0.173 A 
ATOM     86  C   UNL A   1      44.881  27.085  35.162  1.00  0.00     0.173 A 
ATOM     87  F   UNL A   1      46.027  30.017  33.338  1.00  0.00    -0.203 F 
ATOM     88  C   UNL A   1      47.088  28.761  35.024  1.00  0.00     0.198 A 
ATOM     89  C   UNL A   1      45.970  26.875  36.004  1.00  0.00     0.198 A 
ATOM     90  F   UNL A   1      43.829  26.258  35.253  1.00  0.00    -0.203 F 
ATOM     91  F   UNL A   1      48.165  29.552  34.935  1.00  0.00    -0.200 F 
ATOM     92  C   UNL A   1      47.074  27.712  35.931  1.00  0.00     0.200 A 
ATOM     93  F   UNL A   1      45.947  25.871  36.890  1.00  0.00    -0.200 F 
ATOM     94  F   UNL A   1      48.126  27.503  36.735  1.00  0.00    -0.200 F 
ENDBRANCH  61  84
ENDBRANCH  35  36
ENDBRANCH  27  30
ENDBRANCH  25  26
ENDBRANCH  24  25
ENDBRANCH   1  24
TORSDOF 14
ENDMDL
MODEL 2
REMARK VINA RESULT:     -12.5      2.016      3.689
REMARK SMILES COc1ccc(C(=O)NCCCNC(=O)c2ccc(-c3c4nc(c(-c5c(F)c(F)c(F)c(F)c5F)c5ccc([nH]5)c(-c5c(F)c(F)c(F)c(F)c5F)c5nc(c(-c6c(F)c(F)c(F)c(F)c6F)c6ccc3[nH]6)C=C5)C=C4)cc2)cc1Oc1nc(C(C)(C)C)ns1
REMARK SMILES IDX 10 1 9 2 7 3 8 4 6 6 3 7 4 8 80 9 5 10 79 11 2 12 1 13 81 14
REMARK SMILES IDX 82 15 83 16 90 17 84 18 89 19 85 20 86 21 87 22 88 23 11 24
REMARK SMILES IDX 12 25 13 26 14 27 15 29 16 30 17 31 78 32 18 33 77 34 19 35
REMARK SMILES IDX 20 36 21 37 71 38 22 39 76 40 70 41 72 42 23 43 75 44 69 45
REMARK SMILES IDX 68 46 24 48 56 49 36 50 55 51 37 52 40 53 54 54 73 55 38 56
REMARK SMILES IDX 39 57 53 59 74 60 41 61 25 62 26 63 34 64 27 65 28 66 32 67
REMARK SMILES IDX 35 68 29 69 30 70 33 71 31 72 57 73 58 74 66 75 59 76 60 77
REMARK SMILES IDX 64 78 67 79 61 80 62 81 65 82 63 83 42 84 43 85 51 86 44 87
REMARK SMILES IDX 45 88 49 89 52 90 46 91 47 92 50 93 48 94
REMARK H PARENT 9 5 13 28 72 47 40 58
REMARK Flexibility Score: inf
ROOT
ATOM      1  C   UNL A   1      31.770  30.769  26.553  1.00  0.00     0.118 C 
ENDROOT
BRANCH   1   2
ATOM      2  N   UNL A   1      33.100  30.408  27.005  1.00  0.00    -0.352 N 
ATOM      3  C   UNL A   1      33.919  29.337  26.769  1.00  0.00     0.251 C 
ATOM      4  O   UNL A   1      35.007  29.341  27.350  1.00  0.00    -0.269 OA
ATOM      5  H   UNL A   1      33.498  31.074  27.610  1.00  0.00     0.163 HD
BRANCH   3   6
ATOM      6  C   UNL A   1      33.608  28.216  25.834  1.00  0.00     0.043 A 
ATOM      7  C   UNL A   1      32.987  26.267  23.894  1.00  0.00     0.161 A 
ATOM      8  C   UNL A   1      33.331  27.561  23.502  1.00  0.00     0.051 A 
ATOM      9  C   UNL A   1      32.996  25.922  25.249  1.00  0.00     0.173 A 
ATOM     10  C   UNL A   1      33.620  28.530  24.465  1.00  0.00     0.018 A 
ATOM     11  C   UNL A   1      33.337  26.896  26.206  1.00  0.00     0.065 A 
BRANCH   7  12
ATOM     12  O   UNL A   1      32.747  25.353  22.908  1.00  0.00    -0.493 OA
ATOM     13  C   UNL A   1      32.835  25.957  21.617  1.00  0.00     0.278 C 
ENDBRANCH   7  12
BRANCH   9  14
ATOM     14  O   UNL A   1      32.637  24.706  25.790  1.00  0.00    -0.426 OA
BRANCH  14  15
ATOM     15  C   UNL A   1      33.504  23.712  25.959  1.00  0.00     0.298 A 
ATOM     16  N   UNL A   1      34.597  23.592  25.234  1.00  0.00    -0.185 NA
ATOM     17  S   UNL A   1      33.249  22.374  26.994  1.00  0.00     0.025 S 
ATOM     18  C   UNL A   1      35.251  22.421  25.626  1.00  0.00     0.151 A 
ATOM     19  N   UNL A   1      34.669  21.627  26.533  1.00  0.00    -0.172 NA
BRANCH  18  20
ATOM     20  C   UNL A   1      36.575  22.030  24.987  1.00  0.00     0.023 C 
ATOM     21  C   UNL A   1      36.721  20.496  25.000  1.00  0.00     0.019 C 
ATOM     22  C   UNL A   1      36.653  22.519  23.526  1.00  0.00     0.019 C 
ATOM     23  C   UNL A   1      37.772  22.645  25.745  1.00  0.00     0.019 C 
ENDBRANCH  18  20
ENDBRANCH  14  15
ENDBRANCH   9  14
ENDBRANCH   3   6
ENDBRANCH   1   2
BRANCH   1  24
ATOM     24  C   UNL A   1      31.478  32.234  26.876  1.00  0.00     0.042 C 
BRANCH  24  25
ATOM     25  C   UNL A   1      32.750  33.076  26.973  1.00  0.00     0.118 C 
BRANCH  25  26
ATOM     26  N   UNL A   1      32.497  34.357  27.626  1.00  0.00    -0.352 N 
ATOM     27  C   UNL A   1      33.034  34.874  28.773  1.00  0.00     0.251 C 
ATOM     28  H   UNL A   1      31.842  34.936  27.172  1.00  0.00     0.163 HD
ATOM     29  O   UNL A   1      32.514  35.856  29.308  1.00  0.00    -0.269 OA
BRANCH  27  30
ATOM     30  C   UNL A   1      34.235  34.264  29.376  1.00  0.00     0.039 A 
ATOM     31  C   UNL A   1      35.500  34.676  28.947  1.00  0.00     0.014 A 
ATOM     32  C   UNL A   1      34.111  33.258  30.337  1.00  0.00     0.014 A 
ATOM     33  C   UNL A   1      36.643  34.116  29.521  1.00  0.00     0.010 A 
ATOM     34  C   UNL A   1      35.246  32.755  30.960  1.00  0.00     0.010 A 
ATOM     35  C   UNL A   1      36.523  33.172  30.552  1.00  0.00    -0.014 A 
BRANCH  35  36
ATOM     36  C   UNL A   1      37.713  32.580  31.212  1.00  0.00     0.031 A 
ATOM     37  C   UNL A   1      38.440  31.444  30.551  1.00  0.00     0.074 A 
ATOM     38  C   UNL A   1      38.075  32.997  32.438  1.00  0.00     0.049 A 
ATOM     39  N   UNL A   1      39.398  30.686  31.020  1.00  0.00    -0.248 NA
ATOM     40  C   UNL A   1      38.005  31.092  29.190  1.00  0.00     0.031 C 
ATOM     41  C   UNL A   1      37.423  34.067  33.194  1.00  0.00     0.029 A 
ATOM     42  N   UNL A   1      39.065  32.549  33.279  1.00  0.00    -0.354 N 
ATOM     43  C   UNL A   1      39.665  29.758  30.021  1.00  0.00     0.074 A 
ATOM     44  C   UNL A   1      38.729  30.010  28.947  1.00  0.00     0.031 C 
ATOM     45  C   UNL A   1      38.029  34.194  34.385  1.00  0.00     0.029 A 
ATOM     46  C   UNL A   1      39.080  33.186  34.495  1.00  0.00     0.049 A 
ATOM     47  H   UNL A   1      39.701  31.840  33.032  1.00  0.00     0.167 HD
ATOM     48  C   UNL A   1      40.621  28.798  29.994  1.00  0.00     0.037 A 
ATOM     49  C   UNL A   1      39.839  32.965  35.585  1.00  0.00     0.037 A 
ATOM     50  C   UNL A   1      41.555  28.564  31.064  1.00  0.00     0.049 A 
ATOM     51  C   UNL A   1      40.882  31.880  35.543  1.00  0.00     0.074 A 
ATOM     52  C   UNL A   1      42.587  27.645  31.124  1.00  0.00     0.029 A 
ATOM     53  N   UNL A   1      41.563  29.256  32.268  1.00  0.00    -0.354 N 
ATOM     54  N   UNL A   1      41.163  31.041  34.575  1.00  0.00    -0.248 NA
ATOM     55  C   UNL A   1      41.717  31.715  36.740  1.00  0.00     0.031 C 
ATOM     56  C   UNL A   1      43.188  27.746  32.383  1.00  0.00     0.029 A 
ATOM     57  C   UNL A   1      42.572  28.772  33.084  1.00  0.00     0.049 A 
ATOM     58  H   UNL A   1      40.944  29.984  32.505  1.00  0.00     0.167 HD
ATOM     59  C   UNL A   1      42.226  30.273  35.031  1.00  0.00     0.074 A 
ATOM     60  C   UNL A   1      42.543  30.748  36.362  1.00  0.00     0.031 C 
ATOM     61  C   UNL A   1      42.884  29.270  34.400  1.00  0.00     0.037 A 
BRANCH  48  62
ATOM     62  C   UNL A   1      40.693  27.930  28.770  1.00  0.00     0.064 A 
ATOM     63  C   UNL A   1      41.473  28.287  27.658  1.00  0.00     0.173 A 
ATOM     64  C   UNL A   1      39.981  26.723  28.707  1.00  0.00     0.173 A 
ATOM     65  F   UNL A   1      42.168  29.436  27.661  1.00  0.00    -0.203 F 
ATOM     66  C   UNL A   1      41.502  27.493  26.515  1.00  0.00     0.198 A 
ATOM     67  C   UNL A   1      40.041  25.912  27.575  1.00  0.00     0.198 A 
ATOM     68  F   UNL A   1      39.226  26.327  29.742  1.00  0.00    -0.203 F 
ATOM     69  F   UNL A   1      42.199  27.890  25.442  1.00  0.00    -0.200 F 
ATOM     70  C   UNL A   1      40.790  26.304  26.476  1.00  0.00     0.200 A 
ATOM     71  F   UNL A   1      39.365  24.755  27.546  1.00  0.00    -0.200 F 
ATOM     72  F   UNL A   1      40.817  25.539  25.376  1.00  0.00    -0.200 F 
ENDBRANCH  48  62
BRANCH  49  73
ATOM     73  C   UNL A   1      39.644  33.800  36.799  1.00  0.00     0.064 A 
ATOM     74  C   UNL A   1      40.267  35.049  36.923  1.00  0.00     0.173 A 
ATOM     75  C   UNL A   1      38.812  33.378  37.847  1.00  0.00     0.173 A 
ATOM     76  F   UNL A   1      41.085  35.488  35.956  1.00  0.00    -0.203 F 
ATOM     77  C   UNL A   1      40.080  35.838  38.057  1.00  0.00     0.198 A 
ATOM     78  C   UNL A   1      38.602  34.181  38.967  1.00  0.00     0.198 A 
ATOM     79  F   UNL A   1      38.185  32.195  37.773  1.00  0.00    -0.203 F 
ATOM     80  F   UNL A   1      40.718  37.011  38.167  1.00  0.00    -0.200 F 
ATOM     81  C   UNL A   1      39.241  35.407  39.074  1.00  0.00     0.200 A 
ATOM     82  F   UNL A   1      37.777  33.768  39.938  1.00  0.00    -0.200 F 
ATOM     83  F   UNL A   1      39.052  36.170  40.158  1.00  0.00    -0.200 F 
ENDBRANCH  49  73
BRANCH  61  84
ATOM     84  C   UNL A   1      44.049  28.647  35.113  1.00  0.00     0.064 A 
ATOM     85  C   UNL A   1      43.902  27.507  35.915  1.00  0.00     0.173 A 
ATOM     86  C   UNL A   1      45.342  29.157  34.924  1.00  0.00     0.173 A 
ATOM     87  F   UNL A   1      42.684  26.990  36.139  1.00  0.00    -0.203 F 
ATOM     88  C   UNL A   1      45.008  26.908  36.515  1.00  0.00     0.198 A 
ATOM     89  C   UNL A   1      46.449  28.538  35.499  1.00  0.00     0.198 A 
ATOM     90  F   UNL A   1      45.537  30.242  34.160  1.00  0.00    -0.203 F 
ATOM     91  F   UNL A   1      44.842  25.840  37.307  1.00  0.00    -0.200 F 
ATOM     92  C   UNL A   1      46.280  27.416  36.297  1.00  0.00     0.200 A 
ATOM     93  F   UNL A   1      47.678  29.021  35.274  1.00  0.00    -0.200 F 
ATOM     94  F   UNL A   1      47.345  26.827  36.859  1.00  0.00    -0.200 F 
ENDBRANCH  61  84
ENDBRANCH  35  36
ENDBRANCH  27  30
ENDBRANCH  25  26
ENDBRANCH  24  25
ENDBRANCH   1  24
TORSDOF 14
ENDMDL
MODEL 3
REMARK VINA RESULT:     -12.3      4.591     10.163
REMARK SMILES COc1ccc(C(=O)NCCCNC(=O)c2ccc(-c3c4nc(c(-c5c(F)c(F)c(F)c(F)c5F)c5ccc([nH]5)c(-c5c(F)c(F)c(F)c(F)c5F)c5nc(c(-c6c(F)c(F)c(F)c(F)c6F)c6ccc3[nH]6)C=C5)C=C4)cc2)cc1Oc1nc(C(C)(C)C)ns1
REMARK SMILES IDX 10 1 9 2 7 3 8 4 6 6 3 7 4 8 80 9 5 10 79 11 2 12 1 13 81 14
REMARK SMILES IDX 82 15 83 16 90 17 84 18 89 19 85 20 86 21 87 22 88 23 11 24
REMARK SMILES IDX 12 25 13 26 14 27 15 29 16 30 17 31 78 32 18 33 77 34 19 35
REMARK SMILES IDX 20 36 21 37 71 38 22 39 76 40 70 41 72 42 23 43 75 44 69 45
REMARK SMILES IDX 68 46 24 48 56 49 36 50 55 51 37 52 40 53 54 54 73 55 38 56
REMARK SMILES IDX 39 57 53 59 74 60 41 61 25 62 26 63 34 64 27 65 28 66 32 67
REMARK SMILES IDX 35 68 29 69 30 70 33 71 31 72 57 73 58 74 66 75 59 76 60 77
REMARK SMILES IDX 64 78 67 79 61 80 62 81 65 82 63 83 42 84 43 85 51 86 44 87
REMARK SMILES IDX 45 88 49 89 52 90 46 91 47 92 50 93 48 94
REMARK H PARENT 9 5 13 28 72 47 40 58
REMARK Flexibility Score: inf
ROOT
ATOM      1  C   UNL A   1      37.327  20.904  24.589  1.00  0.00     0.118 C 
ENDROOT
BRANCH   1   2
ATOM      2  N   UNL A   1      37.836  22.091  25.248  1.00  0.00    -0.352 N 
ATOM      3  C   UNL A   1      37.253  23.241  25.707  1.00  0.00     0.251 C 
ATOM      4  O   UNL A   1      38.008  24.076  26.210  1.00  0.00    -0.269 OA
ATOM      5  H   UNL A   1      38.808  22.064  25.397  1.00  0.00     0.163 HD
BRANCH   3   6
ATOM      6  C   UNL A   1      35.786  23.520  25.683  1.00  0.00     0.043 A 
ATOM      7  C   UNL A   1      32.987  23.839  25.763  1.00  0.00     0.161 A 
ATOM      8  C   UNL A   1      33.613  22.940  26.625  1.00  0.00     0.051 A 
ATOM      9  C   UNL A   1      33.751  24.618  24.888  1.00  0.00     0.173 A 
ATOM     10  C   UNL A   1      34.999  22.770  26.572  1.00  0.00     0.018 A 
ATOM     11  C   UNL A   1      35.151  24.471  24.879  1.00  0.00     0.065 A 
BRANCH   7  12
ATOM     12  O   UNL A   1      31.634  23.988  25.883  1.00  0.00    -0.493 OA
ATOM     13  C   UNL A   1      31.108  23.110  26.878  1.00  0.00     0.278 C 
ENDBRANCH   7  12
BRANCH   9  14
ATOM     14  O   UNL A   1      33.275  25.508  23.950  1.00  0.00    -0.426 OA
BRANCH  14  15
ATOM     15  C   UNL A   1      33.254  26.822  24.154  1.00  0.00     0.298 A 
ATOM     16  N   UNL A   1      32.789  27.362  25.262  1.00  0.00    -0.185 NA
ATOM     17  S   UNL A   1      33.653  27.990  22.969  1.00  0.00     0.025 S 
ATOM     18  C   UNL A   1      32.861  28.751  25.131  1.00  0.00     0.151 A 
ATOM     19  N   UNL A   1      33.270  29.272  23.967  1.00  0.00    -0.172 NA
BRANCH  18  20
ATOM     20  C   UNL A   1      32.425  29.655  26.275  1.00  0.00     0.023 C 
ATOM     21  C   UNL A   1      31.776  28.806  27.385  1.00  0.00     0.019 C 
ATOM     22  C   UNL A   1      33.629  30.411  26.874  1.00  0.00     0.019 C 
ATOM     23  C   UNL A   1      31.403  30.712  25.801  1.00  0.00     0.019 C 
ENDBRANCH  18  20
ENDBRANCH  14  15
ENDBRANCH   9  14
ENDBRANCH   3   6
ENDBRANCH   1   2
BRANCH   1  24
ATOM     24  C   UNL A   1      38.148  19.679  24.989  1.00  0.00     0.042 C 
BRANCH  24  25
ATOM     25  C   UNL A   1      39.125  19.976  26.126  1.00  0.00     0.118 C 
BRANCH  25  26
ATOM     26  N   UNL A   1      40.292  19.100  26.074  1.00  0.00    -0.352 N 
ATOM     27  C   UNL A   1      41.624  19.418  26.065  1.00  0.00     0.251 C 
ATOM     28  H   UNL A   1      40.091  18.137  26.040  1.00  0.00     0.163 HD
ATOM     29  O   UNL A   1      42.457  18.562  25.759  1.00  0.00    -0.269 OA
BRANCH  27  30
ATOM     30  C   UNL A   1      42.068  20.778  26.421  1.00  0.00     0.039 A 
ATOM     31  C   UNL A   1      42.300  21.093  27.763  1.00  0.00     0.014 A 
ATOM     32  C   UNL A   1      42.220  21.754  25.432  1.00  0.00     0.014 A 
ATOM     33  C   UNL A   1      42.736  22.374  28.109  1.00  0.00     0.010 A 
ATOM     34  C   UNL A   1      42.723  23.004  25.768  1.00  0.00     0.010 A 
ATOM     35  C   UNL A   1      42.978  23.330  27.110  1.00  0.00    -0.014 A 
BRANCH  35  36
ATOM     36  C   UNL A   1      43.475  24.689  27.435  1.00  0.00     0.031 A 
ATOM     37  C   UNL A   1      42.523  25.719  27.975  1.00  0.00     0.074 A 
ATOM     38  C   UNL A   1      44.747  25.022  27.153  1.00  0.00     0.049 A 
ATOM     39  N   UNL A   1      42.710  26.998  28.177  1.00  0.00    -0.248 NA
ATOM     40  C   UNL A   1      41.167  25.250  28.300  1.00  0.00     0.031 C 
ATOM     41  C   UNL A   1      45.753  24.118  26.593  1.00  0.00     0.029 A 
ATOM     42  N   UNL A   1      45.405  26.221  27.272  1.00  0.00    -0.354 N 
ATOM     43  C   UNL A   1      41.492  27.487  28.632  1.00  0.00     0.074 A 
ATOM     44  C   UNL A   1      40.559  26.382  28.620  1.00  0.00     0.031 C 
ATOM     45  C   UNL A   1      46.899  24.794  26.418  1.00  0.00     0.029 A 
ATOM     46  C   UNL A   1      46.697  26.186  26.809  1.00  0.00     0.049 A 
ATOM     47  H   UNL A   1      44.991  27.028  27.653  1.00  0.00     0.167 HD
ATOM     48  C   UNL A   1      41.188  28.741  29.045  1.00  0.00     0.037 A 
ATOM     49  C   UNL A   1      47.608  27.171  26.690  1.00  0.00     0.037 A 
ATOM     50  C   UNL A   1      42.128  29.832  29.064  1.00  0.00     0.049 A 
ATOM     51  C   UNL A   1      47.244  28.562  27.135  1.00  0.00     0.074 A 
ATOM     52  C   UNL A   1      41.935  31.130  29.500  1.00  0.00     0.029 A 
ATOM     53  N   UNL A   1      43.441  29.747  28.621  1.00  0.00    -0.354 N 
ATOM     54  N   UNL A   1      46.107  29.006  27.613  1.00  0.00    -0.248 NA
ATOM     55  C   UNL A   1      48.290  29.588  27.030  1.00  0.00     0.031 C 
ATOM     56  C   UNL A   1      43.116  31.845  29.274  1.00  0.00     0.029 A 
ATOM     57  C   UNL A   1      44.065  30.976  28.757  1.00  0.00     0.049 A 
ATOM     58  H   UNL A   1      43.866  28.933  28.265  1.00  0.00     0.167 HD
ATOM     59  C   UNL A   1      46.308  30.349  27.898  1.00  0.00     0.074 A 
ATOM     60  C   UNL A   1      47.680  30.649  27.542  1.00  0.00     0.031 C 
ATOM     61  C   UNL A   1      45.437  31.251  28.414  1.00  0.00     0.037 A 
BRANCH  48  62
ATOM     62  C   UNL A   1      39.779  28.995  29.502  1.00  0.00     0.064 A 
ATOM     63  C   UNL A   1      38.789  29.455  28.619  1.00  0.00     0.173 A 
ATOM     64  C   UNL A   1      39.408  28.769  30.837  1.00  0.00     0.173 A 
ATOM     65  F   UNL A   1      39.091  29.697  27.333  1.00  0.00    -0.203 F 
ATOM     66  C   UNL A   1      37.497  29.723  29.062  1.00  0.00     0.198 A 
ATOM     67  C   UNL A   1      38.104  29.002  31.269  1.00  0.00     0.198 A 
ATOM     68  F   UNL A   1      40.309  28.321  31.723  1.00  0.00    -0.203 F 
ATOM     69  F   UNL A   1      36.590  30.226  28.214  1.00  0.00    -0.200 F 
ATOM     70  C   UNL A   1      37.155  29.491  30.385  1.00  0.00     0.200 A 
ATOM     71  F   UNL A   1      37.771  28.762  32.544  1.00  0.00    -0.200 F 
ATOM     72  F   UNL A   1      35.911  29.748  30.812  1.00  0.00    -0.200 F 
ENDBRANCH  48  62
BRANCH  49  73
ATOM     73  C   UNL A   1      48.952  26.866  26.136  1.00  0.00     0.064 A 
ATOM     74  C   UNL A   1      49.231  27.052  24.775  1.00  0.00     0.173 A 
ATOM     75  C   UNL A   1      49.993  26.407  26.958  1.00  0.00     0.173 A 
ATOM     76  F   UNL A   1      48.265  27.473  23.946  1.00  0.00    -0.203 F 
ATOM     77  C   UNL A   1      50.494  26.774  24.253  1.00  0.00     0.198 A 
ATOM     78  C   UNL A   1      51.263  26.158  26.441  1.00  0.00     0.198 A 
ATOM     79  F   UNL A   1      49.781  26.221  28.268  1.00  0.00    -0.203 F 
ATOM     80  F   UNL A   1      50.722  26.924  22.942  1.00  0.00    -0.200 F 
ATOM     81  C   UNL A   1      51.510  26.335  25.088  1.00  0.00     0.200 A 
ATOM     82  F   UNL A   1      52.247  25.751  27.254  1.00  0.00    -0.200 F 
ATOM     83  F   UNL A   1      52.726  26.079  24.589  1.00  0.00    -0.200 F 
ENDBRANCH  49  73
BRANCH  61  84
ATOM     84  C   UNL A   1      45.948  32.638  28.679  1.00  0.00     0.064 A 
ATOM     85  C   UNL A   1      45.842  33.660  27.726  1.00  0.00     0.173 A 
ATOM     86  C   UNL A   1      46.482  32.962  29.935  1.00  0.00     0.173 A 
ATOM     87  F   UNL A   1      45.352  33.398  26.504  1.00  0.00    -0.203 F 
ATOM     88  C   UNL A   1      46.264  34.955  28.018  1.00  0.00     0.198 A 
ATOM     89  C   UNL A   1      46.874  34.263  30.235  1.00  0.00     0.198 A 
ATOM     90  F   UNL A   1      46.599  32.020  30.883  1.00  0.00    -0.203 F 
ATOM     91  F   UNL A   1      46.186  35.910  27.082  1.00  0.00    -0.200 F 
ATOM     92  C   UNL A   1      46.768  35.258  29.274  1.00  0.00     0.200 A 
ATOM     93  F   UNL A   1      47.346  34.556  31.454  1.00  0.00    -0.200 F 
ATOM     94  F   UNL A   1      47.156  36.509  29.560  1.00  0.00    -0.200 F 
ENDBRANCH  61  84
ENDBRANCH  35  36
ENDBRANCH  27  30
ENDBRANCH  25  26
ENDBRANCH  24  25
ENDBRANCH   1  24
TORSDOF 14
ENDMDL
