MODEL 1
REMARK VINA RESULT:     -12.6      0.000      0.000
REMARK SMILES CCOC(=O)c1nc(Nc2cccc(C(=O)NCCCNC(=O)c3ccc(-c4c5nc(c(-c6c(F)c(F)c(F)c(F)c6F)c6ccc([nH]6)c(-c6c(F)c(F)c(F)c(F)c6F)c6nc(c(-c7c(F)c(F)c(F)c(F)c7F)c7ccc4[nH]7)C=C6)C=C5)cc3)c2)c2ccccc2n1
REMARK SMILES IDX 15 1 16 2 17 3 14 5 10 6 11 7 87 8 12 9 13 10 9 11 8 13 6 14
REMARK SMILES IDX 7 15 94 16 93 17 88 18 92 19 89 20 91 21 90 22 4 23 5 24
REMARK SMILES IDX 3 25 2 26 1 27 18 28 19 29 20 30 21 31 22 32 23 34 24 35
REMARK SMILES IDX 25 36 86 37 26 38 85 39 27 40 28 41 29 42 79 43 30 44 84 45
REMARK SMILES IDX 78 46 80 47 31 48 83 49 77 50 76 51 32 53 64 54 44 55 63 56
REMARK SMILES IDX 45 57 48 58 62 59 81 60 46 61 47 62 61 64 82 65 49 66 33 67
REMARK SMILES IDX 34 68 42 69 35 70 36 71 40 72 43 73 37 74 38 75 41 76 39 77
REMARK SMILES IDX 65 78 66 79 74 80 67 81 68 82 72 83 75 84 69 85 70 86 73 87
REMARK SMILES IDX 71 88 50 89 51 90 59 91 52 92 53 93 57 94 60 95 54 96 55 97
REMARK SMILES IDX 58 98 56 99
REMARK H PARENT 17 4 9 12 21 33 80 52 48 63
REMARK Flexibility Score: inf
ROOT
ATOM      1  C   UNL A   1      31.413  28.115  22.931  1.00  0.00     0.251 C 
ATOM      2  O   UNL A   1      30.487  28.502  22.214  1.00  0.00    -0.269 OA
ATOM      3  N   UNL A   1      31.949  29.037  23.803  1.00  0.00    -0.352 N 
ATOM      4  H   UNL A   1      31.492  29.907  23.762  1.00  0.00     0.163 HD
ENDROOT
BRANCH   1   5
ATOM      5  C   UNL A   1      31.919  26.724  22.759  1.00  0.00     0.041 A 
ATOM      6  C   UNL A   1      32.667  24.579  23.677  1.00  0.00     0.040 A 
ATOM      7  C   UNL A   1      33.111  24.205  22.408  1.00  0.00     0.026 A 
ATOM      8  C   UNL A   1      31.988  25.798  23.795  1.00  0.00     0.040 A 
ATOM      9  C   UNL A   1      32.903  25.046  21.310  1.00  0.00     0.003 A 
ATOM     10  C   UNL A   1      32.339  26.312  21.489  1.00  0.00     0.014 A 
BRANCH   6  11
ATOM     11  N   UNL A   1      32.905  23.759  24.800  1.00  0.00    -0.340 N 
ATOM     12  H   UNL A   1      32.528  24.074  25.653  1.00  0.00     0.168 HD
BRANCH  11  13
ATOM     13  C   UNL A   1      33.617  22.544  24.850  1.00  0.00     0.142 A 
ATOM     14  C   UNL A   1      33.544  20.251  24.790  1.00  0.00     0.241 A 
ATOM     15  N   UNL A   1      32.902  21.420  24.703  1.00  0.00    -0.204 NA
ATOM     16  N   UNL A   1      34.861  20.097  25.001  1.00  0.00    -0.222 NA
ATOM     17  C   UNL A   1      35.575  21.222  25.116  1.00  0.00     0.077 A 
ATOM     18  C   UNL A   1      35.005  22.508  25.072  1.00  0.00     0.043 A 
ATOM     19  C   UNL A   1      36.950  21.110  25.272  1.00  0.00     0.029 A 
ATOM     20  C   UNL A   1      35.839  23.643  25.250  1.00  0.00     0.014 A 
ATOM     21  C   UNL A   1      37.776  22.230  25.400  1.00  0.00     0.002 A 
ATOM     22  C   UNL A   1      37.217  23.500  25.404  1.00  0.00     0.001 A 
BRANCH  14  23
ATOM     23  C   UNL A   1      32.691  19.045  24.561  1.00  0.00     0.376 C 
ATOM     24  O   UNL A   1      32.154  18.415  25.460  1.00  0.00    -0.242 OA
BRANCH  23  25
ATOM     25  O   UNL A   1      32.663  18.720  23.240  1.00  0.00    -0.460 OA
BRANCH  25  26
ATOM     26  C   UNL A   1      32.901  17.330  22.963  1.00  0.00     0.230 C 
ATOM     27  C   UNL A   1      34.350  16.946  23.216  1.00  0.00     0.049 C 
ENDBRANCH  25  26
ENDBRANCH  23  25
ENDBRANCH  14  23
ENDBRANCH  11  13
ENDBRANCH   6  11
ENDBRANCH   1   5
BRANCH   3  28
ATOM     28  C   UNL A   1      33.036  29.020  24.775  1.00  0.00     0.118 C 
BRANCH  28  29
ATOM     29  C   UNL A   1      32.677  28.340  26.086  1.00  0.00     0.042 C 
BRANCH  29  30
ATOM     30  C   UNL A   1      33.677  28.586  27.202  1.00  0.00     0.118 C 
BRANCH  30  31
ATOM     31  N   UNL A   1      33.720  29.984  27.621  1.00  0.00    -0.352 N 
ATOM     32  C   UNL A   1      34.676  30.697  28.301  1.00  0.00     0.251 C 
ATOM     33  H   UNL A   1      32.923  30.507  27.371  1.00  0.00     0.163 HD
ATOM     34  O   UNL A   1      34.402  31.810  28.742  1.00  0.00    -0.269 OA
BRANCH  32  35
ATOM     35  C   UNL A   1      36.026  30.138  28.523  1.00  0.00     0.039 A 
ATOM     36  C   UNL A   1      36.965  30.189  27.487  1.00  0.00     0.014 A 
ATOM     37  C   UNL A   1      36.364  29.536  29.735  1.00  0.00     0.014 A 
ATOM     38  C   UNL A   1      38.261  29.712  27.698  1.00  0.00     0.010 A 
ATOM     39  C   UNL A   1      37.681  29.160  29.980  1.00  0.00     0.010 A 
ATOM     40  C   UNL A   1      38.643  29.238  28.963  1.00  0.00    -0.014 A 
BRANCH  40  41
ATOM     41  C   UNL A   1      40.038  28.819  29.254  1.00  0.00     0.031 A 
ATOM     42  C   UNL A   1      40.980  29.765  29.946  1.00  0.00     0.074 A 
ATOM     43  C   UNL A   1      40.480  27.626  28.809  1.00  0.00     0.049 A 
ATOM     44  N   UNL A   1      42.262  29.633  30.183  1.00  0.00    -0.248 NA
ATOM     45  C   UNL A   1      40.416  31.045  30.403  1.00  0.00     0.031 C 
ATOM     46  C   UNL A   1      39.677  26.646  28.075  1.00  0.00     0.029 A 
ATOM     47  N   UNL A   1      41.720  27.042  28.890  1.00  0.00    -0.354 N 
ATOM     48  C   UNL A   1      42.657  30.818  30.790  1.00  0.00     0.074 A 
ATOM     49  C   UNL A   1      41.495  31.678  30.838  1.00  0.00     0.031 C 
ATOM     50  C   UNL A   1      40.438  25.578  27.788  1.00  0.00     0.029 A 
ATOM     51  C   UNL A   1      41.793  25.816  28.275  1.00  0.00     0.049 A 
ATOM     52  H   UNL A   1      42.484  27.463  29.347  1.00  0.00     0.167 HD
ATOM     53  C   UNL A   1      43.874  31.149  31.282  1.00  0.00     0.037 A 
ATOM     54  C   UNL A   1      42.840  24.986  28.105  1.00  0.00     0.037 A 
ATOM     55  C   UNL A   1      45.017  30.273  31.260  1.00  0.00     0.049 A 
ATOM     56  C   UNL A   1      44.181  25.377  28.666  1.00  0.00     0.074 A 
ATOM     57  C   UNL A   1      46.271  30.481  31.806  1.00  0.00     0.029 A 
ATOM     58  N   UNL A   1      45.044  29.025  30.657  1.00  0.00    -0.354 N 
ATOM     59  N   UNL A   1      44.523  26.465  29.312  1.00  0.00    -0.248 NA
ATOM     60  C   UNL A   1      45.281  24.421  28.479  1.00  0.00     0.031 C 
ATOM     61  C   UNL A   1      47.075  29.384  31.481  1.00  0.00     0.029 A 
ATOM     62  C   UNL A   1      46.305  28.464  30.789  1.00  0.00     0.049 A 
ATOM     63  H   UNL A   1      44.281  28.600  30.203  1.00  0.00     0.167 HD
ATOM     64  C   UNL A   1      45.865  26.315  29.631  1.00  0.00     0.074 A 
ATOM     65  C   UNL A   1      46.271  25.020  29.126  1.00  0.00     0.031 C 
ATOM     66  C   UNL A   1      46.689  27.171  30.285  1.00  0.00     0.037 A 
BRANCH  53  67
ATOM     67  C   UNL A   1      44.039  32.515  31.885  1.00  0.00     0.064 A 
ATOM     68  C   UNL A   1      43.795  32.757  33.245  1.00  0.00     0.173 A 
ATOM     69  C   UNL A   1      44.493  33.587  31.100  1.00  0.00     0.173 A 
ATOM     70  F   UNL A   1      43.349  31.771  34.038  1.00  0.00    -0.203 F 
ATOM     71  C   UNL A   1      43.972  34.026  33.791  1.00  0.00     0.198 A 
ATOM     72  C   UNL A   1      44.701  34.846  31.657  1.00  0.00     0.198 A 
ATOM     73  F   UNL A   1      44.748  33.410  29.795  1.00  0.00    -0.203 F 
ATOM     74  F   UNL A   1      43.686  34.245  35.082  1.00  0.00    -0.200 F 
ATOM     75  C   UNL A   1      44.434  35.067  32.999  1.00  0.00     0.200 A 
ATOM     76  F   UNL A   1      45.163  35.846  30.893  1.00  0.00    -0.200 F 
ATOM     77  F   UNL A   1      44.616  36.284  33.529  1.00  0.00    -0.200 F 
ENDBRANCH  53  67
BRANCH  54  78
ATOM     78  C   UNL A   1      42.661  23.700  27.380  1.00  0.00     0.064 A 
ATOM     79  C   UNL A   1      42.084  22.588  28.014  1.00  0.00     0.173 A 
ATOM     80  C   UNL A   1      43.073  23.547  26.048  1.00  0.00     0.173 A 
ATOM     81  F   UNL A   1      41.692  22.676  29.293  1.00  0.00    -0.203 F 
ATOM     82  C   UNL A   1      41.952  21.369  27.351  1.00  0.00     0.198 A 
ATOM     83  C   UNL A   1      42.910  22.338  25.377  1.00  0.00     0.198 A 
ATOM     84  F   UNL A   1      43.623  24.580  25.393  1.00  0.00    -0.203 F 
ATOM     85  F   UNL A   1      41.448  20.310  27.998  1.00  0.00    -0.200 F 
ATOM     86  C   UNL A   1      42.360  21.247  26.032  1.00  0.00     0.200 A 
ATOM     87  F   UNL A   1      43.287  22.229  24.095  1.00  0.00    -0.200 F 
ATOM     88  F   UNL A   1      42.229  20.076  25.394  1.00  0.00    -0.200 F 
ENDBRANCH  54  78
BRANCH  66  89
ATOM     89  C   UNL A   1      48.103  26.722  30.520  1.00  0.00     0.064 A 
ATOM     90  C   UNL A   1      48.457  25.953  31.637  1.00  0.00     0.173 A 
ATOM     91  C   UNL A   1      49.108  27.033  29.589  1.00  0.00     0.173 A 
ATOM     92  F   UNL A   1      47.538  25.642  32.562  1.00  0.00    -0.203 F 
ATOM     93  C   UNL A   1      49.771  25.535  31.830  1.00  0.00     0.198 A 
ATOM     94  C   UNL A   1      50.413  26.584  29.768  1.00  0.00     0.198 A 
ATOM     95  F   UNL A   1      48.820  27.760  28.500  1.00  0.00    -0.203 F 
ATOM     96  F   UNL A   1      50.098  24.846  32.931  1.00  0.00    -0.200 F 
ATOM     97  C   UNL A   1      50.745  25.843  30.892  1.00  0.00     0.200 A 
ATOM     98  F   UNL A   1      51.349  26.868  28.851  1.00  0.00    -0.200 F 
ATOM     99  F   UNL A   1      52.007  25.431  31.074  1.00  0.00    -0.200 F 
ENDBRANCH  66  89
ENDBRANCH  40  41
ENDBRANCH  32  35
ENDBRANCH  30  31
ENDBRANCH  29  30
ENDBRANCH  28  29
ENDBRANCH   3  28
TORSDOF 15
ENDMDL
MODEL 2
REMARK VINA RESULT:     -12.6      3.223      8.397
REMARK SMILES CCOC(=O)c1nc(Nc2cccc(C(=O)NCCCNC(=O)c3ccc(-c4c5nc(c(-c6c(F)c(F)c(F)c(F)c6F)c6ccc([nH]6)c(-c6c(F)c(F)c(F)c(F)c6F)c6nc(c(-c7c(F)c(F)c(F)c(F)c7F)c7ccc4[nH]7)C=C6)C=C5)cc3)c2)c2ccccc2n1
REMARK SMILES IDX 15 1 16 2 17 3 14 5 10 6 11 7 87 8 12 9 13 10 9 11 8 13 6 14
REMARK SMILES IDX 7 15 94 16 93 17 88 18 92 19 89 20 91 21 90 22 4 23 5 24
REMARK SMILES IDX 3 25 2 26 1 27 18 28 19 29 20 30 21 31 22 32 23 34 24 35
REMARK SMILES IDX 25 36 86 37 26 38 85 39 27 40 28 41 29 42 79 43 30 44 84 45
REMARK SMILES IDX 78 46 80 47 31 48 83 49 77 50 76 51 32 53 64 54 44 55 63 56
REMARK SMILES IDX 45 57 48 58 62 59 81 60 46 61 47 62 61 64 82 65 49 66 33 67
REMARK SMILES IDX 34 68 42 69 35 70 36 71 40 72 43 73 37 74 38 75 41 76 39 77
REMARK SMILES IDX 65 78 66 79 74 80 67 81 68 82 72 83 75 84 69 85 70 86 73 87
REMARK SMILES IDX 71 88 50 89 51 90 59 91 52 92 53 93 57 94 60 95 54 96 55 97
REMARK SMILES IDX 58 98 56 99
REMARK H PARENT 17 4 9 12 21 33 80 52 48 63
REMARK Flexibility Score: inf
ROOT
ATOM      1  C   UNL A   1      34.368  21.360  25.874  1.00  0.00     0.251 C 
ATOM      2  O   UNL A   1      33.635  20.958  26.780  1.00  0.00    -0.269 OA
ATOM      3  N   UNL A   1      35.555  20.684  25.691  1.00  0.00    -0.352 N 
ATOM      4  H   UNL A   1      35.658  19.925  26.308  1.00  0.00     0.163 HD
ENDROOT
BRANCH   1   5
ATOM      5  C   UNL A   1      33.956  22.565  25.100  1.00  0.00     0.041 A 
ATOM      6  C   UNL A   1      32.531  24.533  24.782  1.00  0.00     0.040 A 
ATOM      7  C   UNL A   1      33.039  24.676  23.491  1.00  0.00     0.026 A 
ATOM      8  C   UNL A   1      33.084  23.532  25.590  1.00  0.00     0.040 A 
ATOM      9  C   UNL A   1      34.044  23.820  23.026  1.00  0.00     0.003 A 
ATOM     10  C   UNL A   1      34.477  22.751  23.815  1.00  0.00     0.014 A 
BRANCH   6  11
ATOM     11  N   UNL A   1      31.491  25.364  25.249  1.00  0.00    -0.340 N 
ATOM     12  H   UNL A   1      30.822  24.934  25.829  1.00  0.00     0.168 HD
BRANCH  11  13
ATOM     13  C   UNL A   1      31.294  26.735  24.987  1.00  0.00     0.142 A 
ATOM     14  C   UNL A   1      30.111  28.340  23.852  1.00  0.00     0.241 A 
ATOM     15  N   UNL A   1      30.293  27.051  24.153  1.00  0.00    -0.204 NA
ATOM     16  N   UNL A   1      30.839  29.363  24.325  1.00  0.00    -0.222 NA
ATOM     17  C   UNL A   1      31.815  29.046  25.182  1.00  0.00     0.077 A 
ATOM     18  C   UNL A   1      32.121  27.722  25.551  1.00  0.00     0.043 A 
ATOM     19  C   UNL A   1      32.552  30.079  25.746  1.00  0.00     0.029 A 
ATOM     20  C   UNL A   1      33.207  27.481  26.432  1.00  0.00     0.014 A 
ATOM     21  C   UNL A   1      33.591  29.843  26.650  1.00  0.00     0.002 A 
ATOM     22  C   UNL A   1      33.929  28.538  26.984  1.00  0.00     0.001 A 
BRANCH  14  23
ATOM     23  C   UNL A   1      28.945  28.618  22.960  1.00  0.00     0.376 C 
ATOM     24  O   UNL A   1      27.834  28.137  23.125  1.00  0.00    -0.242 OA
BRANCH  23  25
ATOM     25  O   UNL A   1      29.316  29.411  21.917  1.00  0.00    -0.460 OA
BRANCH  25  26
ATOM     26  C   UNL A   1      28.292  30.306  21.453  1.00  0.00     0.230 C 
ATOM     27  C   UNL A   1      28.641  31.757  21.743  1.00  0.00     0.049 C 
ENDBRANCH  25  26
ENDBRANCH  23  25
ENDBRANCH  14  23
ENDBRANCH  11  13
ENDBRANCH   6  11
ENDBRANCH   1   5
BRANCH   3  28
ATOM     28  C   UNL A   1      36.694  20.834  24.792  1.00  0.00     0.118 C 
BRANCH  28  29
ATOM     29  C   UNL A   1      37.779  19.790  24.999  1.00  0.00     0.042 C 
BRANCH  29  30
ATOM     30  C   UNL A   1      38.978  20.294  25.783  1.00  0.00     0.118 C 
BRANCH  30  31
ATOM     31  N   UNL A   1      40.015  19.279  25.940  1.00  0.00    -0.352 N 
ATOM     32  C   UNL A   1      41.372  19.390  26.114  1.00  0.00     0.251 C 
ATOM     33  H   UNL A   1      39.682  18.352  25.916  1.00  0.00     0.163 HD
ATOM     34  O   UNL A   1      42.082  18.394  25.999  1.00  0.00    -0.269 OA
BRANCH  32  35
ATOM     35  C   UNL A   1      41.994  20.694  26.424  1.00  0.00     0.039 A 
ATOM     36  C   UNL A   1      42.316  21.564  25.376  1.00  0.00     0.014 A 
ATOM     37  C   UNL A   1      42.292  21.055  27.738  1.00  0.00     0.014 A 
ATOM     38  C   UNL A   1      42.857  22.821  25.656  1.00  0.00     0.010 A 
ATOM     39  C   UNL A   1      42.729  22.344  28.023  1.00  0.00     0.010 A 
ATOM     40  C   UNL A   1      43.022  23.241  26.985  1.00  0.00    -0.014 A 
BRANCH  40  41
ATOM     41  C   UNL A   1      43.497  24.607  27.322  1.00  0.00     0.031 A 
ATOM     42  C   UNL A   1      42.529  25.633  27.844  1.00  0.00     0.074 A 
ATOM     43  C   UNL A   1      44.775  24.948  27.067  1.00  0.00     0.049 A 
ATOM     44  N   UNL A   1      42.720  26.907  28.084  1.00  0.00    -0.248 NA
ATOM     45  C   UNL A   1      41.153  25.178  28.099  1.00  0.00     0.031 C 
ATOM     46  C   UNL A   1      45.794  24.057  26.507  1.00  0.00     0.029 A 
ATOM     47  N   UNL A   1      45.433  26.143  27.225  1.00  0.00    -0.354 N 
ATOM     48  C   UNL A   1      41.489  27.403  28.490  1.00  0.00     0.074 A 
ATOM     49  C   UNL A   1      40.545  26.311  28.415  1.00  0.00     0.031 C 
ATOM     50  C   UNL A   1      46.948  24.730  26.384  1.00  0.00     0.029 A 
ATOM     51  C   UNL A   1      46.742  26.110  26.811  1.00  0.00     0.049 A 
ATOM     52  H   UNL A   1      45.006  26.947  27.600  1.00  0.00     0.167 HD
ATOM     53  C   UNL A   1      41.179  28.653  28.909  1.00  0.00     0.037 A 
ATOM     54  C   UNL A   1      47.667  27.088  26.763  1.00  0.00     0.037 A 
ATOM     55  C   UNL A   1      42.134  29.727  29.013  1.00  0.00     0.049 A 
ATOM     56  C   UNL A   1      47.297  28.467  27.238  1.00  0.00     0.074 A 
ATOM     57  C   UNL A   1      41.940  31.006  29.504  1.00  0.00     0.029 A 
ATOM     58  N   UNL A   1      43.460  29.647  28.615  1.00  0.00    -0.354 N 
ATOM     59  N   UNL A   1      46.151  28.905  27.699  1.00  0.00    -0.248 NA
ATOM     60  C   UNL A   1      48.353  29.488  27.192  1.00  0.00     0.031 C 
ATOM     61  C   UNL A   1      43.133  31.718  29.348  1.00  0.00     0.029 A 
ATOM     62  C   UNL A   1      44.089  30.865  28.819  1.00  0.00     0.049 A 
ATOM     63  H   UNL A   1      43.890  28.843  28.243  1.00  0.00     0.167 HD
ATOM     64  C   UNL A   1      46.353  30.239  28.022  1.00  0.00     0.074 A 
ATOM     65  C   UNL A   1      47.738  30.535  27.724  1.00  0.00     0.031 C 
ATOM     66  C   UNL A   1      45.470  31.140  28.522  1.00  0.00     0.037 A 
BRANCH  53  67
ATOM     67  C   UNL A   1      39.753  28.933  29.286  1.00  0.00     0.064 A 
ATOM     68  C   UNL A   1      38.823  29.420  28.355  1.00  0.00     0.173 A 
ATOM     69  C   UNL A   1      39.298  28.665  30.587  1.00  0.00     0.173 A 
ATOM     70  F   UNL A   1      39.207  29.703  27.101  1.00  0.00    -0.203 F 
ATOM     71  C   UNL A   1      37.499  29.654  28.719  1.00  0.00     0.198 A 
ATOM     72  C   UNL A   1      37.966  28.870  30.938  1.00  0.00     0.198 A 
ATOM     73  F   UNL A   1      40.143  28.193  31.516  1.00  0.00    -0.203 F 
ATOM     74  F   UNL A   1      36.641  30.166  27.825  1.00  0.00    -0.200 F 
ATOM     75  C   UNL A   1      37.070  29.370  30.007  1.00  0.00     0.200 A 
ATOM     76  F   UNL A   1      37.550  28.579  32.178  1.00  0.00    -0.200 F 
ATOM     77  F   UNL A   1      35.792  29.585  30.351  1.00  0.00    -0.200 F 
ENDBRANCH  53  67
BRANCH  54  78
ATOM     78  C   UNL A   1      49.034  26.797  26.253  1.00  0.00     0.064 A 
ATOM     79  C   UNL A   1      49.361  27.007  24.905  1.00  0.00     0.173 A 
ATOM     80  C   UNL A   1      50.036  26.291  27.094  1.00  0.00     0.173 A 
ATOM     81  F   UNL A   1      48.433  27.471  24.055  1.00  0.00    -0.203 F 
ATOM     82  C   UNL A   1      50.628  26.697  24.414  1.00  0.00     0.198 A 
ATOM     83  C   UNL A   1      51.312  26.013  26.609  1.00  0.00     0.198 A 
ATOM     84  F   UNL A   1      49.779  26.079  28.393  1.00  0.00    -0.203 F 
ATOM     85  F   UNL A   1      50.896  26.857  23.112  1.00  0.00    -0.200 F 
ATOM     86  C   UNL A   1      51.603  26.206  25.267  1.00  0.00     0.200 A 
ATOM     87  F   UNL A   1      52.258  25.556  27.441  1.00  0.00    -0.200 F 
ATOM     88  F   UNL A   1      52.823  25.911  24.796  1.00  0.00    -0.200 F 
ENDBRANCH  54  78
BRANCH  66  89
ATOM     89  C   UNL A   1      45.985  32.522  28.808  1.00  0.00     0.064 A 
ATOM     90  C   UNL A   1      45.902  33.551  27.860  1.00  0.00     0.173 A 
ATOM     91  C   UNL A   1      46.530  32.827  30.065  1.00  0.00     0.173 A 
ATOM     92  F   UNL A   1      45.403  33.307  26.639  1.00  0.00    -0.203 F 
ATOM     93  C   UNL A   1      46.372  34.829  28.150  1.00  0.00     0.198 A 
ATOM     94  C   UNL A   1      46.967  34.115  30.363  1.00  0.00     0.198 A 
ATOM     95  F   UNL A   1      46.626  31.881  31.010  1.00  0.00    -0.203 F 
ATOM     96  F   UNL A   1      46.331  35.784  27.211  1.00  0.00    -0.200 F 
ATOM     97  C   UNL A   1      46.896  35.112  29.402  1.00  0.00     0.200 A 
ATOM     98  F   UNL A   1      47.457  34.390  31.579  1.00  0.00    -0.200 F 
ATOM     99  F   UNL A   1      47.339  36.345  29.682  1.00  0.00    -0.200 F 
ENDBRANCH  66  89
ENDBRANCH  40  41
ENDBRANCH  32  35
ENDBRANCH  30  31
ENDBRANCH  29  30
ENDBRANCH  28  29
ENDBRANCH   3  28
TORSDOF 15
ENDMDL
MODEL 3
REMARK VINA RESULT:     -12.5      3.041      7.662
REMARK SMILES CCOC(=O)c1nc(Nc2cccc(C(=O)NCCCNC(=O)c3ccc(-c4c5nc(c(-c6c(F)c(F)c(F)c(F)c6F)c6ccc([nH]6)c(-c6c(F)c(F)c(F)c(F)c6F)c6nc(c(-c7c(F)c(F)c(F)c(F)c7F)c7ccc4[nH]7)C=C6)C=C5)cc3)c2)c2ccccc2n1
REMARK SMILES IDX 15 1 16 2 17 3 14 5 10 6 11 7 87 8 12 9 13 10 9 11 8 13 6 14
REMARK SMILES IDX 7 15 94 16 93 17 88 18 92 19 89 20 91 21 90 22 4 23 5 24
REMARK SMILES IDX 3 25 2 26 1 27 18 28 19 29 20 30 21 31 22 32 23 34 24 35
REMARK SMILES IDX 25 36 86 37 26 38 85 39 27 40 28 41 29 42 79 43 30 44 84 45
REMARK SMILES IDX 78 46 80 47 31 48 83 49 77 50 76 51 32 53 64 54 44 55 63 56
REMARK SMILES IDX 45 57 48 58 62 59 81 60 46 61 47 62 61 64 82 65 49 66 33 67
REMARK SMILES IDX 34 68 42 69 35 70 36 71 40 72 43 73 37 74 38 75 41 76 39 77
REMARK SMILES IDX 65 78 66 79 74 80 67 81 68 82 72 83 75 84 69 85 70 86 73 87
REMARK SMILES IDX 71 88 50 89 51 90 59 91 52 92 53 93 57 94 60 95 54 96 55 97
REMARK SMILES IDX 58 98 56 99
REMARK H PARENT 17 4 9 12 21 33 80 52 48 63
REMARK Flexibility Score: inf
ROOT
ATOM      1  C   UNL A   1      32.252  26.264  22.292  1.00  0.00     0.251 C 
ATOM      2  O   UNL A   1      31.894  25.604  21.314  1.00  0.00    -0.269 OA
ATOM      3  N   UNL A   1      33.041  27.365  22.042  1.00  0.00    -0.352 N 
ATOM      4  H   UNL A   1      33.202  27.505  21.082  1.00  0.00     0.163 HD
ENDROOT
BRANCH   1   5
ATOM      5  C   UNL A   1      31.866  25.795  23.654  1.00  0.00     0.041 A 
ATOM      6  C   UNL A   1      32.272  24.448  25.659  1.00  0.00     0.040 A 
ATOM      7  C   UNL A   1      30.982  24.740  26.102  1.00  0.00     0.026 A 
ATOM      8  C   UNL A   1      32.714  25.072  24.486  1.00  0.00     0.040 A 
ATOM      9  C   UNL A   1      30.161  25.604  25.369  1.00  0.00     0.003 A 
ATOM     10  C   UNL A   1      30.589  26.104  24.135  1.00  0.00     0.014 A 
BRANCH   6  11
ATOM     11  N   UNL A   1      33.096  23.548  26.367  1.00  0.00    -0.340 N 
ATOM     12  H   UNL A   1      33.101  23.644  27.347  1.00  0.00     0.168 HD
BRANCH  11  13
ATOM     13  C   UNL A   1      33.915  22.527  25.844  1.00  0.00     0.142 A 
ATOM     14  C   UNL A   1      34.046  20.427  24.926  1.00  0.00     0.241 A 
ATOM     15  N   UNL A   1      33.293  21.430  25.388  1.00  0.00    -0.204 NA
ATOM     16  N   UNL A   1      35.387  20.423  24.863  1.00  0.00    -0.222 NA
ATOM     17  C   UNL A   1      36.001  21.531  25.289  1.00  0.00     0.077 A 
ATOM     18  C   UNL A   1      35.316  22.639  25.824  1.00  0.00     0.043 A 
ATOM     19  C   UNL A   1      37.384  21.595  25.182  1.00  0.00     0.029 A 
ATOM     20  C   UNL A   1      36.059  23.754  26.293  1.00  0.00     0.014 A 
ATOM     21  C   UNL A   1      38.111  22.713  25.602  1.00  0.00     0.002 A 
ATOM     22  C   UNL A   1      37.447  23.790  26.172  1.00  0.00     0.001 A 
BRANCH  14  23
ATOM     23  C   UNL A   1      33.281  19.262  24.387  1.00  0.00     0.376 C 
ATOM     24  O   UNL A   1      32.437  19.353  23.508  1.00  0.00    -0.242 OA
BRANCH  23  25
ATOM     25  O   UNL A   1      33.604  18.123  25.059  1.00  0.00    -0.460 OA
BRANCH  25  26
ATOM     26  C   UNL A   1      34.492  17.244  24.350  1.00  0.00     0.230 C 
ATOM     27  C   UNL A   1      34.816  15.998  25.161  1.00  0.00     0.049 C 
ENDBRANCH  25  26
ENDBRANCH  23  25
ENDBRANCH  14  23
ENDBRANCH  11  13
ENDBRANCH   6  11
ENDBRANCH   1   5
BRANCH   3  28
ATOM     28  C   UNL A   1      33.693  28.372  22.873  1.00  0.00     0.118 C 
BRANCH  28  29
ATOM     29  C   UNL A   1      32.732  29.160  23.748  1.00  0.00     0.042 C 
BRANCH  29  30
ATOM     30  C   UNL A   1      33.186  29.298  25.191  1.00  0.00     0.118 C 
BRANCH  30  31
ATOM     31  N   UNL A   1      32.693  30.518  25.821  1.00  0.00    -0.352 N 
ATOM     32  C   UNL A   1      33.130  31.208  26.926  1.00  0.00     0.251 C 
ATOM     33  H   UNL A   1      31.910  30.918  25.377  1.00  0.00     0.163 HD
ATOM     34  O   UNL A   1      32.425  32.091  27.408  1.00  0.00    -0.269 OA
BRANCH  32  35
ATOM     35  C   UNL A   1      34.432  30.893  27.552  1.00  0.00     0.039 A 
ATOM     36  C   UNL A   1      35.399  31.898  27.661  1.00  0.00     0.014 A 
ATOM     37  C   UNL A   1      34.718  29.605  28.006  1.00  0.00     0.014 A 
ATOM     38  C   UNL A   1      36.613  31.630  28.297  1.00  0.00     0.010 A 
ATOM     39  C   UNL A   1      35.880  29.367  28.732  1.00  0.00     0.010 A 
ATOM     40  C   UNL A   1      36.844  30.374  28.881  1.00  0.00    -0.014 A 
BRANCH  40  41
ATOM     41  C   UNL A   1      38.079  30.085  29.653  1.00  0.00     0.031 A 
ATOM     42  C   UNL A   1      39.097  29.119  29.111  1.00  0.00     0.074 A 
ATOM     43  C   UNL A   1      38.236  30.617  30.881  1.00  0.00     0.049 A 
ATOM     44  N   UNL A   1      40.176  28.646  29.682  1.00  0.00    -0.248 NA
ATOM     45  C   UNL A   1      38.852  28.586  27.762  1.00  0.00     0.031 C 
ATOM     46  C   UNL A   1      37.291  31.523  31.539  1.00  0.00     0.029 A 
ATOM     47  N   UNL A   1      39.239  30.458  31.806  1.00  0.00    -0.354 N 
ATOM     48  C   UNL A   1      40.720  27.746  28.774  1.00  0.00     0.074 A 
ATOM     49  C   UNL A   1      39.826  27.698  27.638  1.00  0.00     0.031 C 
ATOM     50  C   UNL A   1      37.765  31.851  32.750  1.00  0.00     0.029 A 
ATOM     51  C   UNL A   1      39.022  31.145  32.976  1.00  0.00     0.049 A 
ATOM     52  H   UNL A   1      40.037  29.905  31.645  1.00  0.00     0.167 HD
ATOM     53  C   UNL A   1      41.871  27.041  28.871  1.00  0.00     0.037 A 
ATOM     54  C   UNL A   1      39.747  31.185  34.111  1.00  0.00     0.037 A 
ATOM     55  C   UNL A   1      42.773  27.121  29.991  1.00  0.00     0.049 A 
ATOM     56  C   UNL A   1      41.025  30.394  34.190  1.00  0.00     0.074 A 
ATOM     57  C   UNL A   1      44.005  26.511  30.149  1.00  0.00     0.029 A 
ATOM     58  N   UNL A   1      42.536  27.853  31.145  1.00  0.00    -0.354 N 
ATOM     59  N   UNL A   1      41.571  29.611  33.292  1.00  0.00    -0.248 NA
ATOM     60  C   UNL A   1      41.791  30.498  35.439  1.00  0.00     0.031 C 
ATOM     61  C   UNL A   1      44.486  26.827  31.424  1.00  0.00     0.029 A 
ATOM     62  C   UNL A   1      43.585  27.684  32.035  1.00  0.00     0.049 A 
ATOM     63  H   UNL A   1      41.740  28.410  31.307  1.00  0.00     0.167 HD
ATOM     64  C   UNL A   1      42.754  29.152  33.853  1.00  0.00     0.074 A 
ATOM     65  C   UNL A   1      42.857  29.760  35.164  1.00  0.00     0.031 C 
ATOM     66  C   UNL A   1      43.673  28.302  33.332  1.00  0.00     0.037 A 
BRANCH  53  67
ATOM     67  C   UNL A   1      42.227  26.119  27.739  1.00  0.00     0.064 A 
ATOM     68  C   UNL A   1      43.205  26.454  26.791  1.00  0.00     0.173 A 
ATOM     69  C   UNL A   1      41.612  24.861  27.630  1.00  0.00     0.173 A 
ATOM     70  F   UNL A   1      43.815  27.648  26.843  1.00  0.00    -0.203 F 
ATOM     71  C   UNL A   1      43.534  25.578  25.760  1.00  0.00     0.198 A 
ATOM     72  C   UNL A   1      41.969  23.974  26.617  1.00  0.00     0.198 A 
ATOM     73  F   UNL A   1      40.675  24.487  28.513  1.00  0.00    -0.203 F 
ATOM     74  F   UNL A   1      44.437  25.940  24.837  1.00  0.00    -0.200 F 
ATOM     75  C   UNL A   1      42.923  24.336  25.680  1.00  0.00     0.200 A 
ATOM     76  F   UNL A   1      41.388  22.768  26.551  1.00  0.00    -0.200 F 
ATOM     77  F   UNL A   1      43.252  23.489  24.694  1.00  0.00    -0.200 F 
ENDBRANCH  53  67
BRANCH  54  78
ATOM     78  C   UNL A   1      39.285  32.008  35.261  1.00  0.00     0.064 A 
ATOM     79  C   UNL A   1      38.499  31.448  36.280  1.00  0.00     0.173 A 
ATOM     80  C   UNL A   1      39.606  33.369  35.362  1.00  0.00     0.173 A 
ATOM     81  F   UNL A   1      38.148  30.155  36.220  1.00  0.00    -0.203 F 
ATOM     82  C   UNL A   1      38.031  32.225  37.337  1.00  0.00     0.198 A 
ATOM     83  C   UNL A   1      39.165  34.137  36.437  1.00  0.00     0.198 A 
ATOM     84  F   UNL A   1      40.362  33.953  34.420  1.00  0.00    -0.203 F 
ATOM     85  F   UNL A   1      37.236  31.677  38.266  1.00  0.00    -0.200 F 
ATOM     86  C   UNL A   1      38.368  33.567  37.418  1.00  0.00     0.200 A 
ATOM     87  F   UNL A   1      39.510  35.429  36.522  1.00  0.00    -0.200 F 
ATOM     88  F   UNL A   1      37.921  34.313  38.437  1.00  0.00    -0.200 F 
ENDBRANCH  54  78
BRANCH  66  89
ATOM     89  C   UNL A   1      44.887  28.005  34.166  1.00  0.00     0.064 A 
ATOM     90  C   UNL A   1      46.032  28.813  34.117  1.00  0.00     0.173 A 
ATOM     91  C   UNL A   1      44.886  26.919  35.057  1.00  0.00     0.173 A 
ATOM     92  F   UNL A   1      46.090  29.853  33.272  1.00  0.00    -0.203 F 
ATOM     93  C   UNL A   1      47.142  28.528  34.908  1.00  0.00     0.198 A 
ATOM     94  C   UNL A   1      45.984  26.659  35.871  1.00  0.00     0.198 A 
ATOM     95  F   UNL A   1      43.813  26.120  35.148  1.00  0.00    -0.203 F 
ATOM     96  F   UNL A   1      48.245  29.283  34.807  1.00  0.00    -0.200 F 
ATOM     97  C   UNL A   1      47.114  27.458  35.790  1.00  0.00     0.200 A 
ATOM     98  F   UNL A   1      45.948  25.635  36.735  1.00  0.00    -0.200 F 
ATOM     99  F   UNL A   1      48.180  27.192  36.557  1.00  0.00    -0.200 F 
ENDBRANCH  66  89
ENDBRANCH  40  41
ENDBRANCH  32  35
ENDBRANCH  30  31
ENDBRANCH  29  30
ENDBRANCH  28  29
ENDBRANCH   3  28
TORSDOF 15
ENDMDL
