MODEL 1
REMARK VINA RESULT:     -13.0      0.000      0.000
REMARK SMILES O=C(NCCCNC(=O)c1cc2ccccc2cc1NS(=O)(=O)c1ccccc1Br)c1ccc(-c2c3nc(c(-c4c(F)c(F)c(F)c(F)c4F)c4ccc([nH]4)c(-c4c(F)c(F)c(F)c(F)c4F)c4nc(c(-c5c(F)c(F)c(F)c(F)c5F)c5ccc2[nH]5)C=C4)C=C3)cc1
REMARK SMILES IDX 5 1 4 2 3 3 1 4 2 5 31 7 32 8 93 9 33 10 92 11 34 12 35 13
REMARK SMILES IDX 36 14 86 15 37 16 91 17 85 18 87 19 38 20 90 21 84 22 83 23
REMARK SMILES IDX 39 25 71 26 51 27 70 28 52 29 55 30 69 31 88 32 53 33 54 34
REMARK SMILES IDX 68 36 89 37 56 38 40 39 41 40 49 41 42 42 43 43 47 44 50 45
REMARK SMILES IDX 44 46 45 47 48 48 46 49 72 50 73 51 81 52 74 53 75 54 79 55
REMARK SMILES IDX 82 56 76 57 77 58 80 59 78 60 57 61 58 62 66 63 59 64 60 65
REMARK SMILES IDX 64 66 67 67 61 68 62 69 65 70 63 71 6 72 7 73 8 74 9 76
REMARK SMILES IDX 10 77 11 78 19 79 12 80 18 81 13 82 17 83 14 84 16 85 15 86
REMARK SMILES IDX 20 87 21 89 22 90 23 91 24 92 25 93 29 94 26 95 28 96 30 97
REMARK SMILES IDX 27 98
REMARK H PARENT 3 6 87 24 55 35 7 75 20 88
REMARK Flexibility Score: inf
ROOT
ATOM      1  C   UNL A   1      34.255  28.234  25.940  1.00  0.00     0.042 C 
ENDROOT
BRANCH   1   2
ATOM      2  C   UNL A   1      33.807  28.530  27.359  1.00  0.00     0.118 C 
BRANCH   2   3
ATOM      3  N   UNL A   1      33.715  29.955  27.648  1.00  0.00    -0.352 N 
ATOM      4  O   UNL A   1      34.307  31.940  28.544  1.00  0.00    -0.269 OA
ATOM      5  C   UNL A   1      34.622  30.792  28.250  1.00  0.00     0.251 C 
ATOM      6  H   UNL A   1      32.873  30.385  27.370  1.00  0.00     0.163 HD
BRANCH   5   7
ATOM      7  C   UNL A   1      35.981  30.302  28.553  1.00  0.00     0.039 A 
ATOM      8  C   UNL A   1      37.010  30.458  27.623  1.00  0.00     0.014 A 
ATOM      9  C   UNL A   1      36.236  29.706  29.791  1.00  0.00     0.014 A 
ATOM     10  C   UNL A   1      38.251  29.888  27.863  1.00  0.00     0.010 A 
ATOM     11  C   UNL A   1      37.518  29.233  30.080  1.00  0.00     0.010 A 
ATOM     12  C   UNL A   1      38.531  29.311  29.112  1.00  0.00    -0.014 A 
BRANCH  12  13
ATOM     13  C   UNL A   1      39.930  28.938  29.427  1.00  0.00     0.031 A 
ATOM     14  C   UNL A   1      40.839  29.863  30.179  1.00  0.00     0.074 A 
ATOM     15  C   UNL A   1      40.366  27.734  29.005  1.00  0.00     0.049 A 
ATOM     16  N   UNL A   1      42.098  29.694  30.496  1.00  0.00    -0.248 NA
ATOM     17  C   UNL A   1      40.273  31.143  30.632  1.00  0.00     0.031 C 
ATOM     18  C   UNL A   1      39.563  26.766  28.250  1.00  0.00     0.029 A 
ATOM     19  N   UNL A   1      41.581  27.114  29.145  1.00  0.00    -0.354 N 
ATOM     20  C   UNL A   1      42.482  30.851  31.160  1.00  0.00     0.074 A 
ATOM     21  C   UNL A   1      41.326  31.722  31.196  1.00  0.00     0.031 C 
ATOM     22  C   UNL A   1      40.296  25.670  28.017  1.00  0.00     0.029 A 
ATOM     23  C   UNL A   1      41.641  25.888  28.530  1.00  0.00     0.049 A 
ATOM     24  H   UNL A   1      42.336  27.510  29.638  1.00  0.00     0.167 HD
ATOM     25  C   UNL A   1      43.694  31.147  31.686  1.00  0.00     0.037 A 
ATOM     26  C   UNL A   1      42.677  25.049  28.353  1.00  0.00     0.037 A 
ATOM     27  C   UNL A   1      44.827  30.256  31.660  1.00  0.00     0.049 A 
ATOM     28  C   UNL A   1      44.016  25.433  28.914  1.00  0.00     0.074 A 
ATOM     29  C   UNL A   1      46.071  30.429  32.241  1.00  0.00     0.029 A 
ATOM     30  N   UNL A   1      44.859  29.033  31.005  1.00  0.00    -0.354 N 
ATOM     31  N   UNL A   1      44.345  26.493  29.609  1.00  0.00    -0.248 NA
ATOM     32  C   UNL A   1      45.128  24.510  28.659  1.00  0.00     0.031 C 
ATOM     33  C   UNL A   1      46.878  29.348  31.878  1.00  0.00     0.029 A 
ATOM     34  C   UNL A   1      46.119  28.468  31.123  1.00  0.00     0.049 A 
ATOM     35  H   UNL A   1      44.100  28.626  30.529  1.00  0.00     0.167 HD
ATOM     36  C   UNL A   1      45.698  26.363  29.882  1.00  0.00     0.074 A 
ATOM     37  C   UNL A   1      46.121  25.102  29.307  1.00  0.00     0.031 C 
ATOM     38  C   UNL A   1      46.521  27.214  30.539  1.00  0.00     0.037 A 
BRANCH  25  39
ATOM     39  C   UNL A   1      43.892  32.494  32.317  1.00  0.00     0.064 A 
ATOM     40  C   UNL A   1      44.287  33.613  31.571  1.00  0.00     0.173 A 
ATOM     41  C   UNL A   1      43.571  32.688  33.671  1.00  0.00     0.173 A 
ATOM     42  F   UNL A   1      44.610  33.482  30.276  1.00  0.00    -0.203 F 
ATOM     43  C   UNL A   1      44.358  34.875  32.158  1.00  0.00     0.198 A 
ATOM     44  C   UNL A   1      43.617  33.955  34.247  1.00  0.00     0.198 A 
ATOM     45  F   UNL A   1      43.179  31.652  34.427  1.00  0.00    -0.203 F 
ATOM     46  F   UNL A   1      44.755  35.929  31.430  1.00  0.00    -0.200 F 
ATOM     47  C   UNL A   1      44.011  35.047  33.490  1.00  0.00     0.200 A 
ATOM     48  F   UNL A   1      43.266  34.120  35.529  1.00  0.00    -0.200 F 
ATOM     49  F   UNL A   1      44.055  36.267  34.044  1.00  0.00    -0.200 F 
ENDBRANCH  25  39
BRANCH  26  50
ATOM     50  C   UNL A   1      42.501  23.803  27.562  1.00  0.00     0.064 A 
ATOM     51  C   UNL A   1      41.995  22.636  28.149  1.00  0.00     0.173 A 
ATOM     52  C   UNL A   1      42.856  23.749  26.206  1.00  0.00     0.173 A 
ATOM     53  F   UNL A   1      41.657  22.631  29.446  1.00  0.00    -0.203 F 
ATOM     54  C   UNL A   1      41.884  21.454  27.419  1.00  0.00     0.198 A 
ATOM     55  C   UNL A   1      42.708  22.579  25.466  1.00  0.00     0.198 A 
ATOM     56  F   UNL A   1      43.339  24.840  25.592  1.00  0.00    -0.203 F 
ATOM     57  F   UNL A   1      41.458  20.336  28.021  1.00  0.00    -0.200 F 
ATOM     58  C   UNL A   1      42.235  21.429  26.077  1.00  0.00     0.200 A 
ATOM     59  F   UNL A   1      43.029  22.566  24.166  1.00  0.00    -0.200 F 
ATOM     60  F   UNL A   1      42.130  20.291  25.376  1.00  0.00    -0.200 F 
ENDBRANCH  26  50
BRANCH  38  61
ATOM     61  C   UNL A   1      47.958  26.806  30.677  1.00  0.00     0.064 A 
ATOM     62  C   UNL A   1      48.377  25.952  31.708  1.00  0.00     0.173 A 
ATOM     63  C   UNL A   1      48.914  27.237  29.747  1.00  0.00     0.173 A 
ATOM     64  F   UNL A   1      47.504  25.530  32.634  1.00  0.00    -0.203 F 
ATOM     65  C   UNL A   1      49.709  25.560  31.812  1.00  0.00     0.198 A 
ATOM     66  C   UNL A   1      50.239  26.816  29.835  1.00  0.00     0.198 A 
ATOM     67  F   UNL A   1      48.562  28.052  28.742  1.00  0.00    -0.203 F 
ATOM     68  F   UNL A   1      50.097  24.782  32.832  1.00  0.00    -0.200 F 
ATOM     69  C   UNL A   1      50.635  25.984  30.871  1.00  0.00     0.200 A 
ATOM     70  F   UNL A   1      51.129  27.214  28.917  1.00  0.00    -0.200 F 
ATOM     71  F   UNL A   1      51.914  25.595  30.966  1.00  0.00    -0.200 F 
ENDBRANCH  38  61
ENDBRANCH  12  13
ENDBRANCH   5   7
ENDBRANCH   2   3
ENDBRANCH   1   2
BRANCH   1  72
ATOM     72  C   UNL A   1      33.793  29.266  24.933  1.00  0.00     0.118 C 
BRANCH  72  73
ATOM     73  N   UNL A   1      34.161  28.954  23.569  1.00  0.00    -0.352 N 
ATOM     74  C   UNL A   1      33.468  28.234  22.636  1.00  0.00     0.253 C 
ATOM     75  H   UNL A   1      35.029  29.308  23.271  1.00  0.00     0.163 HD
ATOM     76  O   UNL A   1      34.020  27.932  21.581  1.00  0.00    -0.269 OA
BRANCH  74  77
ATOM     77  C   UNL A   1      32.081  27.791  22.879  1.00  0.00     0.064 A 
ATOM     78  C   UNL A   1      31.089  28.734  22.544  1.00  0.00     0.024 A 
ATOM     79  C   UNL A   1      31.736  26.601  23.544  1.00  0.00     0.062 A 
ATOM     80  C   UNL A   1      29.739  28.506  22.850  1.00  0.00    -0.017 A 
ATOM     81  C   UNL A   1      30.407  26.454  23.953  1.00  0.00     0.036 A 
ATOM     82  C   UNL A   1      28.725  29.411  22.496  1.00  0.00     0.009 A 
ATOM     83  C   UNL A   1      29.397  27.343  23.563  1.00  0.00    -0.016 A 
ATOM     84  C   UNL A   1      27.391  29.144  22.812  1.00  0.00     0.001 A 
ATOM     85  C   UNL A   1      28.054  27.087  23.876  1.00  0.00     0.009 A 
ATOM     86  C   UNL A   1      27.054  27.977  23.491  1.00  0.00     0.001 A 
BRANCH  79  87
ATOM     87  N   UNL A   1      32.690  25.603  23.977  1.00  0.00    -0.279 N 
ATOM     88  H   UNL A   1      33.153  25.726  24.838  1.00  0.00     0.180 HD
BRANCH  87  89
ATOM     89  S   UNL A   1      33.041  24.210  23.032  1.00  0.00     0.263 S 
ATOM     90  O   UNL A   1      31.866  23.378  22.966  1.00  0.00    -0.201 OA
ATOM     91  O   UNL A   1      33.578  24.734  21.788  1.00  0.00    -0.201 OA
BRANCH  89  92
ATOM     92  C   UNL A   1      34.336  23.299  23.831  1.00  0.00     0.101 A 
ATOM     93  C   UNL A   1      35.545  23.169  23.123  1.00  0.00     0.023 A 
ATOM     94  C   UNL A   1      34.219  22.733  25.109  1.00  0.00     0.038 A 
ATOM     95  C   UNL A   1      36.650  22.558  23.715  1.00  0.00     0.001 A 
ATOM     96  C   UNL A   1      35.342  22.133  25.696  1.00  0.00     0.017 A 
ATOM     97  Br  UNL A   1      32.671  22.771  26.211  1.00  0.00    -0.049 Br
ATOM     98  C   UNL A   1      36.553  22.057  25.009  1.00  0.00     0.001 A 
ENDBRANCH  89  92
ENDBRANCH  87  89
ENDBRANCH  79  87
ENDBRANCH  74  77
ENDBRANCH  72  73
ENDBRANCH   1  72
TORSDOF 13
ENDMDL
MODEL 2
REMARK VINA RESULT:     -13.0      3.581      8.153
REMARK SMILES O=C(NCCCNC(=O)c1cc2ccccc2cc1NS(=O)(=O)c1ccccc1Br)c1ccc(-c2c3nc(c(-c4c(F)c(F)c(F)c(F)c4F)c4ccc([nH]4)c(-c4c(F)c(F)c(F)c(F)c4F)c4nc(c(-c5c(F)c(F)c(F)c(F)c5F)c5ccc2[nH]5)C=C4)C=C3)cc1
REMARK SMILES IDX 5 1 4 2 3 3 1 4 2 5 31 7 32 8 93 9 33 10 92 11 34 12 35 13
REMARK SMILES IDX 36 14 86 15 37 16 91 17 85 18 87 19 38 20 90 21 84 22 83 23
REMARK SMILES IDX 39 25 71 26 51 27 70 28 52 29 55 30 69 31 88 32 53 33 54 34
REMARK SMILES IDX 68 36 89 37 56 38 40 39 41 40 49 41 42 42 43 43 47 44 50 45
REMARK SMILES IDX 44 46 45 47 48 48 46 49 72 50 73 51 81 52 74 53 75 54 79 55
REMARK SMILES IDX 82 56 76 57 77 58 80 59 78 60 57 61 58 62 66 63 59 64 60 65
REMARK SMILES IDX 64 66 67 67 61 68 62 69 65 70 63 71 6 72 7 73 8 74 9 76
REMARK SMILES IDX 10 77 11 78 19 79 12 80 18 81 13 82 17 83 14 84 16 85 15 86
REMARK SMILES IDX 20 87 21 89 22 90 23 91 24 92 25 93 29 94 26 95 28 96 30 97
REMARK SMILES IDX 27 98
REMARK H PARENT 3 6 87 24 55 35 7 75 20 88
REMARK Flexibility Score: inf
ROOT
ATOM      1  C   UNL A   1      38.138  20.097  24.936  1.00  0.00     0.042 C 
ENDROOT
BRANCH   1   2
ATOM      2  C   UNL A   1      39.137  20.180  26.074  1.00  0.00     0.118 C 
BRANCH   2   3
ATOM      3  N   UNL A   1      40.244  19.242  25.938  1.00  0.00    -0.352 N 
ATOM      4  O   UNL A   1      42.385  18.567  25.698  1.00  0.00    -0.269 OA
ATOM      5  C   UNL A   1      41.598  19.464  25.984  1.00  0.00     0.251 C 
ATOM      6  H   UNL A   1      39.981  18.304  25.789  1.00  0.00     0.163 HD
BRANCH   5   7
ATOM      7  C   UNL A   1      42.109  20.794  26.371  1.00  0.00     0.039 A 
ATOM      8  C   UNL A   1      42.371  21.760  25.397  1.00  0.00     0.014 A 
ATOM      9  C   UNL A   1      42.304  21.088  27.723  1.00  0.00     0.014 A 
ATOM     10  C   UNL A   1      42.966  22.959  25.755  1.00  0.00     0.010 A 
ATOM     11  C   UNL A   1      42.796  22.342  28.094  1.00  0.00     0.010 A 
ATOM     12  C   UNL A   1      43.141  23.281  27.110  1.00  0.00    -0.014 A 
BRANCH  12  13
ATOM     13  C   UNL A   1      43.543  24.661  27.468  1.00  0.00     0.031 A 
ATOM     14  C   UNL A   1      42.537  25.687  27.898  1.00  0.00     0.074 A 
ATOM     15  C   UNL A   1      44.853  24.972  27.387  1.00  0.00     0.049 A 
ATOM     16  N   UNL A   1      42.731  26.945  28.206  1.00  0.00    -0.248 NA
ATOM     17  C   UNL A   1      41.134  25.255  27.991  1.00  0.00     0.031 C 
ATOM     18  C   UNL A   1      45.911  24.049  26.963  1.00  0.00     0.029 A 
ATOM     19  N   UNL A   1      45.523  26.138  27.654  1.00  0.00    -0.354 N 
ATOM     20  C   UNL A   1      41.477  27.461  28.503  1.00  0.00     0.074 A 
ATOM     21  C   UNL A   1      40.525  26.384  28.333  1.00  0.00     0.031 C 
ATOM     22  C   UNL A   1      47.094  24.674  27.023  1.00  0.00     0.029 A 
ATOM     23  C   UNL A   1      46.871  26.061  27.407  1.00  0.00     0.049 A 
ATOM     24  H   UNL A   1      45.079  26.952  27.989  1.00  0.00     0.167 HD
ATOM     25  C   UNL A   1      41.164  28.722  28.882  1.00  0.00     0.037 A 
ATOM     26  C   UNL A   1      47.821  27.013  27.437  1.00  0.00     0.037 A 
ATOM     27  C   UNL A   1      42.131  29.775  29.069  1.00  0.00     0.049 A 
ATOM     28  C   UNL A   1      47.426  28.409  27.820  1.00  0.00     0.074 A 
ATOM     29  C   UNL A   1      41.922  31.062  29.533  1.00  0.00     0.029 A 
ATOM     30  N   UNL A   1      43.485  29.668  28.783  1.00  0.00    -0.354 N 
ATOM     31  N   UNL A   1      46.251  28.866  28.177  1.00  0.00    -0.248 NA
ATOM     32  C   UNL A   1      48.485  29.425  27.797  1.00  0.00     0.031 C 
ATOM     33  C   UNL A   1      43.134  31.754  29.461  1.00  0.00     0.029 A 
ATOM     34  C   UNL A   1      44.112  30.883  29.011  1.00  0.00     0.049 A 
ATOM     35  H   UNL A   1      43.933  28.850  28.467  1.00  0.00     0.167 HD
ATOM     36  C   UNL A   1      46.429  30.217  28.428  1.00  0.00     0.074 A 
ATOM     37  C   UNL A   1      47.833  30.500  28.217  1.00  0.00     0.031 C 
ATOM     38  C   UNL A   1      45.511  31.145  28.790  1.00  0.00     0.037 A 
BRANCH  25  39
ATOM     39  C   UNL A   1      39.720  29.067  29.102  1.00  0.00     0.064 A 
ATOM     40  C   UNL A   1      38.873  29.428  28.044  1.00  0.00     0.173 A 
ATOM     41  C   UNL A   1      39.150  28.924  30.378  1.00  0.00     0.173 A 
ATOM     42  F   UNL A   1      39.367  29.584  26.807  1.00  0.00    -0.203 F 
ATOM     43  C   UNL A   1      37.512  29.637  28.257  1.00  0.00     0.198 A 
ATOM     44  C   UNL A   1      37.786  29.107  30.581  1.00  0.00     0.198 A 
ATOM     45  F   UNL A   1      39.915  28.571  31.422  1.00  0.00    -0.203 F 
ATOM     46  F   UNL A   1      36.724  29.998  27.234  1.00  0.00    -0.200 F 
ATOM     47  C   UNL A   1      36.968  29.464  29.521  1.00  0.00     0.200 A 
ATOM     48  F   UNL A   1      37.260  28.923  31.800  1.00  0.00    -0.200 F 
ATOM     49  F   UNL A   1      35.653  29.640  29.717  1.00  0.00    -0.200 F 
ENDBRANCH  25  39
BRANCH  26  50
ATOM     50  C   UNL A   1      49.215  26.688  27.036  1.00  0.00     0.064 A 
ATOM     51  C   UNL A   1      50.165  26.277  27.979  1.00  0.00     0.173 A 
ATOM     52  C   UNL A   1      49.629  26.803  25.700  1.00  0.00     0.173 A 
ATOM     53  F   UNL A   1      49.823  26.168  29.271  1.00  0.00    -0.203 F 
ATOM     54  C   UNL A   1      51.485  26.029  27.608  1.00  0.00     0.198 A 
ATOM     55  C   UNL A   1      50.939  26.516  25.323  1.00  0.00     0.198 A 
ATOM     56  F   UNL A   1      48.758  27.185  24.754  1.00  0.00    -0.203 F 
ATOM     57  F   UNL A   1      52.389  25.700  28.539  1.00  0.00    -0.200 F 
ATOM     58  C   UNL A   1      51.868  26.142  26.280  1.00  0.00     0.200 A 
ATOM     59  F   UNL A   1      51.298  26.607  24.036  1.00  0.00    -0.200 F 
ATOM     60  F   UNL A   1      53.139  25.904  25.923  1.00  0.00    -0.200 F 
ENDBRANCH  26  50
BRANCH  38  61
ATOM     61  C   UNL A   1      46.000  32.549  28.987  1.00  0.00     0.064 A 
ATOM     62  C   UNL A   1      45.975  33.483  27.942  1.00  0.00     0.173 A 
ATOM     63  C   UNL A   1      46.457  32.975  30.243  1.00  0.00     0.173 A 
ATOM     64  F   UNL A   1      45.567  33.118  26.718  1.00  0.00    -0.203 F 
ATOM     65  C   UNL A   1      46.410  34.790  28.143  1.00  0.00     0.198 A 
ATOM     66  C   UNL A   1      46.859  34.292  30.448  1.00  0.00     0.198 A 
ATOM     67  F   UNL A   1      46.497  32.120  31.275  1.00  0.00    -0.203 F 
ATOM     68  F   UNL A   1      46.422  35.654  27.118  1.00  0.00    -0.200 F 
ATOM     69  C   UNL A   1      46.841  35.196  29.397  1.00  0.00     0.200 A 
ATOM     70  F   UNL A   1      47.262  34.686  31.664  1.00  0.00    -0.200 F 
ATOM     71  F   UNL A   1      47.247  36.458  29.591  1.00  0.00    -0.200 F 
ENDBRANCH  38  61
ENDBRANCH  12  13
ENDBRANCH   5   7
ENDBRANCH   2   3
ENDBRANCH   1   2
BRANCH   1  72
ATOM     72  C   UNL A   1      37.483  21.423  24.609  1.00  0.00     0.118 C 
BRANCH  72  73
ATOM     73  N   UNL A   1      36.864  22.063  25.748  1.00  0.00    -0.352 N 
ATOM     74  C   UNL A   1      35.541  22.123  26.087  1.00  0.00     0.253 C 
ATOM     75  H   UNL A   1      37.480  22.520  26.365  1.00  0.00     0.163 HD
ATOM     76  O   UNL A   1      35.189  22.859  27.005  1.00  0.00    -0.269 OA
BRANCH  74  77
ATOM     77  C   UNL A   1      34.523  21.342  25.357  1.00  0.00     0.064 A 
ATOM     78  C   UNL A   1      34.845  19.984  25.160  1.00  0.00     0.024 A 
ATOM     79  C   UNL A   1      33.388  21.901  24.743  1.00  0.00     0.062 A 
ATOM     80  C   UNL A   1      34.039  19.156  24.364  1.00  0.00    -0.017 A 
ATOM     81  C   UNL A   1      32.675  21.093  23.852  1.00  0.00     0.036 A 
ATOM     82  C   UNL A   1      34.315  17.792  24.179  1.00  0.00     0.009 A 
ATOM     83  C   UNL A   1      32.934  19.724  23.705  1.00  0.00    -0.016 A 
ATOM     84  C   UNL A   1      33.483  16.998  23.385  1.00  0.00     0.001 A 
ATOM     85  C   UNL A   1      32.108  18.918  22.908  1.00  0.00     0.009 A 
ATOM     86  C   UNL A   1      32.374  17.559  22.759  1.00  0.00     0.001 A 
BRANCH  79  87
ATOM     87  N   UNL A   1      33.011  23.295  24.841  1.00  0.00    -0.279 N 
ATOM     88  H   UNL A   1      32.522  23.602  25.638  1.00  0.00     0.180 HD
BRANCH  87  89
ATOM     89  S   UNL A   1      33.393  24.429  23.606  1.00  0.00     0.263 S 
ATOM     90  O   UNL A   1      34.665  24.080  23.024  1.00  0.00    -0.201 OA
ATOM     91  O   UNL A   1      32.225  24.439  22.741  1.00  0.00    -0.201 OA
BRANCH  89  92
ATOM     92  C   UNL A   1      33.528  26.037  24.340  1.00  0.00     0.101 A 
ATOM     93  C   UNL A   1      33.591  26.086  25.744  1.00  0.00     0.023 A 
ATOM     94  C   UNL A   1      33.593  27.229  23.602  1.00  0.00     0.038 A 
ATOM     95  C   UNL A   1      33.800  27.298  26.402  1.00  0.00     0.001 A 
ATOM     96  C   UNL A   1      33.815  28.438  24.277  1.00  0.00     0.017 A 
ATOM     97  Br  UNL A   1      33.495  27.380  21.710  1.00  0.00    -0.049 Br
ATOM     98  C   UNL A   1      33.932  28.471  25.666  1.00  0.00     0.001 A 
ENDBRANCH  89  92
ENDBRANCH  87  89
ENDBRANCH  79  87
ENDBRANCH  74  77
ENDBRANCH  72  73
ENDBRANCH   1  72
TORSDOF 13
ENDMDL
MODEL 3
REMARK VINA RESULT:     -13.0      3.785      8.144
REMARK SMILES O=C(NCCCNC(=O)c1cc2ccccc2cc1NS(=O)(=O)c1ccccc1Br)c1ccc(-c2c3nc(c(-c4c(F)c(F)c(F)c(F)c4F)c4ccc([nH]4)c(-c4c(F)c(F)c(F)c(F)c4F)c4nc(c(-c5c(F)c(F)c(F)c(F)c5F)c5ccc2[nH]5)C=C4)C=C3)cc1
REMARK SMILES IDX 5 1 4 2 3 3 1 4 2 5 31 7 32 8 93 9 33 10 92 11 34 12 35 13
REMARK SMILES IDX 36 14 86 15 37 16 91 17 85 18 87 19 38 20 90 21 84 22 83 23
REMARK SMILES IDX 39 25 71 26 51 27 70 28 52 29 55 30 69 31 88 32 53 33 54 34
REMARK SMILES IDX 68 36 89 37 56 38 40 39 41 40 49 41 42 42 43 43 47 44 50 45
REMARK SMILES IDX 44 46 45 47 48 48 46 49 72 50 73 51 81 52 74 53 75 54 79 55
REMARK SMILES IDX 82 56 76 57 77 58 80 59 78 60 57 61 58 62 66 63 59 64 60 65
REMARK SMILES IDX 64 66 67 67 61 68 62 69 65 70 63 71 6 72 7 73 8 74 9 76
REMARK SMILES IDX 10 77 11 78 19 79 12 80 18 81 13 82 17 83 14 84 16 85 15 86
REMARK SMILES IDX 20 87 21 89 22 90 23 91 24 92 25 93 29 94 26 95 28 96 30 97
REMARK SMILES IDX 27 98
REMARK H PARENT 3 6 87 24 55 35 7 75 20 88
REMARK Flexibility Score: inf
ROOT
ATOM      1  C   UNL A   1      38.130  20.172  24.958  1.00  0.00     0.042 C 
ENDROOT
BRANCH   1   2
ATOM      2  C   UNL A   1      39.091  20.253  26.130  1.00  0.00     0.118 C 
BRANCH   2   3
ATOM      3  N   UNL A   1      40.186  19.295  26.044  1.00  0.00    -0.352 N 
ATOM      4  O   UNL A   1      42.317  18.582  25.840  1.00  0.00    -0.269 OA
ATOM      5  C   UNL A   1      41.542  19.503  26.078  1.00  0.00     0.251 C 
ATOM      6  H   UNL A   1      39.911  18.354  25.945  1.00  0.00     0.163 HD
BRANCH   5   7
ATOM      7  C   UNL A   1      42.070  20.845  26.393  1.00  0.00     0.039 A 
ATOM      8  C   UNL A   1      42.278  21.778  25.376  1.00  0.00     0.014 A 
ATOM      9  C   UNL A   1      42.336  21.183  27.722  1.00  0.00     0.014 A 
ATOM     10  C   UNL A   1      42.888  22.989  25.662  1.00  0.00     0.010 A 
ATOM     11  C   UNL A   1      42.845  22.448  28.025  1.00  0.00     0.010 A 
ATOM     12  C   UNL A   1      43.134  23.355  26.994  1.00  0.00    -0.014 A 
BRANCH  12  13
ATOM     13  C   UNL A   1      43.552  24.746  27.285  1.00  0.00     0.031 A 
ATOM     14  C   UNL A   1      42.587  25.761  27.822  1.00  0.00     0.074 A 
ATOM     15  C   UNL A   1      44.837  25.077  27.043  1.00  0.00     0.049 A 
ATOM     16  N   UNL A   1      42.794  27.026  28.089  1.00  0.00    -0.248 NA
ATOM     17  C   UNL A   1      41.214  25.308  28.089  1.00  0.00     0.031 C 
ATOM     18  C   UNL A   1      45.853  24.166  26.505  1.00  0.00     0.029 A 
ATOM     19  N   UNL A   1      45.513  26.258  27.213  1.00  0.00    -0.354 N 
ATOM     20  C   UNL A   1      41.576  27.525  28.530  1.00  0.00     0.074 A 
ATOM     21  C   UNL A   1      40.630  26.431  28.488  1.00  0.00     0.031 C 
ATOM     22  C   UNL A   1      47.023  24.811  26.414  1.00  0.00     0.029 A 
ATOM     23  C   UNL A   1      46.823  26.199  26.806  1.00  0.00     0.049 A 
ATOM     24  H   UNL A   1      45.099  27.068  27.590  1.00  0.00     0.167 HD
ATOM     25  C   UNL A   1      41.288  28.786  28.929  1.00  0.00     0.037 A 
ATOM     26  C   UNL A   1      47.752  27.167  26.710  1.00  0.00     0.037 A 
ATOM     27  C   UNL A   1      42.252  29.857  28.985  1.00  0.00     0.049 A 
ATOM     28  C   UNL A   1      47.381  28.562  27.122  1.00  0.00     0.074 A 
ATOM     29  C   UNL A   1      42.078  31.147  29.457  1.00  0.00     0.029 A 
ATOM     30  N   UNL A   1      43.563  29.769  28.540  1.00  0.00    -0.354 N 
ATOM     31  N   UNL A   1      46.249  29.004  27.613  1.00  0.00    -0.248 NA
ATOM     32  C   UNL A   1      48.411  29.595  26.959  1.00  0.00     0.031 C 
ATOM     33  C   UNL A   1      43.259  31.858  29.231  1.00  0.00     0.029 A 
ATOM     34  C   UNL A   1      44.191  30.997  28.676  1.00  0.00     0.049 A 
ATOM     35  H   UNL A   1      43.985  28.954  28.181  1.00  0.00     0.167 HD
ATOM     36  C   UNL A   1      46.432  30.362  27.825  1.00  0.00     0.074 A 
ATOM     37  C   UNL A   1      47.796  30.665  27.442  1.00  0.00     0.031 C 
ATOM     38  C   UNL A   1      45.548  31.279  28.284  1.00  0.00     0.037 A 
BRANCH  25  39
ATOM     39  C   UNL A   1      39.875  29.110  29.318  1.00  0.00     0.064 A 
ATOM     40  C   UNL A   1      38.905  29.460  28.367  1.00  0.00     0.173 A 
ATOM     41  C   UNL A   1      39.462  28.958  30.652  1.00  0.00     0.173 A 
ATOM     42  F   UNL A   1      39.248  29.623  27.081  1.00  0.00    -0.203 F 
ATOM     43  C   UNL A   1      37.576  29.649  28.739  1.00  0.00     0.198 A 
ATOM     44  C   UNL A   1      38.128  29.122  31.014  1.00  0.00     0.198 A 
ATOM     45  F   UNL A   1      40.349  28.616  31.598  1.00  0.00    -0.203 F 
ATOM     46  F   UNL A   1      36.668  29.999  27.817  1.00  0.00    -0.200 F 
ATOM     47  C   UNL A   1      37.186  29.468  30.058  1.00  0.00     0.200 A 
ATOM     48  F   UNL A   1      37.752  28.930  32.286  1.00  0.00    -0.200 F 
ATOM     49  F   UNL A   1      35.902  29.625  30.408  1.00  0.00    -0.200 F 
ENDBRANCH  25  39
BRANCH  26  50
ATOM     50  C   UNL A   1      49.093  26.860  26.147  1.00  0.00     0.064 A 
ATOM     51  C   UNL A   1      49.370  27.048  24.787  1.00  0.00     0.173 A 
ATOM     52  C   UNL A   1      50.119  26.349  26.958  1.00  0.00     0.173 A 
ATOM     53  F   UNL A   1      48.419  27.516  23.968  1.00  0.00    -0.203 F 
ATOM     54  C   UNL A   1      50.611  26.704  24.253  1.00  0.00     0.198 A 
ATOM     55  C   UNL A   1      51.371  26.044  26.431  1.00  0.00     0.198 A 
ATOM     56  F   UNL A   1      49.909  26.157  28.269  1.00  0.00    -0.203 F 
ATOM     57  F   UNL A   1      50.829  26.834  22.938  1.00  0.00    -0.200 F 
ATOM     58  C   UNL A   1      51.611  26.209  25.076  1.00  0.00     0.200 A 
ATOM     59  F   UNL A   1      52.340  25.586  27.235  1.00  0.00    -0.200 F 
ATOM     60  F   UNL A   1      52.804  25.878  24.561  1.00  0.00    -0.200 F 
ENDBRANCH  26  50
BRANCH  38  61
ATOM     61  C   UNL A   1      46.032  32.693  28.405  1.00  0.00     0.064 A 
ATOM     62  C   UNL A   1      46.682  33.146  29.562  1.00  0.00     0.173 A 
ATOM     63  C   UNL A   1      45.883  33.591  27.338  1.00  0.00     0.173 A 
ATOM     64  F   UNL A   1      46.830  32.331  30.617  1.00  0.00    -0.203 F 
ATOM     65  C   UNL A   1      47.149  34.454  29.654  1.00  0.00     0.198 A 
ATOM     66  C   UNL A   1      46.381  34.889  27.421  1.00  0.00     0.198 A 
ATOM     67  F   UNL A   1      45.271  33.206  26.209  1.00  0.00    -0.203 F 
ATOM     68  F   UNL A   1      47.724  34.879  30.786  1.00  0.00    -0.200 F 
ATOM     69  C   UNL A   1      47.006  35.320  28.580  1.00  0.00     0.200 A 
ATOM     70  F   UNL A   1      46.256  35.721  26.377  1.00  0.00    -0.200 F 
ATOM     71  F   UNL A   1      47.468  36.576  28.666  1.00  0.00    -0.200 F 
ENDBRANCH  38  61
ENDBRANCH  12  13
ENDBRANCH   5   7
ENDBRANCH   2   3
ENDBRANCH   1   2
BRANCH   1  72
ATOM     72  C   UNL A   1      37.445  21.486  24.646  1.00  0.00     0.118 C 
BRANCH  72  73
ATOM     73  N   UNL A   1      36.803  22.094  25.790  1.00  0.00    -0.352 N 
ATOM     74  C   UNL A   1      35.478  22.112  26.123  1.00  0.00     0.253 C 
ATOM     75  H   UNL A   1      37.403  22.559  26.417  1.00  0.00     0.163 HD
ATOM     76  O   UNL A   1      35.101  22.825  27.049  1.00  0.00    -0.269 OA
BRANCH  74  77
ATOM     77  C   UNL A   1      34.485  21.313  25.377  1.00  0.00     0.064 A 
ATOM     78  C   UNL A   1      34.833  19.961  25.188  1.00  0.00     0.024 A 
ATOM     79  C   UNL A   1      33.352  21.852  24.742  1.00  0.00     0.062 A 
ATOM     80  C   UNL A   1      34.055  19.118  24.381  1.00  0.00    -0.017 A 
ATOM     81  C   UNL A   1      32.667  21.031  23.841  1.00  0.00     0.036 A 
ATOM     82  C   UNL A   1      34.356  17.758  24.204  1.00  0.00     0.009 A 
ATOM     83  C   UNL A   1      32.952  19.666  23.702  1.00  0.00    -0.016 A 
ATOM     84  C   UNL A   1      33.552  16.949  23.397  1.00  0.00     0.001 A 
ATOM     85  C   UNL A   1      32.153  18.845  22.892  1.00  0.00     0.009 A 
ATOM     86  C   UNL A   1      32.444  17.490  22.751  1.00  0.00     0.001 A 
BRANCH  79  87
ATOM     87  N   UNL A   1      32.950  23.239  24.831  1.00  0.00    -0.279 N 
ATOM     88  H   UNL A   1      32.394  23.528  25.590  1.00  0.00     0.180 HD
BRANCH  87  89
ATOM     89  S   UNL A   1      33.416  24.398  23.649  1.00  0.00     0.263 S 
ATOM     90  O   UNL A   1      34.746  24.089  23.185  1.00  0.00    -0.201 OA
ATOM     91  O   UNL A   1      32.334  24.390  22.679  1.00  0.00    -0.201 OA
BRANCH  89  92
ATOM     92  C   UNL A   1      33.440  26.000  24.409  1.00  0.00     0.101 A 
ATOM     93  C   UNL A   1      33.357  26.033  25.813  1.00  0.00     0.023 A 
ATOM     94  C   UNL A   1      33.556  27.202  23.694  1.00  0.00     0.038 A 
ATOM     95  C   UNL A   1      33.471  27.241  26.500  1.00  0.00     0.001 A 
ATOM     96  C   UNL A   1      33.682  28.407  24.401  1.00  0.00     0.017 A 
ATOM     97  Br  UNL A   1      33.653  27.373  21.804  1.00  0.00    -0.049 Br
ATOM     98  C   UNL A   1      33.653  28.425  25.794  1.00  0.00     0.001 A 
ENDBRANCH  89  92
ENDBRANCH  87  89
ENDBRANCH  79  87
ENDBRANCH  74  77
ENDBRANCH  72  73
ENDBRANCH   1  72
TORSDOF 13
ENDMDL
