MODEL 1
REMARK VINA RESULT:     -10.2      0.000      0.000
REMARK SMILES O=C(NCCCNC(=O)[C@H]1CCCCN1C(=O)c1cc([N+](=O)[O-])c[nH]c1=O)c1ccc(-c2c3nc(c(-c4c(F)c(F)c(F)c(F)c4F)c4ccc([nH]4)c(-c4c(F)c(F)c(F)c(F)c4F)c4nc(c(-c5c(F)c(F)c(F)c(F)c5F)c5ccc2[nH]5)C=C4)C=C3)cc1
REMARK SMILES IDX 5 1 4 2 3 3 1 4 2 5 28 7 29 8 90 9 30 10 89 11 31 12 32 13
REMARK SMILES IDX 33 14 83 15 34 16 88 17 82 18 84 19 35 20 87 21 81 22 80 23
REMARK SMILES IDX 36 25 68 26 48 27 67 28 49 29 52 30 66 31 85 32 50 33 51 34
REMARK SMILES IDX 65 36 86 37 53 38 37 39 38 40 46 41 39 42 40 43 44 44 47 45
REMARK SMILES IDX 41 46 42 47 45 48 43 49 69 50 70 51 78 52 71 53 72 54 76 55
REMARK SMILES IDX 79 56 73 57 74 58 77 59 75 60 54 61 55 62 63 63 56 64 57 65
REMARK SMILES IDX 61 66 64 67 58 68 59 69 62 70 60 71 6 72 7 73 8 74 9 76
REMARK SMILES IDX 10 77 11 78 15 79 12 80 14 81 13 82 16 83 17 84 18 85 19 86
REMARK SMILES IDX 26 87 20 88 25 89 27 90 24 91 21 93 22 94 23 95
REMARK H PARENT 3 6 84 24 52 35 7 75 25 92
REMARK Flexibility Score: inf
ROOT
ATOM      1  C   UNL A   1      33.732  33.568  28.659  1.00  0.00     0.042 C 
ENDROOT
BRANCH   1   2
ATOM      2  C   UNL A   1      34.629  32.527  28.004  1.00  0.00     0.118 C 
BRANCH   2   3
ATOM      3  N   UNL A   1      34.000  31.214  27.945  1.00  0.00    -0.352 N 
ATOM      4  O   UNL A   1      33.849  28.998  27.601  1.00  0.00    -0.269 OA
ATOM      5  C   UNL A   1      34.554  29.960  27.890  1.00  0.00     0.251 C 
ATOM      6  H   UNL A   1      33.015  31.229  27.945  1.00  0.00     0.163 HD
BRANCH   5   7
ATOM      7  C   UNL A   1      35.993  29.756  28.160  1.00  0.00     0.039 A 
ATOM      8  C   UNL A   1      36.958  30.052  27.194  1.00  0.00     0.014 A 
ATOM      9  C   UNL A   1      36.391  29.319  29.429  1.00  0.00     0.014 A 
ATOM     10  C   UNL A   1      38.299  29.773  27.440  1.00  0.00     0.010 A 
ATOM     11  C   UNL A   1      37.748  29.126  29.706  1.00  0.00     0.010 A 
ATOM     12  C   UNL A   1      38.709  29.322  28.703  1.00  0.00    -0.014 A 
BRANCH  12  13
ATOM     13  C   UNL A   1      40.153  29.119  28.974  1.00  0.00     0.031 A 
ATOM     14  C   UNL A   1      40.862  27.888  28.487  1.00  0.00     0.074 A 
ATOM     15  C   UNL A   1      40.826  30.063  29.659  1.00  0.00     0.049 A 
ATOM     16  N   UNL A   1      42.109  27.529  28.665  1.00  0.00    -0.248 NA
ATOM     17  C   UNL A   1      40.067  26.930  27.707  1.00  0.00     0.031 C 
ATOM     18  C   UNL A   1      40.241  31.296  30.187  1.00  0.00     0.029 A 
ATOM     19  N   UNL A   1      42.146  30.139  30.021  1.00  0.00    -0.354 N 
ATOM     20  C   UNL A   1      42.240  26.294  28.046  1.00  0.00     0.074 A 
ATOM     21  C   UNL A   1      40.944  25.955  27.499  1.00  0.00     0.031 C 
ATOM     22  C   UNL A   1      41.203  32.024  30.773  1.00  0.00     0.029 A 
ATOM     23  C   UNL A   1      42.457  31.281  30.716  1.00  0.00     0.049 A 
ATOM     24  H   UNL A   1      42.807  29.442  29.804  1.00  0.00     0.167 HD
ATOM     25  C   UNL A   1      43.346  25.519  27.942  1.00  0.00     0.037 A 
ATOM     26  C   UNL A   1      43.620  31.681  31.265  1.00  0.00     0.037 A 
ATOM     27  C   UNL A   1      44.640  25.873  28.464  1.00  0.00     0.049 A 
ATOM     28  C   UNL A   1      44.828  30.801  31.137  1.00  0.00     0.074 A 
ATOM     29  C   UNL A   1      45.829  25.170  28.380  1.00  0.00     0.029 A 
ATOM     30  N   UNL A   1      44.913  27.036  29.169  1.00  0.00    -0.354 N 
ATOM     31  N   UNL A   1      44.942  29.641  30.537  1.00  0.00    -0.248 NA
ATOM     32  C   UNL A   1      46.065  31.281  31.765  1.00  0.00     0.031 C 
ATOM     33  C   UNL A   1      46.814  25.891  29.062  1.00  0.00     0.029 A 
ATOM     34  C   UNL A   1      46.249  27.063  29.540  1.00  0.00     0.049 A 
ATOM     35  H   UNL A   1      44.256  27.739  29.376  1.00  0.00     0.167 HD
ATOM     36  C   UNL A   1      46.264  29.256  30.703  1.00  0.00     0.074 A 
ATOM     37  C   UNL A   1      46.917  30.314  31.449  1.00  0.00     0.031 C 
ATOM     38  C   UNL A   1      46.879  28.127  30.279  1.00  0.00     0.037 A 
BRANCH  25  39
ATOM     39  C   UNL A   1      43.199  24.194  27.252  1.00  0.00     0.064 A 
ATOM     40  C   UNL A   1      43.518  24.028  25.897  1.00  0.00     0.173 A 
ATOM     41  C   UNL A   1      42.759  23.070  27.967  1.00  0.00     0.173 A 
ATOM     42  F   UNL A   1      43.929  25.074  25.167  1.00  0.00    -0.203 F 
ATOM     43  C   UNL A   1      43.380  22.787  25.276  1.00  0.00     0.198 A 
ATOM     44  C   UNL A   1      42.644  21.827  27.349  1.00  0.00     0.198 A 
ATOM     45  F   UNL A   1      42.445  23.174  29.266  1.00  0.00    -0.203 F 
ATOM     46  F   UNL A   1      43.650  22.661  23.970  1.00  0.00    -0.200 F 
ATOM     47  C   UNL A   1      42.949  21.688  26.003  1.00  0.00     0.200 A 
ATOM     48  F   UNL A   1      42.235  20.763  28.055  1.00  0.00    -0.200 F 
ATOM     49  F   UNL A   1      42.817  20.497  25.405  1.00  0.00    -0.200 F 
ENDBRANCH  25  39
BRANCH  26  50
ATOM     50  C   UNL A   1      43.675  32.977  31.983  1.00  0.00     0.064 A 
ATOM     51  C   UNL A   1      43.994  34.161  31.307  1.00  0.00     0.173 A 
ATOM     52  C   UNL A   1      43.361  33.065  33.347  1.00  0.00     0.173 A 
ATOM     53  F   UNL A   1      44.317  34.123  30.006  1.00  0.00    -0.203 F 
ATOM     54  C   UNL A   1      43.998  35.387  31.969  1.00  0.00     0.198 A 
ATOM     55  C   UNL A   1      43.341  34.292  34.003  1.00  0.00     0.198 A 
ATOM     56  F   UNL A   1      43.042  31.957  34.034  1.00  0.00    -0.203 F 
ATOM     57  F   UNL A   1      44.326  36.503  31.306  1.00  0.00    -0.200 F 
ATOM     58  C   UNL A   1      43.663  35.452  33.315  1.00  0.00     0.200 A 
ATOM     59  F   UNL A   1      43.001  34.353  35.297  1.00  0.00    -0.200 F 
ATOM     60  F   UNL A   1      43.649  36.634  33.947  1.00  0.00    -0.200 F 
ENDBRANCH  26  50
BRANCH  38  61
ATOM     61  C   UNL A   1      48.338  27.988  30.591  1.00  0.00     0.064 A 
ATOM     62  C   UNL A   1      48.776  27.406  31.789  1.00  0.00     0.173 A 
ATOM     63  C   UNL A   1      49.304  28.404  29.665  1.00  0.00     0.173 A 
ATOM     64  F   UNL A   1      47.887  27.008  32.712  1.00  0.00    -0.203 F 
ATOM     65  C   UNL A   1      50.135  27.262  32.056  1.00  0.00     0.198 A 
ATOM     66  C   UNL A   1      50.661  28.238  29.926  1.00  0.00     0.198 A 
ATOM     67  F   UNL A   1      48.931  28.963  28.504  1.00  0.00    -0.203 F 
ATOM     68  F   UNL A   1      50.535  26.735  33.222  1.00  0.00    -0.200 F 
ATOM     69  C   UNL A   1      51.075  27.672  31.121  1.00  0.00     0.200 A 
ATOM     70  F   UNL A   1      51.569  28.629  29.020  1.00  0.00    -0.200 F 
ATOM     71  F   UNL A   1      52.382  27.527  31.379  1.00  0.00    -0.200 F 
ENDBRANCH  38  61
ENDBRANCH  12  13
ENDBRANCH   5   7
ENDBRANCH   2   3
ENDBRANCH   1   2
BRANCH   1  72
ATOM     72  C   UNL A   1      34.447  34.426  29.693  1.00  0.00     0.117 C 
BRANCH  72  73
ATOM     73  N   UNL A   1      34.284  33.909  31.037  1.00  0.00    -0.354 N 
ATOM     74  C   UNL A   1      34.994  33.072  31.830  1.00  0.00     0.242 C 
ATOM     75  H   UNL A   1      33.467  34.242  31.474  1.00  0.00     0.163 HD
ATOM     76  O   UNL A   1      34.471  32.870  32.936  1.00  0.00    -0.273 OA
BRANCH  74  77
ATOM     77  C   UNL A   1      36.310  32.343  31.430  1.00  0.00     0.174 C 
ATOM     78  C   UNL A   1      37.303  32.980  30.459  1.00  0.00     0.035 C 
ATOM     79  N   UNL A   1      37.084  32.087  32.673  1.00  0.00    -0.326 N 
ATOM     80  C   UNL A   1      37.835  34.305  31.002  1.00  0.00     0.004 C 
ATOM     81  C   UNL A   1      37.631  33.289  33.322  1.00  0.00     0.120 C 
ATOM     82  C   UNL A   1      38.508  34.088  32.358  1.00  0.00     0.022 C 
BRANCH  79  83
ATOM     83  C   UNL A   1      37.223  30.783  33.110  1.00  0.00     0.260 C 
ATOM     84  O   UNL A   1      36.492  29.866  32.731  1.00  0.00    -0.269 OA
BRANCH  83  85
ATOM     85  C   UNL A   1      38.419  30.438  33.908  1.00  0.00     0.111 A 
ATOM     86  C   UNL A   1      39.430  29.846  33.239  1.00  0.00     0.107 A 
ATOM     87  C   UNL A   1      38.540  30.677  35.374  1.00  0.00     0.261 A 
ATOM     88  C   UNL A   1      40.643  29.464  33.929  1.00  0.00     0.286 A 
ATOM     89  N   UNL A   1      39.735  30.281  35.944  1.00  0.00    -0.322 N 
ATOM     90  O   UNL A   1      37.667  31.213  36.043  1.00  0.00    -0.269 OA
ATOM     91  C   UNL A   1      40.769  29.689  35.248  1.00  0.00     0.172 A 
ATOM     92  H   UNL A   1      39.858  30.431  36.910  1.00  0.00     0.169 HD
BRANCH  88  93
ATOM     93  N   UNL A   1      41.766  28.847  33.223  1.00  0.00     0.064 N 
ATOM     94  O   UNL A   1      41.519  28.113  32.255  1.00  0.00    -0.258 OA
ATOM     95  O   UNL A   1      42.903  29.090  33.649  1.00  0.00    -0.258 OA
ENDBRANCH  88  93
ENDBRANCH  83  85
ENDBRANCH  79  83
ENDBRANCH  74  77
ENDBRANCH  72  73
ENDBRANCH   1  72
TORSDOF 13
ENDMDL
MODEL 2
REMARK VINA RESULT:     -10.1      4.986     10.516
REMARK SMILES O=C(NCCCNC(=O)[C@H]1CCCCN1C(=O)c1cc([N+](=O)[O-])c[nH]c1=O)c1ccc(-c2c3nc(c(-c4c(F)c(F)c(F)c(F)c4F)c4ccc([nH]4)c(-c4c(F)c(F)c(F)c(F)c4F)c4nc(c(-c5c(F)c(F)c(F)c(F)c5F)c5ccc2[nH]5)C=C4)C=C3)cc1
REMARK SMILES IDX 5 1 4 2 3 3 1 4 2 5 28 7 29 8 90 9 30 10 89 11 31 12 32 13
REMARK SMILES IDX 33 14 83 15 34 16 88 17 82 18 84 19 35 20 87 21 81 22 80 23
REMARK SMILES IDX 36 25 68 26 48 27 67 28 49 29 52 30 66 31 85 32 50 33 51 34
REMARK SMILES IDX 65 36 86 37 53 38 37 39 38 40 46 41 39 42 40 43 44 44 47 45
REMARK SMILES IDX 41 46 42 47 45 48 43 49 69 50 70 51 78 52 71 53 72 54 76 55
REMARK SMILES IDX 79 56 73 57 74 58 77 59 75 60 54 61 55 62 63 63 56 64 57 65
REMARK SMILES IDX 61 66 64 67 58 68 59 69 62 70 60 71 6 72 7 73 8 74 9 76
REMARK SMILES IDX 10 77 11 78 15 79 12 80 14 81 13 82 16 83 17 84 18 85 19 86
REMARK SMILES IDX 26 87 20 88 25 89 27 90 24 91 21 93 22 94 23 95
REMARK H PARENT 3 6 84 24 52 35 7 75 25 92
REMARK Flexibility Score: inf
ROOT
ATOM      1  C   UNL A   1      33.696  27.994  24.931  1.00  0.00     0.042 C 
ENDROOT
BRANCH   1   2
ATOM      2  C   UNL A   1      34.029  28.164  26.407  1.00  0.00     0.118 C 
BRANCH   2   3
ATOM      3  N   UNL A   1      33.767  29.517  26.879  1.00  0.00    -0.352 N 
ATOM      4  O   UNL A   1      33.963  31.332  28.191  1.00  0.00    -0.269 OA
ATOM      5  C   UNL A   1      34.482  30.319  27.733  1.00  0.00     0.251 C 
ATOM      6  H   UNL A   1      32.941  29.923  26.528  1.00  0.00     0.163 HD
BRANCH   5   7
ATOM      7  C   UNL A   1      35.865  29.968  28.121  1.00  0.00     0.039 A 
ATOM      8  C   UNL A   1      36.940  30.210  27.261  1.00  0.00     0.014 A 
ATOM      9  C   UNL A   1      36.101  29.443  29.396  1.00  0.00     0.014 A 
ATOM     10  C   UNL A   1      38.220  29.795  27.612  1.00  0.00     0.010 A 
ATOM     11  C   UNL A   1      37.402  29.110  29.784  1.00  0.00     0.010 A 
ATOM     12  C   UNL A   1      38.467  29.256  28.883  1.00  0.00    -0.014 A 
BRANCH  12  13
ATOM     13  C   UNL A   1      39.855  28.905  29.272  1.00  0.00     0.031 A 
ATOM     14  C   UNL A   1      40.649  29.797  30.182  1.00  0.00     0.074 A 
ATOM     15  C   UNL A   1      40.393  27.763  28.803  1.00  0.00     0.049 A 
ATOM     16  N   UNL A   1      41.885  29.665  30.595  1.00  0.00    -0.248 NA
ATOM     17  C   UNL A   1      39.972  30.999  30.688  1.00  0.00     0.031 C 
ATOM     18  C   UNL A   1      39.720  26.822  27.908  1.00  0.00     0.029 A 
ATOM     19  N   UNL A   1      41.623  27.196  29.019  1.00  0.00    -0.354 N 
ATOM     20  C   UNL A   1      42.142  30.778  31.383  1.00  0.00     0.074 A 
ATOM     21  C   UNL A   1      40.941  31.585  31.381  1.00  0.00     0.031 C 
ATOM     22  C   UNL A   1      40.528  25.777  27.679  1.00  0.00     0.029 A 
ATOM     23  C   UNL A   1      41.797  26.004  28.360  1.00  0.00     0.049 A 
ATOM     24  H   UNL A   1      42.314  27.604  29.589  1.00  0.00     0.167 HD
ATOM     25  C   UNL A   1      43.279  31.092  32.050  1.00  0.00     0.037 A 
ATOM     26  C   UNL A   1      42.868  25.190  28.296  1.00  0.00     0.037 A 
ATOM     27  C   UNL A   1      44.462  30.272  32.071  1.00  0.00     0.049 A 
ATOM     28  C   UNL A   1      44.114  25.563  29.042  1.00  0.00     0.074 A 
ATOM     29  C   UNL A   1      45.652  30.487  32.744  1.00  0.00     0.029 A 
ATOM     30  N   UNL A   1      44.603  29.074  31.385  1.00  0.00    -0.354 N 
ATOM     31  N   UNL A   1      44.340  26.613  29.795  1.00  0.00    -0.248 NA
ATOM     32  C   UNL A   1      45.254  24.645  28.927  1.00  0.00     0.031 C 
ATOM     33  C   UNL A   1      46.524  29.437  32.440  1.00  0.00     0.029 A 
ATOM     34  C   UNL A   1      45.866  28.547  31.606  1.00  0.00     0.049 A 
ATOM     35  H   UNL A   1      43.908  28.659  30.824  1.00  0.00     0.167 HD
ATOM     36  C   UNL A   1      45.643  26.477  30.253  1.00  0.00     0.074 A 
ATOM     37  C   UNL A   1      46.152  25.236  29.705  1.00  0.00     0.031 C 
ATOM     38  C   UNL A   1      46.351  27.309  31.053  1.00  0.00     0.037 A 
BRANCH  25  39
ATOM     39  C   UNL A   1      43.305  32.393  32.798  1.00  0.00     0.064 A 
ATOM     40  C   UNL A   1      42.885  32.485  34.133  1.00  0.00     0.173 A 
ATOM     41  C   UNL A   1      43.784  33.556  32.177  1.00  0.00     0.173 A 
ATOM     42  F   UNL A   1      42.405  31.406  34.766  1.00  0.00    -0.203 F 
ATOM     43  C   UNL A   1      42.923  33.702  34.811  1.00  0.00     0.198 A 
ATOM     44  C   UNL A   1      43.842  34.765  32.865  1.00  0.00     0.198 A 
ATOM     45  F   UNL A   1      44.201  33.520  30.903  1.00  0.00    -0.203 F 
ATOM     46  F   UNL A   1      42.476  33.776  36.072  1.00  0.00    -0.200 F 
ATOM     47  C   UNL A   1      43.405  34.838  34.180  1.00  0.00     0.200 A 
ATOM     48  F   UNL A   1      44.317  35.861  32.257  1.00  0.00    -0.200 F 
ATOM     49  F   UNL A   1      43.441  36.007  34.834  1.00  0.00    -0.200 F 
ENDBRANCH  25  39
BRANCH  26  50
ATOM     50  C   UNL A   1      42.788  23.949  27.488  1.00  0.00     0.064 A 
ATOM     51  C   UNL A   1      43.115  23.954  26.127  1.00  0.00     0.173 A 
ATOM     52  C   UNL A   1      42.430  22.725  28.073  1.00  0.00     0.173 A 
ATOM     53  F   UNL A   1      43.447  25.104  25.522  1.00  0.00    -0.203 F 
ATOM     54  C   UNL A   1      43.089  22.779  25.378  1.00  0.00     0.198 A 
ATOM     55  C   UNL A   1      42.427  21.548  27.331  1.00  0.00     0.198 A 
ATOM     56  F   UNL A   1      42.115  22.671  29.376  1.00  0.00    -0.203 F 
ATOM     57  F   UNL A   1      43.386  22.812  24.073  1.00  0.00    -0.200 F 
ATOM     58  C   UNL A   1      42.754  21.576  25.983  1.00  0.00     0.200 A 
ATOM     59  F   UNL A   1      42.120  20.386  27.922  1.00  0.00    -0.200 F 
ATOM     60  F   UNL A   1      42.745  20.443  25.266  1.00  0.00    -0.200 F 
ENDBRANCH  26  50
BRANCH  38  61
ATOM     61  C   UNL A   1      47.747  26.891  31.402  1.00  0.00     0.064 A 
ATOM     62  C   UNL A   1      48.851  27.341  30.664  1.00  0.00     0.173 A 
ATOM     63  C   UNL A   1      47.985  26.065  32.510  1.00  0.00     0.173 A 
ATOM     64  F   UNL A   1      48.670  28.119  29.585  1.00  0.00    -0.203 F 
ATOM     65  C   UNL A   1      50.145  26.964  31.013  1.00  0.00     0.198 A 
ATOM     66  C   UNL A   1      49.281  25.708  32.870  1.00  0.00     0.198 A 
ATOM     67  F   UNL A   1      46.960  25.613  33.248  1.00  0.00    -0.203 F 
ATOM     68  F   UNL A   1      51.184  27.376  30.274  1.00  0.00    -0.200 F 
ATOM     69  C   UNL A   1      50.358  26.154  32.120  1.00  0.00     0.200 A 
ATOM     70  F   UNL A   1      49.487  24.931  33.942  1.00  0.00    -0.200 F 
ATOM     71  F   UNL A   1      51.605  25.797  32.457  1.00  0.00    -0.200 F 
ENDBRANCH  38  61
ENDBRANCH  12  13
ENDBRANCH   5   7
ENDBRANCH   2   3
ENDBRANCH   1   2
BRANCH   1  72
ATOM     72  C   UNL A   1      33.318  26.569  24.552  1.00  0.00     0.117 C 
BRANCH  72  73
ATOM     73  N   UNL A   1      33.619  25.626  25.611  1.00  0.00    -0.354 N 
ATOM     74  C   UNL A   1      33.785  24.283  25.673  1.00  0.00     0.242 C 
ATOM     75  H   UNL A   1      33.726  26.061  26.487  1.00  0.00     0.163 HD
ATOM     76  O   UNL A   1      34.016  23.862  26.816  1.00  0.00    -0.273 OA
BRANCH  74  77
ATOM     77  C   UNL A   1      33.644  23.296  24.478  1.00  0.00     0.174 C 
ATOM     78  C   UNL A   1      34.629  23.323  23.309  1.00  0.00     0.035 C 
ATOM     79  N   UNL A   1      33.715  21.913  25.019  1.00  0.00    -0.326 N 
ATOM     80  C   UNL A   1      36.054  23.039  23.780  1.00  0.00     0.004 C 
ATOM     81  C   UNL A   1      35.032  21.517  25.540  1.00  0.00     0.120 C 
ATOM     82  C   UNL A   1      36.118  21.679  24.478  1.00  0.00     0.022 C 
BRANCH  79  83
ATOM     83  C   UNL A   1      32.572  21.134  24.996  1.00  0.00     0.260 C 
ATOM     84  O   UNL A   1      31.533  21.449  25.576  1.00  0.00    -0.269 OA
BRANCH  83  85
ATOM     85  C   UNL A   1      32.535  19.979  24.073  1.00  0.00     0.111 A 
ATOM     86  C   UNL A   1      32.910  18.792  24.591  1.00  0.00     0.107 A 
ATOM     87  C   UNL A   1      32.146  20.072  22.637  1.00  0.00     0.261 A 
ATOM     88  C   UNL A   1      32.913  17.600  23.770  1.00  0.00     0.286 A 
ATOM     89  N   UNL A   1      32.179  18.882  21.935  1.00  0.00    -0.322 N 
ATOM     90  O   UNL A   1      31.791  21.113  22.102  1.00  0.00    -0.269 OA
ATOM     91  C   UNL A   1      32.550  17.670  22.478  1.00  0.00     0.172 A 
ATOM     92  H   UNL A   1      31.919  18.900  20.985  1.00  0.00     0.169 HD
BRANCH  88  93
ATOM     93  N   UNL A   1      33.288  16.294  24.314  1.00  0.00     0.064 N 
ATOM     94  O   UNL A   1      32.547  15.776  25.161  1.00  0.00    -0.258 OA
ATOM     95  O   UNL A   1      34.340  15.790  23.898  1.00  0.00    -0.258 OA
ENDBRANCH  88  93
ENDBRANCH  83  85
ENDBRANCH  79  83
ENDBRANCH  74  77
ENDBRANCH  72  73
ENDBRANCH   1  72
TORSDOF 13
ENDMDL
MODEL 3
REMARK VINA RESULT:     -10.1      4.473      9.941
REMARK SMILES O=C(NCCCNC(=O)[C@H]1CCCCN1C(=O)c1cc([N+](=O)[O-])c[nH]c1=O)c1ccc(-c2c3nc(c(-c4c(F)c(F)c(F)c(F)c4F)c4ccc([nH]4)c(-c4c(F)c(F)c(F)c(F)c4F)c4nc(c(-c5c(F)c(F)c(F)c(F)c5F)c5ccc2[nH]5)C=C4)C=C3)cc1
REMARK SMILES IDX 5 1 4 2 3 3 1 4 2 5 28 7 29 8 90 9 30 10 89 11 31 12 32 13
REMARK SMILES IDX 33 14 83 15 34 16 88 17 82 18 84 19 35 20 87 21 81 22 80 23
REMARK SMILES IDX 36 25 68 26 48 27 67 28 49 29 52 30 66 31 85 32 50 33 51 34
REMARK SMILES IDX 65 36 86 37 53 38 37 39 38 40 46 41 39 42 40 43 44 44 47 45
REMARK SMILES IDX 41 46 42 47 45 48 43 49 69 50 70 51 78 52 71 53 72 54 76 55
REMARK SMILES IDX 79 56 73 57 74 58 77 59 75 60 54 61 55 62 63 63 56 64 57 65
REMARK SMILES IDX 61 66 64 67 58 68 59 69 62 70 60 71 6 72 7 73 8 74 9 76
REMARK SMILES IDX 10 77 11 78 15 79 12 80 14 81 13 82 16 83 17 84 18 85 19 86
REMARK SMILES IDX 26 87 20 88 25 89 27 90 24 91 21 93 22 94 23 95
REMARK H PARENT 3 6 84 24 52 35 7 75 25 92
REMARK Flexibility Score: inf
ROOT
ATOM      1  C   UNL A   1      35.049  23.250  26.422  1.00  0.00     0.042 C 
ENDROOT
BRANCH   1   2
ATOM      2  C   UNL A   1      36.355  23.729  25.802  1.00  0.00     0.118 C 
BRANCH   2   3
ATOM      3  N   UNL A   1      37.426  22.752  25.948  1.00  0.00    -0.352 N 
ATOM      4  O   UNL A   1      39.535  21.996  26.133  1.00  0.00    -0.269 OA
ATOM      5  C   UNL A   1      38.741  22.916  26.305  1.00  0.00     0.251 C 
ATOM      6  H   UNL A   1      37.163  21.821  25.761  1.00  0.00     0.163 HD
BRANCH   5   7
ATOM      7  C   UNL A   1      39.216  24.193  26.880  1.00  0.00     0.039 A 
ATOM      8  C   UNL A   1      39.013  24.498  28.228  1.00  0.00     0.014 A 
ATOM      9  C   UNL A   1      39.936  25.078  26.068  1.00  0.00     0.014 A 
ATOM     10  C   UNL A   1      39.394  25.739  28.727  1.00  0.00     0.010 A 
ATOM     11  C   UNL A   1      40.398  26.287  26.594  1.00  0.00     0.010 A 
ATOM     12  C   UNL A   1      40.104  26.640  27.920  1.00  0.00    -0.014 A 
BRANCH  12  13
ATOM     13  C   UNL A   1      40.581  27.920  28.497  1.00  0.00     0.031 A 
ATOM     14  C   UNL A   1      42.039  28.141  28.782  1.00  0.00     0.074 A 
ATOM     15  C   UNL A   1      39.686  28.893  28.753  1.00  0.00     0.049 A 
ATOM     16  N   UNL A   1      42.627  29.181  29.319  1.00  0.00    -0.248 NA
ATOM     17  C   UNL A   1      42.957  27.049  28.429  1.00  0.00     0.031 C 
ATOM     18  C   UNL A   1      38.244  28.790  28.523  1.00  0.00     0.029 A 
ATOM     19  N   UNL A   1      39.853  30.158  29.254  1.00  0.00    -0.354 N 
ATOM     20  C   UNL A   1      43.974  28.859  29.393  1.00  0.00     0.074 A 
ATOM     21  C   UNL A   1      44.119  27.520  28.862  1.00  0.00     0.031 C 
ATOM     22  C   UNL A   1      37.662  29.953  28.847  1.00  0.00     0.029 A 
ATOM     23  C   UNL A   1      38.680  30.861  29.365  1.00  0.00     0.049 A 
ATOM     24  H   UNL A   1      40.729  30.526  29.512  1.00  0.00     0.167 HD
ATOM     25  C   UNL A   1      44.996  29.615  29.861  1.00  0.00     0.037 A 
ATOM     26  C   UNL A   1      38.443  32.096  29.847  1.00  0.00     0.037 A 
ATOM     27  C   UNL A   1      44.851  30.956  30.364  1.00  0.00     0.049 A 
ATOM     28  C   UNL A   1      39.593  32.912  30.360  1.00  0.00     0.074 A 
ATOM     29  C   UNL A   1      45.830  31.817  30.828  1.00  0.00     0.029 A 
ATOM     30  N   UNL A   1      43.643  31.633  30.466  1.00  0.00    -0.354 N 
ATOM     31  N   UNL A   1      40.865  32.600  30.413  1.00  0.00    -0.248 NA
ATOM     32  C   UNL A   1      39.275  34.246  30.884  1.00  0.00     0.031 C 
ATOM     33  C   UNL A   1      45.211  33.002  31.242  1.00  0.00     0.029 A 
ATOM     34  C   UNL A   1      43.851  32.895  31.001  1.00  0.00     0.049 A 
ATOM     35  H   UNL A   1      42.768  31.270  30.198  1.00  0.00     0.167 HD
ATOM     36  C   UNL A   1      41.503  33.701  30.965  1.00  0.00     0.074 A 
ATOM     37  C   UNL A   1      40.478  34.695  31.217  1.00  0.00     0.031 C 
ATOM     38  C   UNL A   1      42.818  33.870  31.240  1.00  0.00     0.037 A 
BRANCH  25  39
ATOM     39  C   UNL A   1      46.365  29.000  29.870  1.00  0.00     0.064 A 
ATOM     40  C   UNL A   1      46.849  28.293  30.980  1.00  0.00     0.173 A 
ATOM     41  C   UNL A   1      47.191  29.096  28.740  1.00  0.00     0.173 A 
ATOM     42  F   UNL A   1      46.104  28.186  32.090  1.00  0.00    -0.203 F 
ATOM     43  C   UNL A   1      48.121  27.725  30.967  1.00  0.00     0.198 A 
ATOM     44  C   UNL A   1      48.452  28.507  28.722  1.00  0.00     0.198 A 
ATOM     45  F   UNL A   1      46.773  29.758  27.651  1.00  0.00    -0.203 F 
ATOM     46  F   UNL A   1      48.581  27.091  32.055  1.00  0.00    -0.200 F 
ATOM     47  C   UNL A   1      48.919  27.828  29.838  1.00  0.00     0.200 A 
ATOM     48  F   UNL A   1      49.219  28.600  27.626  1.00  0.00    -0.200 F 
ATOM     49  F   UNL A   1      50.142  27.280  29.826  1.00  0.00    -0.200 F 
ENDBRANCH  25  39
BRANCH  26  50
ATOM     50  C   UNL A   1      37.054  32.616  29.859  1.00  0.00     0.064 A 
ATOM     51  C   UNL A   1      36.232  32.445  30.980  1.00  0.00     0.173 A 
ATOM     52  C   UNL A   1      36.540  33.337  28.772  1.00  0.00     0.173 A 
ATOM     53  F   UNL A   1      36.676  31.748  32.037  1.00  0.00    -0.203 F 
ATOM     54  C   UNL A   1      34.945  32.976  31.013  1.00  0.00     0.198 A 
ATOM     55  C   UNL A   1      35.263  33.888  28.814  1.00  0.00     0.198 A 
ATOM     56  F   UNL A   1      37.294  33.532  27.680  1.00  0.00    -0.203 F 
ATOM     57  F   UNL A   1      34.170  32.782  32.088  1.00  0.00    -0.200 F 
ATOM     58  C   UNL A   1      34.464  33.705  29.934  1.00  0.00     0.200 A 
ATOM     59  F   UNL A   1      34.809  34.605  27.778  1.00  0.00    -0.200 F 
ATOM     60  F   UNL A   1      33.232  34.230  29.974  1.00  0.00    -0.200 F 
ENDBRANCH  26  50
BRANCH  38  61
ATOM     61  C   UNL A   1      43.227  35.188  31.824  1.00  0.00     0.064 A 
ATOM     62  C   UNL A   1      43.659  36.245  31.010  1.00  0.00     0.173 A 
ATOM     63  C   UNL A   1      43.148  35.406  33.207  1.00  0.00     0.173 A 
ATOM     64  F   UNL A   1      43.766  36.075  29.684  1.00  0.00    -0.203 F 
ATOM     65  C   UNL A   1      44.013  37.472  31.564  1.00  0.00     0.198 A 
ATOM     66  C   UNL A   1      43.482  36.641  33.755  1.00  0.00     0.198 A 
ATOM     67  F   UNL A   1      42.737  34.425  34.024  1.00  0.00    -0.203 F 
ATOM     68  F   UNL A   1      44.457  38.458  30.773  1.00  0.00    -0.200 F 
ATOM     69  C   UNL A   1      43.918  37.670  32.934  1.00  0.00     0.200 A 
ATOM     70  F   UNL A   1      43.384  36.834  35.077  1.00  0.00    -0.200 F 
ATOM     71  F   UNL A   1      44.255  38.854  33.464  1.00  0.00    -0.200 F 
ENDBRANCH  38  61
ENDBRANCH  12  13
ENDBRANCH   5   7
ENDBRANCH   2   3
ENDBRANCH   1   2
BRANCH   1  72
ATOM     72  C   UNL A   1      33.847  24.105  26.047  1.00  0.00     0.117 C 
BRANCH  72  73
ATOM     73  N   UNL A   1      34.165  25.066  25.009  1.00  0.00    -0.354 N 
ATOM     74  C   UNL A   1      33.459  25.994  24.320  1.00  0.00     0.242 C 
ATOM     75  H   UNL A   1      35.112  25.037  24.743  1.00  0.00     0.163 HD
ATOM     76  O   UNL A   1      34.131  26.607  23.477  1.00  0.00    -0.273 OA
BRANCH  74  77
ATOM     77  C   UNL A   1      31.934  26.268  24.469  1.00  0.00     0.174 C 
ATOM     78  C   UNL A   1      31.264  26.284  25.843  1.00  0.00     0.035 C 
ATOM     79  N   UNL A   1      31.652  27.603  23.879  1.00  0.00    -0.326 N 
ATOM     80  C   UNL A   1      31.863  27.366  26.738  1.00  0.00     0.004 C 
ATOM     81  C   UNL A   1      32.203  28.742  24.628  1.00  0.00     0.120 C 
ATOM     82  C   UNL A   1      31.717  28.738  26.078  1.00  0.00     0.022 C 
BRANCH  79  83
ATOM     83  C   UNL A   1      30.920  27.667  22.708  1.00  0.00     0.260 C 
ATOM     84  O   UNL A   1      31.178  26.983  21.716  1.00  0.00    -0.269 OA
BRANCH  83  85
ATOM     85  C   UNL A   1      29.659  28.440  22.715  1.00  0.00     0.111 A 
ATOM     86  C   UNL A   1      29.723  29.687  22.207  1.00  0.00     0.107 A 
ATOM     87  C   UNL A   1      28.372  27.929  23.268  1.00  0.00     0.261 A 
ATOM     88  C   UNL A   1      28.544  30.527  22.173  1.00  0.00     0.286 A 
ATOM     89  N   UNL A   1      27.304  28.802  23.189  1.00  0.00    -0.322 N 
ATOM     90  O   UNL A   1      28.240  26.807  23.738  1.00  0.00    -0.269 OA
ATOM     91  C   UNL A   1      27.377  30.071  22.655  1.00  0.00     0.172 A 
ATOM     92  H   UNL A   1      26.433  28.497  23.535  1.00  0.00     0.169 HD
BRANCH  88  93
ATOM     93  N   UNL A   1      28.579  31.874  21.602  1.00  0.00     0.064 N 
ATOM     94  O   UNL A   1      29.000  32.801  22.309  1.00  0.00    -0.258 OA
ATOM     95  O   UNL A   1      28.170  32.006  20.441  1.00  0.00    -0.258 OA
ENDBRANCH  88  93
ENDBRANCH  83  85
ENDBRANCH  79  83
ENDBRANCH  74  77
ENDBRANCH  72  73
ENDBRANCH   1  72
TORSDOF 13
ENDMDL
