MODEL 1
REMARK VINA RESULT:     -10.5      0.000      0.000
REMARK SMILES CC(=O)CCCCC/C=C/C(=O)NCCCNC(=O)c1ccc(-c2c3nc(c(-c4c(F)c(F)c(F)c(F)c4F)c4ccc([nH]4)c(-c4c(F)c(F)c(F)c(F)c4F)c4nc(c(-c5c(F)c(F)c(F)c(F)c5F)c5ccc2[nH]5)C=C4)C=C3)cc1
REMARK SMILES IDX 11 1 12 2 13 3 10 5 9 6 8 7 7 8 6 9 5 10 4 11 2 12 1 13 3 14
REMARK SMILES IDX 14 15 15 16 16 17 17 18 18 19 19 21 20 22 21 23 82 24 22 25
REMARK SMILES IDX 81 26 23 27 24 28 25 29 75 30 26 31 80 32 74 33 76 34 27 35
REMARK SMILES IDX 79 36 73 37 72 38 28 40 60 41 40 42 59 43 41 44 44 45 58 46
REMARK SMILES IDX 77 47 42 48 43 49 57 51 78 52 45 53 29 54 30 55 38 56 31 57
REMARK SMILES IDX 32 58 36 59 39 60 33 61 34 62 37 63 35 64 61 65 62 66 70 67
REMARK SMILES IDX 63 68 64 69 68 70 71 71 65 72 66 73 69 74 67 75 46 76 47 77
REMARK SMILES IDX 55 78 48 79 49 80 53 81 56 82 50 83 51 84 54 85 52 86
REMARK H PARENT 13 4 17 20 76 39 44 50
REMARK Flexibility Score: inf
ROOT
ATOM      1  C   UNL A   1      36.268  22.437  25.760  1.00  0.00     0.243 C 
ATOM      2  O   UNL A   1      36.697  23.540  26.088  1.00  0.00    -0.270 OA
ATOM      3  N   UNL A   1      37.139  21.433  25.465  1.00  0.00    -0.352 N 
ATOM      4  H   UNL A   1      38.084  21.651  25.633  1.00  0.00     0.163 HD
ENDROOT
BRANCH   1   5
ATOM      5  C   UNL A   1      34.812  22.245  25.587  1.00  0.00     0.067 C 
ATOM      6  C   UNL A   1      34.178  22.207  24.404  1.00  0.00    -0.021 C 
BRANCH   6   7
ATOM      7  C   UNL A   1      32.693  22.049  24.269  1.00  0.00     0.027 C 
BRANCH   7   8
ATOM      8  C   UNL A   1      32.171  20.697  24.775  1.00  0.00     0.004 C 
BRANCH   8   9
ATOM      9  C   UNL A   1      32.691  19.460  24.030  1.00  0.00     0.001 C 
BRANCH   9  10
ATOM     10  C   UNL A   1      33.448  18.429  24.873  1.00  0.00     0.008 C 
BRANCH  10  11
ATOM     11  C   UNL A   1      33.973  17.208  24.121  1.00  0.00     0.075 C 
BRANCH  11  12
ATOM     12  C   UNL A   1      34.041  15.953  24.970  1.00  0.00     0.129 C 
ATOM     13  C   UNL A   1      32.750  15.294  25.376  1.00  0.00     0.087 C 
ATOM     14  O   UNL A   1      35.124  15.464  25.294  1.00  0.00    -0.300 OA
ENDBRANCH  11  12
ENDBRANCH  10  11
ENDBRANCH   9  10
ENDBRANCH   8   9
ENDBRANCH   7   8
ENDBRANCH   6   7
ENDBRANCH   1   5
BRANCH   3  15
ATOM     15  C   UNL A   1      36.913  20.094  24.946  1.00  0.00     0.118 C 
BRANCH  15  16
ATOM     16  C   UNL A   1      38.176  19.241  24.930  1.00  0.00     0.042 C 
BRANCH  16  17
ATOM     17  C   UNL A   1      39.338  19.843  25.717  1.00  0.00     0.118 C 
BRANCH  17  18
ATOM     18  N   UNL A   1      40.433  18.899  25.907  1.00  0.00    -0.352 N 
ATOM     19  C   UNL A   1      41.773  19.101  26.118  1.00  0.00     0.251 C 
ATOM     20  H   UNL A   1      40.163  17.953  25.881  1.00  0.00     0.163 HD
ATOM     21  O   UNL A   1      42.546  18.150  26.037  1.00  0.00    -0.269 OA
BRANCH  19  22
ATOM     22  C   UNL A   1      42.303  20.446  26.432  1.00  0.00     0.039 A 
ATOM     23  C   UNL A   1      42.794  21.239  25.389  1.00  0.00     0.014 A 
ATOM     24  C   UNL A   1      42.368  20.910  27.747  1.00  0.00     0.014 A 
ATOM     25  C   UNL A   1      43.284  22.519  25.660  1.00  0.00     0.010 A 
ATOM     26  C   UNL A   1      42.775  22.215  28.004  1.00  0.00     0.010 A 
ATOM     27  C   UNL A   1      43.243  23.032  26.965  1.00  0.00    -0.014 A 
BRANCH  27  28
ATOM     28  C   UNL A   1      43.686  24.417  27.269  1.00  0.00     0.031 A 
ATOM     29  C   UNL A   1      42.705  25.425  27.799  1.00  0.00     0.074 A 
ATOM     30  C   UNL A   1      44.953  24.785  26.993  1.00  0.00     0.049 A 
ATOM     31  N   UNL A   1      42.872  26.703  28.030  1.00  0.00    -0.248 NA
ATOM     32  C   UNL A   1      41.343  24.940  28.077  1.00  0.00     0.031 C 
ATOM     33  C   UNL A   1      45.984  23.912  26.432  1.00  0.00     0.029 A 
ATOM     34  N   UNL A   1      45.584  25.997  27.132  1.00  0.00    -0.354 N 
ATOM     35  C   UNL A   1      41.639  27.174  28.460  1.00  0.00     0.074 A 
ATOM     36  C   UNL A   1      40.718  26.060  28.405  1.00  0.00     0.031 C 
ATOM     37  C   UNL A   1      47.124  24.608  26.295  1.00  0.00     0.029 A 
ATOM     38  C   UNL A   1      46.892  25.986  26.715  1.00  0.00     0.049 A 
ATOM     39  H   UNL A   1      45.141  26.797  27.495  1.00  0.00     0.167 HD
ATOM     40  C   UNL A   1      41.310  28.418  28.884  1.00  0.00     0.037 A 
ATOM     41  C   UNL A   1      47.801  26.979  26.669  1.00  0.00     0.037 A 
ATOM     42  C   UNL A   1      42.237  29.516  28.964  1.00  0.00     0.049 A 
ATOM     43  C   UNL A   1      47.409  28.353  27.143  1.00  0.00     0.074 A 
ATOM     44  C   UNL A   1      42.019  30.798  29.436  1.00  0.00     0.029 A 
ATOM     45  N   UNL A   1      43.564  29.459  28.557  1.00  0.00    -0.354 N 
ATOM     46  N   UNL A   1      46.257  28.770  27.609  1.00  0.00    -0.248 NA
ATOM     47  C   UNL A   1      48.447  29.392  27.091  1.00  0.00     0.031 C 
ATOM     48  C   UNL A   1      43.200  31.531  29.272  1.00  0.00     0.029 A 
ATOM     49  C   UNL A   1      44.169  30.690  28.750  1.00  0.00     0.049 A 
ATOM     50  H   UNL A   1      44.008  28.662  28.189  1.00  0.00     0.167 HD
ATOM     51  C   UNL A   1      46.440  30.107  27.937  1.00  0.00     0.074 A 
ATOM     52  C   UNL A   1      47.818  30.427  27.627  1.00  0.00     0.031 C 
ATOM     53  C   UNL A   1      45.546  30.989  28.449  1.00  0.00     0.037 A 
BRANCH  40  54
ATOM     54  C   UNL A   1      39.887  28.659  29.300  1.00  0.00     0.064 A 
ATOM     55  C   UNL A   1      39.457  28.442  30.618  1.00  0.00     0.173 A 
ATOM     56  C   UNL A   1      38.948  29.150  28.379  1.00  0.00     0.173 A 
ATOM     57  F   UNL A   1      40.310  27.964  31.536  1.00  0.00    -0.203 F 
ATOM     58  C   UNL A   1      38.135  28.677  30.990  1.00  0.00     0.198 A 
ATOM     59  C   UNL A   1      37.636  29.415  28.763  1.00  0.00     0.198 A 
ATOM     60  F   UNL A   1      39.305  29.381  27.106  1.00  0.00    -0.203 F 
ATOM     61  F   UNL A   1      37.738  28.414  32.243  1.00  0.00    -0.200 F 
ATOM     62  C   UNL A   1      37.229  29.171  30.065  1.00  0.00     0.200 A 
ATOM     63  F   UNL A   1      36.764  29.906  27.871  1.00  0.00    -0.200 F 
ATOM     64  F   UNL A   1      35.960  29.405  30.427  1.00  0.00    -0.200 F 
ENDBRANCH  40  54
BRANCH  41  65
ATOM     65  C   UNL A   1      49.177  26.706  26.175  1.00  0.00     0.064 A 
ATOM     66  C   UNL A   1      49.525  26.962  24.842  1.00  0.00     0.173 A 
ATOM     67  C   UNL A   1      50.166  26.183  27.019  1.00  0.00     0.173 A 
ATOM     68  F   UNL A   1      48.608  27.443  23.991  1.00  0.00    -0.203 F 
ATOM     69  C   UNL A   1      50.804  26.681  24.365  1.00  0.00     0.198 A 
ATOM     70  C   UNL A   1      51.454  25.931  26.549  1.00  0.00     0.198 A 
ATOM     71  F   UNL A   1      49.887  25.927  28.306  1.00  0.00    -0.203 F 
ATOM     72  F   UNL A   1      51.096  26.888  23.074  1.00  0.00    -0.200 F 
ATOM     73  C   UNL A   1      51.770  26.172  25.221  1.00  0.00     0.200 A 
ATOM     74  F   UNL A   1      52.389  25.454  27.384  1.00  0.00    -0.200 F 
ATOM     75  F   UNL A   1      53.000  25.904  24.763  1.00  0.00    -0.200 F 
ENDBRANCH  41  65
BRANCH  53  76
ATOM     76  C   UNL A   1      46.041  32.374  28.750  1.00  0.00     0.064 A 
ATOM     77  C   UNL A   1      45.956  33.410  27.809  1.00  0.00     0.173 A 
ATOM     78  C   UNL A   1      46.567  32.676  30.016  1.00  0.00     0.173 A 
ATOM     79  F   UNL A   1      45.475  33.169  26.580  1.00  0.00    -0.203 F 
ATOM     80  C   UNL A   1      46.402  34.693  28.117  1.00  0.00     0.198 A 
ATOM     81  C   UNL A   1      46.982  33.967  30.330  1.00  0.00     0.198 A 
ATOM     82  F   UNL A   1      46.664  31.722  30.954  1.00  0.00    -0.203 F 
ATOM     83  F   UNL A   1      46.355  35.656  27.186  1.00  0.00    -0.200 F 
ATOM     84  C   UNL A   1      46.907  34.972  29.377  1.00  0.00     0.200 A 
ATOM     85  F   UNL A   1      47.455  34.238  31.554  1.00  0.00    -0.200 F 
ATOM     86  F   UNL A   1      47.326  36.210  29.674  1.00  0.00    -0.200 F 
ENDBRANCH  53  76
ENDBRANCH  27  28
ENDBRANCH  19  22
ENDBRANCH  17  18
ENDBRANCH  16  17
ENDBRANCH  15  16
ENDBRANCH   3  15
TORSDOF 16
ENDMDL
MODEL 2
REMARK VINA RESULT:     -10.5      5.067      9.048
REMARK SMILES CC(=O)CCCCC/C=C/C(=O)NCCCNC(=O)c1ccc(-c2c3nc(c(-c4c(F)c(F)c(F)c(F)c4F)c4ccc([nH]4)c(-c4c(F)c(F)c(F)c(F)c4F)c4nc(c(-c5c(F)c(F)c(F)c(F)c5F)c5ccc2[nH]5)C=C4)C=C3)cc1
REMARK SMILES IDX 11 1 12 2 13 3 10 5 9 6 8 7 7 8 6 9 5 10 4 11 2 12 1 13 3 14
REMARK SMILES IDX 14 15 15 16 16 17 17 18 18 19 19 21 20 22 21 23 82 24 22 25
REMARK SMILES IDX 81 26 23 27 24 28 25 29 75 30 26 31 80 32 74 33 76 34 27 35
REMARK SMILES IDX 79 36 73 37 72 38 28 40 60 41 40 42 59 43 41 44 44 45 58 46
REMARK SMILES IDX 77 47 42 48 43 49 57 51 78 52 45 53 29 54 30 55 38 56 31 57
REMARK SMILES IDX 32 58 36 59 39 60 33 61 34 62 37 63 35 64 61 65 62 66 70 67
REMARK SMILES IDX 63 68 64 69 68 70 71 71 65 72 66 73 69 74 67 75 46 76 47 77
REMARK SMILES IDX 55 78 48 79 49 80 53 81 56 82 50 83 51 84 54 85 52 86
REMARK H PARENT 13 4 17 20 76 39 44 50
REMARK Flexibility Score: inf
ROOT
ATOM      1  C   UNL A   1      31.491  25.555  25.946  1.00  0.00     0.243 C 
ATOM      2  O   UNL A   1      30.802  25.045  26.825  1.00  0.00    -0.270 OA
ATOM      3  N   UNL A   1      32.789  25.877  26.204  1.00  0.00    -0.352 N 
ATOM      4  H   UNL A   1      33.115  25.578  27.084  1.00  0.00     0.163 HD
ENDROOT
BRANCH   1   5
ATOM      5  C   UNL A   1      30.871  25.911  24.651  1.00  0.00     0.067 C 
ATOM      6  C   UNL A   1      30.421  27.133  24.326  1.00  0.00    -0.021 C 
BRANCH   6   7
ATOM      7  C   UNL A   1      29.762  27.447  23.016  1.00  0.00     0.027 C 
BRANCH   7   8
ATOM      8  C   UNL A   1      29.746  28.945  22.680  1.00  0.00     0.004 C 
BRANCH   8   9
ATOM      9  C   UNL A   1      30.085  29.892  23.839  1.00  0.00     0.001 C 
BRANCH   9  10
ATOM     10  C   UNL A   1      29.261  31.181  23.925  1.00  0.00     0.008 C 
BRANCH  10  11
ATOM     11  C   UNL A   1      28.071  31.276  22.972  1.00  0.00     0.075 C 
BRANCH  11  12
ATOM     12  C   UNL A   1      28.151  32.451  22.016  1.00  0.00     0.129 C 
ATOM     13  C   UNL A   1      27.999  32.186  20.542  1.00  0.00     0.087 C 
ATOM     14  O   UNL A   1      28.302  33.600  22.435  1.00  0.00    -0.300 OA
ENDBRANCH  11  12
ENDBRANCH  10  11
ENDBRANCH   9  10
ENDBRANCH   8   9
ENDBRANCH   7   8
ENDBRANCH   6   7
ENDBRANCH   1   5
BRANCH   3  15
ATOM     15  C   UNL A   1      33.775  26.581  25.404  1.00  0.00     0.118 C 
BRANCH  15  16
ATOM     16  C   UNL A   1      33.829  28.075  25.704  1.00  0.00     0.042 C 
BRANCH  16  17
ATOM     17  C   UNL A   1      33.667  28.413  27.183  1.00  0.00     0.118 C 
BRANCH  17  18
ATOM     18  N   UNL A   1      33.659  29.851  27.430  1.00  0.00    -0.352 N 
ATOM     19  C   UNL A   1      34.574  30.667  28.045  1.00  0.00     0.251 C 
ATOM     20  H   UNL A   1      32.857  30.316  27.097  1.00  0.00     0.163 HD
ATOM     21  O   UNL A   1      34.258  31.818  28.331  1.00  0.00    -0.269 OA
BRANCH  19  22
ATOM     22  C   UNL A   1      35.930  30.180  28.376  1.00  0.00     0.039 A 
ATOM     23  C   UNL A   1      36.937  30.275  27.408  1.00  0.00     0.014 A 
ATOM     24  C   UNL A   1      36.207  29.585  29.608  1.00  0.00     0.014 A 
ATOM     25  C   UNL A   1      38.230  29.836  27.703  1.00  0.00     0.010 A 
ATOM     26  C   UNL A   1      37.512  29.229  29.931  1.00  0.00     0.010 A 
ATOM     27  C   UNL A   1      38.537  29.345  28.980  1.00  0.00    -0.014 A 
BRANCH  27  28
ATOM     28  C   UNL A   1      39.919  28.944  29.346  1.00  0.00     0.031 A 
ATOM     29  C   UNL A   1      40.782  29.863  30.166  1.00  0.00     0.074 A 
ATOM     30  C   UNL A   1      40.423  27.787  28.872  1.00  0.00     0.049 A 
ATOM     31  N   UNL A   1      42.041  29.738  30.503  1.00  0.00    -0.248 NA
ATOM     32  C   UNL A   1      40.154  31.104  30.647  1.00  0.00     0.031 C 
ATOM     33  C   UNL A   1      39.702  26.834  28.028  1.00  0.00     0.029 A 
ATOM     34  N   UNL A   1      41.666  27.223  29.021  1.00  0.00    -0.354 N 
ATOM     35  C   UNL A   1      42.358  30.888  31.214  1.00  0.00     0.074 A 
ATOM     36  C   UNL A   1      41.177  31.724  31.214  1.00  0.00     0.031 C 
ATOM     37  C   UNL A   1      40.506  25.795  27.751  1.00  0.00     0.029 A 
ATOM     38  C   UNL A   1      41.811  26.029  28.360  1.00  0.00     0.049 A 
ATOM     39  H   UNL A   1      42.386  27.637  29.551  1.00  0.00     0.167 HD
ATOM     40  C   UNL A   1      43.522  31.207  31.830  1.00  0.00     0.037 A 
ATOM     41  C   UNL A   1      42.880  25.217  28.250  1.00  0.00     0.037 A 
ATOM     42  C   UNL A   1      44.683  30.358  31.851  1.00  0.00     0.049 A 
ATOM     43  C   UNL A   1      44.162  25.596  28.942  1.00  0.00     0.074 A 
ATOM     44  C   UNL A   1      45.890  30.562  32.498  1.00  0.00     0.029 A 
ATOM     45  N   UNL A   1      44.783  29.141  31.191  1.00  0.00    -0.354 N 
ATOM     46  N   UNL A   1      44.429  26.655  29.667  1.00  0.00    -0.248 NA
ATOM     47  C   UNL A   1      45.289  24.662  28.806  1.00  0.00     0.031 C 
ATOM     48  C   UNL A   1      46.736  29.491  32.190  1.00  0.00     0.029 A 
ATOM     49  C   UNL A   1      46.039  28.593  31.399  1.00  0.00     0.049 A 
ATOM     50  H   UNL A   1      44.068  28.728  30.656  1.00  0.00     0.167 HD
ATOM     51  C   UNL A   1      45.739  26.500  30.100  1.00  0.00     0.074 A 
ATOM     52  C   UNL A   1      46.208  25.238  29.567  1.00  0.00     0.031 C 
ATOM     53  C   UNL A   1      46.485  27.328  30.872  1.00  0.00     0.037 A 
BRANCH  40  54
ATOM     54  C   UNL A   1      43.595  32.529  32.539  1.00  0.00     0.064 A 
ATOM     55  C   UNL A   1      43.260  32.658  33.896  1.00  0.00     0.173 A 
ATOM     56  C   UNL A   1      44.042  33.676  31.864  1.00  0.00     0.173 A 
ATOM     57  F   UNL A   1      42.817  31.597  34.585  1.00  0.00    -0.203 F 
ATOM     58  C   UNL A   1      43.340  33.890  34.541  1.00  0.00     0.198 A 
ATOM     59  C   UNL A   1      44.153  34.899  32.521  1.00  0.00     0.198 A 
ATOM     60  F   UNL A   1      44.382  33.610  30.567  1.00  0.00    -0.203 F 
ATOM     61  F   UNL A   1      42.966  33.998  35.823  1.00  0.00    -0.200 F 
ATOM     62  C   UNL A   1      43.794  35.007  33.856  1.00  0.00     0.200 A 
ATOM     63  F   UNL A   1      44.605  35.974  31.861  1.00  0.00    -0.200 F 
ATOM     64  F   UNL A   1      43.879  36.189  34.481  1.00  0.00    -0.200 F 
ENDBRANCH  40  54
BRANCH  41  65
ATOM     65  C   UNL A   1      42.778  23.954  27.471  1.00  0.00     0.064 A 
ATOM     66  C   UNL A   1      42.385  22.759  28.090  1.00  0.00     0.173 A 
ATOM     67  C   UNL A   1      43.073  23.913  26.101  1.00  0.00     0.173 A 
ATOM     68  F   UNL A   1      42.111  22.744  29.402  1.00  0.00    -0.203 F 
ATOM     69  C   UNL A   1      42.314  21.567  27.373  1.00  0.00     0.198 A 
ATOM     70  C   UNL A   1      42.972  22.725  25.379  1.00  0.00     0.198 A 
ATOM     71  F   UNL A   1      43.447  25.029  25.459  1.00  0.00    -0.203 F 
ATOM     72  F   UNL A   1      41.983  20.429  28.000  1.00  0.00    -0.200 F 
ATOM     73  C   UNL A   1      42.602  21.551  26.016  1.00  0.00     0.200 A 
ATOM     74  F   UNL A   1      43.236  22.718  24.064  1.00  0.00    -0.200 F 
ATOM     75  F   UNL A   1      42.531  20.405  25.328  1.00  0.00    -0.200 F 
ENDBRANCH  41  65
BRANCH  53  76
ATOM     76  C   UNL A   1      47.873  26.877  31.224  1.00  0.00     0.064 A 
ATOM     77  C   UNL A   1      48.117  26.001  32.291  1.00  0.00     0.173 A 
ATOM     78  C   UNL A   1      48.968  27.294  30.452  1.00  0.00     0.173 A 
ATOM     79  F   UNL A   1      47.105  25.585  33.069  1.00  0.00    -0.203 F 
ATOM     80  C   UNL A   1      49.410  25.578  32.588  1.00  0.00     0.198 A 
ATOM     81  C   UNL A   1      50.255  26.843  30.731  1.00  0.00     0.198 A 
ATOM     82  F   UNL A   1      48.788  28.126  29.416  1.00  0.00    -0.203 F 
ATOM     83  F   UNL A   1      49.625  24.779  33.642  1.00  0.00    -0.200 F 
ATOM     84  C   UNL A   1      50.476  25.992  31.804  1.00  0.00     0.200 A 
ATOM     85  F   UNL A   1      51.282  27.233  29.963  1.00  0.00    -0.200 F 
ATOM     86  F   UNL A   1      51.718  25.576  32.085  1.00  0.00    -0.200 F 
ENDBRANCH  53  76
ENDBRANCH  27  28
ENDBRANCH  19  22
ENDBRANCH  17  18
ENDBRANCH  16  17
ENDBRANCH  15  16
ENDBRANCH   3  15
TORSDOF 16
ENDMDL
MODEL 3
REMARK VINA RESULT:     -10.4      4.137     10.757
REMARK SMILES CC(=O)CCCCC/C=C/C(=O)NCCCNC(=O)c1ccc(-c2c3nc(c(-c4c(F)c(F)c(F)c(F)c4F)c4ccc([nH]4)c(-c4c(F)c(F)c(F)c(F)c4F)c4nc(c(-c5c(F)c(F)c(F)c(F)c5F)c5ccc2[nH]5)C=C4)C=C3)cc1
REMARK SMILES IDX 11 1 12 2 13 3 10 5 9 6 8 7 7 8 6 9 5 10 4 11 2 12 1 13 3 14
REMARK SMILES IDX 14 15 15 16 16 17 17 18 18 19 19 21 20 22 21 23 82 24 22 25
REMARK SMILES IDX 81 26 23 27 24 28 25 29 75 30 26 31 80 32 74 33 76 34 27 35
REMARK SMILES IDX 79 36 73 37 72 38 28 40 60 41 40 42 59 43 41 44 44 45 58 46
REMARK SMILES IDX 77 47 42 48 43 49 57 51 78 52 45 53 29 54 30 55 38 56 31 57
REMARK SMILES IDX 32 58 36 59 39 60 33 61 34 62 37 63 35 64 61 65 62 66 70 67
REMARK SMILES IDX 63 68 64 69 68 70 71 71 65 72 66 73 69 74 67 75 46 76 47 77
REMARK SMILES IDX 55 78 48 79 49 80 53 81 56 82 50 83 51 84 54 85 52 86
REMARK H PARENT 13 4 17 20 76 39 44 50
REMARK Flexibility Score: inf
ROOT
ATOM      1  C   UNL A   1      44.861  23.348  27.072  1.00  0.00     0.243 C 
ATOM      2  O   UNL A   1      45.950  22.949  26.669  1.00  0.00    -0.270 OA
ATOM      3  N   UNL A   1      44.128  22.574  27.919  1.00  0.00    -0.352 N 
ATOM      4  H   UNL A   1      44.588  21.761  28.229  1.00  0.00     0.163 HD
ENDROOT
BRANCH   1   5
ATOM      5  C   UNL A   1      44.312  24.617  26.548  1.00  0.00     0.067 C 
ATOM      6  C   UNL A   1      45.039  25.586  25.967  1.00  0.00    -0.021 C 
BRANCH   6   7
ATOM      7  C   UNL A   1      44.452  26.878  25.482  1.00  0.00     0.027 C 
BRANCH   7   8
ATOM      8  C   UNL A   1      45.415  28.068  25.590  1.00  0.00     0.004 C 
BRANCH   8   9
ATOM      9  C   UNL A   1      45.225  28.971  26.817  1.00  0.00     0.001 C 
BRANCH   9  10
ATOM     10  C   UNL A   1      43.948  29.817  26.845  1.00  0.00     0.008 C 
BRANCH  10  11
ATOM     11  C   UNL A   1      44.077  31.198  27.485  1.00  0.00     0.075 C 
BRANCH  11  12
ATOM     12  C   UNL A   1      44.495  32.283  26.510  1.00  0.00     0.129 C 
ATOM     13  C   UNL A   1      44.127  33.708  26.826  1.00  0.00     0.087 C 
ATOM     14  O   UNL A   1      45.148  32.011  25.502  1.00  0.00    -0.300 OA
ENDBRANCH  11  12
ENDBRANCH  10  11
ENDBRANCH   9  10
ENDBRANCH   8   9
ENDBRANCH   7   8
ENDBRANCH   6   7
ENDBRANCH   1   5
BRANCH   3  15
ATOM     15  C   UNL A   1      42.785  22.743  28.447  1.00  0.00     0.118 C 
BRANCH  15  16
ATOM     16  C   UNL A   1      41.759  21.846  27.764  1.00  0.00     0.042 C 
BRANCH  16  17
ATOM     17  C   UNL A   1      41.596  22.120  26.271  1.00  0.00     0.118 C 
BRANCH  17  18
ATOM     18  N   UNL A   1      40.197  22.214  25.870  1.00  0.00    -0.352 N 
ATOM     19  C   UNL A   1      39.227  23.134  26.181  1.00  0.00     0.251 C 
ATOM     20  H   UNL A   1      39.897  21.493  25.271  1.00  0.00     0.163 HD
ATOM     21  O   UNL A   1      38.057  22.894  25.899  1.00  0.00    -0.269 OA
BRANCH  19  22
ATOM     22  C   UNL A   1      39.569  24.404  26.857  1.00  0.00     0.039 A 
ATOM     23  C   UNL A   1      39.152  24.600  28.179  1.00  0.00     0.014 A 
ATOM     24  C   UNL A   1      40.248  25.423  26.186  1.00  0.00     0.014 A 
ATOM     25  C   UNL A   1      39.476  25.785  28.843  1.00  0.00     0.010 A 
ATOM     26  C   UNL A   1      40.646  26.564  26.875  1.00  0.00     0.010 A 
ATOM     27  C   UNL A   1      40.259  26.761  28.209  1.00  0.00    -0.014 A 
BRANCH  27  28
ATOM     28  C   UNL A   1      40.684  27.996  28.916  1.00  0.00     0.031 A 
ATOM     29  C   UNL A   1      42.088  28.123  29.439  1.00  0.00     0.074 A 
ATOM     30  C   UNL A   1      39.782  28.968  29.156  1.00  0.00     0.049 A 
ATOM     31  N   UNL A   1      42.620  29.074  30.165  1.00  0.00    -0.248 NA
ATOM     32  C   UNL A   1      43.011  27.019  29.130  1.00  0.00     0.031 C 
ATOM     33  C   UNL A   1      38.378  28.940  28.742  1.00  0.00     0.029 A 
ATOM     34  N   UNL A   1      39.908  30.163  29.821  1.00  0.00    -0.354 N 
ATOM     35  C   UNL A   1      43.926  28.673  30.414  1.00  0.00     0.074 A 
ATOM     36  C   UNL A   1      44.091  27.369  29.810  1.00  0.00     0.031 C 
ATOM     37  C   UNL A   1      37.779  30.072  29.143  1.00  0.00     0.029 A 
ATOM     38  C   UNL A   1      38.742  30.885  29.878  1.00  0.00     0.049 A 
ATOM     39  H   UNL A   1      40.753  30.471  30.219  1.00  0.00     0.167 HD
ATOM     40  C   UNL A   1      44.905  29.343  31.069  1.00  0.00     0.037 A 
ATOM     41  C   UNL A   1      38.476  32.067  30.468  1.00  0.00     0.037 A 
ATOM     42  C   UNL A   1      44.743  30.652  31.643  1.00  0.00     0.049 A 
ATOM     43  C   UNL A   1      39.582  32.789  31.191  1.00  0.00     0.074 A 
ATOM     44  C   UNL A   1      45.689  31.442  32.273  1.00  0.00     0.029 A 
ATOM     45  N   UNL A   1      43.552  31.365  31.658  1.00  0.00    -0.354 N 
ATOM     46  N   UNL A   1      40.830  32.430  31.363  1.00  0.00    -0.248 NA
ATOM     47  C   UNL A   1      39.240  34.085  31.795  1.00  0.00     0.031 C 
ATOM     48  C   UNL A   1      45.059  32.612  32.711  1.00  0.00     0.029 A 
ATOM     49  C   UNL A   1      43.735  32.577  32.306  1.00  0.00     0.049 A 
ATOM     50  H   UNL A   1      42.703  31.057  31.266  1.00  0.00     0.167 HD
ATOM     51  C   UNL A   1      41.432  33.467  32.064  1.00  0.00     0.074 A 
ATOM     52  C   UNL A   1      40.413  34.475  32.274  1.00  0.00     0.031 C 
ATOM     53  C   UNL A   1      42.713  33.575  32.494  1.00  0.00     0.037 A 
BRANCH  40  54
ATOM     54  C   UNL A   1      46.243  28.673  31.195  1.00  0.00     0.064 A 
ATOM     55  C   UNL A   1      47.293  28.948  30.304  1.00  0.00     0.173 A 
ATOM     56  C   UNL A   1      46.494  27.772  32.242  1.00  0.00     0.173 A 
ATOM     57  F   UNL A   1      47.104  29.792  29.279  1.00  0.00    -0.203 F 
ATOM     58  C   UNL A   1      48.531  28.323  30.438  1.00  0.00     0.198 A 
ATOM     59  C   UNL A   1      47.743  27.175  32.392  1.00  0.00     0.198 A 
ATOM     60  F   UNL A   1      45.529  27.476  33.126  1.00  0.00    -0.203 F 
ATOM     61  F   UNL A   1      49.500  28.564  29.545  1.00  0.00    -0.200 F 
ATOM     62  C   UNL A   1      48.757  27.445  31.486  1.00  0.00     0.200 A 
ATOM     63  F   UNL A   1      47.965  26.336  33.414  1.00  0.00    -0.200 F 
ATOM     64  F   UNL A   1      49.951  26.852  31.619  1.00  0.00    -0.200 F 
ENDBRANCH  40  54
BRANCH  41  65
ATOM     65  C   UNL A   1      37.112  32.652  30.379  1.00  0.00     0.064 A 
ATOM     66  C   UNL A   1      36.735  33.430  29.275  1.00  0.00     0.173 A 
ATOM     67  C   UNL A   1      36.163  32.452  31.390  1.00  0.00     0.173 A 
ATOM     68  F   UNL A   1      37.615  33.667  28.292  1.00  0.00    -0.203 F 
ATOM     69  C   UNL A   1      35.469  34.006  29.199  1.00  0.00     0.198 A 
ATOM     70  C   UNL A   1      34.885  33.003  31.298  1.00  0.00     0.198 A 
ATOM     71  F   UNL A   1      36.469  31.710  32.465  1.00  0.00    -0.203 F 
ATOM     72  F   UNL A   1      35.152  34.786  28.157  1.00  0.00    -0.200 F 
ATOM     73  C   UNL A   1      34.542  33.786  30.207  1.00  0.00     0.200 A 
ATOM     74  F   UNL A   1      33.988  32.775  32.268  1.00  0.00    -0.200 F 
ATOM     75  F   UNL A   1      33.324  34.338  30.132  1.00  0.00    -0.200 F 
ENDBRANCH  41  65
BRANCH  53  76
ATOM     76  C   UNL A   1      43.100  34.845  33.195  1.00  0.00     0.064 A 
ATOM     77  C   UNL A   1      43.052  34.962  34.591  1.00  0.00     0.173 A 
ATOM     78  C   UNL A   1      43.567  35.944  32.458  1.00  0.00     0.173 A 
ATOM     79  F   UNL A   1      42.599  33.944  35.340  1.00  0.00    -0.203 F 
ATOM     80  C   UNL A   1      43.436  36.143  35.223  1.00  0.00     0.198 A 
ATOM     81  C   UNL A   1      43.979  37.111  33.095  1.00  0.00     0.198 A 
ATOM     82  F   UNL A   1      43.638  35.881  31.120  1.00  0.00    -0.203 F 
ATOM     83  F   UNL A   1      43.336  36.249  36.555  1.00  0.00    -0.200 F 
ATOM     84  C   UNL A   1      43.906  37.212  34.476  1.00  0.00     0.200 A 
ATOM     85  F   UNL A   1      44.448  38.138  32.372  1.00  0.00    -0.200 F 
ATOM     86  F   UNL A   1      44.283  38.343  35.087  1.00  0.00    -0.200 F 
ENDBRANCH  53  76
ENDBRANCH  27  28
ENDBRANCH  19  22
ENDBRANCH  17  18
ENDBRANCH  16  17
ENDBRANCH  15  16
ENDBRANCH   3  15
TORSDOF 16
ENDMDL
