MODEL 1
REMARK VINA RESULT:     -14.0      0.000      0.000
REMARK SMILES CC(=O)Oc1ccc2oc(N)c([C@@H]3[NH2+][C@@H](C(=O)NCCCNC(=O)c4ccc(-c5c6nc(c(-c7c(F)c(F)c(F)c(F)c7F)c7ccc([nH]7)c(-c7c(F)c(F)c(F)c(F)c7F)c7nc(c(-c8c(F)c(F)c(F)c(F)c8F)c8ccc5[nH]8)C=C7)C=C6)cc4)C(C)(C)S3)c(=O)c2c1
REMARK SMILES IDX 19 1 18 2 16 3 17 4 15 6 13 7 14 8 91 9 88 12 89 13 90 14
REMARK SMILES IDX 12 15 5 16 6 17 95 18 7 19 94 20 8 21 92 22 9 23 93 24 10 25
REMARK SMILES IDX 4 26 2 27 1 28 3 29 11 30 20 33 21 34 22 35 23 36 24 38
REMARK SMILES IDX 25 39 26 40 87 41 27 42 86 43 28 44 29 45 30 46 80 47 31 48
REMARK SMILES IDX 85 49 79 50 81 51 32 52 84 53 78 54 77 55 33 57 65 58 45 59
REMARK SMILES IDX 64 60 46 61 49 62 63 63 82 64 47 65 48 66 62 68 83 69 50 70
REMARK SMILES IDX 34 71 35 72 43 73 36 74 37 75 41 76 44 77 38 78 39 79 42 80
REMARK SMILES IDX 40 81 66 82 67 83 75 84 68 85 69 86 73 87 76 88 70 89 71 90
REMARK SMILES IDX 74 91 72 92 51 93 52 94 60 95 53 96 54 97 58 98 61 99 55 100
REMARK SMILES IDX 56 101 59 102 57 103
REMARK H PARENT 18 5 14 10 14 11 11 31 11 32 22 37 81 56 49 67
REMARK Flexibility Score: inf
ROOT
ATOM      1  C   UNL A   1      35.351  23.111  23.488  1.00  0.00     0.118 C 
ENDROOT
BRANCH   1   2
ATOM      2  N   UNL A   1      34.206  22.215  23.543  1.00  0.00    -0.351 N 
ATOM      3  C   UNL A   1      32.950  22.292  24.053  1.00  0.00     0.279 C 
ATOM      4  O   UNL A   1      32.320  21.226  24.070  1.00  0.00    -0.268 OA
ATOM      5  H   UNL A   1      34.384  21.349  23.109  1.00  0.00     0.163 HD
BRANCH   3   6
ATOM      6  C   UNL A   1      32.305  23.566  24.619  1.00  0.00     0.289 C 
ATOM      7  C   UNL A   1      32.201  25.963  24.560  1.00  0.00     0.284 C 
ATOM      8  N   UNL A   1      32.619  24.769  23.819  1.00  0.00    -0.320 N 
ATOM      9  S   UNL A   1      32.094  25.562  26.340  1.00  0.00    -0.081 SA
ATOM     10  H   UNL A   1      33.622  24.810  23.644  1.00  0.00     0.348 HD
ATOM     11  H   UNL A   1      32.122  24.728  22.929  1.00  0.00     0.348 HD
ATOM     12  C   UNL A   1      32.482  23.786  26.136  1.00  0.00     0.077 C 
ATOM     13  C   UNL A   1      33.872  23.574  26.717  1.00  0.00     0.030 C 
ATOM     14  C   UNL A   1      31.494  22.941  26.952  1.00  0.00     0.030 C 
BRANCH   7  15
ATOM     15  C   UNL A   1      30.928  26.580  24.036  1.00  0.00     0.128 A 
ATOM     16  C   UNL A   1      28.915  30.452  21.794  1.00  0.00     0.131 A 
ATOM     17  C   UNL A   1      27.661  30.007  22.219  1.00  0.00     0.051 A 
ATOM     18  C   UNL A   1      30.064  29.684  21.990  1.00  0.00     0.063 A 
ATOM     19  C   UNL A   1      27.559  28.799  22.898  1.00  0.00     0.052 A 
ATOM     20  C   UNL A   1      29.948  28.479  22.688  1.00  0.00     0.069 A 
ATOM     21  C   UNL A   1      28.708  28.051  23.140  1.00  0.00     0.140 A 
ATOM     22  C   UNL A   1      31.119  27.646  23.006  1.00  0.00     0.205 A 
ATOM     23  O   UNL A   1      28.546  26.897  23.843  1.00  0.00    -0.440 OA
ATOM     24  O   UNL A   1      32.205  27.877  22.485  1.00  0.00    -0.288 OA
ATOM     25  C   UNL A   1      29.658  26.314  24.415  1.00  0.00     0.205 A 
BRANCH  16  26
ATOM     26  O   UNL A   1      29.032  31.660  21.098  1.00  0.00    -0.427 OA
BRANCH  26  27
ATOM     27  C   UNL A   1      28.384  32.735  21.702  1.00  0.00     0.308 C 
ATOM     28  C   UNL A   1      28.900  32.890  23.100  1.00  0.00     0.139 C 
ATOM     29  O   UNL A   1      27.537  33.460  21.198  1.00  0.00    -0.252 OA
ENDBRANCH  26  27
ENDBRANCH  16  26
BRANCH  25  30
ATOM     30  N   UNL A   1      29.300  25.468  25.422  1.00  0.00    -0.369 N 
ATOM     31  H   UNL A   1      28.434  25.581  25.876  1.00  0.00     0.159 HD
ATOM     32  H   UNL A   1      29.909  24.744  25.697  1.00  0.00     0.159 HD
ENDBRANCH  25  30
ENDBRANCH   7  15
ENDBRANCH   3   6
ENDBRANCH   1   2
BRANCH   1  33
ATOM     33  C   UNL A   1      36.656  22.394  23.818  1.00  0.00     0.042 C 
BRANCH  33  34
ATOM     34  C   UNL A   1      36.936  22.286  25.305  1.00  0.00     0.118 C 
BRANCH  34  35
ATOM     35  N   UNL A   1      37.868  21.214  25.607  1.00  0.00    -0.352 N 
ATOM     36  C   UNL A   1      39.158  21.290  26.081  1.00  0.00     0.251 C 
ATOM     37  H   UNL A   1      37.528  20.303  25.450  1.00  0.00     0.163 HD
ATOM     38  O   UNL A   1      39.886  20.305  26.038  1.00  0.00    -0.269 OA
BRANCH  36  39
ATOM     39  C   UNL A   1      39.676  22.573  26.608  1.00  0.00     0.039 A 
ATOM     40  C   UNL A   1      39.191  23.789  26.127  1.00  0.00     0.014 A 
ATOM     41  C   UNL A   1      40.665  22.562  27.595  1.00  0.00     0.014 A 
ATOM     42  C   UNL A   1      39.832  24.973  26.466  1.00  0.00     0.010 A 
ATOM     43  C   UNL A   1      41.220  23.769  28.036  1.00  0.00     0.010 A 
ATOM     44  C   UNL A   1      40.845  24.983  27.439  1.00  0.00    -0.014 A 
BRANCH  44  45
ATOM     45  C   UNL A   1      41.475  26.274  27.826  1.00  0.00     0.031 A 
ATOM     46  C   UNL A   1      42.901  26.582  27.454  1.00  0.00     0.074 A 
ATOM     47  C   UNL A   1      40.737  27.196  28.478  1.00  0.00     0.049 A 
ATOM     48  N   UNL A   1      43.614  27.647  27.731  1.00  0.00    -0.248 NA
ATOM     49  C   UNL A   1      43.625  25.566  26.677  1.00  0.00     0.031 C 
ATOM     50  C   UNL A   1      39.338  27.024  28.877  1.00  0.00     0.029 A 
ATOM     51  N   UNL A   1      41.045  28.466  28.897  1.00  0.00    -0.354 N 
ATOM     52  C   UNL A   1      44.869  27.419  27.181  1.00  0.00     0.074 A 
ATOM     53  C   UNL A   1      44.835  26.101  26.584  1.00  0.00     0.031 C 
ATOM     54  C   UNL A   1      38.891  28.164  29.422  1.00  0.00     0.029 A 
ATOM     55  C   UNL A   1      39.992  29.117  29.493  1.00  0.00     0.049 A 
ATOM     56  H   UNL A   1      41.935  28.871  28.781  1.00  0.00     0.167 HD
ATOM     57  C   UNL A   1      45.945  28.242  27.163  1.00  0.00     0.037 A 
ATOM     58  C   UNL A   1      39.923  30.337  30.058  1.00  0.00     0.037 A 
ATOM     59  C   UNL A   1      45.967  29.563  27.738  1.00  0.00     0.049 A 
ATOM     60  C   UNL A   1      41.151  31.200  30.083  1.00  0.00     0.074 A 
ATOM     61  C   UNL A   1      47.006  30.476  27.758  1.00  0.00     0.029 A 
ATOM     62  N   UNL A   1      44.899  30.160  28.391  1.00  0.00    -0.354 N 
ATOM     63  N   UNL A   1      42.332  30.970  29.562  1.00  0.00    -0.248 NA
ATOM     64  C   UNL A   1      41.042  32.485  30.784  1.00  0.00     0.031 C 
ATOM     65  C   UNL A   1      46.585  31.604  28.468  1.00  0.00     0.029 A 
ATOM     66  C   UNL A   1      45.263  31.420  28.840  1.00  0.00     0.049 A 
ATOM     67  H   UNL A   1      44.012  29.749  28.519  1.00  0.00     0.167 HD
ATOM     68  C   UNL A   1      43.101  32.086  29.857  1.00  0.00     0.074 A 
ATOM     69  C   UNL A   1      42.246  33.003  30.583  1.00  0.00     0.031 C 
ATOM     70  C   UNL A   1      44.401  32.324  29.558  1.00  0.00     0.037 A 
BRANCH  57  71
ATOM     71  C   UNL A   1      47.201  27.746  26.501  1.00  0.00     0.064 A 
ATOM     72  C   UNL A   1      48.202  27.082  27.225  1.00  0.00     0.173 A 
ATOM     73  C   UNL A   1      47.371  27.871  25.113  1.00  0.00     0.173 A 
ATOM     74  F   UNL A   1      48.095  26.945  28.556  1.00  0.00    -0.203 F 
ATOM     75  C   UNL A   1      49.332  26.574  26.588  1.00  0.00     0.198 A 
ATOM     76  C   UNL A   1      48.487  27.336  24.475  1.00  0.00     0.198 A 
ATOM     77  F   UNL A   1      46.441  28.491  24.371  1.00  0.00    -0.203 F 
ATOM     78  F   UNL A   1      50.291  25.974  27.306  1.00  0.00    -0.200 F 
ATOM     79  C   UNL A   1      49.468  26.692  25.213  1.00  0.00     0.200 A 
ATOM     80  F   UNL A   1      48.609  27.435  23.144  1.00  0.00    -0.200 F 
ATOM     81  F   UNL A   1      50.547  26.186  24.599  1.00  0.00    -0.200 F 
ENDBRANCH  57  71
BRANCH  58  82
ATOM     82  C   UNL A   1      38.640  30.802  30.646  1.00  0.00     0.064 A 
ATOM     83  C   UNL A   1      38.409  30.718  32.025  1.00  0.00     0.173 A 
ATOM     84  C   UNL A   1      37.632  31.368  29.850  1.00  0.00     0.173 A 
ATOM     85  F   UNL A   1      39.333  30.166  32.826  1.00  0.00    -0.203 F 
ATOM     86  C   UNL A   1      37.219  31.178  32.585  1.00  0.00     0.198 A 
ATOM     87  C   UNL A   1      36.457  31.859  30.415  1.00  0.00     0.198 A 
ATOM     88  F   UNL A   1      37.803  31.475  28.524  1.00  0.00    -0.203 F 
ATOM     89  F   UNL A   1      37.011  31.056  33.903  1.00  0.00    -0.200 F 
ATOM     90  C   UNL A   1      36.249  31.758  31.781  1.00  0.00     0.200 A 
ATOM     91  F   UNL A   1      35.532  32.436  29.636  1.00  0.00    -0.200 F 
ATOM     92  F   UNL A   1      35.113  32.217  32.324  1.00  0.00    -0.200 F 
ENDBRANCH  58  82
BRANCH  70  93
ATOM     93  C   UNL A   1      44.984  33.637  29.996  1.00  0.00     0.064 A 
ATOM     94  C   UNL A   1      45.645  33.771  31.226  1.00  0.00     0.173 A 
ATOM     95  C   UNL A   1      44.939  34.754  29.149  1.00  0.00     0.173 A 
ATOM     96  F   UNL A   1      45.702  32.736  32.078  1.00  0.00    -0.203 F 
ATOM     97  C   UNL A   1      46.227  34.979  31.597  1.00  0.00     0.198 A 
ATOM     98  C   UNL A   1      45.550  35.951  29.509  1.00  0.00     0.198 A 
ATOM     99  F   UNL A   1      44.324  34.676  27.959  1.00  0.00    -0.203 F 
ATOM    100  F   UNL A   1      46.821  35.095  32.792  1.00  0.00    -0.200 F 
ATOM    101  C   UNL A   1      46.190  36.065  30.734  1.00  0.00     0.200 A 
ATOM    102  F   UNL A   1      45.527  36.993  28.666  1.00  0.00    -0.200 F 
ATOM    103  F   UNL A   1      46.767  37.221  31.085  1.00  0.00    -0.200 F 
ENDBRANCH  70  93
ENDBRANCH  44  45
ENDBRANCH  36  39
ENDBRANCH  34  35
ENDBRANCH  33  34
ENDBRANCH   1  33
TORSDOF 14
ENDMDL
MODEL 2
REMARK VINA RESULT:     -14.0      4.269     10.156
REMARK SMILES CC(=O)Oc1ccc2oc(N)c([C@@H]3[NH2+][C@@H](C(=O)NCCCNC(=O)c4ccc(-c5c6nc(c(-c7c(F)c(F)c(F)c(F)c7F)c7ccc([nH]7)c(-c7c(F)c(F)c(F)c(F)c7F)c7nc(c(-c8c(F)c(F)c(F)c(F)c8F)c8ccc5[nH]8)C=C7)C=C6)cc4)C(C)(C)S3)c(=O)c2c1
REMARK SMILES IDX 19 1 18 2 16 3 17 4 15 6 13 7 14 8 91 9 88 12 89 13 90 14
REMARK SMILES IDX 12 15 5 16 6 17 95 18 7 19 94 20 8 21 92 22 9 23 93 24 10 25
REMARK SMILES IDX 4 26 2 27 1 28 3 29 11 30 20 33 21 34 22 35 23 36 24 38
REMARK SMILES IDX 25 39 26 40 87 41 27 42 86 43 28 44 29 45 30 46 80 47 31 48
REMARK SMILES IDX 85 49 79 50 81 51 32 52 84 53 78 54 77 55 33 57 65 58 45 59
REMARK SMILES IDX 64 60 46 61 49 62 63 63 82 64 47 65 48 66 62 68 83 69 50 70
REMARK SMILES IDX 34 71 35 72 43 73 36 74 37 75 41 76 44 77 38 78 39 79 42 80
REMARK SMILES IDX 40 81 66 82 67 83 75 84 68 85 69 86 73 87 76 88 70 89 71 90
REMARK SMILES IDX 74 91 72 92 51 93 52 94 60 95 53 96 54 97 58 98 61 99 55 100
REMARK SMILES IDX 56 101 59 102 57 103
REMARK H PARENT 18 5 14 10 14 11 11 31 11 32 22 37 81 56 49 67
REMARK Flexibility Score: inf
ROOT
ATOM      1  C   UNL A   1      31.431  27.357  26.509  1.00  0.00     0.118 C 
ENDROOT
BRANCH   1   2
ATOM      2  N   UNL A   1      30.727  27.381  25.236  1.00  0.00    -0.351 N 
ATOM      3  C   UNL A   1      30.893  26.769  24.035  1.00  0.00     0.279 C 
ATOM      4  O   UNL A   1      30.184  27.204  23.118  1.00  0.00    -0.268 OA
ATOM      5  H   UNL A   1      29.947  27.982  25.248  1.00  0.00     0.163 HD
BRANCH   3   6
ATOM      6  C   UNL A   1      31.895  25.639  23.753  1.00  0.00     0.289 C 
ATOM      7  C   UNL A   1      33.155  23.801  24.643  1.00  0.00     0.284 C 
ATOM      8  N   UNL A   1      32.003  24.680  24.872  1.00  0.00    -0.320 N 
ATOM      9  S   UNL A   1      34.321  24.620  23.499  1.00  0.00    -0.081 SA
ATOM     10  H   UNL A   1      32.131  25.188  25.746  1.00  0.00     0.348 HD
ATOM     11  H   UNL A   1      31.152  24.121  24.928  1.00  0.00     0.348 HD
ATOM     12  C   UNL A   1      33.266  26.085  23.204  1.00  0.00     0.077 C 
ATOM     13  C   UNL A   1      33.948  27.259  23.890  1.00  0.00     0.030 C 
ATOM     14  C   UNL A   1      33.205  26.386  21.699  1.00  0.00     0.030 C 
BRANCH   7  15
ATOM     15  C   UNL A   1      32.771  22.418  24.176  1.00  0.00     0.128 A 
ATOM     16  C   UNL A   1      32.872  17.618  25.184  1.00  0.00     0.131 A 
ATOM     17  C   UNL A   1      32.554  17.362  23.847  1.00  0.00     0.051 A 
ATOM     18  C   UNL A   1      32.885  18.918  25.692  1.00  0.00     0.063 A 
ATOM     19  C   UNL A   1      32.296  18.426  22.991  1.00  0.00     0.052 A 
ATOM     20  C   UNL A   1      32.638  19.978  24.816  1.00  0.00     0.069 A 
ATOM     21  C   UNL A   1      32.356  19.728  23.480  1.00  0.00     0.140 A 
ATOM     22  C   UNL A   1      32.709  21.382  25.251  1.00  0.00     0.205 A 
ATOM     23  O   UNL A   1      32.130  20.727  22.582  1.00  0.00    -0.440 OA
ATOM     24  O   UNL A   1      32.777  21.659  26.443  1.00  0.00    -0.288 OA
ATOM     25  C   UNL A   1      32.523  22.007  22.912  1.00  0.00     0.205 A 
BRANCH  16  26
ATOM     26  O   UNL A   1      33.122  16.557  26.060  1.00  0.00    -0.427 OA
BRANCH  26  27
ATOM     27  C   UNL A   1      33.762  15.467  25.475  1.00  0.00     0.308 C 
ATOM     28  C   UNL A   1      35.156  15.868  25.100  1.00  0.00     0.139 C 
ATOM     29  O   UNL A   1      33.297  14.351  25.292  1.00  0.00    -0.252 OA
ENDBRANCH  26  27
ENDBRANCH  16  26
BRANCH  25  30
ATOM     30  N   UNL A   1      32.654  22.779  21.796  1.00  0.00    -0.369 N 
ATOM     31  H   UNL A   1      31.882  23.288  21.457  1.00  0.00     0.159 HD
ATOM     32  H   UNL A   1      33.519  22.825  21.327  1.00  0.00     0.159 HD
ENDBRANCH  25  30
ENDBRANCH   7  15
ENDBRANCH   3   6
ENDBRANCH   1   2
BRANCH   1  33
ATOM     33  C   UNL A   1      31.673  28.760  27.056  1.00  0.00     0.042 C 
BRANCH  33  34
ATOM     34  C   UNL A   1      32.666  29.572  26.245  1.00  0.00     0.118 C 
BRANCH  34  35
ATOM     35  N   UNL A   1      32.488  31.000  26.436  1.00  0.00    -0.352 N 
ATOM     36  C   UNL A   1      33.211  31.870  27.221  1.00  0.00     0.251 C 
ATOM     37  H   UNL A   1      31.743  31.403  25.934  1.00  0.00     0.163 HD
ATOM     38  O   UNL A   1      32.770  32.987  27.464  1.00  0.00    -0.269 OA
BRANCH  36  39
ATOM     39  C   UNL A   1      34.504  31.440  27.800  1.00  0.00     0.039 A 
ATOM     40  C   UNL A   1      34.708  30.114  28.183  1.00  0.00     0.014 A 
ATOM     41  C   UNL A   1      35.526  32.376  27.969  1.00  0.00     0.014 A 
ATOM     42  C   UNL A   1      35.834  29.773  28.920  1.00  0.00     0.010 A 
ATOM     43  C   UNL A   1      36.719  31.997  28.595  1.00  0.00     0.010 A 
ATOM     44  C   UNL A   1      36.865  30.704  29.122  1.00  0.00    -0.014 A 
BRANCH  44  45
ATOM     45  C   UNL A   1      38.087  30.293  29.865  1.00  0.00     0.031 A 
ATOM     46  C   UNL A   1      38.327  30.758  31.276  1.00  0.00     0.074 A 
ATOM     47  C   UNL A   1      38.963  29.454  29.276  1.00  0.00     0.049 A 
ATOM     48  N   UNL A   1      39.348  30.516  32.062  1.00  0.00    -0.248 NA
ATOM     49  C   UNL A   1      37.295  31.609  31.887  1.00  0.00     0.031 C 
ATOM     50  C   UNL A   1      38.831  28.917  27.919  1.00  0.00     0.029 A 
ATOM     51  N   UNL A   1      40.120  28.884  29.744  1.00  0.00    -0.354 N 
ATOM     52  C   UNL A   1      39.091  31.197  33.245  1.00  0.00     0.074 A 
ATOM     53  C   UNL A   1      37.834  31.892  33.065  1.00  0.00     0.031 C 
ATOM     54  C   UNL A   1      39.827  28.051  27.689  1.00  0.00     0.029 A 
ATOM     55  C   UNL A   1      40.716  28.035  28.844  1.00  0.00     0.049 A 
ATOM     56  H   UNL A   1      40.487  29.066  30.640  1.00  0.00     0.167 HD
ATOM     57  C   UNL A   1      39.827  31.225  34.381  1.00  0.00     0.037 A 
ATOM     58  C   UNL A   1      41.864  27.337  28.925  1.00  0.00     0.037 A 
ATOM     59  C   UNL A   1      41.066  30.512  34.564  1.00  0.00     0.049 A 
ATOM     60  C   UNL A   1      42.695  27.441  30.172  1.00  0.00     0.074 A 
ATOM     61  C   UNL A   1      41.877  30.468  35.683  1.00  0.00     0.029 A 
ATOM     62  N   UNL A   1      41.669  29.714  33.602  1.00  0.00    -0.354 N 
ATOM     63  N   UNL A   1      42.440  28.092  31.281  1.00  0.00    -0.248 NA
ATOM     64  C   UNL A   1      43.977  26.726  30.174  1.00  0.00     0.031 C 
ATOM     65  C   UNL A   1      42.997  29.688  35.383  1.00  0.00     0.029 A 
ATOM     66  C   UNL A   1      42.857  29.195  34.096  1.00  0.00     0.049 A 
ATOM     67  H   UNL A   1      41.308  29.543  32.702  1.00  0.00     0.167 HD
ATOM     68  C   UNL A   1      43.519  27.853  32.118  1.00  0.00     0.074 A 
ATOM     69  C   UNL A   1      44.421  26.978  31.398  1.00  0.00     0.031 C 
ATOM     70  C   UNL A   1      43.743  28.322  33.369  1.00  0.00     0.037 A 
BRANCH  57  71
ATOM     71  C   UNL A   1      39.323  32.055  35.529  1.00  0.00     0.064 A 
ATOM     72  C   UNL A   1      38.467  31.522  36.503  1.00  0.00     0.173 A 
ATOM     73  C   UNL A   1      39.762  33.378  35.697  1.00  0.00     0.173 A 
ATOM     74  F   UNL A   1      38.008  30.266  36.385  1.00  0.00    -0.203 F 
ATOM     75  C   UNL A   1      38.057  32.285  37.594  1.00  0.00     0.198 A 
ATOM     76  C   UNL A   1      39.375  34.129  36.805  1.00  0.00     0.198 A 
ATOM     77  F   UNL A   1      40.588  33.936  34.799  1.00  0.00    -0.203 F 
ATOM     78  F   UNL A   1      37.210  31.765  38.494  1.00  0.00    -0.200 F 
ATOM     79  C   UNL A   1      38.520  33.583  37.750  1.00  0.00     0.200 A 
ATOM     80  F   UNL A   1      39.837  35.377  36.963  1.00  0.00    -0.200 F 
ATOM     81  F   UNL A   1      38.140  34.310  38.810  1.00  0.00    -0.200 F 
ENDBRANCH  57  71
BRANCH  58  82
ATOM     82  C   UNL A   1      42.288  26.484  27.784  1.00  0.00     0.064 A 
ATOM     83  C   UNL A   1      43.182  26.966  26.819  1.00  0.00     0.173 A 
ATOM     84  C   UNL A   1      41.835  25.162  27.651  1.00  0.00     0.173 A 
ATOM     85  F   UNL A   1      43.627  28.230  26.892  1.00  0.00    -0.203 F 
ATOM     86  C   UNL A   1      43.604  26.161  25.763  1.00  0.00     0.198 A 
ATOM     87  C   UNL A   1      42.283  24.348  26.613  1.00  0.00     0.198 A 
ATOM     88  F   UNL A   1      40.981  24.650  28.548  1.00  0.00    -0.203 F 
ATOM     89  F   UNL A   1      44.434  26.658  24.837  1.00  0.00    -0.200 F 
ATOM     90  C   UNL A   1      43.163  24.850  25.667  1.00  0.00     0.200 A 
ATOM     91  F   UNL A   1      41.871  23.075  26.537  1.00  0.00    -0.200 F 
ATOM     92  F   UNL A   1      43.584  24.072  24.661  1.00  0.00    -0.200 F 
ENDBRANCH  58  82
BRANCH  70  93
ATOM     93  C   UNL A   1      45.005  27.888  34.057  1.00  0.00     0.064 A 
ATOM     94  C   UNL A   1      46.185  28.642  33.966  1.00  0.00     0.173 A 
ATOM     95  C   UNL A   1      45.017  26.744  34.869  1.00  0.00     0.173 A 
ATOM     96  F   UNL A   1      46.229  29.735  33.191  1.00  0.00    -0.203 F 
ATOM     97  C   UNL A   1      47.334  28.256  34.652  1.00  0.00     0.198 A 
ATOM     98  C   UNL A   1      46.158  26.379  35.578  1.00  0.00     0.198 A 
ATOM     99  F   UNL A   1      43.913  25.993  34.994  1.00  0.00    -0.203 F 
ATOM    100  F   UNL A   1      48.460  28.970  34.521  1.00  0.00    -0.200 F 
ATOM    101  C   UNL A   1      47.316  27.134  35.466  1.00  0.00     0.200 A 
ATOM    102  F   UNL A   1      46.133  25.304  36.377  1.00  0.00    -0.200 F 
ATOM    103  F   UNL A   1      48.418  26.775  36.139  1.00  0.00    -0.200 F 
ENDBRANCH  70  93
ENDBRANCH  44  45
ENDBRANCH  36  39
ENDBRANCH  34  35
ENDBRANCH  33  34
ENDBRANCH   1  33
TORSDOF 14
ENDMDL
MODEL 3
REMARK VINA RESULT:     -14.0      4.340      8.159
REMARK SMILES CC(=O)Oc1ccc2oc(N)c([C@@H]3[NH2+][C@@H](C(=O)NCCCNC(=O)c4ccc(-c5c6nc(c(-c7c(F)c(F)c(F)c(F)c7F)c7ccc([nH]7)c(-c7c(F)c(F)c(F)c(F)c7F)c7nc(c(-c8c(F)c(F)c(F)c(F)c8F)c8ccc5[nH]8)C=C7)C=C6)cc4)C(C)(C)S3)c(=O)c2c1
REMARK SMILES IDX 19 1 18 2 16 3 17 4 15 6 13 7 14 8 91 9 88 12 89 13 90 14
REMARK SMILES IDX 12 15 5 16 6 17 95 18 7 19 94 20 8 21 92 22 9 23 93 24 10 25
REMARK SMILES IDX 4 26 2 27 1 28 3 29 11 30 20 33 21 34 22 35 23 36 24 38
REMARK SMILES IDX 25 39 26 40 87 41 27 42 86 43 28 44 29 45 30 46 80 47 31 48
REMARK SMILES IDX 85 49 79 50 81 51 32 52 84 53 78 54 77 55 33 57 65 58 45 59
REMARK SMILES IDX 64 60 46 61 49 62 63 63 82 64 47 65 48 66 62 68 83 69 50 70
REMARK SMILES IDX 34 71 35 72 43 73 36 74 37 75 41 76 44 77 38 78 39 79 42 80
REMARK SMILES IDX 40 81 66 82 67 83 75 84 68 85 69 86 73 87 76 88 70 89 71 90
REMARK SMILES IDX 74 91 72 92 51 93 52 94 60 95 53 96 54 97 58 98 61 99 55 100
REMARK SMILES IDX 56 101 59 102 57 103
REMARK H PARENT 18 5 14 10 14 11 11 31 11 32 22 37 81 56 49 67
REMARK Flexibility Score: inf
ROOT
ATOM      1  C   UNL A   1      31.439  27.166  26.565  1.00  0.00     0.118 C 
ENDROOT
BRANCH   1   2
ATOM      2  N   UNL A   1      30.646  27.202  25.346  1.00  0.00    -0.351 N 
ATOM      3  C   UNL A   1      30.739  26.622  24.122  1.00  0.00     0.279 C 
ATOM      4  O   UNL A   1      29.957  27.060  23.268  1.00  0.00    -0.268 OA
ATOM      5  H   UNL A   1      29.856  27.784  25.428  1.00  0.00     0.163 HD
BRANCH   3   6
ATOM      6  C   UNL A   1      31.743  25.522  23.742  1.00  0.00     0.289 C 
ATOM      7  C   UNL A   1      33.129  23.716  24.502  1.00  0.00     0.284 C 
ATOM      8  N   UNL A   1      31.979  24.560  24.840  1.00  0.00    -0.320 N 
ATOM      9  S   UNL A   1      34.164  24.574  23.264  1.00  0.00    -0.081 SA
ATOM     10  H   UNL A   1      32.170  25.068  25.703  1.00  0.00     0.348 HD
ATOM     11  H   UNL A   1      31.152  23.977  24.967  1.00  0.00     0.348 HD
ATOM     12  C   UNL A   1      33.046  26.010  23.076  1.00  0.00     0.077 C 
ATOM     13  C   UNL A   1      33.755  27.199  23.707  1.00  0.00     0.030 C 
ATOM     14  C   UNL A   1      32.842  26.317  21.585  1.00  0.00     0.030 C 
BRANCH   7  15
ATOM     15  C   UNL A   1      32.744  22.325  24.061  1.00  0.00     0.128 A 
ATOM     16  C   UNL A   1      32.833  17.545  25.160  1.00  0.00     0.131 A 
ATOM     17  C   UNL A   1      32.518  17.264  23.827  1.00  0.00     0.051 A 
ATOM     18  C   UNL A   1      32.847  18.855  25.643  1.00  0.00     0.063 A 
ATOM     19  C   UNL A   1      32.265  18.312  22.951  1.00  0.00     0.052 A 
ATOM     20  C   UNL A   1      32.605  19.898  24.746  1.00  0.00     0.069 A 
ATOM     21  C   UNL A   1      32.325  19.623  23.415  1.00  0.00     0.140 A 
ATOM     22  C   UNL A   1      32.677  21.310  25.155  1.00  0.00     0.205 A 
ATOM     23  O   UNL A   1      32.104  20.605  22.498  1.00  0.00    -0.440 OA
ATOM     24  O   UNL A   1      32.742  21.609  26.342  1.00  0.00    -0.288 OA
ATOM     25  C   UNL A   1      32.499  21.891  22.803  1.00  0.00     0.205 A 
BRANCH  16  26
ATOM     26  O   UNL A   1      33.079  16.500  26.057  1.00  0.00    -0.427 OA
BRANCH  26  27
ATOM     27  C   UNL A   1      33.825  15.451  25.526  1.00  0.00     0.308 C 
ATOM     28  C   UNL A   1      35.227  15.922  25.291  1.00  0.00     0.139 C 
ATOM     29  O   UNL A   1      33.433  14.316  25.289  1.00  0.00    -0.252 OA
ENDBRANCH  26  27
ENDBRANCH  16  26
BRANCH  25  30
ATOM     30  N   UNL A   1      32.633  22.640  21.673  1.00  0.00    -0.369 N 
ATOM     31  H   UNL A   1      32.086  22.437  20.880  1.00  0.00     0.159 HD
ATOM     32  H   UNL A   1      33.280  23.384  21.649  1.00  0.00     0.159 HD
ENDBRANCH  25  30
ENDBRANCH   7  15
ENDBRANCH   3   6
ENDBRANCH   1   2
BRANCH   1  33
ATOM     33  C   UNL A   1      31.730  28.564  27.101  1.00  0.00     0.042 C 
BRANCH  33  34
ATOM     34  C   UNL A   1      32.766  29.325  26.296  1.00  0.00     0.118 C 
BRANCH  34  35
ATOM     35  N   UNL A   1      32.613  30.763  26.432  1.00  0.00    -0.352 N 
ATOM     36  C   UNL A   1      33.331  31.645  27.208  1.00  0.00     0.251 C 
ATOM     37  H   UNL A   1      31.893  31.164  25.894  1.00  0.00     0.163 HD
ATOM     38  O   UNL A   1      32.907  32.779  27.399  1.00  0.00    -0.269 OA
BRANCH  36  39
ATOM     39  C   UNL A   1      34.596  31.209  27.842  1.00  0.00     0.039 A 
ATOM     40  C   UNL A   1      34.759  29.894  28.278  1.00  0.00     0.014 A 
ATOM     41  C   UNL A   1      35.634  32.129  28.009  1.00  0.00     0.014 A 
ATOM     42  C   UNL A   1      35.855  29.555  29.060  1.00  0.00     0.010 A 
ATOM     43  C   UNL A   1      36.799  31.748  28.684  1.00  0.00     0.010 A 
ATOM     44  C   UNL A   1      36.900  30.471  29.261  1.00  0.00    -0.014 A 
BRANCH  44  45
ATOM     45  C   UNL A   1      38.090  30.062  30.055  1.00  0.00     0.031 A 
ATOM     46  C   UNL A   1      39.140  29.158  29.468  1.00  0.00     0.074 A 
ATOM     47  C   UNL A   1      38.246  30.552  31.302  1.00  0.00     0.049 A 
ATOM     48  N   UNL A   1      40.227  28.684  30.026  1.00  0.00    -0.248 NA
ATOM     49  C   UNL A   1      38.947  28.723  28.076  1.00  0.00     0.031 C 
ATOM     50  C   UNL A   1      37.308  31.453  31.976  1.00  0.00     0.029 A 
ATOM     51  N   UNL A   1      39.256  30.385  32.216  1.00  0.00    -0.354 N 
ATOM     52  C   UNL A   1      40.833  27.883  29.066  1.00  0.00     0.074 A 
ATOM     53  C   UNL A   1      39.977  27.905  27.899  1.00  0.00     0.031 C 
ATOM     54  C   UNL A   1      37.815  31.810  33.164  1.00  0.00     0.029 A 
ATOM     55  C   UNL A   1      39.068  31.097  33.377  1.00  0.00     0.049 A 
ATOM     56  H   UNL A   1      40.040  29.811  32.055  1.00  0.00     0.167 HD
ATOM     57  C   UNL A   1      42.003  27.206  29.147  1.00  0.00     0.037 A 
ATOM     58  C   UNL A   1      39.808  31.153  34.499  1.00  0.00     0.037 A 
ATOM     59  C   UNL A   1      42.863  27.207  30.303  1.00  0.00     0.049 A 
ATOM     60  C   UNL A   1      41.067  30.338  34.585  1.00  0.00     0.074 A 
ATOM     61  C   UNL A   1      44.074  26.562  30.475  1.00  0.00     0.029 A 
ATOM     62  N   UNL A   1      42.603  27.888  31.483  1.00  0.00    -0.354 N 
ATOM     63  N   UNL A   1      41.625  29.583  33.671  1.00  0.00    -0.248 NA
ATOM     64  C   UNL A   1      41.791  30.372  35.862  1.00  0.00     0.031 C 
ATOM     65  C   UNL A   1      44.523  26.809  31.775  1.00  0.00     0.029 A 
ATOM     66  C   UNL A   1      43.621  27.658  32.396  1.00  0.00     0.049 A 
ATOM     67  H   UNL A   1      41.812  28.452  31.648  1.00  0.00     0.167 HD
ATOM     68  C   UNL A   1      42.772  29.066  34.253  1.00  0.00     0.074 A 
ATOM     69  C   UNL A   1      42.843  29.611  35.593  1.00  0.00     0.031 C 
ATOM     70  C   UNL A   1      43.681  28.210  33.726  1.00  0.00     0.037 A 
BRANCH  57  71
ATOM     71  C   UNL A   1      42.435  26.399  27.954  1.00  0.00     0.064 A 
ATOM     72  C   UNL A   1      41.965  25.096  27.738  1.00  0.00     0.173 A 
ATOM     73  C   UNL A   1      43.269  26.965  26.976  1.00  0.00     0.173 A 
ATOM     74  F   UNL A   1      41.174  24.503  28.646  1.00  0.00    -0.203 F 
ATOM     75  C   UNL A   1      42.325  24.382  26.597  1.00  0.00     0.198 A 
ATOM     76  C   UNL A   1      43.603  26.261  25.822  1.00  0.00     0.198 A 
ATOM     77  F   UNL A   1      43.740  28.211  27.128  1.00  0.00    -0.203 F 
ATOM     78  F   UNL A   1      41.893  23.125  26.430  1.00  0.00    -0.200 F 
ATOM     79  C   UNL A   1      43.134  24.969  25.635  1.00  0.00     0.200 A 
ATOM     80  F   UNL A   1      44.370  26.835  24.885  1.00  0.00    -0.200 F 
ATOM     81  F   UNL A   1      43.465  24.289  24.529  1.00  0.00    -0.200 F 
ENDBRANCH  57  71
BRANCH  58  82
ATOM     82  C   UNL A   1      39.367  32.014  35.628  1.00  0.00     0.064 A 
ATOM     83  C   UNL A   1      38.467  31.533  36.588  1.00  0.00     0.173 A 
ATOM     84  C   UNL A   1      39.857  33.319  35.789  1.00  0.00     0.173 A 
ATOM     85  F   UNL A   1      37.954  30.299  36.466  1.00  0.00    -0.203 F 
ATOM     86  C   UNL A   1      38.071  32.325  37.663  1.00  0.00     0.198 A 
ATOM     87  C   UNL A   1      39.486  34.098  36.882  1.00  0.00     0.198 A 
ATOM     88  F   UNL A   1      40.723  33.826  34.900  1.00  0.00    -0.203 F 
ATOM     89  F   UNL A   1      37.184  31.853  38.549  1.00  0.00    -0.200 F 
ATOM     90  C   UNL A   1      38.589  33.603  37.815  1.00  0.00     0.200 A 
ATOM     91  F   UNL A   1      40.006  35.324  37.035  1.00  0.00    -0.200 F 
ATOM     92  F   UNL A   1      38.221  34.357  38.860  1.00  0.00    -0.200 F 
ENDBRANCH  58  82
BRANCH  70  93
ATOM     93  C   UNL A   1      44.846  27.819  34.587  1.00  0.00     0.064 A 
ATOM     94  C   UNL A   1      46.015  28.594  34.635  1.00  0.00     0.173 A 
ATOM     95  C   UNL A   1      44.768  26.695  35.423  1.00  0.00     0.173 A 
ATOM     96  F   UNL A   1      46.144  29.670  33.844  1.00  0.00    -0.203 F 
ATOM     97  C   UNL A   1      47.067  28.248  35.478  1.00  0.00     0.198 A 
ATOM     98  C   UNL A   1      45.809  26.370  36.287  1.00  0.00     0.198 A 
ATOM     99  F   UNL A   1      43.670  25.924  35.419  1.00  0.00    -0.203 F 
ATOM    100  F   UNL A   1      48.189  28.981  35.480  1.00  0.00    -0.200 F 
ATOM    101  C   UNL A   1      46.960  27.145  36.312  1.00  0.00     0.200 A 
ATOM    102  F   UNL A   1      45.696  25.314  37.103  1.00  0.00    -0.200 F 
ATOM    103  F   UNL A   1      47.967  26.825  37.135  1.00  0.00    -0.200 F 
ENDBRANCH  70  93
ENDBRANCH  44  45
ENDBRANCH  36  39
ENDBRANCH  34  35
ENDBRANCH  33  34
ENDBRANCH   1  33
TORSDOF 14
ENDMDL
