MODEL 1
REMARK VINA RESULT:     -10.5      0.000      0.000
REMARK SMILES C[C@H](C(=O)NCCCNC(=O)c1ccc(-c2c3nc(c(-c4c(F)c(F)c(F)c(F)c4F)c4ccc([nH]4)c(-c4c(F)c(F)c(F)c(F)c4F)c4nc(c(-c5c(F)c(F)c(F)c(F)c5F)c5ccc2[nH]5)C=C4)C=C3)cc1)S(=O)(=O)Cc1ccc(O)cc1
REMARK SMILES IDX 6 1 5 2 3 3 4 4 2 6 1 7 75 8 76 9 77 10 78 11 79 12 80 13
REMARK SMILES IDX 85 14 81 15 84 16 82 17 83 18 7 20 8 21 9 22 10 23 11 25
REMARK SMILES IDX 12 26 13 27 74 28 14 29 73 30 15 31 16 32 17 33 67 34 18 35
REMARK SMILES IDX 72 36 66 37 68 38 19 39 71 40 65 41 64 42 20 44 52 45 32 46
REMARK SMILES IDX 51 47 33 48 36 49 50 50 69 51 34 52 35 53 49 55 70 56 37 57
REMARK SMILES IDX 21 58 22 59 30 60 23 61 24 62 28 63 31 64 25 65 26 66 29 67
REMARK SMILES IDX 27 68 53 69 54 70 62 71 55 72 56 73 60 74 63 75 57 76 58 77
REMARK SMILES IDX 61 78 59 79 38 80 39 81 47 82 40 83 41 84 45 85 48 86 42 87
REMARK SMILES IDX 43 88 46 89 44 90
REMARK H PARENT 5 5 83 19 9 24 68 43 36 54
REMARK Flexibility Score: inf
ROOT
ATOM      1  C   UNL A   1      34.030  34.916  29.304  1.00  0.00     0.117 C 
ENDROOT
BRANCH   1   2
ATOM      2  N   UNL A   1      32.947  35.220  30.228  1.00  0.00    -0.355 N 
ATOM      3  C   UNL A   1      32.966  35.341  31.586  1.00  0.00     0.238 C 
ATOM      4  O   UNL A   1      31.882  35.362  32.171  1.00  0.00    -0.274 OA
ATOM      5  H   UNL A   1      32.067  35.358  29.809  1.00  0.00     0.163 HD
BRANCH   3   6
ATOM      6  C   UNL A   1      34.267  35.495  32.328  1.00  0.00     0.194 C 
ATOM      7  C   UNL A   1      34.105  36.473  33.482  1.00  0.00     0.035 C 
BRANCH   6   8
ATOM      8  S   UNL A   1      34.883  33.889  32.798  1.00  0.00     0.166 S 
ATOM      9  O   UNL A   1      34.906  33.872  34.253  1.00  0.00    -0.228 OA
ATOM     10  O   UNL A   1      34.059  32.887  32.142  1.00  0.00    -0.228 OA
BRANCH   8  11
ATOM     11  C   UNL A   1      36.588  33.718  32.282  1.00  0.00     0.173 C 
BRANCH  11  12
ATOM     12  C   UNL A   1      37.461  32.709  32.990  1.00  0.00    -0.033 A 
ATOM     13  C   UNL A   1      37.131  31.351  32.794  1.00  0.00     0.008 A 
ATOM     14  C   UNL A   1      38.618  32.988  33.728  1.00  0.00     0.008 A 
ATOM     15  C   UNL A   1      37.892  30.326  33.360  1.00  0.00     0.046 A 
ATOM     16  C   UNL A   1      39.365  31.965  34.325  1.00  0.00     0.046 A 
ATOM     17  C   UNL A   1      38.994  30.642  34.138  1.00  0.00     0.115 A 
BRANCH  17  18
ATOM     18  O   UNL A   1      39.696  29.619  34.700  1.00  0.00    -0.508 OA
ATOM     19  H   UNL A   1      40.632  29.647  34.716  1.00  0.00     0.293 HD
ENDBRANCH  17  18
ENDBRANCH  11  12
ENDBRANCH   8  11
ENDBRANCH   6   8
ENDBRANCH   3   6
ENDBRANCH   1   2
BRANCH   1  20
ATOM     20  C   UNL A   1      33.635  33.825  28.312  1.00  0.00     0.042 C 
BRANCH  20  21
ATOM     21  C   UNL A   1      34.604  32.650  28.247  1.00  0.00     0.118 C 
BRANCH  21  22
ATOM     22  N   UNL A   1      33.933  31.378  28.036  1.00  0.00    -0.352 N 
ATOM     23  C   UNL A   1      34.452  30.112  27.942  1.00  0.00     0.251 C 
ATOM     24  H   UNL A   1      32.954  31.435  27.947  1.00  0.00     0.163 HD
ATOM     25  O   UNL A   1      33.724  29.189  27.588  1.00  0.00    -0.269 OA
BRANCH  23  26
ATOM     26  C   UNL A   1      35.878  29.846  28.243  1.00  0.00     0.039 A 
ATOM     27  C   UNL A   1      36.208  29.374  29.517  1.00  0.00     0.014 A 
ATOM     28  C   UNL A   1      36.889  30.095  27.312  1.00  0.00     0.014 A 
ATOM     29  C   UNL A   1      37.542  29.110  29.838  1.00  0.00     0.010 A 
ATOM     30  C   UNL A   1      38.210  29.758  27.606  1.00  0.00     0.010 A 
ATOM     31  C   UNL A   1      38.552  29.275  28.876  1.00  0.00    -0.014 A 
BRANCH  31  32
ATOM     32  C   UNL A   1      39.962  28.948  29.204  1.00  0.00     0.031 A 
ATOM     33  C   UNL A   1      40.781  29.867  30.067  1.00  0.00     0.074 A 
ATOM     34  C   UNL A   1      40.515  27.826  28.703  1.00  0.00     0.049 A 
ATOM     35  N   UNL A   1      42.016  29.728  30.485  1.00  0.00    -0.248 NA
ATOM     36  C   UNL A   1      40.143  31.119  30.499  1.00  0.00     0.031 C 
ATOM     37  C   UNL A   1      39.847  26.888  27.799  1.00  0.00     0.029 A 
ATOM     38  N   UNL A   1      41.761  27.283  28.885  1.00  0.00    -0.354 N 
ATOM     39  C   UNL A   1      42.299  30.873  31.217  1.00  0.00     0.074 A 
ATOM     40  C   UNL A   1      41.130  31.722  31.143  1.00  0.00     0.031 C 
ATOM     41  C   UNL A   1      40.677  25.866  27.535  1.00  0.00     0.029 A 
ATOM     42  C   UNL A   1      41.940  26.088  28.232  1.00  0.00     0.049 A 
ATOM     43  H   UNL A   1      42.461  27.708  29.431  1.00  0.00     0.167 HD
ATOM     44  C   UNL A   1      43.423  31.177  31.911  1.00  0.00     0.037 A 
ATOM     45  C   UNL A   1      43.000  25.257  28.210  1.00  0.00     0.037 A 
ATOM     46  C   UNL A   1      44.574  30.319  32.009  1.00  0.00     0.049 A 
ATOM     47  C   UNL A   1      44.220  25.601  29.018  1.00  0.00     0.074 A 
ATOM     48  C   UNL A   1      45.734  30.508  32.741  1.00  0.00     0.029 A 
ATOM     49  N   UNL A   1      44.710  29.105  31.351  1.00  0.00    -0.354 N 
ATOM     50  N   UNL A   1      44.444  26.648  29.773  1.00  0.00    -0.248 NA
ATOM     51  C   UNL A   1      45.328  24.638  28.980  1.00  0.00     0.031 C 
ATOM     52  C   UNL A   1      46.587  29.425  32.498  1.00  0.00     0.029 A 
ATOM     53  C   UNL A   1      45.941  28.542  31.648  1.00  0.00     0.049 A 
ATOM     54  H   UNL A   1      44.032  28.703  30.762  1.00  0.00     0.167 HD
ATOM     55  C   UNL A   1      45.709  26.464  30.314  1.00  0.00     0.074 A 
ATOM     56  C   UNL A   1      46.193  25.191  29.820  1.00  0.00     0.031 C 
ATOM     57  C   UNL A   1      46.409  27.277  31.143  1.00  0.00     0.037 A 
BRANCH  44  58
ATOM     58  C   UNL A   1      43.454  32.492  32.634  1.00  0.00     0.064 A 
ATOM     59  C   UNL A   1      43.872  33.670  31.995  1.00  0.00     0.173 A 
ATOM     60  C   UNL A   1      43.030  32.584  33.968  1.00  0.00     0.173 A 
ATOM     61  F   UNL A   1      44.297  33.633  30.723  1.00  0.00    -0.203 F 
ATOM     62  C   UNL A   1      43.889  34.886  32.673  1.00  0.00     0.198 A 
ATOM     63  C   UNL A   1      43.024  33.807  34.635  1.00  0.00     0.198 A 
ATOM     64  F   UNL A   1      42.617  31.489  34.624  1.00  0.00    -0.203 F 
ATOM     65  F   UNL A   1      44.336  35.988  32.057  1.00  0.00    -0.200 F 
ATOM     66  C   UNL A   1      43.460  34.954  33.990  1.00  0.00     0.200 A 
ATOM     67  F   UNL A   1      42.598  33.875  35.904  1.00  0.00    -0.200 F 
ATOM     68  F   UNL A   1      43.472  36.127  34.639  1.00  0.00    -0.200 F 
ENDBRANCH  44  58
BRANCH  45  69
ATOM     69  C   UNL A   1      42.931  23.993  27.432  1.00  0.00     0.064 A 
ATOM     70  C   UNL A   1      42.507  22.802  28.036  1.00  0.00     0.173 A 
ATOM     71  C   UNL A   1      43.284  23.952  26.077  1.00  0.00     0.173 A 
ATOM     72  F   UNL A   1      42.178  22.790  29.336  1.00  0.00    -0.203 F 
ATOM     73  C   UNL A   1      42.454  21.611  27.316  1.00  0.00     0.198 A 
ATOM     74  C   UNL A   1      43.207  22.765  25.352  1.00  0.00     0.198 A 
ATOM     75  F   UNL A   1      43.693  25.067  25.454  1.00  0.00    -0.203 F 
ATOM     76  F   UNL A   1      42.084  20.477  27.927  1.00  0.00    -0.200 F 
ATOM     77  C   UNL A   1      42.799  21.594  25.973  1.00  0.00     0.200 A 
ATOM     78  F   UNL A   1      43.531  22.755  24.051  1.00  0.00    -0.200 F 
ATOM     79  F   UNL A   1      42.746  20.449  25.280  1.00  0.00    -0.200 F 
ENDBRANCH  45  69
BRANCH  57  80
ATOM     80  C   UNL A   1      47.765  26.803  31.574  1.00  0.00     0.064 A 
ATOM     81  C   UNL A   1      48.928  27.191  30.891  1.00  0.00     0.173 A 
ATOM     82  C   UNL A   1      47.906  25.968  32.691  1.00  0.00     0.173 A 
ATOM     83  F   UNL A   1      48.843  27.977  29.807  1.00  0.00    -0.203 F 
ATOM     84  C   UNL A   1      50.179  26.733  31.293  1.00  0.00     0.198 A 
ATOM     85  C   UNL A   1      49.162  25.534  33.106  1.00  0.00     0.198 A 
ATOM     86  F   UNL A   1      46.826  25.573  33.382  1.00  0.00    -0.203 F 
ATOM     87  F   UNL A   1      51.271  27.075  30.593  1.00  0.00    -0.200 F 
ATOM     88  C   UNL A   1      50.297  25.909  32.402  1.00  0.00     0.200 A 
ATOM     89  F   UNL A   1      49.275  24.745  34.184  1.00  0.00    -0.200 F 
ATOM     90  F   UNL A   1      51.502  25.468  32.786  1.00  0.00    -0.200 F 
ENDBRANCH  57  80
ENDBRANCH  31  32
ENDBRANCH  23  26
ENDBRANCH  21  22
ENDBRANCH  20  21
ENDBRANCH   1  20
TORSDOF 14
ENDMDL
MODEL 2
REMARK VINA RESULT:     -10.5      5.727     11.166
REMARK SMILES C[C@H](C(=O)NCCCNC(=O)c1ccc(-c2c3nc(c(-c4c(F)c(F)c(F)c(F)c4F)c4ccc([nH]4)c(-c4c(F)c(F)c(F)c(F)c4F)c4nc(c(-c5c(F)c(F)c(F)c(F)c5F)c5ccc2[nH]5)C=C4)C=C3)cc1)S(=O)(=O)Cc1ccc(O)cc1
REMARK SMILES IDX 6 1 5 2 3 3 4 4 2 6 1 7 75 8 76 9 77 10 78 11 79 12 80 13
REMARK SMILES IDX 85 14 81 15 84 16 82 17 83 18 7 20 8 21 9 22 10 23 11 25
REMARK SMILES IDX 12 26 13 27 74 28 14 29 73 30 15 31 16 32 17 33 67 34 18 35
REMARK SMILES IDX 72 36 66 37 68 38 19 39 71 40 65 41 64 42 20 44 52 45 32 46
REMARK SMILES IDX 51 47 33 48 36 49 50 50 69 51 34 52 35 53 49 55 70 56 37 57
REMARK SMILES IDX 21 58 22 59 30 60 23 61 24 62 28 63 31 64 25 65 26 66 29 67
REMARK SMILES IDX 27 68 53 69 54 70 62 71 55 72 56 73 60 74 63 75 57 76 58 77
REMARK SMILES IDX 61 78 59 79 38 80 39 81 47 82 40 83 41 84 45 85 48 86 42 87
REMARK SMILES IDX 43 88 46 89 44 90
REMARK H PARENT 5 5 83 19 9 24 68 43 36 54
REMARK Flexibility Score: inf
ROOT
ATOM      1  C   UNL A   1      36.714  20.180  24.884  1.00  0.00     0.117 C 
ENDROOT
BRANCH   1   2
ATOM      2  N   UNL A   1      36.641  21.475  25.545  1.00  0.00    -0.355 N 
ATOM      3  C   UNL A   1      35.564  22.134  26.059  1.00  0.00     0.238 C 
ATOM      4  O   UNL A   1      35.709  23.323  26.352  1.00  0.00    -0.274 OA
ATOM      5  H   UNL A   1      37.500  21.948  25.634  1.00  0.00     0.163 HD
BRANCH   3   6
ATOM      6  C   UNL A   1      34.265  21.414  26.305  1.00  0.00     0.194 C 
ATOM      7  C   UNL A   1      33.675  21.830  27.644  1.00  0.00     0.035 C 
BRANCH   6   8
ATOM      8  S   UNL A   1      33.178  21.645  24.911  1.00  0.00     0.166 S 
ATOM      9  O   UNL A   1      32.235  22.685  25.298  1.00  0.00    -0.228 OA
ATOM     10  O   UNL A   1      34.002  21.909  23.743  1.00  0.00    -0.228 OA
BRANCH   8  11
ATOM     11  C   UNL A   1      32.198  20.171  24.654  1.00  0.00     0.173 C 
BRANCH  11  12
ATOM     12  C   UNL A   1      32.885  18.827  24.701  1.00  0.00    -0.033 A 
ATOM     13  C   UNL A   1      32.561  17.997  25.795  1.00  0.00     0.008 A 
ATOM     14  C   UNL A   1      33.725  18.290  23.717  1.00  0.00     0.008 A 
ATOM     15  C   UNL A   1      33.098  16.715  25.924  1.00  0.00     0.046 A 
ATOM     16  C   UNL A   1      34.292  17.018  23.858  1.00  0.00     0.046 A 
ATOM     17  C   UNL A   1      33.976  16.242  24.963  1.00  0.00     0.115 A 
BRANCH  17  18
ATOM     18  O   UNL A   1      34.505  14.998  25.134  1.00  0.00    -0.508 OA
ATOM     19  H   UNL A   1      33.941  14.254  25.198  1.00  0.00     0.293 HD
ENDBRANCH  17  18
ENDBRANCH  11  12
ENDBRANCH   8  11
ENDBRANCH   6   8
ENDBRANCH   3   6
ENDBRANCH   1   2
BRANCH   1  20
ATOM     20  C   UNL A   1      38.158  19.732  24.678  1.00  0.00     0.042 C 
BRANCH  20  21
ATOM     21  C   UNL A   1      39.081  20.020  25.856  1.00  0.00     0.118 C 
BRANCH  21  22
ATOM     22  N   UNL A   1      40.227  19.127  25.904  1.00  0.00    -0.352 N 
ATOM     23  C   UNL A   1      41.557  19.408  26.090  1.00  0.00     0.251 C 
ATOM     24  H   UNL A   1      40.016  18.174  25.786  1.00  0.00     0.163 HD
ATOM     25  O   UNL A   1      42.388  18.520  25.924  1.00  0.00    -0.269 OA
BRANCH  23  26
ATOM     26  C   UNL A   1      42.006  20.768  26.469  1.00  0.00     0.039 A 
ATOM     27  C   UNL A   1      42.238  21.697  25.449  1.00  0.00     0.014 A 
ATOM     28  C   UNL A   1      42.244  21.124  27.799  1.00  0.00     0.014 A 
ATOM     29  C   UNL A   1      42.662  22.989  25.768  1.00  0.00     0.010 A 
ATOM     30  C   UNL A   1      42.592  22.436  28.121  1.00  0.00     0.010 A 
ATOM     31  C   UNL A   1      42.817  23.378  27.108  1.00  0.00    -0.014 A 
BRANCH  31  32
ATOM     32  C   UNL A   1      43.221  24.766  27.446  1.00  0.00     0.031 A 
ATOM     33  C   UNL A   1      44.621  25.244  27.177  1.00  0.00     0.074 A 
ATOM     34  C   UNL A   1      42.325  25.595  28.018  1.00  0.00     0.049 A 
ATOM     35  N   UNL A   1      45.142  26.430  27.374  1.00  0.00    -0.248 NA
ATOM     36  C   UNL A   1      45.568  24.257  26.639  1.00  0.00     0.031 C 
ATOM     37  C   UNL A   1      40.958  25.230  28.391  1.00  0.00     0.029 A 
ATOM     38  N   UNL A   1      42.430  26.913  28.382  1.00  0.00    -0.354 N 
ATOM     39  C   UNL A   1      46.474  26.327  26.994  1.00  0.00     0.074 A 
ATOM     40  C   UNL A   1      46.696  24.951  26.606  1.00  0.00     0.031 C 
ATOM     41  C   UNL A   1      40.339  26.309  28.898  1.00  0.00     0.029 A 
ATOM     42  C   UNL A   1      41.271  27.432  28.905  1.00  0.00     0.049 A 
ATOM     43  H   UNL A   1      43.257  27.437  28.280  1.00  0.00     0.167 HD
ATOM     44  C   UNL A   1      47.418  27.298  26.946  1.00  0.00     0.037 A 
ATOM     45  C   UNL A   1      40.988  28.679  29.327  1.00  0.00     0.037 A 
ATOM     46  C   UNL A   1      47.188  28.672  27.305  1.00  0.00     0.049 A 
ATOM     47  C   UNL A   1      42.043  29.745  29.231  1.00  0.00     0.074 A 
ATOM     48  C   UNL A   1      48.062  29.744  27.229  1.00  0.00     0.029 A 
ATOM     49  N   UNL A   1      45.993  29.167  27.809  1.00  0.00    -0.354 N 
ATOM     50  N   UNL A   1      43.274  29.654  28.792  1.00  0.00    -0.248 NA
ATOM     51  C   UNL A   1      41.662  31.092  29.675  1.00  0.00     0.031 C 
ATOM     52  C   UNL A   1      47.407  30.879  27.721  1.00  0.00     0.029 A 
ATOM     53  C   UNL A   1      46.112  30.523  28.063  1.00  0.00     0.049 A 
ATOM     54  H   UNL A   1      45.181  28.631  27.962  1.00  0.00     0.167 HD
ATOM     55  C   UNL A   1      43.810  30.930  28.890  1.00  0.00     0.074 A 
ATOM     56  C   UNL A   1      42.761  31.784  29.407  1.00  0.00     0.031 C 
ATOM     57  C   UNL A   1      45.060  31.357  28.584  1.00  0.00     0.037 A 
BRANCH  44  58
ATOM     58  C   UNL A   1      48.788  26.906  26.475  1.00  0.00     0.064 A 
ATOM     59  C   UNL A   1      49.746  26.384  27.359  1.00  0.00     0.173 A 
ATOM     60  C   UNL A   1      49.138  27.023  25.122  1.00  0.00     0.173 A 
ATOM     61  F   UNL A   1      49.464  26.263  28.665  1.00  0.00    -0.203 F 
ATOM     62  C   UNL A   1      51.011  26.016  26.909  1.00  0.00     0.198 A 
ATOM     63  C   UNL A   1      50.396  26.630  24.671  1.00  0.00     0.198 A 
ATOM     64  F   UNL A   1      48.259  27.513  24.235  1.00  0.00    -0.203 F 
ATOM     65  F   UNL A   1      51.924  25.563  27.778  1.00  0.00    -0.200 F 
ATOM     66  C   UNL A   1      51.333  26.134  25.565  1.00  0.00     0.200 A 
ATOM     67  F   UNL A   1      50.703  26.733  23.370  1.00  0.00    -0.200 F 
ATOM     68  F   UNL A   1      52.550  25.775  25.133  1.00  0.00    -0.200 F 
ENDBRANCH  44  58
BRANCH  45  69
ATOM     69  C   UNL A   1      39.628  28.995  29.835  1.00  0.00     0.064 A 
ATOM     70  C   UNL A   1      39.325  28.872  31.198  1.00  0.00     0.173 A 
ATOM     71  C   UNL A   1      38.611  29.428  28.975  1.00  0.00     0.173 A 
ATOM     72  F   UNL A   1      40.262  28.442  32.056  1.00  0.00    -0.203 F 
ATOM     73  C   UNL A   1      38.048  29.153  31.679  1.00  0.00     0.198 A 
ATOM     74  C   UNL A   1      37.341  29.733  29.460  1.00  0.00     0.198 A 
ATOM     75  F   UNL A   1      38.854  29.566  27.663  1.00  0.00    -0.203 F 
ATOM     76  F   UNL A   1      37.773  28.987  32.979  1.00  0.00    -0.200 F 
ATOM     77  C   UNL A   1      37.059  29.589  30.810  1.00  0.00     0.200 A 
ATOM     78  F   UNL A   1      36.391  30.165  28.620  1.00  0.00    -0.200 F 
ATOM     79  F   UNL A   1      35.832  29.862  31.273  1.00  0.00    -0.200 F 
ENDBRANCH  45  69
BRANCH  57  80
ATOM     80  C   UNL A   1      45.350  32.814  28.788  1.00  0.00     0.064 A 
ATOM     81  C   UNL A   1      45.080  33.762  27.790  1.00  0.00     0.173 A 
ATOM     82  C   UNL A   1      45.888  33.270  30.001  1.00  0.00     0.173 A 
ATOM     83  F   UNL A   1      44.580  33.372  26.607  1.00  0.00    -0.203 F 
ATOM     84  C   UNL A   1      45.367  35.109  27.987  1.00  0.00     0.198 A 
ATOM     85  C   UNL A   1      46.149  34.622  30.203  1.00  0.00     0.198 A 
ATOM     86  F   UNL A   1      46.159  32.405  30.989  1.00  0.00    -0.203 F 
ATOM     87  F   UNL A   1      45.150  35.989  26.999  1.00  0.00    -0.200 F 
ATOM     88  C   UNL A   1      45.897  35.540  29.194  1.00  0.00     0.200 A 
ATOM     89  F   UNL A   1      46.651  35.039  31.374  1.00  0.00    -0.200 F 
ATOM     90  F   UNL A   1      46.174  36.837  29.381  1.00  0.00    -0.200 F 
ENDBRANCH  57  80
ENDBRANCH  31  32
ENDBRANCH  23  26
ENDBRANCH  21  22
ENDBRANCH  20  21
ENDBRANCH   1  20
TORSDOF 14
ENDMDL
MODEL 3
REMARK VINA RESULT:     -10.4      5.697     11.113
REMARK SMILES C[C@H](C(=O)NCCCNC(=O)c1ccc(-c2c3nc(c(-c4c(F)c(F)c(F)c(F)c4F)c4ccc([nH]4)c(-c4c(F)c(F)c(F)c(F)c4F)c4nc(c(-c5c(F)c(F)c(F)c(F)c5F)c5ccc2[nH]5)C=C4)C=C3)cc1)S(=O)(=O)Cc1ccc(O)cc1
REMARK SMILES IDX 6 1 5 2 3 3 4 4 2 6 1 7 75 8 76 9 77 10 78 11 79 12 80 13
REMARK SMILES IDX 85 14 81 15 84 16 82 17 83 18 7 20 8 21 9 22 10 23 11 25
REMARK SMILES IDX 12 26 13 27 74 28 14 29 73 30 15 31 16 32 17 33 67 34 18 35
REMARK SMILES IDX 72 36 66 37 68 38 19 39 71 40 65 41 64 42 20 44 52 45 32 46
REMARK SMILES IDX 51 47 33 48 36 49 50 50 69 51 34 52 35 53 49 55 70 56 37 57
REMARK SMILES IDX 21 58 22 59 30 60 23 61 24 62 28 63 31 64 25 65 26 66 29 67
REMARK SMILES IDX 27 68 53 69 54 70 62 71 55 72 56 73 60 74 63 75 57 76 58 77
REMARK SMILES IDX 61 78 59 79 38 80 39 81 47 82 40 83 41 84 45 85 48 86 42 87
REMARK SMILES IDX 43 88 46 89 44 90
REMARK H PARENT 5 5 83 19 9 24 68 43 36 54
REMARK Flexibility Score: inf
ROOT
ATOM      1  C   UNL A   1      36.592  20.325  25.000  1.00  0.00     0.117 C 
ENDROOT
BRANCH   1   2
ATOM      2  N   UNL A   1      36.749  21.682  25.504  1.00  0.00    -0.355 N 
ATOM      3  C   UNL A   1      35.815  22.548  25.991  1.00  0.00     0.238 C 
ATOM      4  O   UNL A   1      36.147  23.726  26.129  1.00  0.00    -0.274 OA
ATOM      5  H   UNL A   1      37.671  22.029  25.489  1.00  0.00     0.163 HD
BRANCH   3   6
ATOM      6  C   UNL A   1      34.448  22.060  26.389  1.00  0.00     0.194 C 
ATOM      7  C   UNL A   1      34.056  22.634  27.743  1.00  0.00     0.035 C 
BRANCH   6   8
ATOM      8  S   UNL A   1      33.286  22.393  25.079  1.00  0.00     0.166 S 
ATOM      9  O   UNL A   1      32.493  23.533  25.517  1.00  0.00    -0.228 OA
ATOM     10  O   UNL A   1      34.040  22.553  23.846  1.00  0.00    -0.228 OA
BRANCH   8  11
ATOM     11  C   UNL A   1      32.136  21.031  24.925  1.00  0.00     0.173 C 
BRANCH  11  12
ATOM     12  C   UNL A   1      32.601  19.765  24.247  1.00  0.00    -0.033 A 
ATOM     13  C   UNL A   1      33.476  18.943  24.989  1.00  0.00     0.008 A 
ATOM     14  C   UNL A   1      32.166  19.282  23.006  1.00  0.00     0.008 A 
ATOM     15  C   UNL A   1      33.937  17.725  24.485  1.00  0.00     0.046 A 
ATOM     16  C   UNL A   1      32.651  18.077  22.482  1.00  0.00     0.046 A 
ATOM     17  C   UNL A   1      33.536  17.310  23.226  1.00  0.00     0.115 A 
BRANCH  17  18
ATOM     18  O   UNL A   1      34.028  16.131  22.752  1.00  0.00    -0.508 OA
ATOM     19  H   UNL A   1      34.178  15.417  23.338  1.00  0.00     0.293 HD
ENDBRANCH  17  18
ENDBRANCH  11  12
ENDBRANCH   8  11
ENDBRANCH   6   8
ENDBRANCH   3   6
ENDBRANCH   1   2
BRANCH   1  20
ATOM     20  C   UNL A   1      37.936  19.616  24.861  1.00  0.00     0.042 C 
BRANCH  20  21
ATOM     21  C   UNL A   1      39.014  20.115  25.815  1.00  0.00     0.118 C 
BRANCH  21  22
ATOM     22  N   UNL A   1      40.142  19.203  25.916  1.00  0.00    -0.352 N 
ATOM     23  C   UNL A   1      41.472  19.465  26.126  1.00  0.00     0.251 C 
ATOM     24  H   UNL A   1      39.916  18.250  25.819  1.00  0.00     0.163 HD
ATOM     25  O   UNL A   1      42.290  18.557  26.004  1.00  0.00    -0.269 OA
BRANCH  23  26
ATOM     26  C   UNL A   1      41.937  20.827  26.478  1.00  0.00     0.039 A 
ATOM     27  C   UNL A   1      42.082  21.763  25.449  1.00  0.00     0.014 A 
ATOM     28  C   UNL A   1      42.273  21.178  27.788  1.00  0.00     0.014 A 
ATOM     29  C   UNL A   1      42.518  23.057  25.742  1.00  0.00     0.010 A 
ATOM     30  C   UNL A   1      42.633  22.491  28.090  1.00  0.00     0.010 A 
ATOM     31  C   UNL A   1      42.772  23.440  27.069  1.00  0.00    -0.014 A 
BRANCH  31  32
ATOM     32  C   UNL A   1      43.189  24.830  27.383  1.00  0.00     0.031 A 
ATOM     33  C   UNL A   1      44.585  25.299  27.080  1.00  0.00     0.074 A 
ATOM     34  C   UNL A   1      42.309  25.669  27.965  1.00  0.00     0.049 A 
ATOM     35  N   UNL A   1      45.116  26.485  27.253  1.00  0.00    -0.248 NA
ATOM     36  C   UNL A   1      45.517  24.302  26.534  1.00  0.00     0.031 C 
ATOM     37  C   UNL A   1      40.949  25.315  28.370  1.00  0.00     0.029 A 
ATOM     38  N   UNL A   1      42.428  26.990  28.313  1.00  0.00    -0.354 N 
ATOM     39  C   UNL A   1      46.439  26.371  26.847  1.00  0.00     0.074 A 
ATOM     40  C   UNL A   1      46.647  24.990  26.470  1.00  0.00     0.031 C 
ATOM     41  C   UNL A   1      40.345  26.402  28.878  1.00  0.00     0.029 A 
ATOM     42  C   UNL A   1      41.282  27.521  28.853  1.00  0.00     0.049 A 
ATOM     43  H   UNL A   1      43.254  27.510  28.187  1.00  0.00     0.167 HD
ATOM     44  C   UNL A   1      47.386  27.337  26.770  1.00  0.00     0.037 A 
ATOM     45  C   UNL A   1      41.013  28.773  29.268  1.00  0.00     0.037 A 
ATOM     46  C   UNL A   1      47.170  28.716  27.118  1.00  0.00     0.049 A 
ATOM     47  C   UNL A   1      42.070  29.833  29.138  1.00  0.00     0.074 A 
ATOM     48  C   UNL A   1      48.046  29.783  27.013  1.00  0.00     0.029 A 
ATOM     49  N   UNL A   1      45.988  29.221  27.641  1.00  0.00    -0.354 N 
ATOM     50  N   UNL A   1      43.292  29.731  28.675  1.00  0.00    -0.248 NA
ATOM     51  C   UNL A   1      41.704  31.187  29.576  1.00  0.00     0.031 C 
ATOM     52  C   UNL A   1      47.406  30.926  27.505  1.00  0.00     0.029 A 
ATOM     53  C   UNL A   1      46.118  30.580  27.878  1.00  0.00     0.049 A 
ATOM     54  H   UNL A   1      45.177  28.692  27.817  1.00  0.00     0.167 HD
ATOM     55  C   UNL A   1      43.835  31.006  28.749  1.00  0.00     0.074 A 
ATOM     56  C   UNL A   1      42.800  31.871  29.278  1.00  0.00     0.031 C 
ATOM     57  C   UNL A   1      45.080  31.424  28.411  1.00  0.00     0.037 A 
BRANCH  44  58
ATOM     58  C   UNL A   1      48.744  26.934  26.275  1.00  0.00     0.064 A 
ATOM     59  C   UNL A   1      49.100  27.062  24.923  1.00  0.00     0.173 A 
ATOM     60  C   UNL A   1      49.713  26.448  27.164  1.00  0.00     0.173 A 
ATOM     61  F   UNL A   1      48.205  27.512  24.029  1.00  0.00    -0.203 F 
ATOM     62  C   UNL A   1      50.365  26.693  24.476  1.00  0.00     0.198 A 
ATOM     63  C   UNL A   1      50.988  26.104  26.718  1.00  0.00     0.198 A 
ATOM     64  F   UNL A   1      49.427  26.310  28.468  1.00  0.00    -0.203 F 
ATOM     65  F   UNL A   1      50.667  26.781  23.173  1.00  0.00    -0.200 F 
ATOM     66  C   UNL A   1      51.310  26.220  25.375  1.00  0.00     0.200 A 
ATOM     67  F   UNL A   1      51.904  25.658  27.589  1.00  0.00    -0.200 F 
ATOM     68  F   UNL A   1      52.530  25.870  24.944  1.00  0.00    -0.200 F 
ENDBRANCH  44  58
BRANCH  45  69
ATOM     69  C   UNL A   1      39.665  29.101  29.800  1.00  0.00     0.064 A 
ATOM     70  C   UNL A   1      39.382  28.966  31.166  1.00  0.00     0.173 A 
ATOM     71  C   UNL A   1      38.641  29.556  28.960  1.00  0.00     0.173 A 
ATOM     72  F   UNL A   1      40.326  28.515  32.005  1.00  0.00    -0.203 F 
ATOM     73  C   UNL A   1      38.116  29.258  31.670  1.00  0.00     0.198 A 
ATOM     74  C   UNL A   1      37.383  29.872  29.469  1.00  0.00     0.198 A 
ATOM     75  F   UNL A   1      38.864  29.705  27.647  1.00  0.00    -0.203 F 
ATOM     76  F   UNL A   1      37.859  29.082  32.973  1.00  0.00    -0.200 F 
ATOM     77  C   UNL A   1      37.119  29.716  30.821  1.00  0.00     0.200 A 
ATOM     78  F   UNL A   1      36.425  30.325  28.648  1.00  0.00    -0.200 F 
ATOM     79  F   UNL A   1      35.903  30.000  31.307  1.00  0.00    -0.200 F 
ENDBRANCH  45  69
BRANCH  57  80
ATOM     80  C   UNL A   1      45.381  32.882  28.594  1.00  0.00     0.064 A 
ATOM     81  C   UNL A   1      45.939  33.371  29.785  1.00  0.00     0.173 A 
ATOM     82  C   UNL A   1      45.124  33.797  27.564  1.00  0.00     0.173 A 
ATOM     83  F   UNL A   1      46.188  32.535  30.806  1.00  0.00    -0.203 F 
ATOM     84  C   UNL A   1      46.200  34.727  29.948  1.00  0.00     0.198 A 
ATOM     85  C   UNL A   1      45.412  35.151  27.721  1.00  0.00     0.198 A 
ATOM     86  F   UNL A   1      44.596  33.380  26.403  1.00  0.00    -0.203 F 
ATOM     87  F   UNL A   1      46.685  35.179  31.114  1.00  0.00    -0.200 F 
ATOM     88  C   UNL A   1      45.941  35.616  28.915  1.00  0.00     0.200 A 
ATOM     89  F   UNL A   1      45.171  36.007  26.718  1.00  0.00    -0.200 F 
ATOM     90  F   UNL A   1      46.193  36.923  29.075  1.00  0.00    -0.200 F 
ENDBRANCH  57  80
ENDBRANCH  31  32
ENDBRANCH  23  26
ENDBRANCH  21  22
ENDBRANCH  20  21
ENDBRANCH   1  20
TORSDOF 14
ENDMDL
