MODEL 1
REMARK VINA RESULT:     -12.4      0.000      0.000
REMARK SMILES CC1(C)CCC[C@H]1NS(=O)(=O)c1ccc(O)c(C(=O)NCCCNC(=O)c2ccc(-c3c4nc(c(-c5c(F)c(F)c(F)c(F)c5F)c5ccc([nH]5)c(-c5c(F)c(F)c(F)c(F)c5F)c5nc(c(-c6c(F)c(F)c(F)c(F)c6F)c6ccc3[nH]6)C=C5)C=C4)cc2)c1
REMARK SMILES IDX 21 1 20 2 18 3 19 4 17 6 12 7 13 8 90 9 14 10 15 11 9 12
REMARK SMILES IDX 10 13 11 14 8 15 7 17 1 18 2 19 3 20 4 21 5 22 6 23 16 24
REMARK SMILES IDX 22 26 23 27 24 28 25 29 26 31 27 32 28 33 89 34 29 35 88 36
REMARK SMILES IDX 30 37 31 38 32 39 82 40 33 41 87 42 81 43 83 44 34 45 86 46
REMARK SMILES IDX 80 47 79 48 35 50 67 51 47 52 66 53 48 54 51 55 65 56 84 57
REMARK SMILES IDX 49 58 50 59 64 61 85 62 52 63 36 64 37 65 45 66 38 67 39 68
REMARK SMILES IDX 43 69 46 70 40 71 41 72 44 73 42 74 68 75 69 76 77 77 70 78
REMARK SMILES IDX 71 79 75 80 78 81 72 82 73 83 76 84 74 85 53 86 54 87 62 88
REMARK SMILES IDX 55 89 56 90 60 91 63 92 57 93 58 94 61 95 59 96
REMARK H PARENT 20 5 8 16 16 25 24 30 83 49 51 60
REMARK Flexibility Score: inf
ROOT
ATOM      1  C   UNL A   1      37.211  20.784  24.736  1.00  0.00     0.118 C 
ENDROOT
BRANCH   1   2
ATOM      2  N   UNL A   1      37.722  22.021  25.290  1.00  0.00    -0.352 N 
ATOM      3  C   UNL A   1      37.108  23.184  25.672  1.00  0.00     0.255 C 
ATOM      4  O   UNL A   1      37.851  24.109  26.009  1.00  0.00    -0.269 OA
ATOM      5  H   UNL A   1      38.699  22.027  25.417  1.00  0.00     0.163 HD
BRANCH   3   6
ATOM      6  C   UNL A   1      35.631  23.370  25.808  1.00  0.00     0.082 A 
ATOM      7  C   UNL A   1      33.699  24.572  24.911  1.00  0.00     0.083 A 
ATOM      8  C   UNL A   1      32.878  24.023  25.887  1.00  0.00     0.025 A 
ATOM      9  C   UNL A   1      35.072  24.295  24.906  1.00  0.00     0.039 A 
ATOM     10  C   UNL A   1      33.399  23.053  26.736  1.00  0.00     0.048 A 
ATOM     11  C   UNL A   1      34.748  22.684  26.650  1.00  0.00     0.128 A 
BRANCH   7  12
ATOM     12  S   UNL A   1      33.062  25.492  23.539  1.00  0.00     0.240 S 
ATOM     13  O   UNL A   1      31.692  25.060  23.343  1.00  0.00    -0.207 OA
ATOM     14  O   UNL A   1      34.045  25.414  22.489  1.00  0.00    -0.207 OA
BRANCH  12  15
ATOM     15  N   UNL A   1      33.047  27.108  23.995  1.00  0.00    -0.208 NA
ATOM     16  H   UNL A   1      33.928  27.268  24.485  1.00  0.00     0.141 HD
BRANCH  15  17
ATOM     17  C   UNL A   1      31.998  27.696  24.844  1.00  0.00     0.075 C 
ATOM     18  C   UNL A   1      34.068  27.961  26.447  1.00  0.00     0.013 C 
ATOM     19  C   UNL A   1      32.615  28.352  26.124  1.00  0.00    -0.019 C 
ATOM     20  C   UNL A   1      31.761  27.988  27.358  1.00  0.00     0.013 C 
ATOM     21  C   UNL A   1      32.522  29.859  25.830  1.00  0.00     0.008 C 
ATOM     22  C   UNL A   1      31.218  30.007  25.069  1.00  0.00     0.002 C 
ATOM     23  C   UNL A   1      31.224  28.814  24.127  1.00  0.00     0.020 C 
ENDBRANCH  15  17
ENDBRANCH  12  15
ENDBRANCH   7  12
BRANCH  11  24
ATOM     24  O   UNL A   1      35.126  21.585  27.361  1.00  0.00    -0.507 OA
ATOM     25  H   UNL A   1      34.957  21.542  28.282  1.00  0.00     0.293 HD
ENDBRANCH  11  24
ENDBRANCH   3   6
ENDBRANCH   1   2
BRANCH   1  26
ATOM     26  C   UNL A   1      38.203  19.645  24.984  1.00  0.00     0.042 C 
BRANCH  26  27
ATOM     27  C   UNL A   1      39.248  19.977  26.039  1.00  0.00     0.118 C 
BRANCH  27  28
ATOM     28  N   UNL A   1      40.403  19.098  25.948  1.00  0.00    -0.352 N 
ATOM     29  C   UNL A   1      41.739  19.405  25.985  1.00  0.00     0.251 C 
ATOM     30  H   UNL A   1      40.194  18.141  25.844  1.00  0.00     0.163 HD
ATOM     31  O   UNL A   1      42.566  18.558  25.658  1.00  0.00    -0.269 OA
BRANCH  29  32
ATOM     32  C   UNL A   1      42.200  20.750  26.406  1.00  0.00     0.039 A 
ATOM     33  C   UNL A   1      42.223  21.054  27.771  1.00  0.00     0.014 A 
ATOM     34  C   UNL A   1      42.551  21.728  25.471  1.00  0.00     0.014 A 
ATOM     35  C   UNL A   1      42.631  22.321  28.198  1.00  0.00     0.010 A 
ATOM     36  C   UNL A   1      43.024  22.966  25.899  1.00  0.00     0.010 A 
ATOM     37  C   UNL A   1      43.051  23.282  27.266  1.00  0.00    -0.014 A 
BRANCH  37  38
ATOM     38  C   UNL A   1      43.485  24.635  27.696  1.00  0.00     0.031 A 
ATOM     39  C   UNL A   1      42.458  25.673  28.054  1.00  0.00     0.074 A 
ATOM     40  C   UNL A   1      44.794  24.946  27.711  1.00  0.00     0.049 A 
ATOM     41  N   UNL A   1      42.628  26.929  28.382  1.00  0.00    -0.248 NA
ATOM     42  C   UNL A   1      41.051  25.249  28.010  1.00  0.00     0.031 C 
ATOM     43  C   UNL A   1      45.884  24.038  27.356  1.00  0.00     0.029 A 
ATOM     44  N   UNL A   1      45.428  26.121  28.032  1.00  0.00    -0.354 N 
ATOM     45  C   UNL A   1      41.352  27.449  28.554  1.00  0.00     0.074 A 
ATOM     46  C   UNL A   1      40.417  26.385  28.259  1.00  0.00     0.031 C 
ATOM     47  C   UNL A   1      47.054  24.680  27.503  1.00  0.00     0.029 A 
ATOM     48  C   UNL A   1      46.795  26.052  27.930  1.00  0.00     0.049 A 
ATOM     49  H   UNL A   1      44.948  26.934  28.308  1.00  0.00     0.167 HD
ATOM     50  C   UNL A   1      40.994  28.698  28.940  1.00  0.00     0.037 A 
ATOM     51  C   UNL A   1      47.732  26.992  28.156  1.00  0.00     0.037 A 
ATOM     52  C   UNL A   1      41.925  29.741  29.278  1.00  0.00     0.049 A 
ATOM     53  C   UNL A   1      47.309  28.368  28.590  1.00  0.00     0.074 A 
ATOM     54  C   UNL A   1      41.662  31.009  29.766  1.00  0.00     0.029 A 
ATOM     55  N   UNL A   1      43.303  29.633  29.165  1.00  0.00    -0.354 N 
ATOM     56  N   UNL A   1      46.103  28.831  28.809  1.00  0.00    -0.248 NA
ATOM     57  C   UNL A   1      48.379  29.351  28.805  1.00  0.00     0.031 C 
ATOM     58  C   UNL A   1      42.881  31.681  29.915  1.00  0.00     0.029 A 
ATOM     59  C   UNL A   1      43.903  30.819  29.553  1.00  0.00     0.049 A 
ATOM     60  H   UNL A   1      43.782  28.831  28.855  1.00  0.00     0.167 HD
ATOM     61  C   UNL A   1      46.268  30.149  29.211  1.00  0.00     0.074 A 
ATOM     62  C   UNL A   1      47.693  30.411  29.212  1.00  0.00     0.031 C 
ATOM     63  C   UNL A   1      45.323  31.059  29.552  1.00  0.00     0.037 A 
BRANCH  50  64
ATOM     64  C   UNL A   1      39.526  28.999  29.012  1.00  0.00     0.064 A 
ATOM     65  C   UNL A   1      38.791  29.359  27.873  1.00  0.00     0.173 A 
ATOM     66  C   UNL A   1      38.845  28.916  30.236  1.00  0.00     0.173 A 
ATOM     67  F   UNL A   1      39.400  29.466  26.683  1.00  0.00    -0.203 F 
ATOM     68  C   UNL A   1      37.434  29.656  27.962  1.00  0.00     0.198 A 
ATOM     69  C   UNL A   1      37.482  29.188  30.315  1.00  0.00     0.198 A 
ATOM     70  F   UNL A   1      39.501  28.570  31.353  1.00  0.00    -0.203 F 
ATOM     71  F   UNL A   1      36.762  30.049  26.870  1.00  0.00    -0.200 F 
ATOM     72  C   UNL A   1      36.780  29.567  29.182  1.00  0.00     0.200 A 
ATOM     73  F   UNL A   1      36.849  29.092  31.494  1.00  0.00    -0.200 F 
ATOM     74  F   UNL A   1      35.473  29.855  29.265  1.00  0.00    -0.200 F 
ENDBRANCH  50  64
BRANCH  51  75
ATOM     75  C   UNL A   1      49.168  26.646  28.019  1.00  0.00     0.064 A 
ATOM     76  C   UNL A   1      49.778  26.633  26.759  1.00  0.00     0.173 A 
ATOM     77  C   UNL A   1      49.960  26.343  29.136  1.00  0.00     0.173 A 
ATOM     78  F   UNL A   1      49.053  26.898  25.662  1.00  0.00    -0.203 F 
ATOM     79  C   UNL A   1      51.129  26.322  26.617  1.00  0.00     0.198 A 
ATOM     80  C   UNL A   1      51.315  26.053  28.994  1.00  0.00     0.198 A 
ATOM     81  F   UNL A   1      49.420  26.346  30.363  1.00  0.00    -0.203 F 
ATOM     82  F   UNL A   1      51.683  26.292  25.397  1.00  0.00    -0.200 F 
ATOM     83  C   UNL A   1      51.898  26.039  27.735  1.00  0.00     0.200 A 
ATOM     84  F   UNL A   1      52.059  25.790  30.078  1.00  0.00    -0.200 F 
ATOM     85  F   UNL A   1      53.199  25.750  27.601  1.00  0.00    -0.200 F 
ENDBRANCH  51  75
BRANCH  63  86
ATOM     86  C   UNL A   1      45.802  32.412  29.982  1.00  0.00     0.064 A 
ATOM     87  C   UNL A   1      46.132  32.680  31.318  1.00  0.00     0.173 A 
ATOM     88  C   UNL A   1      45.969  33.439  29.042  1.00  0.00     0.173 A 
ATOM     89  F   UNL A   1      45.973  31.733  32.255  1.00  0.00    -0.203 F 
ATOM     90  C   UNL A   1      46.596  33.936  31.700  1.00  0.00     0.198 A 
ATOM     91  C   UNL A   1      46.453  34.686  29.424  1.00  0.00     0.198 A 
ATOM     92  F   UNL A   1      45.668  33.230  27.752  1.00  0.00    -0.203 F 
ATOM     93  F   UNL A   1      46.871  34.182  32.989  1.00  0.00    -0.200 F 
ATOM     94  C   UNL A   1      46.762  34.934  30.753  1.00  0.00     0.200 A 
ATOM     95  F   UNL A   1      46.620  35.650  28.507  1.00  0.00    -0.200 F 
ATOM     96  F   UNL A   1      47.214  36.141  31.123  1.00  0.00    -0.200 F 
ENDBRANCH  63  86
ENDBRANCH  37  38
ENDBRANCH  29  32
ENDBRANCH  27  28
ENDBRANCH  26  27
ENDBRANCH   1  26
TORSDOF 14
ENDMDL
MODEL 2
REMARK VINA RESULT:     -12.3      5.198     10.437
REMARK SMILES CC1(C)CCC[C@H]1NS(=O)(=O)c1ccc(O)c(C(=O)NCCCNC(=O)c2ccc(-c3c4nc(c(-c5c(F)c(F)c(F)c(F)c5F)c5ccc([nH]5)c(-c5c(F)c(F)c(F)c(F)c5F)c5nc(c(-c6c(F)c(F)c(F)c(F)c6F)c6ccc3[nH]6)C=C5)C=C4)cc2)c1
REMARK SMILES IDX 21 1 20 2 18 3 19 4 17 6 12 7 13 8 90 9 14 10 15 11 9 12
REMARK SMILES IDX 10 13 11 14 8 15 7 17 1 18 2 19 3 20 4 21 5 22 6 23 16 24
REMARK SMILES IDX 22 26 23 27 24 28 25 29 26 31 27 32 28 33 89 34 29 35 88 36
REMARK SMILES IDX 30 37 31 38 32 39 82 40 33 41 87 42 81 43 83 44 34 45 86 46
REMARK SMILES IDX 80 47 79 48 35 50 67 51 47 52 66 53 48 54 51 55 65 56 84 57
REMARK SMILES IDX 49 58 50 59 64 61 85 62 52 63 36 64 37 65 45 66 38 67 39 68
REMARK SMILES IDX 43 69 46 70 40 71 41 72 44 73 42 74 68 75 69 76 77 77 70 78
REMARK SMILES IDX 71 79 75 80 78 81 72 82 73 83 76 84 74 85 53 86 54 87 62 88
REMARK SMILES IDX 55 89 56 90 60 91 63 92 57 93 58 94 61 95 59 96
REMARK H PARENT 20 5 8 16 16 25 24 30 83 49 51 60
REMARK Flexibility Score: inf
ROOT
ATOM      1  C   UNL A   1      31.677  30.677  26.503  1.00  0.00     0.118 C 
ENDROOT
BRANCH   1   2
ATOM      2  N   UNL A   1      32.936  30.226  27.060  1.00  0.00    -0.352 N 
ATOM      3  C   UNL A   1      33.700  29.113  26.830  1.00  0.00     0.255 C 
ATOM      4  O   UNL A   1      34.684  28.966  27.560  1.00  0.00    -0.269 OA
ATOM      5  H   UNL A   1      33.316  30.838  27.733  1.00  0.00     0.163 HD
BRANCH   3   6
ATOM      6  C   UNL A   1      33.491  28.145  25.710  1.00  0.00     0.082 A 
ATOM      7  C   UNL A   1      32.860  25.842  25.181  1.00  0.00     0.083 A 
ATOM      8  C   UNL A   1      33.123  26.058  23.835  1.00  0.00     0.025 A 
ATOM      9  C   UNL A   1      33.098  26.856  26.118  1.00  0.00     0.039 A 
ATOM     10  C   UNL A   1      33.439  27.343  23.409  1.00  0.00     0.048 A 
ATOM     11  C   UNL A   1      33.556  28.389  24.334  1.00  0.00     0.128 A 
BRANCH   7  12
ATOM     12  S   UNL A   1      32.066  24.374  25.773  1.00  0.00     0.240 S 
ATOM     13  O   UNL A   1      31.218  23.894  24.699  1.00  0.00    -0.207 OA
ATOM     14  O   UNL A   1      31.544  24.679  27.080  1.00  0.00    -0.207 OA
BRANCH  12  15
ATOM     15  N   UNL A   1      33.272  23.238  26.045  1.00  0.00    -0.208 NA
ATOM     16  H   UNL A   1      34.019  23.734  26.531  1.00  0.00     0.141 HD
BRANCH  15  17
ATOM     17  C   UNL A   1      33.924  22.481  24.964  1.00  0.00     0.075 C 
ATOM     18  C   UNL A   1      35.949  23.965  25.751  1.00  0.00     0.013 C 
ATOM     19  C   UNL A   1      35.466  22.748  24.944  1.00  0.00    -0.019 C 
ATOM     20  C   UNL A   1      35.940  22.949  23.489  1.00  0.00     0.013 C 
ATOM     21  C   UNL A   1      36.057  21.453  25.528  1.00  0.00     0.008 C 
ATOM     22  C   UNL A   1      35.148  20.360  24.998  1.00  0.00     0.002 C 
ATOM     23  C   UNL A   1      33.759  20.962  25.133  1.00  0.00     0.020 C 
ENDBRANCH  15  17
ENDBRANCH  12  15
ENDBRANCH   7  12
BRANCH  11  24
ATOM     24  O   UNL A   1      33.653  29.648  23.821  1.00  0.00    -0.507 OA
ATOM     25  H   UNL A   1      34.448  29.927  23.411  1.00  0.00     0.293 HD
ENDBRANCH  11  24
ENDBRANCH   3   6
ENDBRANCH   1   2
BRANCH   1  26
ATOM     26  C   UNL A   1      31.456  32.156  26.828  1.00  0.00     0.042 C 
BRANCH  26  27
ATOM     27  C   UNL A   1      32.753  32.934  27.002  1.00  0.00     0.118 C 
BRANCH  27  28
ATOM     28  N   UNL A   1      32.522  34.238  27.602  1.00  0.00    -0.352 N 
ATOM     29  C   UNL A   1      33.052  34.781  28.745  1.00  0.00     0.251 C 
ATOM     30  H   UNL A   1      31.891  34.818  27.115  1.00  0.00     0.163 HD
ATOM     31  O   UNL A   1      32.560  35.802  29.217  1.00  0.00    -0.269 OA
BRANCH  29  32
ATOM     32  C   UNL A   1      34.206  34.145  29.425  1.00  0.00     0.039 A 
ATOM     33  C   UNL A   1      35.499  34.500  29.026  1.00  0.00     0.014 A 
ATOM     34  C   UNL A   1      34.027  33.164  30.404  1.00  0.00     0.014 A 
ATOM     35  C   UNL A   1      36.607  33.902  29.632  1.00  0.00     0.010 A 
ATOM     36  C   UNL A   1      35.130  32.618  31.057  1.00  0.00     0.010 A 
ATOM     37  C   UNL A   1      36.431  32.968  30.665  1.00  0.00    -0.014 A 
BRANCH  37  38
ATOM     38  C   UNL A   1      37.593  32.317  31.321  1.00  0.00     0.031 A 
ATOM     39  C   UNL A   1      38.300  31.181  30.636  1.00  0.00     0.074 A 
ATOM     40  C   UNL A   1      37.975  32.708  32.551  1.00  0.00     0.049 A 
ATOM     41  N   UNL A   1      39.285  30.435  31.070  1.00  0.00    -0.248 NA
ATOM     42  C   UNL A   1      37.818  30.817  29.296  1.00  0.00     0.031 C 
ATOM     43  C   UNL A   1      37.350  33.775  33.331  1.00  0.00     0.029 A 
ATOM     44  N   UNL A   1      38.979  32.242  33.363  1.00  0.00    -0.354 N 
ATOM     45  C   UNL A   1      39.518  29.500  30.071  1.00  0.00     0.074 A 
ATOM     46  C   UNL A   1      38.550  29.747  29.025  1.00  0.00     0.031 C 
ATOM     47  C   UNL A   1      38.001  33.901  34.499  1.00  0.00     0.029 A 
ATOM     48  C   UNL A   1      39.066  32.904  34.562  1.00  0.00     0.049 A 
ATOM     49  H   UNL A   1      39.579  31.505  33.109  1.00  0.00     0.167 HD
ATOM     50  C   UNL A   1      40.466  28.532  30.024  1.00  0.00     0.037 A 
ATOM     51  C   UNL A   1      39.909  32.724  35.596  1.00  0.00     0.037 A 
ATOM     52  C   UNL A   1      41.458  28.317  31.043  1.00  0.00     0.049 A 
ATOM     53  C   UNL A   1      40.956  31.648  35.516  1.00  0.00     0.074 A 
ATOM     54  C   UNL A   1      42.514  27.424  31.046  1.00  0.00     0.029 A 
ATOM     55  N   UNL A   1      41.514  29.010  32.244  1.00  0.00    -0.354 N 
ATOM     56  N   UNL A   1      41.207  30.810  34.540  1.00  0.00    -0.248 NA
ATOM     57  C   UNL A   1      41.835  31.493  36.683  1.00  0.00     0.031 C 
ATOM     58  C   UNL A   1      43.191  27.551  32.265  1.00  0.00     0.029 A 
ATOM     59  C   UNL A   1      42.575  28.548  33.006  1.00  0.00     0.049 A 
ATOM     60  H   UNL A   1      40.892  29.723  32.514  1.00  0.00     0.167 HD
ATOM     61  C   UNL A   1      42.285  30.045  34.962  1.00  0.00     0.074 A 
ATOM     62  C   UNL A   1      42.646  30.524  36.282  1.00  0.00     0.031 C 
ATOM     63  C   UNL A   1      42.921  29.040  34.314  1.00  0.00     0.037 A 
BRANCH  50  64
ATOM     64  C   UNL A   1      40.468  27.631  28.825  1.00  0.00     0.064 A 
ATOM     65  C   UNL A   1      41.253  27.909  27.696  1.00  0.00     0.173 A 
ATOM     66  C   UNL A   1      39.683  26.468  28.810  1.00  0.00     0.173 A 
ATOM     67  F   UNL A   1      42.009  29.016  27.656  1.00  0.00    -0.203 F 
ATOM     68  C   UNL A   1      41.226  27.074  26.583  1.00  0.00     0.198 A 
ATOM     69  C   UNL A   1      39.681  25.621  27.705  1.00  0.00     0.198 A 
ATOM     70  F   UNL A   1      38.920  26.154  29.867  1.00  0.00    -0.203 F 
ATOM     71  F   UNL A   1      41.944  27.387  25.494  1.00  0.00    -0.200 F 
ATOM     72  C   UNL A   1      40.444  25.929  26.589  1.00  0.00     0.200 A 
ATOM     73  F   UNL A   1      38.930  24.510  27.716  1.00  0.00    -0.200 F 
ATOM     74  F   UNL A   1      40.419  25.126  25.516  1.00  0.00    -0.200 F 
ENDBRANCH  50  64
BRANCH  51  75
ATOM     75  C   UNL A   1      39.825  33.616  36.778  1.00  0.00     0.064 A 
ATOM     76  C   UNL A   1      38.968  33.307  37.841  1.00  0.00     0.173 A 
ATOM     77  C   UNL A   1      40.606  34.776  36.879  1.00  0.00     0.173 A 
ATOM     78  F   UNL A   1      38.188  32.218  37.777  1.00  0.00    -0.203 F 
ATOM     79  C   UNL A   1      38.888  34.130  38.963  1.00  0.00     0.198 A 
ATOM     80  C   UNL A   1      40.540  35.587  38.010  1.00  0.00     0.198 A 
ATOM     81  F   UNL A   1      41.443  35.111  35.887  1.00  0.00    -0.203 F 
ATOM     82  F   UNL A   1      38.041  33.825  39.956  1.00  0.00    -0.200 F 
ATOM     83  C   UNL A   1      39.679  35.265  39.049  1.00  0.00     0.200 A 
ATOM     84  F   UNL A   1      41.313  36.678  38.096  1.00  0.00    -0.200 F 
ATOM     85  F   UNL A   1      39.610  36.051  40.132  1.00  0.00    -0.200 F 
ENDBRANCH  51  75
BRANCH  63  86
ATOM     86  C   UNL A   1      44.090  28.410  35.009  1.00  0.00     0.064 A 
ATOM     87  C   UNL A   1      43.933  27.280  35.824  1.00  0.00     0.173 A 
ATOM     88  C   UNL A   1      45.384  28.919  34.826  1.00  0.00     0.173 A 
ATOM     89  F   UNL A   1      42.712  26.768  36.041  1.00  0.00    -0.203 F 
ATOM     90  C   UNL A   1      45.031  26.692  36.447  1.00  0.00     0.198 A 
ATOM     91  C   UNL A   1      46.481  28.315  35.433  1.00  0.00     0.198 A 
ATOM     92  F   UNL A   1      45.584  29.996  34.053  1.00  0.00    -0.203 F 
ATOM     93  F   UNL A   1      44.855  25.634  37.252  1.00  0.00    -0.200 F 
ATOM     94  C   UNL A   1      46.303  27.205  36.246  1.00  0.00     0.200 A 
ATOM     95  F   UNL A   1      47.712  28.808  35.233  1.00  0.00    -0.200 F 
ATOM     96  F   UNL A   1      47.359  26.635  36.842  1.00  0.00    -0.200 F 
ENDBRANCH  63  86
ENDBRANCH  37  38
ENDBRANCH  29  32
ENDBRANCH  27  28
ENDBRANCH  26  27
ENDBRANCH   1  26
TORSDOF 14
ENDMDL
MODEL 3
REMARK VINA RESULT:     -12.2      5.138     10.435
REMARK SMILES CC1(C)CCC[C@H]1NS(=O)(=O)c1ccc(O)c(C(=O)NCCCNC(=O)c2ccc(-c3c4nc(c(-c5c(F)c(F)c(F)c(F)c5F)c5ccc([nH]5)c(-c5c(F)c(F)c(F)c(F)c5F)c5nc(c(-c6c(F)c(F)c(F)c(F)c6F)c6ccc3[nH]6)C=C5)C=C4)cc2)c1
REMARK SMILES IDX 21 1 20 2 18 3 19 4 17 6 12 7 13 8 90 9 14 10 15 11 9 12
REMARK SMILES IDX 10 13 11 14 8 15 7 17 1 18 2 19 3 20 4 21 5 22 6 23 16 24
REMARK SMILES IDX 22 26 23 27 24 28 25 29 26 31 27 32 28 33 89 34 29 35 88 36
REMARK SMILES IDX 30 37 31 38 32 39 82 40 33 41 87 42 81 43 83 44 34 45 86 46
REMARK SMILES IDX 80 47 79 48 35 50 67 51 47 52 66 53 48 54 51 55 65 56 84 57
REMARK SMILES IDX 49 58 50 59 64 61 85 62 52 63 36 64 37 65 45 66 38 67 39 68
REMARK SMILES IDX 43 69 46 70 40 71 41 72 44 73 42 74 68 75 69 76 77 77 70 78
REMARK SMILES IDX 71 79 75 80 78 81 72 82 73 83 76 84 74 85 53 86 54 87 62 88
REMARK SMILES IDX 55 89 56 90 60 91 63 92 57 93 58 94 61 95 59 96
REMARK H PARENT 20 5 8 16 16 25 24 30 83 49 51 60
REMARK Flexibility Score: inf
ROOT
ATOM      1  C   UNL A   1      31.627  30.699  26.440  1.00  0.00     0.118 C 
ENDROOT
BRANCH   1   2
ATOM      2  N   UNL A   1      32.857  30.237  27.050  1.00  0.00    -0.352 N 
ATOM      3  C   UNL A   1      33.622  29.118  26.851  1.00  0.00     0.255 C 
ATOM      4  O   UNL A   1      34.571  28.962  27.624  1.00  0.00    -0.269 OA
ATOM      5  H   UNL A   1      33.211  30.844  27.741  1.00  0.00     0.163 HD
BRANCH   3   6
ATOM      6  C   UNL A   1      33.455  28.154  25.721  1.00  0.00     0.082 A 
ATOM      7  C   UNL A   1      32.893  25.840  25.164  1.00  0.00     0.083 A 
ATOM      8  C   UNL A   1      33.170  26.074  23.824  1.00  0.00     0.025 A 
ATOM      9  C   UNL A   1      33.090  26.852  26.112  1.00  0.00     0.039 A 
ATOM     10  C   UNL A   1      33.459  27.370  23.413  1.00  0.00     0.048 A 
ATOM     11  C   UNL A   1      33.534  28.411  24.347  1.00  0.00     0.128 A 
BRANCH   7  12
ATOM     12  S   UNL A   1      32.129  24.347  25.732  1.00  0.00     0.240 S 
ATOM     13  O   UNL A   1      31.296  23.864  24.649  1.00  0.00    -0.207 OA
ATOM     14  O   UNL A   1      31.596  24.622  27.042  1.00  0.00    -0.207 OA
BRANCH  12  15
ATOM     15  N   UNL A   1      33.358  23.234  25.993  1.00  0.00    -0.208 NA
ATOM     16  H   UNL A   1      34.099  23.743  26.475  1.00  0.00     0.141 HD
BRANCH  15  17
ATOM     17  C   UNL A   1      34.018  22.492  24.906  1.00  0.00     0.075 C 
ATOM     18  C   UNL A   1      36.018  24.017  25.681  1.00  0.00     0.013 C 
ATOM     19  C   UNL A   1      35.554  22.792  24.875  1.00  0.00    -0.019 C 
ATOM     20  C   UNL A   1      36.013  23.006  23.417  1.00  0.00     0.013 C 
ATOM     21  C   UNL A   1      36.176  21.508  25.452  1.00  0.00     0.008 C 
ATOM     22  C   UNL A   1      35.286  20.398  24.926  1.00  0.00     0.002 C 
ATOM     23  C   UNL A   1      33.886  20.970  25.072  1.00  0.00     0.020 C 
ENDBRANCH  15  17
ENDBRANCH  12  15
ENDBRANCH   7  12
BRANCH  11  24
ATOM     24  O   UNL A   1      33.606  29.677  23.846  1.00  0.00    -0.507 OA
ATOM     25  H   UNL A   1      33.216  30.388  24.315  1.00  0.00     0.293 HD
ENDBRANCH  11  24
ENDBRANCH   3   6
ENDBRANCH   1   2
BRANCH   1  26
ATOM     26  C   UNL A   1      31.451  32.200  26.679  1.00  0.00     0.042 C 
BRANCH  26  27
ATOM     27  C   UNL A   1      32.754  32.913  27.012  1.00  0.00     0.118 C 
BRANCH  27  28
ATOM     28  N   UNL A   1      32.516  34.221  27.601  1.00  0.00    -0.352 N 
ATOM     29  C   UNL A   1      33.061  34.785  28.727  1.00  0.00     0.251 C 
ATOM     30  H   UNL A   1      31.868  34.786  27.119  1.00  0.00     0.163 HD
ATOM     31  O   UNL A   1      32.563  35.805  29.196  1.00  0.00    -0.269 OA
BRANCH  29  32
ATOM     32  C   UNL A   1      34.236  34.173  29.392  1.00  0.00     0.039 A 
ATOM     33  C   UNL A   1      35.516  34.538  28.962  1.00  0.00     0.014 A 
ATOM     34  C   UNL A   1      34.089  33.204  30.389  1.00  0.00     0.014 A 
ATOM     35  C   UNL A   1      36.643  33.962  29.553  1.00  0.00     0.010 A 
ATOM     36  C   UNL A   1      35.212  32.681  31.026  1.00  0.00     0.010 A 
ATOM     37  C   UNL A   1      36.500  33.041  30.602  1.00  0.00    -0.014 A 
BRANCH  37  38
ATOM     38  C   UNL A   1      37.683  32.414  31.243  1.00  0.00     0.031 A 
ATOM     39  C   UNL A   1      38.419  31.308  30.540  1.00  0.00     0.074 A 
ATOM     40  C   UNL A   1      38.061  32.798  32.477  1.00  0.00     0.049 A 
ATOM     41  N   UNL A   1      39.427  30.584  30.958  1.00  0.00    -0.248 NA
ATOM     42  C   UNL A   1      37.940  30.949  29.196  1.00  0.00     0.031 C 
ATOM     43  C   UNL A   1      37.411  33.836  33.276  1.00  0.00     0.029 A 
ATOM     44  N   UNL A   1      39.082  32.350  33.277  1.00  0.00    -0.354 N 
ATOM     45  C   UNL A   1      39.680  29.669  29.945  1.00  0.00     0.074 A 
ATOM     46  C   UNL A   1      38.700  29.904  28.907  1.00  0.00     0.031 C 
ATOM     47  C   UNL A   1      38.064  33.965  34.442  1.00  0.00     0.029 A 
ATOM     48  C   UNL A   1      39.156  32.997  34.486  1.00  0.00     0.049 A 
ATOM     49  H   UNL A   1      39.702  31.634  33.010  1.00  0.00     0.167 HD
ATOM     50  C   UNL A   1      40.654  28.729  29.879  1.00  0.00     0.037 A 
ATOM     51  C   UNL A   1      40.011  32.826  35.512  1.00  0.00     0.037 A 
ATOM     52  C   UNL A   1      41.657  28.529  30.891  1.00  0.00     0.049 A 
ATOM     53  C   UNL A   1      41.086  31.782  35.412  1.00  0.00     0.074 A 
ATOM     54  C   UNL A   1      42.739  27.666  30.876  1.00  0.00     0.029 A 
ATOM     55  N   UNL A   1      41.701  29.206  32.101  1.00  0.00    -0.354 N 
ATOM     56  N   UNL A   1      41.356  30.964  34.424  1.00  0.00    -0.248 NA
ATOM     57  C   UNL A   1      41.976  31.635  36.572  1.00  0.00     0.031 C 
ATOM     58  C   UNL A   1      43.417  27.795  32.093  1.00  0.00     0.029 A 
ATOM     59  C   UNL A   1      42.778  28.764  32.851  1.00  0.00     0.049 A 
ATOM     60  H   UNL A   1      41.061  29.898  32.384  1.00  0.00     0.167 HD
ATOM     61  C   UNL A   1      42.457  30.225  34.830  1.00  0.00     0.074 A 
ATOM     62  C   UNL A   1      42.812  30.695  36.154  1.00  0.00     0.031 C 
ATOM     63  C   UNL A   1      43.118  29.246  34.164  1.00  0.00     0.037 A 
BRANCH  50  64
ATOM     64  C   UNL A   1      40.675  27.846  28.668  1.00  0.00     0.064 A 
ATOM     65  C   UNL A   1      39.934  26.657  28.610  1.00  0.00     0.173 A 
ATOM     66  C   UNL A   1      41.438  28.200  27.545  1.00  0.00     0.173 A 
ATOM     67  F   UNL A   1      39.200  26.268  29.663  1.00  0.00    -0.203 F 
ATOM     68  C   UNL A   1      39.982  25.837  27.485  1.00  0.00     0.198 A 
ATOM     69  C   UNL A   1      41.462  27.392  26.412  1.00  0.00     0.198 A 
ATOM     70  F   UNL A   1      42.161  29.331  27.547  1.00  0.00    -0.203 F 
ATOM     71  F   UNL A   1      39.306  24.679  27.472  1.00  0.00    -0.200 F 
ATOM     72  C   UNL A   1      40.742  26.207  26.386  1.00  0.00     0.200 A 
ATOM     73  F   UNL A   1      42.191  27.754  25.346  1.00  0.00    -0.200 F 
ATOM     74  F   UNL A   1      40.788  25.416  25.305  1.00  0.00    -0.200 F 
ENDBRANCH  50  64
BRANCH  51  75
ATOM     75  C   UNL A   1      39.908  33.699  36.707  1.00  0.00     0.064 A 
ATOM     76  C   UNL A   1      40.627  34.899  36.774  1.00  0.00     0.173 A 
ATOM     77  C   UNL A   1      39.081  33.368  37.790  1.00  0.00     0.173 A 
ATOM     78  F   UNL A   1      41.445  35.246  35.769  1.00  0.00    -0.203 F 
ATOM     79  C   UNL A   1      40.530  35.735  37.885  1.00  0.00     0.198 A 
ATOM     80  C   UNL A   1      38.969  34.214  38.891  1.00  0.00     0.198 A 
ATOM     81  F   UNL A   1      38.371  32.231  37.769  1.00  0.00    -0.203 F 
ATOM     82  F   UNL A   1      41.248  36.865  37.935  1.00  0.00    -0.200 F 
ATOM     83  C   UNL A   1      39.696  35.395  38.938  1.00  0.00     0.200 A 
ATOM     84  F   UNL A   1      38.154  33.889  39.903  1.00  0.00    -0.200 F 
ATOM     85  F   UNL A   1      39.594  36.203  40.002  1.00  0.00    -0.200 F 
ENDBRANCH  51  75
BRANCH  63  86
ATOM     86  C   UNL A   1      44.307  28.640  34.844  1.00  0.00     0.064 A 
ATOM     87  C   UNL A   1      45.587  29.197  34.711  1.00  0.00     0.173 A 
ATOM     88  C   UNL A   1      44.158  27.515  35.667  1.00  0.00     0.173 A 
ATOM     89  F   UNL A   1      45.781  30.264  33.922  1.00  0.00    -0.203 F 
ATOM     90  C   UNL A   1      46.680  28.636  35.366  1.00  0.00     0.198 A 
ATOM     91  C   UNL A   1      45.250  26.969  36.337  1.00  0.00     0.198 A 
ATOM     92  F   UNL A   1      42.953  26.949  35.826  1.00  0.00    -0.203 F 
ATOM     93  F   UNL A   1      47.902  29.161  35.197  1.00  0.00    -0.200 F 
ATOM     94  C   UNL A   1      46.510  27.528  36.183  1.00  0.00     0.200 A 
ATOM     95  F   UNL A   1      45.083  25.902  37.131  1.00  0.00    -0.200 F 
ATOM     96  F   UNL A   1      47.563  26.992  36.816  1.00  0.00    -0.200 F 
ENDBRANCH  63  86
ENDBRANCH  37  38
ENDBRANCH  29  32
ENDBRANCH  27  28
ENDBRANCH  26  27
ENDBRANCH   1  26
TORSDOF 14
ENDMDL
