MODEL 1
REMARK VINA RESULT:     -13.3      0.000      0.000
REMARK SMILES CCn1c(N2CCC(C(=O)NCCCNC(=O)c3ccc(-c4c5nc(c(-c6c(F)c(F)c(F)c(F)c6F)c6ccc([nH]6)c(-c6c(F)c(F)c(F)c(F)c6F)c6nc(c(-c7c(F)c(F)c(F)c(F)c7F)c7ccc4[nH]7)C=C6)C=C5)cc3)CC2)nc2cc(C)ccc21
REMARK SMILES IDX 13 1 12 2 11 3 9 4 10 5 8 7 5 8 6 9 82 10 7 11 81 12 4 13
REMARK SMILES IDX 3 14 90 15 83 16 84 17 89 18 85 19 88 20 86 21 87 22 2 23
REMARK SMILES IDX 1 24 14 25 15 26 16 27 17 29 18 30 19 31 80 32 20 33 79 34
REMARK SMILES IDX 21 35 22 36 23 37 73 38 24 39 78 40 72 41 74 42 25 43 77 44
REMARK SMILES IDX 71 45 70 46 26 48 58 49 38 50 57 51 39 52 42 53 56 54 75 55
REMARK SMILES IDX 40 56 41 57 55 59 76 60 43 61 27 62 28 63 36 64 29 65 30 66
REMARK SMILES IDX 34 67 37 68 31 69 32 70 35 71 33 72 59 73 60 74 68 75 61 76
REMARK SMILES IDX 62 77 66 78 69 79 63 80 64 81 67 82 65 83 44 84 45 85 53 86
REMARK SMILES IDX 46 87 47 88 51 89 54 90 48 91 49 92 52 93 50 94
REMARK H PARENT 11 6 15 28 74 47 42 58
REMARK Flexibility Score: inf
ROOT
ATOM      1  C   UNL A   1      36.139  22.128  25.806  1.00  0.00     0.042 C 
ENDROOT
BRANCH   1   2
ATOM      2  C   UNL A   1      34.819  22.177  25.040  1.00  0.00     0.117 C 
BRANCH   2   3
ATOM      3  N   UNL A   1      34.038  20.957  25.174  1.00  0.00    -0.356 N 
ATOM      4  C   UNL A   1      32.698  20.735  25.114  1.00  0.00     0.223 C 
ATOM      5  O   UNL A   1      32.315  19.564  25.214  1.00  0.00    -0.275 OA
ATOM      6  H   UNL A   1      34.575  20.149  25.338  1.00  0.00     0.163 HD
BRANCH   4   7
ATOM      7  C   UNL A   1      31.682  21.853  24.934  1.00  0.00     0.082 C 
ATOM      8  N   UNL A   1      30.938  24.613  24.816  1.00  0.00    -0.342 N 
ATOM      9  C   UNL A   1      30.557  23.841  25.994  1.00  0.00     0.120 C 
ATOM     10  C   UNL A   1      31.000  23.885  23.556  1.00  0.00     0.120 C 
ATOM     11  C   UNL A   1      31.517  22.682  26.211  1.00  0.00     0.035 C 
ATOM     12  C   UNL A   1      31.933  22.680  23.665  1.00  0.00     0.035 C 
BRANCH   8  13
ATOM     13  C   UNL A   1      31.703  25.714  25.009  1.00  0.00     0.206 A 
ATOM     14  N   UNL A   1      31.256  26.977  24.676  1.00  0.00    -0.310 N 
ATOM     15  C   UNL A   1      32.111  27.891  25.255  1.00  0.00     0.070 A 
ATOM     16  N   UNL A   1      32.830  25.770  25.681  1.00  0.00    -0.213 NA
ATOM     17  C   UNL A   1      33.084  27.103  25.861  1.00  0.00     0.091 A 
ATOM     18  C   UNL A   1      32.108  29.288  25.344  1.00  0.00     0.029 A 
ATOM     19  C   UNL A   1      34.110  27.714  26.592  1.00  0.00     0.034 A 
ATOM     20  C   UNL A   1      33.126  29.881  26.095  1.00  0.00     0.006 A 
ATOM     21  C   UNL A   1      34.104  29.110  26.735  1.00  0.00    -0.049 A 
ATOM     22  C   UNL A   1      35.147  29.754  27.590  1.00  0.00     0.044 C 
BRANCH  14  23
ATOM     23  C   UNL A   1      29.991  27.311  24.049  1.00  0.00     0.122 C 
ATOM     24  C   UNL A   1      30.135  27.826  22.626  1.00  0.00     0.028 C 
ENDBRANCH  14  23
ENDBRANCH   8  13
ENDBRANCH   4   7
ENDBRANCH   2   3
ENDBRANCH   1   2
BRANCH   1  25
ATOM     25  C   UNL A   1      37.391  22.090  24.931  1.00  0.00     0.118 C 
BRANCH  25  26
ATOM     26  N   UNL A   1      38.542  21.444  25.538  1.00  0.00    -0.352 N 
ATOM     27  C   UNL A   1      39.454  21.781  26.498  1.00  0.00     0.251 C 
ATOM     28  H   UNL A   1      38.705  20.546  25.168  1.00  0.00     0.163 HD
ATOM     29  O   UNL A   1      40.181  20.860  26.893  1.00  0.00    -0.269 OA
BRANCH  27  30
ATOM     30  C   UNL A   1      39.687  23.145  27.046  1.00  0.00     0.039 A 
ATOM     31  C   UNL A   1      38.900  24.265  26.796  1.00  0.00     0.014 A 
ATOM     32  C   UNL A   1      40.851  23.311  27.829  1.00  0.00     0.014 A 
ATOM     33  C   UNL A   1      39.319  25.523  27.226  1.00  0.00     0.010 A 
ATOM     34  C   UNL A   1      41.262  24.564  28.283  1.00  0.00     0.010 A 
ATOM     35  C   UNL A   1      40.514  25.682  27.945  1.00  0.00    -0.014 A 
BRANCH  35  36
ATOM     36  C   UNL A   1      40.822  27.021  28.457  1.00  0.00     0.031 A 
ATOM     37  C   UNL A   1      42.042  27.604  27.840  1.00  0.00     0.074 A 
ATOM     38  C   UNL A   1      40.095  27.733  29.346  1.00  0.00     0.049 A 
ATOM     39  N   UNL A   1      43.178  27.798  28.422  1.00  0.00    -0.248 NA
ATOM     40  C   UNL A   1      42.063  27.855  26.392  1.00  0.00     0.031 C 
ATOM     41  C   UNL A   1      38.743  27.438  29.822  1.00  0.00     0.029 A 
ATOM     42  N   UNL A   1      40.378  28.931  29.959  1.00  0.00    -0.354 N 
ATOM     43  C   UNL A   1      43.999  28.397  27.471  1.00  0.00     0.074 A 
ATOM     44  C   UNL A   1      43.324  28.258  26.209  1.00  0.00     0.031 C 
ATOM     45  C   UNL A   1      38.240  28.528  30.448  1.00  0.00     0.029 A 
ATOM     46  C   UNL A   1      39.275  29.544  30.548  1.00  0.00     0.049 A 
ATOM     47  H   UNL A   1      41.282  29.321  29.980  1.00  0.00     0.167 HD
ATOM     48  C   UNL A   1      45.013  29.209  27.876  1.00  0.00     0.037 A 
ATOM     49  C   UNL A   1      39.200  30.806  31.045  1.00  0.00     0.037 A 
ATOM     50  C   UNL A   1      45.273  29.030  29.283  1.00  0.00     0.049 A 
ATOM     51  C   UNL A   1      40.566  31.270  31.367  1.00  0.00     0.074 A 
ATOM     52  C   UNL A   1      45.898  28.119  30.103  1.00  0.00     0.029 A 
ATOM     53  N   UNL A   1      44.453  29.784  30.070  1.00  0.00    -0.354 N 
ATOM     54  N   UNL A   1      41.255  30.843  32.383  1.00  0.00    -0.248 NA
ATOM     55  C   UNL A   1      41.317  32.041  30.382  1.00  0.00     0.031 C 
ATOM     56  C   UNL A   1      45.342  28.305  31.408  1.00  0.00     0.029 A 
ATOM     57  C   UNL A   1      44.425  29.351  31.362  1.00  0.00     0.049 A 
ATOM     58  H   UNL A   1      43.936  30.556  29.740  1.00  0.00     0.167 HD
ATOM     59  C   UNL A   1      42.556  30.862  31.929  1.00  0.00     0.074 A 
ATOM     60  C   UNL A   1      42.556  31.793  30.809  1.00  0.00     0.031 C 
ATOM     61  C   UNL A   1      43.406  29.846  32.258  1.00  0.00     0.037 A 
BRANCH  48  62
ATOM     62  C   UNL A   1      45.368  30.532  27.215  1.00  0.00     0.064 A 
ATOM     63  C   UNL A   1      46.725  30.796  26.921  1.00  0.00     0.173 A 
ATOM     64  C   UNL A   1      44.519  31.661  27.206  1.00  0.00     0.173 A 
ATOM     65  F   UNL A   1      47.629  29.805  26.922  1.00  0.00    -0.203 F 
ATOM     66  C   UNL A   1      47.202  32.096  26.721  1.00  0.00     0.198 A 
ATOM     67  C   UNL A   1      44.993  32.950  26.960  1.00  0.00     0.198 A 
ATOM     68  F   UNL A   1      43.230  31.588  27.552  1.00  0.00    -0.203 F 
ATOM     69  F   UNL A   1      48.517  32.309  26.576  1.00  0.00    -0.200 F 
ATOM     70  C   UNL A   1      46.337  33.172  26.750  1.00  0.00     0.200 A 
ATOM     71  F   UNL A   1      44.142  33.984  27.021  1.00  0.00    -0.200 F 
ATOM     72  F   UNL A   1      46.799  34.424  26.627  1.00  0.00    -0.200 F 
ENDBRANCH  48  62
BRANCH  49  73
ATOM     73  C   UNL A   1      38.060  31.756  31.098  1.00  0.00     0.064 A 
ATOM     74  C   UNL A   1      37.412  32.175  29.920  1.00  0.00     0.173 A 
ATOM     75  C   UNL A   1      37.379  31.996  32.304  1.00  0.00     0.173 A 
ATOM     76  F   UNL A   1      37.980  31.967  28.723  1.00  0.00    -0.203 F 
ATOM     77  C   UNL A   1      36.130  32.732  29.944  1.00  0.00     0.198 A 
ATOM     78  C   UNL A   1      36.101  32.559  32.327  1.00  0.00     0.198 A 
ATOM     79  F   UNL A   1      37.892  31.589  33.474  1.00  0.00    -0.203 F 
ATOM     80  F   UNL A   1      35.509  33.032  28.794  1.00  0.00    -0.200 F 
ATOM     81  C   UNL A   1      35.468  32.904  31.147  1.00  0.00     0.200 A 
ATOM     82  F   UNL A   1      35.456  32.693  33.495  1.00  0.00    -0.200 F 
ATOM     83  F   UNL A   1      34.205  33.355  31.166  1.00  0.00    -0.200 F 
ENDBRANCH  49  73
BRANCH  61  84
ATOM     84  C   UNL A   1      43.167  29.159  33.565  1.00  0.00     0.064 A 
ATOM     85  C   UNL A   1      43.717  29.551  34.796  1.00  0.00     0.173 A 
ATOM     86  C   UNL A   1      42.330  28.032  33.559  1.00  0.00     0.173 A 
ATOM     87  F   UNL A   1      44.411  30.694  34.915  1.00  0.00    -0.203 F 
ATOM     88  C   UNL A   1      43.509  28.794  35.948  1.00  0.00     0.198 A 
ATOM     89  C   UNL A   1      42.073  27.317  34.722  1.00  0.00     0.198 A 
ATOM     90  F   UNL A   1      41.740  27.635  32.422  1.00  0.00    -0.203 F 
ATOM     91  F   UNL A   1      44.050  29.182  37.112  1.00  0.00    -0.200 F 
ATOM     92  C   UNL A   1      42.684  27.681  35.910  1.00  0.00     0.200 A 
ATOM     93  F   UNL A   1      41.213  26.290  34.695  1.00  0.00    -0.200 F 
ATOM     94  F   UNL A   1      42.418  27.004  37.036  1.00  0.00    -0.200 F 
ENDBRANCH  61  84
ENDBRANCH  35  36
ENDBRANCH  27  30
ENDBRANCH  25  26
ENDBRANCH   1  25
TORSDOF 12
ENDMDL
MODEL 2
REMARK VINA RESULT:     -13.1      3.085      8.518
REMARK SMILES CCn1c(N2CCC(C(=O)NCCCNC(=O)c3ccc(-c4c5nc(c(-c6c(F)c(F)c(F)c(F)c6F)c6ccc([nH]6)c(-c6c(F)c(F)c(F)c(F)c6F)c6nc(c(-c7c(F)c(F)c(F)c(F)c7F)c7ccc4[nH]7)C=C6)C=C5)cc3)CC2)nc2cc(C)ccc21
REMARK SMILES IDX 13 1 12 2 11 3 9 4 10 5 8 7 5 8 6 9 82 10 7 11 81 12 4 13
REMARK SMILES IDX 3 14 90 15 83 16 84 17 89 18 85 19 88 20 86 21 87 22 2 23
REMARK SMILES IDX 1 24 14 25 15 26 16 27 17 29 18 30 19 31 80 32 20 33 79 34
REMARK SMILES IDX 21 35 22 36 23 37 73 38 24 39 78 40 72 41 74 42 25 43 77 44
REMARK SMILES IDX 71 45 70 46 26 48 58 49 38 50 57 51 39 52 42 53 56 54 75 55
REMARK SMILES IDX 40 56 41 57 55 59 76 60 43 61 27 62 28 63 36 64 29 65 30 66
REMARK SMILES IDX 34 67 37 68 31 69 32 70 35 71 33 72 59 73 60 74 68 75 61 76
REMARK SMILES IDX 62 77 66 78 69 79 63 80 64 81 67 82 65 83 44 84 45 85 53 86
REMARK SMILES IDX 46 87 47 88 51 89 54 90 48 91 49 92 52 93 50 94
REMARK H PARENT 11 6 15 28 74 47 42 58
REMARK Flexibility Score: inf
ROOT
ATOM      1  C   UNL A   1      34.416  30.886  27.563  1.00  0.00     0.042 C 
ENDROOT
BRANCH   1   2
ATOM      2  C   UNL A   1      33.138  30.550  26.798  1.00  0.00     0.117 C 
BRANCH   2   3
ATOM      3  N   UNL A   1      32.250  29.664  27.536  1.00  0.00    -0.356 N 
ATOM      4  C   UNL A   1      31.735  28.445  27.226  1.00  0.00     0.223 C 
ATOM      5  O   UNL A   1      31.037  27.893  28.084  1.00  0.00    -0.275 OA
ATOM      6  H   UNL A   1      31.973  30.009  28.415  1.00  0.00     0.163 HD
BRANCH   4   7
ATOM      7  C   UNL A   1      31.981  27.757  25.892  1.00  0.00     0.082 C 
ATOM      8  N   UNL A   1      33.207  25.756  24.255  1.00  0.00    -0.342 N 
ATOM      9  C   UNL A   1      33.689  27.130  24.151  1.00  0.00     0.120 C 
ATOM     10  C   UNL A   1      31.796  25.587  24.569  1.00  0.00     0.120 C 
ATOM     11  C   UNL A   1      33.441  27.886  25.446  1.00  0.00     0.035 C 
ATOM     12  C   UNL A   1      31.428  26.325  25.856  1.00  0.00     0.035 C 
BRANCH   8  13
ATOM     13  C   UNL A   1      34.105  24.803  24.599  1.00  0.00     0.206 A 
ATOM     14  N   UNL A   1      34.344  23.706  23.794  1.00  0.00    -0.310 N 
ATOM     15  C   UNL A   1      35.492  23.094  24.250  1.00  0.00     0.070 A 
ATOM     16  N   UNL A   1      34.971  24.868  25.583  1.00  0.00    -0.213 NA
ATOM     17  C   UNL A   1      35.846  23.837  25.371  1.00  0.00     0.091 A 
ATOM     18  C   UNL A   1      36.259  22.020  23.783  1.00  0.00     0.029 A 
ATOM     19  C   UNL A   1      37.012  23.511  26.075  1.00  0.00     0.034 A 
ATOM     20  C   UNL A   1      37.432  21.722  24.483  1.00  0.00     0.006 A 
ATOM     21  C   UNL A   1      37.824  22.469  25.601  1.00  0.00    -0.049 A 
ATOM     22  C   UNL A   1      39.113  22.182  26.299  1.00  0.00     0.044 C 
BRANCH  14  23
ATOM     23  C   UNL A   1      33.675  23.383  22.548  1.00  0.00     0.122 C 
ATOM     24  C   UNL A   1      32.621  22.297  22.689  1.00  0.00     0.028 C 
ENDBRANCH  14  23
ENDBRANCH   8  13
ENDBRANCH   4   7
ENDBRANCH   2   3
ENDBRANCH   1   2
BRANCH   1  25
ATOM     25  C   UNL A   1      34.451  32.285  28.177  1.00  0.00     0.118 C 
BRANCH  25  26
ATOM     26  N   UNL A   1      34.256  32.328  29.616  1.00  0.00    -0.352 N 
ATOM     27  C   UNL A   1      35.032  32.077  30.711  1.00  0.00     0.251 C 
ATOM     28  H   UNL A   1      33.343  32.606  29.861  1.00  0.00     0.163 HD
ATOM     29  O   UNL A   1      34.556  32.432  31.799  1.00  0.00    -0.269 OA
BRANCH  27  30
ATOM     30  C   UNL A   1      36.341  31.367  30.716  1.00  0.00     0.039 A 
ATOM     31  C   UNL A   1      37.592  31.975  30.724  1.00  0.00     0.014 A 
ATOM     32  C   UNL A   1      36.285  29.958  30.635  1.00  0.00     0.014 A 
ATOM     33  C   UNL A   1      38.742  31.206  30.552  1.00  0.00     0.010 A 
ATOM     34  C   UNL A   1      37.434  29.182  30.488  1.00  0.00     0.010 A 
ATOM     35  C   UNL A   1      38.667  29.812  30.404  1.00  0.00    -0.014 A 
BRANCH  35  36
ATOM     36  C   UNL A   1      39.930  29.070  30.343  1.00  0.00     0.031 A 
ATOM     37  C   UNL A   1      40.569  28.915  31.676  1.00  0.00     0.074 A 
ATOM     38  C   UNL A   1      40.486  28.510  29.246  1.00  0.00     0.049 A 
ATOM     39  N   UNL A   1      41.648  29.495  32.082  1.00  0.00    -0.248 NA
ATOM     40  C   UNL A   1      39.863  28.165  32.725  1.00  0.00     0.031 C 
ATOM     41  C   UNL A   1      39.862  28.320  27.936  1.00  0.00     0.029 A 
ATOM     42  N   UNL A   1      41.713  27.909  29.088  1.00  0.00    -0.354 N 
ATOM     43  C   UNL A   1      41.879  29.018  33.369  1.00  0.00     0.074 A 
ATOM     44  C   UNL A   1      40.677  28.340  33.771  1.00  0.00     0.031 C 
ATOM     45  C   UNL A   1      40.605  27.456  27.206  1.00  0.00     0.029 A 
ATOM     46  C   UNL A   1      41.827  27.143  27.930  1.00  0.00     0.049 A 
ATOM     47  H   UNL A   1      42.447  28.011  29.736  1.00  0.00     0.167 HD
ATOM     48  C   UNL A   1      43.151  28.977  33.851  1.00  0.00     0.037 A 
ATOM     49  C   UNL A   1      42.827  26.285  27.603  1.00  0.00     0.037 A 
ATOM     50  C   UNL A   1      44.027  29.780  33.034  1.00  0.00     0.049 A 
ATOM     51  C   UNL A   1      44.035  26.652  28.372  1.00  0.00     0.074 A 
ATOM     52  C   UNL A   1      44.319  31.110  32.844  1.00  0.00     0.029 A 
ATOM     53  N   UNL A   1      44.496  29.105  31.945  1.00  0.00    -0.354 N 
ATOM     54  N   UNL A   1      44.765  27.698  28.118  1.00  0.00    -0.248 NA
ATOM     55  C   UNL A   1      44.310  25.991  29.644  1.00  0.00     0.031 C 
ATOM     56  C   UNL A   1      44.907  31.212  31.543  1.00  0.00     0.029 A 
ATOM     57  C   UNL A   1      44.998  29.937  30.990  1.00  0.00     0.049 A 
ATOM     58  H   UNL A   1      44.474  28.123  31.859  1.00  0.00     0.167 HD
ATOM     59  C   UNL A   1      45.212  28.095  29.360  1.00  0.00     0.074 A 
ATOM     60  C   UNL A   1      45.092  26.915  30.205  1.00  0.00     0.031 C 
ATOM     61  C   UNL A   1      45.271  29.423  29.668  1.00  0.00     0.037 A 
BRANCH  48  62
ATOM     62  C   UNL A   1      43.730  27.819  34.648  1.00  0.00     0.064 A 
ATOM     63  C   UNL A   1      43.622  26.513  34.117  1.00  0.00     0.173 A 
ATOM     64  C   UNL A   1      44.034  27.885  36.026  1.00  0.00     0.173 A 
ATOM     65  F   UNL A   1      43.314  26.325  32.825  1.00  0.00    -0.203 F 
ATOM     66  C   UNL A   1      43.723  25.374  34.922  1.00  0.00     0.198 A 
ATOM     67  C   UNL A   1      44.181  26.743  36.814  1.00  0.00     0.198 A 
ATOM     68  F   UNL A   1      44.081  29.043  36.692  1.00  0.00    -0.203 F 
ATOM     69  F   UNL A   1      43.482  24.164  34.399  1.00  0.00    -0.200 F 
ATOM     70  C   UNL A   1      43.994  25.491  36.272  1.00  0.00     0.200 A 
ATOM     71  F   UNL A   1      44.415  26.879  38.128  1.00  0.00    -0.200 F 
ATOM     72  F   UNL A   1      44.025  24.407  37.059  1.00  0.00    -0.200 F 
ENDBRANCH  48  62
BRANCH  49  73
ATOM     73  C   UNL A   1      42.800  25.025  26.818  1.00  0.00     0.064 A 
ATOM     74  C   UNL A   1      43.500  24.916  25.601  1.00  0.00     0.173 A 
ATOM     75  C   UNL A   1      42.380  23.820  27.406  1.00  0.00     0.173 A 
ATOM     76  F   UNL A   1      43.956  26.014  24.980  1.00  0.00    -0.203 F 
ATOM     77  C   UNL A   1      43.822  23.674  25.046  1.00  0.00     0.198 A 
ATOM     78  C   UNL A   1      42.697  22.580  26.847  1.00  0.00     0.198 A 
ATOM     79  F   UNL A   1      41.752  23.817  28.590  1.00  0.00    -0.203 F 
ATOM     80  F   UNL A   1      44.570  23.611  23.935  1.00  0.00    -0.200 F 
ATOM     81  C   UNL A   1      43.438  22.507  25.682  1.00  0.00     0.200 A 
ATOM     82  F   UNL A   1      42.347  21.455  27.487  1.00  0.00    -0.200 F 
ATOM     83  F   UNL A   1      43.821  21.315  25.200  1.00  0.00    -0.200 F 
ENDBRANCH  49  73
BRANCH  61  84
ATOM     84  C   UNL A   1      45.516  30.371  28.537  1.00  0.00     0.064 A 
ATOM     85  C   UNL A   1      46.782  30.749  28.061  1.00  0.00     0.173 A 
ATOM     86  C   UNL A   1      44.394  30.928  27.905  1.00  0.00     0.173 A 
ATOM     87  F   UNL A   1      47.900  30.160  28.513  1.00  0.00    -0.203 F 
ATOM     88  C   UNL A   1      46.914  31.709  27.059  1.00  0.00     0.198 A 
ATOM     89  C   UNL A   1      44.528  31.836  26.863  1.00  0.00     0.198 A 
ATOM     90  F   UNL A   1      43.158  30.571  28.286  1.00  0.00    -0.203 F 
ATOM     91  F   UNL A   1      48.132  32.062  26.624  1.00  0.00    -0.200 F 
ATOM     92  C   UNL A   1      45.786  32.248  26.458  1.00  0.00     0.200 A 
ATOM     93  F   UNL A   1      43.436  32.294  26.235  1.00  0.00    -0.200 F 
ATOM     94  F   UNL A   1      45.915  33.109  25.438  1.00  0.00    -0.200 F 
ENDBRANCH  61  84
ENDBRANCH  35  36
ENDBRANCH  27  30
ENDBRANCH  25  26
ENDBRANCH   1  25
TORSDOF 12
ENDMDL
MODEL 3
REMARK VINA RESULT:     -13.0      4.011      7.558
REMARK SMILES CCn1c(N2CCC(C(=O)NCCCNC(=O)c3ccc(-c4c5nc(c(-c6c(F)c(F)c(F)c(F)c6F)c6ccc([nH]6)c(-c6c(F)c(F)c(F)c(F)c6F)c6nc(c(-c7c(F)c(F)c(F)c(F)c7F)c7ccc4[nH]7)C=C6)C=C5)cc3)CC2)nc2cc(C)ccc21
REMARK SMILES IDX 13 1 12 2 11 3 9 4 10 5 8 7 5 8 6 9 82 10 7 11 81 12 4 13
REMARK SMILES IDX 3 14 90 15 83 16 84 17 89 18 85 19 88 20 86 21 87 22 2 23
REMARK SMILES IDX 1 24 14 25 15 26 16 27 17 29 18 30 19 31 80 32 20 33 79 34
REMARK SMILES IDX 21 35 22 36 23 37 73 38 24 39 78 40 72 41 74 42 25 43 77 44
REMARK SMILES IDX 71 45 70 46 26 48 58 49 38 50 57 51 39 52 42 53 56 54 75 55
REMARK SMILES IDX 40 56 41 57 55 59 76 60 43 61 27 62 28 63 36 64 29 65 30 66
REMARK SMILES IDX 34 67 37 68 31 69 32 70 35 71 33 72 59 73 60 74 68 75 61 76
REMARK SMILES IDX 62 77 66 78 69 79 63 80 64 81 67 82 65 83 44 84 45 85 53 86
REMARK SMILES IDX 46 87 47 88 51 89 54 90 48 91 49 92 52 93 50 94
REMARK H PARENT 11 6 15 28 74 47 42 58
REMARK Flexibility Score: inf
ROOT
ATOM      1  C   UNL A   1      42.585  18.876  26.831  1.00  0.00     0.042 C 
ENDROOT
BRANCH   1   2
ATOM      2  C   UNL A   1      43.192  19.277  25.489  1.00  0.00     0.117 C 
BRANCH   2   3
ATOM      3  N   UNL A   1      44.631  19.071  25.431  1.00  0.00    -0.356 N 
ATOM      4  C   UNL A   1      45.660  19.947  25.285  1.00  0.00     0.223 C 
ATOM      5  O   UNL A   1      46.805  19.484  25.324  1.00  0.00    -0.275 OA
ATOM      6  H   UNL A   1      44.909  18.130  25.513  1.00  0.00     0.163 HD
BRANCH   4   7
ATOM      7  C   UNL A   1      45.452  21.439  25.077  1.00  0.00     0.082 C 
ATOM      8  N   UNL A   1      46.162  24.182  25.478  1.00  0.00    -0.342 N 
ATOM      9  C   UNL A   1      44.995  23.657  26.179  1.00  0.00     0.120 C 
ATOM     10  C   UNL A   1      46.448  23.604  24.173  1.00  0.00     0.120 C 
ATOM     11  C   UNL A   1      45.124  22.157  26.390  1.00  0.00     0.035 C 
ATOM     12  C   UNL A   1      46.584  22.085  24.264  1.00  0.00     0.035 C 
BRANCH   8  13
ATOM     13  C   UNL A   1      47.161  24.706  26.229  1.00  0.00     0.206 A 
ATOM     14  N   UNL A   1      47.873  25.815  25.818  1.00  0.00    -0.310 N 
ATOM     15  C   UNL A   1      48.592  26.276  26.900  1.00  0.00     0.070 A 
ATOM     16  N   UNL A   1      47.454  24.384  27.467  1.00  0.00    -0.213 NA
ATOM     17  C   UNL A   1      48.316  25.353  27.904  1.00  0.00     0.091 A 
ATOM     18  C   UNL A   1      49.401  27.399  27.109  1.00  0.00     0.029 A 
ATOM     19  C   UNL A   1      48.862  25.538  29.180  1.00  0.00     0.034 A 
ATOM     20  C   UNL A   1      49.919  27.582  28.394  1.00  0.00     0.006 A 
ATOM     21  C   UNL A   1      49.638  26.681  29.429  1.00  0.00    -0.049 A 
ATOM     22  C   UNL A   1      50.143  26.924  30.813  1.00  0.00     0.044 C 
BRANCH  14  23
ATOM     23  C   UNL A   1      47.718  26.530  24.565  1.00  0.00     0.122 C 
ATOM     24  C   UNL A   1      46.628  27.588  24.600  1.00  0.00     0.028 C 
ENDBRANCH  14  23
ENDBRANCH   8  13
ENDBRANCH   4   7
ENDBRANCH   2   3
ENDBRANCH   1   2
BRANCH   1  25
ATOM     25  C   UNL A   1      41.778  19.972  27.528  1.00  0.00     0.118 C 
BRANCH  25  26
ATOM     26  N   UNL A   1      40.542  20.339  26.862  1.00  0.00    -0.352 N 
ATOM     27  C   UNL A   1      39.946  21.511  26.491  1.00  0.00     0.251 C 
ATOM     28  H   UNL A   1      40.001  19.553  26.616  1.00  0.00     0.163 HD
ATOM     29  O   UNL A   1      38.965  21.401  25.743  1.00  0.00    -0.269 OA
BRANCH  27  30
ATOM     30  C   UNL A   1      40.326  22.874  26.956  1.00  0.00     0.039 A 
ATOM     31  C   UNL A   1      41.474  23.194  27.674  1.00  0.00     0.014 A 
ATOM     32  C   UNL A   1      39.394  23.903  26.696  1.00  0.00     0.014 A 
ATOM     33  C   UNL A   1      41.633  24.474  28.202  1.00  0.00     0.010 A 
ATOM     34  C   UNL A   1      39.560  25.192  27.201  1.00  0.00     0.010 A 
ATOM     35  C   UNL A   1      40.665  25.469  27.993  1.00  0.00    -0.014 A 
BRANCH  35  36
ATOM     36  C   UNL A   1      40.964  26.818  28.485  1.00  0.00     0.031 A 
ATOM     37  C   UNL A   1      42.137  27.428  27.806  1.00  0.00     0.074 A 
ATOM     38  C   UNL A   1      40.266  27.514  29.409  1.00  0.00     0.049 A 
ATOM     39  N   UNL A   1      43.296  27.653  28.329  1.00  0.00    -0.248 NA
ATOM     40  C   UNL A   1      42.077  27.675  26.358  1.00  0.00     0.031 C 
ATOM     41  C   UNL A   1      38.947  27.187  29.954  1.00  0.00     0.029 A 
ATOM     42  N   UNL A   1      40.549  28.721  30.003  1.00  0.00    -0.354 N 
ATOM     43  C   UNL A   1      44.052  28.268  27.336  1.00  0.00     0.074 A 
ATOM     44  C   UNL A   1      43.317  28.108  26.111  1.00  0.00     0.031 C 
ATOM     45  C   UNL A   1      38.449  28.267  30.601  1.00  0.00     0.029 A 
ATOM     46  C   UNL A   1      39.463  29.309  30.646  1.00  0.00     0.049 A 
ATOM     47  H   UNL A   1      41.443  29.134  29.978  1.00  0.00     0.167 HD
ATOM     48  C   UNL A   1      45.064  29.107  27.687  1.00  0.00     0.037 A 
ATOM     49  C   UNL A   1      39.381  30.570  31.144  1.00  0.00     0.037 A 
ATOM     50  C   UNL A   1      45.400  28.940  29.079  1.00  0.00     0.049 A 
ATOM     51  C   UNL A   1      40.749  31.070  31.394  1.00  0.00     0.074 A 
ATOM     52  C   UNL A   1      46.088  28.049  29.869  1.00  0.00     0.029 A 
ATOM     53  N   UNL A   1      44.601  29.677  29.905  1.00  0.00    -0.354 N 
ATOM     54  N   UNL A   1      41.500  30.664  32.375  1.00  0.00    -0.248 NA
ATOM     55  C   UNL A   1      41.430  31.856  30.370  1.00  0.00     0.031 C 
ATOM     56  C   UNL A   1      45.595  28.226  31.200  1.00  0.00     0.029 A 
ATOM     57  C   UNL A   1      44.650  29.248  31.198  1.00  0.00     0.049 A 
ATOM     58  H   UNL A   1      44.050  30.434  29.600  1.00  0.00     0.167 HD
ATOM     59  C   UNL A   1      42.775  30.714  31.855  1.00  0.00     0.074 A 
ATOM     60  C   UNL A   1      42.695  31.640  30.734  1.00  0.00     0.031 C 
ATOM     61  C   UNL A   1      43.666  29.721  32.144  1.00  0.00     0.037 A 
BRANCH  48  62
ATOM     62  C   UNL A   1      45.352  30.436  27.006  1.00  0.00     0.064 A 
ATOM     63  C   UNL A   1      46.699  30.806  26.789  1.00  0.00     0.173 A 
ATOM     64  C   UNL A   1      44.415  31.488  26.904  1.00  0.00     0.173 A 
ATOM     65  F   UNL A   1      47.680  29.895  26.881  1.00  0.00    -0.203 F 
ATOM     66  C   UNL A   1      47.079  32.135  26.576  1.00  0.00     0.198 A 
ATOM     67  C   UNL A   1      44.797  32.806  26.645  1.00  0.00     0.198 A 
ATOM     68  F   UNL A   1      43.116  31.317  27.170  1.00  0.00    -0.203 F 
ATOM     69  F   UNL A   1      48.379  32.454  26.508  1.00  0.00    -0.200 F 
ATOM     70  C   UNL A   1      46.128  33.135  26.513  1.00  0.00     0.200 A 
ATOM     71  F   UNL A   1      43.861  33.766  26.616  1.00  0.00    -0.200 F 
ATOM     72  F   UNL A   1      46.492  34.417  26.378  1.00  0.00    -0.200 F 
ENDBRANCH  48  62
BRANCH  49  73
ATOM     73  C   UNL A   1      38.222  31.492  31.252  1.00  0.00     0.064 A 
ATOM     74  C   UNL A   1      37.536  31.930  30.103  1.00  0.00     0.173 A 
ATOM     75  C   UNL A   1      37.565  31.680  32.480  1.00  0.00     0.173 A 
ATOM     76  F   UNL A   1      38.079  31.771  28.887  1.00  0.00    -0.203 F 
ATOM     77  C   UNL A   1      36.243  32.457  30.173  1.00  0.00     0.198 A 
ATOM     78  C   UNL A   1      36.276  32.212  32.550  1.00  0.00     0.198 A 
ATOM     79  F   UNL A   1      38.114  31.250  33.624  1.00  0.00    -0.203 F 
ATOM     80  F   UNL A   1      35.588  32.776  29.048  1.00  0.00    -0.200 F 
ATOM     81  C   UNL A   1      35.606  32.577  31.395  1.00  0.00     0.200 A 
ATOM     82  F   UNL A   1      35.656  32.297  33.736  1.00  0.00    -0.200 F 
ATOM     83  F   UNL A   1      34.335  32.999  31.459  1.00  0.00    -0.200 F 
ENDBRANCH  49  73
BRANCH  61  84
ATOM     84  C   UNL A   1      43.511  29.033  33.463  1.00  0.00     0.064 A 
ATOM     85  C   UNL A   1      44.110  29.445  34.663  1.00  0.00     0.173 A 
ATOM     86  C   UNL A   1      42.706  27.884  33.502  1.00  0.00     0.173 A 
ATOM     87  F   UNL A   1      44.777  30.607  34.745  1.00  0.00    -0.203 F 
ATOM     88  C   UNL A   1      43.980  28.688  35.826  1.00  0.00     0.198 A 
ATOM     89  C   UNL A   1      42.527  27.167  34.678  1.00  0.00     0.198 A 
ATOM     90  F   UNL A   1      42.071  27.465  32.396  1.00  0.00    -0.203 F 
ATOM     91  F   UNL A   1      44.567  29.096  36.961  1.00  0.00    -0.200 F 
ATOM     92  C   UNL A   1      43.185  27.553  35.833  1.00  0.00     0.200 A 
ATOM     93  F   UNL A   1      41.695  26.116  34.696  1.00  0.00    -0.200 F 
ATOM     94  F   UNL A   1      42.994  26.872  36.973  1.00  0.00    -0.200 F 
ENDBRANCH  61  84
ENDBRANCH  35  36
ENDBRANCH  27  30
ENDBRANCH  25  26
ENDBRANCH   1  25
TORSDOF 12
ENDMDL
