MODEL 1
REMARK VINA RESULT:     -12.8      0.000      0.000
REMARK SMILES O=C(NCCCNC(=O)[C@H]1C[C@H]2CCCC[C@@H]2[N@@H+]1CC[C@@H]1CCCO1)c1ccc(-c2c3nc(c(-c4c(F)c(F)c(F)c(F)c4F)c4ccc([nH]4)c(-c4c(F)c(F)c(F)c(F)c4F)c4nc(c(-c5c(F)c(F)c(F)c(F)c5F)c5ccc2[nH]5)C=C4)C=C3)cc1
REMARK SMILES IDX 5 1 4 2 3 3 1 4 2 5 26 7 27 8 88 9 28 10 87 11 29 12 30 13
REMARK SMILES IDX 31 14 81 15 32 16 86 17 80 18 82 19 33 20 85 21 79 22 78 23
REMARK SMILES IDX 34 25 66 26 46 27 65 28 47 29 50 30 64 31 83 32 48 33 49 34
REMARK SMILES IDX 63 36 84 37 51 38 35 39 36 40 44 41 37 42 38 43 42 44 45 45
REMARK SMILES IDX 39 46 40 47 43 48 41 49 67 50 68 51 76 52 69 53 70 54 74 55
REMARK SMILES IDX 77 56 71 57 72 58 75 59 73 60 52 61 53 62 61 63 54 64 55 65
REMARK SMILES IDX 59 66 62 67 56 68 57 69 60 70 58 71 6 72 7 73 8 74 9 76
REMARK SMILES IDX 10 77 11 78 18 79 12 80 17 81 13 83 16 84 14 85 15 86 19 87
REMARK SMILES IDX 20 88 21 89 22 90 25 91 23 92 24 93
REMARK H PARENT 3 6 82 24 50 35 7 75 18 82
REMARK Flexibility Score: inf
ROOT
ATOM      1  C   UNL A   1      31.405  32.276  26.756  1.00  0.00     0.042 C 
ENDROOT
BRANCH   1   2
ATOM      2  C   UNL A   1      32.724  32.953  27.127  1.00  0.00     0.118 C 
BRANCH   2   3
ATOM      3  N   UNL A   1      32.524  34.293  27.661  1.00  0.00    -0.352 N 
ATOM      4  O   UNL A   1      32.597  35.954  29.177  1.00  0.00    -0.269 OA
ATOM      5  C   UNL A   1      33.075  34.896  28.758  1.00  0.00     0.251 C 
ATOM      6  H   UNL A   1      31.894  34.853  27.153  1.00  0.00     0.163 HD
BRANCH   5   7
ATOM      7  C   UNL A   1      34.234  34.299  29.449  1.00  0.00     0.039 A 
ATOM      8  C   UNL A   1      34.063  33.459  30.554  1.00  0.00     0.014 A 
ATOM      9  C   UNL A   1      35.514  34.523  28.931  1.00  0.00     0.014 A 
ATOM     10  C   UNL A   1      35.173  32.921  31.199  1.00  0.00     0.010 A 
ATOM     11  C   UNL A   1      36.622  33.933  29.540  1.00  0.00     0.010 A 
ATOM     12  C   UNL A   1      36.462  33.140  30.688  1.00  0.00    -0.014 A 
BRANCH  12  13
ATOM     13  C   UNL A   1      37.639  32.495  31.316  1.00  0.00     0.031 A 
ATOM     14  C   UNL A   1      38.323  31.342  30.644  1.00  0.00     0.074 A 
ATOM     15  C   UNL A   1      38.054  32.923  32.521  1.00  0.00     0.049 A 
ATOM     16  N   UNL A   1      39.299  30.588  31.084  1.00  0.00    -0.248 NA
ATOM     17  C   UNL A   1      37.838  30.979  29.305  1.00  0.00     0.031 C 
ATOM     18  C   UNL A   1      37.457  34.027  33.272  1.00  0.00     0.029 A 
ATOM     19  N   UNL A   1      39.061  32.470  33.336  1.00  0.00    -0.354 N 
ATOM     20  C   UNL A   1      39.529  29.649  30.089  1.00  0.00     0.074 A 
ATOM     21  C   UNL A   1      38.576  29.912  29.031  1.00  0.00     0.031 C 
ATOM     22  C   UNL A   1      38.104  34.166  34.437  1.00  0.00     0.029 A 
ATOM     23  C   UNL A   1      39.125  33.127  34.539  1.00  0.00     0.049 A 
ATOM     24  H   UNL A   1      39.677  31.746  33.082  1.00  0.00     0.167 HD
ATOM     25  C   UNL A   1      40.456  28.660  30.064  1.00  0.00     0.037 A 
ATOM     26  C   UNL A   1      39.892  32.896  35.620  1.00  0.00     0.037 A 
ATOM     27  C   UNL A   1      41.404  28.415  31.120  1.00  0.00     0.049 A 
ATOM     28  C   UNL A   1      40.893  31.778  35.583  1.00  0.00     0.074 A 
ATOM     29  C   UNL A   1      42.419  27.476  31.168  1.00  0.00     0.029 A 
ATOM     30  N   UNL A   1      41.446  29.109  32.321  1.00  0.00    -0.354 N 
ATOM     31  N   UNL A   1      41.137  30.924  34.620  1.00  0.00    -0.248 NA
ATOM     32  C   UNL A   1      41.725  31.590  36.779  1.00  0.00     0.031 C 
ATOM     33  C   UNL A   1      43.039  27.565  32.419  1.00  0.00     0.029 A 
ATOM     34  C   UNL A   1      42.449  28.598  33.130  1.00  0.00     0.049 A 
ATOM     35  H   UNL A   1      40.850  29.855  32.564  1.00  0.00     0.167 HD
ATOM     36  C   UNL A   1      42.163  30.112  35.078  1.00  0.00     0.074 A 
ATOM     37  C   UNL A   1      42.500  30.578  36.409  1.00  0.00     0.031 C 
ATOM     38  C   UNL A   1      42.774  29.077  34.451  1.00  0.00     0.037 A 
BRANCH  25  39
ATOM     39  C   UNL A   1      40.464  27.749  28.870  1.00  0.00     0.064 A 
ATOM     40  C   UNL A   1      41.258  28.012  27.743  1.00  0.00     0.173 A 
ATOM     41  C   UNL A   1      39.677  26.588  28.859  1.00  0.00     0.173 A 
ATOM     42  F   UNL A   1      42.022  29.114  27.696  1.00  0.00    -0.203 F 
ATOM     43  C   UNL A   1      41.232  27.168  26.635  1.00  0.00     0.198 A 
ATOM     44  C   UNL A   1      39.676  25.729  27.764  1.00  0.00     0.198 A 
ATOM     45  F   UNL A   1      38.905  26.284  29.915  1.00  0.00    -0.203 F 
ATOM     46  F   UNL A   1      41.953  27.470  25.547  1.00  0.00    -0.200 F 
ATOM     47  C   UNL A   1      40.445  26.025  26.648  1.00  0.00     0.200 A 
ATOM     48  F   UNL A   1      38.925  24.620  27.783  1.00  0.00    -0.200 F 
ATOM     49  F   UNL A   1      40.419  25.215  25.581  1.00  0.00    -0.200 F 
ENDBRANCH  25  39
BRANCH  26  50
ATOM     50  C   UNL A   1      39.717  33.748  36.823  1.00  0.00     0.064 A 
ATOM     51  C   UNL A   1      40.351  34.992  36.925  1.00  0.00     0.173 A 
ATOM     52  C   UNL A   1      38.859  33.362  37.864  1.00  0.00     0.173 A 
ATOM     53  F   UNL A   1      41.193  35.396  35.962  1.00  0.00    -0.203 F 
ATOM     54  C   UNL A   1      40.132  35.821  38.024  1.00  0.00     0.198 A 
ATOM     55  C   UNL A   1      38.620  34.201  38.949  1.00  0.00     0.198 A 
ATOM     56  F   UNL A   1      38.222  32.182  37.806  1.00  0.00    -0.203 F 
ATOM     57  F   UNL A   1      40.765  36.998  38.109  1.00  0.00    -0.200 F 
ATOM     58  C   UNL A   1      39.260  35.429  39.029  1.00  0.00     0.200 A 
ATOM     59  F   UNL A   1      37.763  33.826  39.908  1.00  0.00    -0.200 F 
ATOM     60  F   UNL A   1      39.033  36.236  40.075  1.00  0.00    -0.200 F 
ENDBRANCH  26  50
BRANCH  38  61
ATOM     61  C   UNL A   1      43.896  28.394  35.175  1.00  0.00     0.064 A 
ATOM     62  C   UNL A   1      43.676  27.263  35.972  1.00  0.00     0.173 A 
ATOM     63  C   UNL A   1      45.217  28.835  35.005  1.00  0.00     0.173 A 
ATOM     64  F   UNL A   1      42.428  26.813  36.176  1.00  0.00    -0.203 F 
ATOM     65  C   UNL A   1      44.739  26.600  36.580  1.00  0.00     0.198 A 
ATOM     66  C   UNL A   1      46.279  28.156  35.594  1.00  0.00     0.198 A 
ATOM     67  F   UNL A   1      45.479  29.912  34.248  1.00  0.00    -0.203 F 
ATOM     68  F   UNL A   1      44.505  25.536  37.361  1.00  0.00    -0.200 F 
ATOM     69  C   UNL A   1      46.039  27.041  36.383  1.00  0.00     0.200 A 
ATOM     70  F   UNL A   1      47.536  28.575  35.391  1.00  0.00    -0.200 F 
ATOM     71  F   UNL A   1      47.063  26.391  36.954  1.00  0.00    -0.200 F 
ENDBRANCH  38  61
ENDBRANCH  12  13
ENDBRANCH   5   7
ENDBRANCH   2   3
ENDBRANCH   1   2
BRANCH   1  72
ATOM     72  C   UNL A   1      31.576  30.893  26.134  1.00  0.00     0.118 C 
BRANCH  72  73
ATOM     73  N   UNL A   1      31.660  29.862  27.145  1.00  0.00    -0.351 N 
ATOM     74  C   UNL A   1      31.910  28.528  26.996  1.00  0.00     0.278 C 
ATOM     75  H   UNL A   1      31.515  30.165  28.071  1.00  0.00     0.163 HD
ATOM     76  O   UNL A   1      31.760  27.824  27.998  1.00  0.00    -0.268 OA
BRANCH  74  77
ATOM     77  C   UNL A   1      32.398  27.980  25.628  1.00  0.00     0.274 C 
ATOM     78  C   UNL A   1      33.483  26.897  25.848  1.00  0.00     0.085 C 
ATOM     79  N   UNL A   1      31.261  27.310  24.923  1.00  0.00    -0.322 N 
ATOM     80  C   UNL A   1      32.922  25.665  25.165  1.00  0.00     0.054 C 
ATOM     81  C   UNL A   1      31.420  25.886  25.240  1.00  0.00     0.188 C 
ATOM     82  H   UNL A   1      30.361  27.655  25.256  1.00  0.00     0.349 HD
ATOM     83  C   UNL A   1      33.305  24.303  25.719  1.00  0.00     0.010 C 
ATOM     84  C   UNL A   1      30.640  24.831  24.462  1.00  0.00     0.065 C 
ATOM     85  C   UNL A   1      32.572  23.213  24.929  1.00  0.00     0.001 C 
ATOM     86  C   UNL A   1      31.052  23.420  24.900  1.00  0.00     0.006 C 
BRANCH  79  87
ATOM     87  C   UNL A   1      31.088  27.657  23.501  1.00  0.00     0.265 C 
BRANCH  87  88
ATOM     88  C   UNL A   1      29.742  28.158  22.925  1.00  0.00     0.093 C 
BRANCH  88  89
ATOM     89  C   UNL A   1      29.614  29.632  22.503  1.00  0.00     0.123 C 
ATOM     90  C   UNL A   1      28.989  30.602  23.500  1.00  0.00     0.034 C 
ATOM     91  O   UNL A   1      28.901  29.795  21.275  1.00  0.00    -0.378 OA
ATOM     92  C   UNL A   1      28.027  31.437  22.678  1.00  0.00     0.031 C 
ATOM     93  C   UNL A   1      28.403  31.133  21.247  1.00  0.00     0.160 C 
ENDBRANCH  88  89
ENDBRANCH  87  88
ENDBRANCH  79  87
ENDBRANCH  74  77
ENDBRANCH  72  73
ENDBRANCH   1  72
TORSDOF 13
ENDMDL
MODEL 2
REMARK VINA RESULT:     -12.6      6.002     11.510
REMARK SMILES O=C(NCCCNC(=O)[C@H]1C[C@H]2CCCC[C@@H]2[N@@H+]1CC[C@@H]1CCCO1)c1ccc(-c2c3nc(c(-c4c(F)c(F)c(F)c(F)c4F)c4ccc([nH]4)c(-c4c(F)c(F)c(F)c(F)c4F)c4nc(c(-c5c(F)c(F)c(F)c(F)c5F)c5ccc2[nH]5)C=C4)C=C3)cc1
REMARK SMILES IDX 5 1 4 2 3 3 1 4 2 5 26 7 27 8 88 9 28 10 87 11 29 12 30 13
REMARK SMILES IDX 31 14 81 15 32 16 86 17 80 18 82 19 33 20 85 21 79 22 78 23
REMARK SMILES IDX 34 25 66 26 46 27 65 28 47 29 50 30 64 31 83 32 48 33 49 34
REMARK SMILES IDX 63 36 84 37 51 38 35 39 36 40 44 41 37 42 38 43 42 44 45 45
REMARK SMILES IDX 39 46 40 47 43 48 41 49 67 50 68 51 76 52 69 53 70 54 74 55
REMARK SMILES IDX 77 56 71 57 72 58 75 59 73 60 52 61 53 62 61 63 54 64 55 65
REMARK SMILES IDX 59 66 62 67 56 68 57 69 60 70 58 71 6 72 7 73 8 74 9 76
REMARK SMILES IDX 10 77 11 78 18 79 12 80 17 81 13 83 16 84 14 85 15 86 19 87
REMARK SMILES IDX 20 88 21 89 22 90 25 91 23 92 24 93
REMARK H PARENT 3 6 82 24 50 35 7 75 18 82
REMARK Flexibility Score: inf
ROOT
ATOM      1  C   UNL A   1      37.882  19.675  24.792  1.00  0.00     0.042 C 
ENDROOT
BRANCH   1   2
ATOM      2  C   UNL A   1      38.959  20.178  25.750  1.00  0.00     0.118 C 
BRANCH   2   3
ATOM      3  N   UNL A   1      40.025  19.203  25.944  1.00  0.00    -0.352 N 
ATOM      4  O   UNL A   1      42.133  18.422  26.023  1.00  0.00    -0.269 OA
ATOM      5  C   UNL A   1      41.368  19.388  26.112  1.00  0.00     0.251 C 
ATOM      6  H   UNL A   1      39.730  18.264  25.957  1.00  0.00     0.163 HD
BRANCH   5   7
ATOM      7  C   UNL A   1      41.921  20.726  26.398  1.00  0.00     0.039 A 
ATOM      8  C   UNL A   1      42.116  21.661  25.376  1.00  0.00     0.014 A 
ATOM      9  C   UNL A   1      42.174  21.079  27.727  1.00  0.00     0.014 A 
ATOM     10  C   UNL A   1      42.653  22.911  25.669  1.00  0.00     0.010 A 
ATOM     11  C   UNL A   1      42.653  22.354  28.028  1.00  0.00     0.010 A 
ATOM     12  C   UNL A   1      42.912  23.274  26.999  1.00  0.00    -0.014 A 
BRANCH  12  13
ATOM     13  C   UNL A   1      43.397  24.636  27.326  1.00  0.00     0.031 A 
ATOM     14  C   UNL A   1      42.459  25.665  27.886  1.00  0.00     0.074 A 
ATOM     15  C   UNL A   1      44.678  24.955  27.065  1.00  0.00     0.049 A 
ATOM     16  N   UNL A   1      42.675  26.931  28.137  1.00  0.00    -0.248 NA
ATOM     17  C   UNL A   1      41.096  25.212  28.192  1.00  0.00     0.031 C 
ATOM     18  C   UNL A   1      45.674  24.039  26.509  1.00  0.00     0.029 A 
ATOM     19  N   UNL A   1      45.355  26.139  27.211  1.00  0.00    -0.354 N 
ATOM     20  C   UNL A   1      41.470  27.433  28.608  1.00  0.00     0.074 A 
ATOM     21  C   UNL A   1      40.520  26.340  28.586  1.00  0.00     0.031 C 
ATOM     22  C   UNL A   1      46.834  24.693  26.359  1.00  0.00     0.029 A 
ATOM     23  C   UNL A   1      46.648  26.086  26.755  1.00  0.00     0.049 A 
ATOM     24  H   UNL A   1      44.953  26.946  27.605  1.00  0.00     0.167 HD
ATOM     25  C   UNL A   1      41.188  28.692  29.022  1.00  0.00     0.037 A 
ATOM     26  C   UNL A   1      47.571  27.057  26.633  1.00  0.00     0.037 A 
ATOM     27  C   UNL A   1      42.145  29.768  29.047  1.00  0.00     0.049 A 
ATOM     28  C   UNL A   1      47.230  28.451  27.072  1.00  0.00     0.074 A 
ATOM     29  C   UNL A   1      41.975  31.064  29.501  1.00  0.00     0.029 A 
ATOM     30  N   UNL A   1      43.451  29.674  28.587  1.00  0.00    -0.354 N 
ATOM     31  N   UNL A   1      46.103  28.908  27.561  1.00  0.00    -0.248 NA
ATOM     32  C   UNL A   1      48.284  29.466  26.944  1.00  0.00     0.031 C 
ATOM     33  C   UNL A   1      43.161  31.769  29.265  1.00  0.00     0.029 A 
ATOM     34  C   UNL A   1      44.089  30.897  28.717  1.00  0.00     0.049 A 
ATOM     35  H   UNL A   1      43.864  28.858  28.221  1.00  0.00     0.167 HD
ATOM     36  C   UNL A   1      46.315  30.253  27.821  1.00  0.00     0.074 A 
ATOM     37  C   UNL A   1      47.683  30.541  27.439  1.00  0.00     0.031 C 
ATOM     38  C   UNL A   1      45.454  31.165  28.336  1.00  0.00     0.037 A 
BRANCH  25  39
ATOM     39  C   UNL A   1      39.777  28.980  29.451  1.00  0.00     0.064 A 
ATOM     40  C   UNL A   1      39.347  28.776  30.771  1.00  0.00     0.173 A 
ATOM     41  C   UNL A   1      38.846  29.481  28.529  1.00  0.00     0.173 A 
ATOM     42  F   UNL A   1      40.194  28.288  31.690  1.00  0.00    -0.203 F 
ATOM     43  C   UNL A   1      38.027  29.025  31.142  1.00  0.00     0.198 A 
ATOM     44  C   UNL A   1      37.536  29.759  28.910  1.00  0.00     0.198 A 
ATOM     45  F   UNL A   1      39.206  29.703  27.255  1.00  0.00    -0.203 F 
ATOM     46  F   UNL A   1      37.625  28.767  32.393  1.00  0.00    -0.200 F 
ATOM     47  C   UNL A   1      37.125  29.521  30.213  1.00  0.00     0.200 A 
ATOM     48  F   UNL A   1      36.668  30.250  28.014  1.00  0.00    -0.200 F 
ATOM     49  F   UNL A   1      35.855  29.758  30.570  1.00  0.00    -0.200 F 
ENDBRANCH  25  39
BRANCH  26  50
ATOM     50  C   UNL A   1      48.897  26.723  26.056  1.00  0.00     0.064 A 
ATOM     51  C   UNL A   1      49.176  26.954  24.704  1.00  0.00     0.173 A 
ATOM     52  C   UNL A   1      49.932  26.227  26.863  1.00  0.00     0.173 A 
ATOM     53  F   UNL A   1      48.213  27.412  23.891  1.00  0.00    -0.203 F 
ATOM     54  C   UNL A   1      50.442  26.704  24.179  1.00  0.00     0.198 A 
ATOM     55  C   UNL A   1      51.205  26.002  26.345  1.00  0.00     0.198 A 
ATOM     56  F   UNL A   1      49.716  25.998  28.168  1.00  0.00    -0.203 F 
ATOM     57  F   UNL A   1      50.680  26.914  22.878  1.00  0.00    -0.200 F 
ATOM     58  C   UNL A   1      51.458  26.237  25.002  1.00  0.00     0.200 A 
ATOM     59  F   UNL A   1      52.187  25.569  27.148  1.00  0.00    -0.200 F 
ATOM     60  F   UNL A   1      52.681  26.018  24.501  1.00  0.00    -0.200 F 
ENDBRANCH  26  50
BRANCH  38  61
ATOM     61  C   UNL A   1      45.969  32.557  28.553  1.00  0.00     0.064 A 
ATOM     62  C   UNL A   1      45.819  33.557  27.582  1.00  0.00     0.173 A 
ATOM     63  C   UNL A   1      46.552  32.910  29.779  1.00  0.00     0.173 A 
ATOM     64  F   UNL A   1      45.281  33.263  26.388  1.00  0.00    -0.203 F 
ATOM     65  C   UNL A   1      46.241  34.861  27.829  1.00  0.00     0.198 A 
ATOM     66  C   UNL A   1      46.950  34.220  30.031  1.00  0.00     0.198 A 
ATOM     67  F   UNL A   1      46.714  31.989  30.741  1.00  0.00    -0.203 F 
ATOM     68  F   UNL A   1      46.113  35.796  26.877  1.00  0.00    -0.200 F 
ATOM     69  C   UNL A   1      46.797  35.193  29.055  1.00  0.00     0.200 A 
ATOM     70  F   UNL A   1      47.474  34.542  31.222  1.00  0.00    -0.200 F 
ATOM     71  F   UNL A   1      47.185  36.452  29.298  1.00  0.00    -0.200 F 
ENDBRANCH  38  61
ENDBRANCH  12  13
ENDBRANCH   5   7
ENDBRANCH   2   3
ENDBRANCH   1   2
BRANCH   1  72
ATOM     72  C   UNL A   1      36.518  20.326  25.001  1.00  0.00     0.118 C 
BRANCH  72  73
ATOM     73  N   UNL A   1      36.559  21.745  24.721  1.00  0.00    -0.351 N 
ATOM     74  C   UNL A   1      35.565  22.674  24.839  1.00  0.00     0.278 C 
ATOM     75  H   UNL A   1      37.424  22.088  24.400  1.00  0.00     0.163 HD
ATOM     76  O   UNL A   1      35.800  23.793  24.374  1.00  0.00    -0.268 OA
BRANCH  74  77
ATOM     77  C   UNL A   1      34.244  22.307  25.565  1.00  0.00     0.274 C 
ATOM     78  C   UNL A   1      33.858  23.429  26.560  1.00  0.00     0.085 C 
ATOM     79  N   UNL A   1      33.132  22.218  24.568  1.00  0.00    -0.322 N 
ATOM     80  C   UNL A   1      32.477  23.867  26.110  1.00  0.00     0.054 C 
ATOM     81  C   UNL A   1      32.479  23.532  24.627  1.00  0.00     0.188 C 
ATOM     82  H   UNL A   1      33.487  22.035  23.629  1.00  0.00     0.349 HD
ATOM     83  C   UNL A   1      32.073  25.312  26.345  1.00  0.00     0.010 C 
ATOM     84  C   UNL A   1      31.112  23.743  23.984  1.00  0.00     0.065 C 
ATOM     85  C   UNL A   1      30.680  25.549  25.749  1.00  0.00     0.001 C 
ATOM     86  C   UNL A   1      30.592  25.157  24.269  1.00  0.00     0.006 C 
BRANCH  79  87
ATOM     87  C   UNL A   1      32.257  21.038  24.679  1.00  0.00     0.265 C 
BRANCH  87  88
ATOM     88  C   UNL A   1      32.528  19.725  23.906  1.00  0.00     0.093 C 
BRANCH  88  89
ATOM     89  C   UNL A   1      33.140  18.530  24.656  1.00  0.00     0.123 C 
ATOM     90  C   UNL A   1      34.067  17.603  23.876  1.00  0.00     0.034 C 
ATOM     91  O   UNL A   1      32.153  17.697  25.268  1.00  0.00    -0.378 OA
ATOM     92  C   UNL A   1      33.634  16.203  24.268  1.00  0.00     0.031 C 
ATOM     93  C   UNL A   1      32.745  16.414  25.469  1.00  0.00     0.160 C 
ENDBRANCH  88  89
ENDBRANCH  87  88
ENDBRANCH  79  87
ENDBRANCH  74  77
ENDBRANCH  72  73
ENDBRANCH   1  72
TORSDOF 13
ENDMDL
MODEL 3
REMARK VINA RESULT:     -12.6      0.596      1.713
REMARK SMILES O=C(NCCCNC(=O)[C@H]1C[C@H]2CCCC[C@@H]2[N@@H+]1CC[C@@H]1CCCO1)c1ccc(-c2c3nc(c(-c4c(F)c(F)c(F)c(F)c4F)c4ccc([nH]4)c(-c4c(F)c(F)c(F)c(F)c4F)c4nc(c(-c5c(F)c(F)c(F)c(F)c5F)c5ccc2[nH]5)C=C4)C=C3)cc1
REMARK SMILES IDX 5 1 4 2 3 3 1 4 2 5 26 7 27 8 88 9 28 10 87 11 29 12 30 13
REMARK SMILES IDX 31 14 81 15 32 16 86 17 80 18 82 19 33 20 85 21 79 22 78 23
REMARK SMILES IDX 34 25 66 26 46 27 65 28 47 29 50 30 64 31 83 32 48 33 49 34
REMARK SMILES IDX 63 36 84 37 51 38 35 39 36 40 44 41 37 42 38 43 42 44 45 45
REMARK SMILES IDX 39 46 40 47 43 48 41 49 67 50 68 51 76 52 69 53 70 54 74 55
REMARK SMILES IDX 77 56 71 57 72 58 75 59 73 60 52 61 53 62 61 63 54 64 55 65
REMARK SMILES IDX 59 66 62 67 56 68 57 69 60 70 58 71 6 72 7 73 8 74 9 76
REMARK SMILES IDX 10 77 11 78 18 79 12 80 17 81 13 83 16 84 14 85 15 86 19 87
REMARK SMILES IDX 20 88 21 89 22 90 25 91 23 92 24 93
REMARK H PARENT 3 6 82 24 50 35 7 75 18 82
REMARK Flexibility Score: inf
ROOT
ATOM      1  C   UNL A   1      31.337  32.331  26.831  1.00  0.00     0.042 C 
ENDROOT
BRANCH   1   2
ATOM      2  C   UNL A   1      32.661  32.996  27.204  1.00  0.00     0.118 C 
BRANCH   2   3
ATOM      3  N   UNL A   1      32.478  34.361  27.679  1.00  0.00    -0.352 N 
ATOM      4  O   UNL A   1      32.584  36.088  29.117  1.00  0.00    -0.269 OA
ATOM      5  C   UNL A   1      33.049  35.008  28.740  1.00  0.00     0.251 C 
ATOM      6  H   UNL A   1      31.845  34.902  27.155  1.00  0.00     0.163 HD
BRANCH   5   7
ATOM      7  C   UNL A   1      34.212  34.434  29.443  1.00  0.00     0.039 A 
ATOM      8  C   UNL A   1      34.063  33.761  30.659  1.00  0.00     0.014 A 
ATOM      9  C   UNL A   1      35.468  34.504  28.831  1.00  0.00     0.014 A 
ATOM     10  C   UNL A   1      35.179  33.242  31.310  1.00  0.00     0.010 A 
ATOM     11  C   UNL A   1      36.576  33.929  29.453  1.00  0.00     0.010 A 
ATOM     12  C   UNL A   1      36.443  33.308  30.706  1.00  0.00    -0.014 A 
BRANCH  12  13
ATOM     13  C   UNL A   1      37.618  32.677  31.351  1.00  0.00     0.031 A 
ATOM     14  C   UNL A   1      38.311  31.515  30.701  1.00  0.00     0.074 A 
ATOM     15  C   UNL A   1      38.025  33.125  32.552  1.00  0.00     0.049 A 
ATOM     16  N   UNL A   1      39.286  30.772  31.160  1.00  0.00    -0.248 NA
ATOM     17  C   UNL A   1      37.835  31.130  29.366  1.00  0.00     0.031 C 
ATOM     18  C   UNL A   1      37.419  34.239  33.281  1.00  0.00     0.029 A 
ATOM     19  N   UNL A   1      39.027  32.688  33.380  1.00  0.00    -0.354 N 
ATOM     20  C   UNL A   1      39.526  29.818  30.181  1.00  0.00     0.074 A 
ATOM     21  C   UNL A   1      38.578  30.061  29.113  1.00  0.00     0.031 C 
ATOM     22  C   UNL A   1      38.058  34.398  34.448  1.00  0.00     0.029 A 
ATOM     23  C   UNL A   1      39.081  33.364  34.573  1.00  0.00     0.049 A 
ATOM     24  H   UNL A   1      39.647  31.962  33.141  1.00  0.00     0.167 HD
ATOM     25  C   UNL A   1      40.456  28.832  30.178  1.00  0.00     0.037 A 
ATOM     26  C   UNL A   1      39.842  33.153  35.662  1.00  0.00     0.037 A 
ATOM     27  C   UNL A   1      41.398  28.607  31.244  1.00  0.00     0.049 A 
ATOM     28  C   UNL A   1      40.847  32.038  35.649  1.00  0.00     0.074 A 
ATOM     29  C   UNL A   1      42.415  27.672  31.313  1.00  0.00     0.029 A 
ATOM     30  N   UNL A   1      41.430  29.320  32.434  1.00  0.00    -0.354 N 
ATOM     31  N   UNL A   1      41.101  31.170  34.701  1.00  0.00    -0.248 NA
ATOM     32  C   UNL A   1      41.672  31.872  36.853  1.00  0.00     0.031 C 
ATOM     33  C   UNL A   1      43.027  27.783  32.566  1.00  0.00     0.029 A 
ATOM     34  C   UNL A   1      42.429  28.825  33.256  1.00  0.00     0.049 A 
ATOM     35  H   UNL A   1      40.830  30.067  32.661  1.00  0.00     0.167 HD
ATOM     36  C   UNL A   1      42.126  30.369  35.179  1.00  0.00     0.074 A 
ATOM     37  C   UNL A   1      42.453  30.857  36.504  1.00  0.00     0.031 C 
ATOM     38  C   UNL A   1      42.744  29.326  34.572  1.00  0.00     0.037 A 
BRANCH  25  39
ATOM     39  C   UNL A   1      40.474  27.903  28.999  1.00  0.00     0.064 A 
ATOM     40  C   UNL A   1      41.270  28.153  27.870  1.00  0.00     0.173 A 
ATOM     41  C   UNL A   1      39.695  26.736  29.004  1.00  0.00     0.173 A 
ATOM     42  F   UNL A   1      42.026  29.260  27.808  1.00  0.00    -0.203 F 
ATOM     43  C   UNL A   1      41.254  27.291  26.775  1.00  0.00     0.198 A 
ATOM     44  C   UNL A   1      39.705  25.860  27.922  1.00  0.00     0.198 A 
ATOM     45  F   UNL A   1      38.922  26.443  30.061  1.00  0.00    -0.203 F 
ATOM     46  F   UNL A   1      41.977  27.582  25.685  1.00  0.00    -0.200 F 
ATOM     47  C   UNL A   1      40.475  26.144  26.804  1.00  0.00     0.200 A 
ATOM     48  F   UNL A   1      38.961  24.745  27.956  1.00  0.00    -0.200 F 
ATOM     49  F   UNL A   1      40.459  25.316  25.750  1.00  0.00    -0.200 F 
ENDBRANCH  25  39
BRANCH  26  50
ATOM     50  C   UNL A   1      39.657  34.023  36.851  1.00  0.00     0.064 A 
ATOM     51  C   UNL A   1      38.836  33.630  37.913  1.00  0.00     0.173 A 
ATOM     52  C   UNL A   1      40.352  35.236  36.974  1.00  0.00     0.173 A 
ATOM     53  F   UNL A   1      38.140  32.486  37.833  1.00  0.00    -0.203 F 
ATOM     54  C   UNL A   1      38.716  34.416  39.058  1.00  0.00     0.198 A 
ATOM     55  C   UNL A   1      40.253  36.009  38.128  1.00  0.00     0.198 A 
ATOM     56  F   UNL A   1      41.158  35.652  35.984  1.00  0.00    -0.203 F 
ATOM     57  F   UNL A   1      37.910  34.027  40.054  1.00  0.00    -0.200 F 
ATOM     58  C   UNL A   1      39.433  35.599  39.168  1.00  0.00     0.200 A 
ATOM     59  F   UNL A   1      40.960  37.142  38.237  1.00  0.00    -0.200 F 
ATOM     60  F   UNL A   1      39.334  36.343  40.278  1.00  0.00    -0.200 F 
ENDBRANCH  26  50
BRANCH  38  61
ATOM     61  C   UNL A   1      43.864  28.658  35.314  1.00  0.00     0.064 A 
ATOM     62  C   UNL A   1      45.190  29.094  35.193  1.00  0.00     0.173 A 
ATOM     63  C   UNL A   1      43.590  27.616  36.213  1.00  0.00     0.173 A 
ATOM     64  F   UNL A   1      45.502  30.077  34.335  1.00  0.00    -0.203 F 
ATOM     65  C   UNL A   1      46.206  28.506  35.943  1.00  0.00     0.198 A 
ATOM     66  C   UNL A   1      44.604  27.047  36.978  1.00  0.00     0.198 A 
ATOM     67  F   UNL A   1      42.336  27.165  36.365  1.00  0.00    -0.203 F 
ATOM     68  F   UNL A   1      47.472  28.920  35.793  1.00  0.00    -0.200 F 
ATOM     69  C   UNL A   1      45.911  27.491  36.841  1.00  0.00     0.200 A 
ATOM     70  F   UNL A   1      44.315  26.076  37.855  1.00  0.00    -0.200 F 
ATOM     71  F   UNL A   1      46.886  26.940  37.575  1.00  0.00    -0.200 F 
ENDBRANCH  38  61
ENDBRANCH  12  13
ENDBRANCH   5   7
ENDBRANCH   2   3
ENDBRANCH   1   2
BRANCH   1  72
ATOM     72  C   UNL A   1      31.500  31.005  26.093  1.00  0.00     0.118 C 
BRANCH  72  73
ATOM     73  N   UNL A   1      32.562  30.207  26.664  1.00  0.00    -0.351 N 
ATOM     74  C   UNL A   1      33.095  29.033  26.212  1.00  0.00     0.278 C 
ATOM     75  H   UNL A   1      32.955  30.558  27.495  1.00  0.00     0.163 HD
ATOM     76  O   UNL A   1      33.879  28.457  26.971  1.00  0.00    -0.268 OA
BRANCH  74  77
ATOM     77  C   UNL A   1      32.735  28.515  24.794  1.00  0.00     0.274 C 
ATOM     78  C   UNL A   1      33.878  27.622  24.252  1.00  0.00     0.085 C 
ATOM     79  N   UNL A   1      31.516  27.652  24.871  1.00  0.00    -0.322 N 
ATOM     80  C   UNL A   1      33.206  26.292  23.966  1.00  0.00     0.054 C 
ATOM     81  C   UNL A   1      32.039  26.282  24.940  1.00  0.00     0.188 C 
ATOM     82  H   UNL A   1      30.958  27.866  25.698  1.00  0.00     0.349 HD
ATOM     83  C   UNL A   1      34.039  25.028  24.094  1.00  0.00     0.010 C 
ATOM     84  C   UNL A   1      31.112  25.090  24.721  1.00  0.00     0.065 C 
ATOM     85  C   UNL A   1      33.146  23.808  23.834  1.00  0.00     0.001 C 
ATOM     86  C   UNL A   1      31.905  23.778  24.735  1.00  0.00     0.006 C 
BRANCH  79  87
ATOM     87  C   UNL A   1      30.474  27.913  23.862  1.00  0.00     0.265 C 
BRANCH  87  88
ATOM     88  C   UNL A   1      30.746  28.729  22.576  1.00  0.00     0.093 C 
BRANCH  88  89
ATOM     89  C   UNL A   1      29.906  29.986  22.298  1.00  0.00     0.123 C 
ATOM     90  C   UNL A   1      29.099  30.569  23.454  1.00  0.00     0.034 C 
ATOM     91  O   UNL A   1      28.994  29.813  21.212  1.00  0.00    -0.378 OA
ATOM     92  C   UNL A   1      27.740  30.882  22.859  1.00  0.00     0.031 C 
ATOM     93  C   UNL A   1      27.957  30.782  21.368  1.00  0.00     0.160 C 
ENDBRANCH  88  89
ENDBRANCH  87  88
ENDBRANCH  79  87
ENDBRANCH  74  77
ENDBRANCH  72  73
ENDBRANCH   1  72
TORSDOF 13
ENDMDL
