MODEL 1
REMARK VINA RESULT:     -13.7      0.000      0.000
REMARK SMILES Cc1ccc2c(c1)OCCN2c1sc(C(=O)NCCCNC(=O)c2ccc(-c3c4nc(c(-c5c(F)c(F)c(F)c(F)c5F)c5ccc([nH]5)c(-c5c(F)c(F)c(F)c(F)c5F)c5nc(c(-c6c(F)c(F)c(F)c(F)c6F)c6ccc3[nH]6)C=C5)C=C4)cc2)cc1C
REMARK SMILES IDX 19 1 18 2 17 3 15 4 16 5 14 7 12 8 13 9 88 10 87 11 89 12
REMARK SMILES IDX 11 13 1 14 2 15 3 16 7 17 4 18 6 19 5 20 8 21 9 22 10 23
REMARK SMILES IDX 20 24 21 25 22 26 23 28 24 29 25 30 86 31 26 32 85 33 27 34
REMARK SMILES IDX 28 35 29 36 79 37 30 38 84 39 78 40 80 41 31 42 83 43 77 44
REMARK SMILES IDX 76 45 32 47 64 48 44 49 63 50 45 51 48 52 62 53 81 54 46 55
REMARK SMILES IDX 47 56 61 58 82 59 49 60 33 61 34 62 42 63 35 64 36 65 40 66
REMARK SMILES IDX 43 67 37 68 38 69 41 70 39 71 65 72 66 73 74 74 67 75 68 76
REMARK SMILES IDX 72 77 75 78 69 79 70 80 73 81 71 82 50 83 51 84 59 85 52 86
REMARK SMILES IDX 53 87 57 88 60 89 54 90 55 91 58 92 56 93
REMARK H PARENT 17 6 21 27 80 46 48 57
REMARK Flexibility Score: inf
ROOT
ATOM      1  C   UNL A   1      31.740  28.893  26.502  1.00  0.00     0.042 C 
ENDROOT
BRANCH   1   2
ATOM      2  C   UNL A   1      32.251  27.468  26.689  1.00  0.00     0.118 C 
BRANCH   2   3
ATOM      3  N   UNL A   1      31.156  26.516  26.719  1.00  0.00    -0.351 N 
ATOM      4  C   UNL A   1      31.038  25.205  26.329  1.00  0.00     0.261 C 
ATOM      5  O   UNL A   1      29.933  24.701  26.558  1.00  0.00    -0.268 OA
ATOM      6  H   UNL A   1      30.326  26.887  27.097  1.00  0.00     0.163 HD
BRANCH   4   7
ATOM      7  C   UNL A   1      32.123  24.420  25.759  1.00  0.00     0.094 A 
ATOM      8  C   UNL A   1      33.906  22.778  25.193  1.00  0.00     0.099 A 
ATOM      9  S   UNL A   1      33.204  23.429  26.623  1.00  0.00    -0.112 S 
ATOM     10  C   UNL A   1      33.518  23.517  24.083  1.00  0.00    -0.015 A 
ATOM     11  C   UNL A   1      32.492  24.457  24.426  1.00  0.00     0.031 A 
ATOM     12  C   UNL A   1      34.012  23.348  22.684  1.00  0.00     0.047 C 
BRANCH   8  13
ATOM     13  N   UNL A   1      34.774  21.725  25.214  1.00  0.00    -0.327 N 
ATOM     14  C   UNL A   1      33.660  16.225  23.870  1.00  0.00     0.044 C 
ATOM     15  C   UNL A   1      33.937  17.653  24.236  1.00  0.00    -0.047 A 
ATOM     16  C   UNL A   1      32.908  18.595  24.281  1.00  0.00     0.006 A 
ATOM     17  C   UNL A   1      35.246  18.079  24.477  1.00  0.00     0.052 A 
ATOM     18  C   UNL A   1      33.179  19.935  24.588  1.00  0.00     0.030 A 
ATOM     19  C   UNL A   1      35.513  19.418  24.785  1.00  0.00     0.143 A 
ATOM     20  C   UNL A   1      34.480  20.377  24.878  1.00  0.00     0.085 A 
ATOM     21  O   UNL A   1      36.845  19.712  24.981  1.00  0.00    -0.490 OA
ATOM     22  C   UNL A   1      37.108  21.115  24.886  1.00  0.00     0.251 C 
ATOM     23  C   UNL A   1      36.129  21.917  25.733  1.00  0.00     0.165 C 
ENDBRANCH   8  13
ENDBRANCH   4   7
ENDBRANCH   2   3
ENDBRANCH   1   2
BRANCH   1  24
ATOM     24  C   UNL A   1      32.816  29.859  26.010  1.00  0.00     0.118 C 
BRANCH  24  25
ATOM     25  N   UNL A   1      32.583  31.233  26.442  1.00  0.00    -0.352 N 
ATOM     26  C   UNL A   1      33.312  32.031  27.291  1.00  0.00     0.251 C 
ATOM     27  H   UNL A   1      31.778  31.655  26.067  1.00  0.00     0.163 HD
ATOM     28  O   UNL A   1      32.856  33.111  27.656  1.00  0.00    -0.269 OA
BRANCH  26  29
ATOM     29  C   UNL A   1      34.630  31.584  27.793  1.00  0.00     0.039 A 
ATOM     30  C   UNL A   1      34.862  30.243  28.102  1.00  0.00     0.014 A 
ATOM     31  C   UNL A   1      35.650  32.525  27.960  1.00  0.00     0.014 A 
ATOM     32  C   UNL A   1      36.039  29.879  28.746  1.00  0.00     0.010 A 
ATOM     33  C   UNL A   1      36.869  32.139  28.526  1.00  0.00     0.010 A 
ATOM     34  C   UNL A   1      37.051  30.825  28.979  1.00  0.00    -0.014 A 
BRANCH  34  35
ATOM     35  C   UNL A   1      38.267  30.415  29.731  1.00  0.00     0.031 A 
ATOM     36  C   UNL A   1      38.468  30.849  31.159  1.00  0.00     0.074 A 
ATOM     37  C   UNL A   1      39.149  29.576  29.154  1.00  0.00     0.049 A 
ATOM     38  N   UNL A   1      39.426  30.529  31.993  1.00  0.00    -0.248 NA
ATOM     39  C   UNL A   1      37.466  31.765  31.728  1.00  0.00     0.031 C 
ATOM     40  C   UNL A   1      39.061  29.081  27.780  1.00  0.00     0.029 A 
ATOM     41  N   UNL A   1      40.270  28.965  29.657  1.00  0.00    -0.354 N 
ATOM     42  C   UNL A   1      39.150  31.209  33.171  1.00  0.00     0.074 A 
ATOM     43  C   UNL A   1      37.957  31.993  32.937  1.00  0.00     0.031 C 
ATOM     44  C   UNL A   1      40.042  28.191  27.571  1.00  0.00     0.029 A 
ATOM     45  C   UNL A   1      40.864  28.096  28.773  1.00  0.00     0.049 A 
ATOM     46  H   UNL A   1      40.615  29.132  30.564  1.00  0.00     0.167 HD
ATOM     47  C   UNL A   1      39.817  31.167  34.349  1.00  0.00     0.037 A 
ATOM     48  C   UNL A   1      41.950  27.312  28.914  1.00  0.00     0.037 A 
ATOM     49  C   UNL A   1      40.984  30.363  34.592  1.00  0.00     0.049 A 
ATOM     50  C   UNL A   1      42.699  27.321  30.216  1.00  0.00     0.074 A 
ATOM     51  C   UNL A   1      41.705  30.223  35.766  1.00  0.00     0.029 A 
ATOM     52  N   UNL A   1      41.600  29.558  33.645  1.00  0.00    -0.354 N 
ATOM     53  N   UNL A   1      42.412  27.951  31.330  1.00  0.00    -0.248 NA
ATOM     54  C   UNL A   1      43.932  26.523  30.279  1.00  0.00     0.031 C 
ATOM     55  C   UNL A   1      42.784  29.369  35.517  1.00  0.00     0.029 A 
ATOM     56  C   UNL A   1      42.711  28.943  34.200  1.00  0.00     0.049 A 
ATOM     57  H   UNL A   1      41.294  29.441  32.717  1.00  0.00     0.167 HD
ATOM     58  C   UNL A   1      43.423  27.627  32.222  1.00  0.00     0.074 A 
ATOM     59  C   UNL A   1      44.318  26.721  31.533  1.00  0.00     0.031 C 
ATOM     60  C   UNL A   1      43.598  28.052  33.497  1.00  0.00     0.037 A 
BRANCH  47  61
ATOM     61  C   UNL A   1      39.303  32.014  35.478  1.00  0.00     0.064 A 
ATOM     62  C   UNL A   1      38.451  31.488  36.459  1.00  0.00     0.173 A 
ATOM     63  C   UNL A   1      39.723  33.345  35.617  1.00  0.00     0.173 A 
ATOM     64  F   UNL A   1      38.013  30.223  36.367  1.00  0.00    -0.203 F 
ATOM     65  C   UNL A   1      38.025  32.270  37.531  1.00  0.00     0.198 A 
ATOM     66  C   UNL A   1      39.317  34.116  36.703  1.00  0.00     0.198 A 
ATOM     67  F   UNL A   1      40.545  33.894  34.709  1.00  0.00    -0.203 F 
ATOM     68  F   UNL A   1      37.185  31.756  38.440  1.00  0.00    -0.200 F 
ATOM     69  C   UNL A   1      38.464  33.579  37.656  1.00  0.00     0.200 A 
ATOM     70  F   UNL A   1      39.752  35.376  36.830  1.00  0.00    -0.200 F 
ATOM     71  F   UNL A   1      38.064  34.324  38.696  1.00  0.00    -0.200 F 
ENDBRANCH  47  61
BRANCH  48  72
ATOM     72  C   UNL A   1      42.382  26.448  27.785  1.00  0.00     0.064 A 
ATOM     73  C   UNL A   1      41.817  25.181  27.592  1.00  0.00     0.173 A 
ATOM     74  C   UNL A   1      43.343  26.883  26.861  1.00  0.00     0.173 A 
ATOM     75  F   UNL A   1      40.910  24.712  28.461  1.00  0.00    -0.203 F 
ATOM     76  C   UNL A   1      42.199  24.381  26.516  1.00  0.00     0.198 A 
ATOM     77  C   UNL A   1      43.704  26.095  25.772  1.00  0.00     0.198 A 
ATOM     78  F   UNL A   1      43.914  28.089  27.003  1.00  0.00    -0.203 F 
ATOM     79  F   UNL A   1      41.664  23.161  26.369  1.00  0.00    -0.200 F 
ATOM     80  C   UNL A   1      43.135  24.842  25.603  1.00  0.00     0.200 A 
ATOM     81  F   UNL A   1      44.598  26.551  24.883  1.00  0.00    -0.200 F 
ATOM     82  F   UNL A   1      43.490  24.079  24.561  1.00  0.00    -0.200 F 
ENDBRANCH  48  72
BRANCH  60  83
ATOM     83  C   UNL A   1      44.808  27.559  34.232  1.00  0.00     0.064 A 
ATOM     84  C   UNL A   1      45.990  28.311  34.267  1.00  0.00     0.173 A 
ATOM     85  C   UNL A   1      44.758  26.371  34.978  1.00  0.00     0.173 A 
ATOM     86  F   UNL A   1      46.089  29.446  33.558  1.00  0.00    -0.203 F 
ATOM     87  C   UNL A   1      47.084  27.888  35.017  1.00  0.00     0.198 A 
ATOM     88  C   UNL A   1      45.845  25.965  35.747  1.00  0.00     0.198 A 
ATOM     89  F   UNL A   1      43.647  25.621  34.982  1.00  0.00    -0.203 F 
ATOM     90  F   UNL A   1      48.213  28.610  35.016  1.00  0.00    -0.200 F 
ATOM     91  C   UNL A   1      47.006  26.723  35.765  1.00  0.00     0.200 A 
ATOM     92  F   UNL A   1      45.765  24.846  36.480  1.00  0.00    -0.200 F 
ATOM     93  F   UNL A   1      48.053  26.328  36.503  1.00  0.00    -0.200 F 
ENDBRANCH  60  83
ENDBRANCH  34  35
ENDBRANCH  26  29
ENDBRANCH  24  25
ENDBRANCH   1  24
TORSDOF 11
ENDMDL
MODEL 2
REMARK VINA RESULT:     -13.6      1.452      2.931
REMARK SMILES Cc1ccc2c(c1)OCCN2c1sc(C(=O)NCCCNC(=O)c2ccc(-c3c4nc(c(-c5c(F)c(F)c(F)c(F)c5F)c5ccc([nH]5)c(-c5c(F)c(F)c(F)c(F)c5F)c5nc(c(-c6c(F)c(F)c(F)c(F)c6F)c6ccc3[nH]6)C=C5)C=C4)cc2)cc1C
REMARK SMILES IDX 19 1 18 2 17 3 15 4 16 5 14 7 12 8 13 9 88 10 87 11 89 12
REMARK SMILES IDX 11 13 1 14 2 15 3 16 7 17 4 18 6 19 5 20 8 21 9 22 10 23
REMARK SMILES IDX 20 24 21 25 22 26 23 28 24 29 25 30 86 31 26 32 85 33 27 34
REMARK SMILES IDX 28 35 29 36 79 37 30 38 84 39 78 40 80 41 31 42 83 43 77 44
REMARK SMILES IDX 76 45 32 47 64 48 44 49 63 50 45 51 48 52 62 53 81 54 46 55
REMARK SMILES IDX 47 56 61 58 82 59 49 60 33 61 34 62 42 63 35 64 36 65 40 66
REMARK SMILES IDX 43 67 37 68 38 69 41 70 39 71 65 72 66 73 74 74 67 75 68 76
REMARK SMILES IDX 72 77 75 78 69 79 70 80 73 81 71 82 50 83 51 84 59 85 52 86
REMARK SMILES IDX 53 87 57 88 60 89 54 90 55 91 58 92 56 93
REMARK H PARENT 17 6 21 27 80 46 48 57
REMARK Flexibility Score: inf
ROOT
ATOM      1  C   UNL A   1      31.583  29.914  25.784  1.00  0.00     0.042 C 
ENDROOT
BRANCH   1   2
ATOM      2  C   UNL A   1      32.304  29.404  24.539  1.00  0.00     0.118 C 
BRANCH   2   3
ATOM      3  N   UNL A   1      31.372  29.171  23.452  1.00  0.00    -0.351 N 
ATOM      4  C   UNL A   1      30.818  28.035  22.914  1.00  0.00     0.261 C 
ATOM      5  O   UNL A   1      30.012  28.243  22.001  1.00  0.00    -0.268 OA
ATOM      6  H   UNL A   1      31.075  29.998  23.007  1.00  0.00     0.163 HD
BRANCH   4   7
ATOM      7  C   UNL A   1      31.078  26.689  23.401  1.00  0.00     0.094 A 
ATOM      8  C   UNL A   1      31.940  24.416  23.940  1.00  0.00     0.099 A 
ATOM      9  S   UNL A   1      31.958  25.480  22.587  1.00  0.00    -0.112 S 
ATOM     10  C   UNL A   1      31.034  24.861  24.894  1.00  0.00    -0.015 A 
ATOM     11  C   UNL A   1      30.548  26.169  24.568  1.00  0.00     0.031 A 
ATOM     12  C   UNL A   1      30.638  24.150  26.146  1.00  0.00     0.047 C 
BRANCH   8  13
ATOM     13  N   UNL A   1      32.680  23.271  23.984  1.00  0.00    -0.327 N 
ATOM     14  C   UNL A   1      38.056  22.634  25.980  1.00  0.00     0.044 C 
ATOM     15  C   UNL A   1      36.666  22.811  25.446  1.00  0.00    -0.047 A 
ATOM     16  C   UNL A   1      36.087  24.078  25.358  1.00  0.00     0.006 A 
ATOM     17  C   UNL A   1      35.901  21.699  25.085  1.00  0.00     0.052 A 
ATOM     18  C   UNL A   1      34.775  24.234  24.891  1.00  0.00     0.030 A 
ATOM     19  C   UNL A   1      34.591  21.857  24.619  1.00  0.00     0.143 A 
ATOM     20  C   UNL A   1      34.003  23.135  24.481  1.00  0.00     0.085 A 
ATOM     21  O   UNL A   1      33.939  20.682  24.315  1.00  0.00    -0.490 OA
ATOM     22  C   UNL A   1      32.520  20.855  24.242  1.00  0.00     0.251 C 
ATOM     23  C   UNL A   1      32.157  22.049  23.369  1.00  0.00     0.165 C 
ENDBRANCH   8  13
ENDBRANCH   4   7
ENDBRANCH   2   3
ENDBRANCH   1   2
BRANCH   1  24
ATOM     24  C   UNL A   1      32.537  30.376  26.884  1.00  0.00     0.118 C 
BRANCH  24  25
ATOM     25  N   UNL A   1      32.570  31.827  27.033  1.00  0.00    -0.352 N 
ATOM     26  C   UNL A   1      33.509  32.636  27.626  1.00  0.00     0.251 C 
ATOM     27  H   UNL A   1      31.799  32.301  26.647  1.00  0.00     0.163 HD
ATOM     28  O   UNL A   1      33.270  33.829  27.791  1.00  0.00    -0.269 OA
BRANCH  26  29
ATOM     29  C   UNL A   1      34.794  32.073  28.096  1.00  0.00     0.039 A 
ATOM     30  C   UNL A   1      34.905  30.723  28.432  1.00  0.00     0.014 A 
ATOM     31  C   UNL A   1      35.907  32.913  28.204  1.00  0.00     0.014 A 
ATOM     32  C   UNL A   1      36.063  30.260  29.047  1.00  0.00     0.010 A 
ATOM     33  C   UNL A   1      37.101  32.422  28.739  1.00  0.00     0.010 A 
ATOM     34  C   UNL A   1      37.171  31.107  29.221  1.00  0.00    -0.014 A 
BRANCH  34  35
ATOM     35  C   UNL A   1      38.367  30.597  29.942  1.00  0.00     0.031 A 
ATOM     36  C   UNL A   1      38.609  30.967  31.382  1.00  0.00     0.074 A 
ATOM     37  C   UNL A   1      39.190  29.727  29.325  1.00  0.00     0.049 A 
ATOM     38  N   UNL A   1      39.554  30.559  32.192  1.00  0.00    -0.248 NA
ATOM     39  C   UNL A   1      37.671  31.922  31.996  1.00  0.00     0.031 C 
ATOM     40  C   UNL A   1      39.057  29.287  27.936  1.00  0.00     0.029 A 
ATOM     41  N   UNL A   1      40.276  29.031  29.793  1.00  0.00    -0.354 N 
ATOM     42  C   UNL A   1      39.333  31.213  33.397  1.00  0.00     0.074 A 
ATOM     43  C   UNL A   1      38.188  32.075  33.205  1.00  0.00     0.031 C 
ATOM     44  C   UNL A   1      39.979  28.347  27.683  1.00  0.00     0.029 A 
ATOM     45  C   UNL A   1      40.806  28.159  28.871  1.00  0.00     0.049 A 
ATOM     46  H   UNL A   1      40.640  29.144  30.700  1.00  0.00     0.167 HD
ATOM     47  C   UNL A   1      40.008  31.088  34.564  1.00  0.00     0.037 A 
ATOM     48  C   UNL A   1      41.843  27.305  28.971  1.00  0.00     0.037 A 
ATOM     49  C   UNL A   1      41.126  30.206  34.764  1.00  0.00     0.049 A 
ATOM     50  C   UNL A   1      42.605  27.223  30.263  1.00  0.00     0.074 A 
ATOM     51  C   UNL A   1      41.850  29.980  35.923  1.00  0.00     0.029 A 
ATOM     52  N   UNL A   1      41.682  29.399  33.782  1.00  0.00    -0.354 N 
ATOM     53  N   UNL A   1      42.368  27.828  31.402  1.00  0.00    -0.248 NA
ATOM     54  C   UNL A   1      43.787  26.349  30.282  1.00  0.00     0.031 C 
ATOM     55  C   UNL A   1      42.871  29.072  35.631  1.00  0.00     0.029 A 
ATOM     56  C   UNL A   1      42.759  28.698  34.301  1.00  0.00     0.049 A 
ATOM     57  H   UNL A   1      41.359  29.334  32.854  1.00  0.00     0.167 HD
ATOM     58  C   UNL A   1      43.367  27.412  32.269  1.00  0.00     0.074 A 
ATOM     59  C   UNL A   1      44.197  26.478  31.537  1.00  0.00     0.031 C 
ATOM     60  C   UNL A   1      43.581  27.779  33.556  1.00  0.00     0.037 A 
BRANCH  47  61
ATOM     61  C   UNL A   1      39.560  31.924  35.728  1.00  0.00     0.064 A 
ATOM     62  C   UNL A   1      40.093  33.199  35.963  1.00  0.00     0.173 A 
ATOM     63  C   UNL A   1      38.536  31.473  36.575  1.00  0.00     0.173 A 
ATOM     64  F   UNL A   1      41.080  33.673  35.187  1.00  0.00    -0.203 F 
ATOM     65  C   UNL A   1      39.630  33.986  37.015  1.00  0.00     0.198 A 
ATOM     66  C   UNL A   1      38.057  32.272  37.609  1.00  0.00     0.198 A 
ATOM     67  F   UNL A   1      37.987  30.263  36.388  1.00  0.00    -0.203 F 
ATOM     68  F   UNL A   1      40.176  35.189  37.241  1.00  0.00    -0.200 F 
ATOM     69  C   UNL A   1      38.607  33.526  37.831  1.00  0.00     0.200 A 
ATOM     70  F   UNL A   1      37.060  31.832  38.389  1.00  0.00    -0.200 F 
ATOM     71  F   UNL A   1      38.153  34.291  38.833  1.00  0.00    -0.200 F 
ENDBRANCH  47  61
BRANCH  48  72
ATOM     72  C   UNL A   1      42.209  26.458  27.808  1.00  0.00     0.064 A 
ATOM     73  C   UNL A   1      43.224  26.849  26.924  1.00  0.00     0.173 A 
ATOM     74  C   UNL A   1      41.577  25.228  27.573  1.00  0.00     0.173 A 
ATOM     75  F   UNL A   1      43.842  28.026  27.093  1.00  0.00    -0.203 F 
ATOM     76  C   UNL A   1      43.590  26.041  25.849  1.00  0.00     0.198 A 
ATOM     77  C   UNL A   1      41.963  24.409  26.516  1.00  0.00     0.198 A 
ATOM     78  F   UNL A   1      40.599  24.809  28.392  1.00  0.00    -0.203 F 
ATOM     79  F   UNL A   1      44.544  26.451  25.001  1.00  0.00    -0.200 F 
ATOM     80  C   UNL A   1      42.966  24.818  25.651  1.00  0.00     0.200 A 
ATOM     81  F   UNL A   1      41.367  23.222  26.338  1.00  0.00    -0.200 F 
ATOM     82  F   UNL A   1      43.330  24.036  24.626  1.00  0.00    -0.200 F 
ENDBRANCH  48  72
BRANCH  60  83
ATOM     83  C   UNL A   1      44.766  27.187  34.258  1.00  0.00     0.064 A 
ATOM     84  C   UNL A   1      44.680  25.944  34.900  1.00  0.00     0.173 A 
ATOM     85  C   UNL A   1      46.015  27.823  34.215  1.00  0.00     0.173 A 
ATOM     86  F   UNL A   1      43.504  25.305  34.979  1.00  0.00    -0.203 F 
ATOM     87  C   UNL A   1      45.803  25.362  35.481  1.00  0.00     0.198 A 
ATOM     88  C   UNL A   1      47.142  27.226  34.774  1.00  0.00     0.198 A 
ATOM     89  F   UNL A   1      46.150  29.011  33.605  1.00  0.00    -0.203 F 
ATOM     90  F   UNL A   1      45.693  24.184  36.112  1.00  0.00    -0.200 F 
ATOM     91  C   UNL A   1      47.034  25.996  35.407  1.00  0.00     0.200 A 
ATOM     92  F   UNL A   1      48.333  27.834  34.691  1.00  0.00    -0.200 F 
ATOM     93  F   UNL A   1      48.118  25.424  35.949  1.00  0.00    -0.200 F 
ENDBRANCH  60  83
ENDBRANCH  34  35
ENDBRANCH  26  29
ENDBRANCH  24  25
ENDBRANCH   1  24
TORSDOF 11
ENDMDL
MODEL 3
REMARK VINA RESULT:     -13.6      1.454      2.463
REMARK SMILES Cc1ccc2c(c1)OCCN2c1sc(C(=O)NCCCNC(=O)c2ccc(-c3c4nc(c(-c5c(F)c(F)c(F)c(F)c5F)c5ccc([nH]5)c(-c5c(F)c(F)c(F)c(F)c5F)c5nc(c(-c6c(F)c(F)c(F)c(F)c6F)c6ccc3[nH]6)C=C5)C=C4)cc2)cc1C
REMARK SMILES IDX 19 1 18 2 17 3 15 4 16 5 14 7 12 8 13 9 88 10 87 11 89 12
REMARK SMILES IDX 11 13 1 14 2 15 3 16 7 17 4 18 6 19 5 20 8 21 9 22 10 23
REMARK SMILES IDX 20 24 21 25 22 26 23 28 24 29 25 30 86 31 26 32 85 33 27 34
REMARK SMILES IDX 28 35 29 36 79 37 30 38 84 39 78 40 80 41 31 42 83 43 77 44
REMARK SMILES IDX 76 45 32 47 64 48 44 49 63 50 45 51 48 52 62 53 81 54 46 55
REMARK SMILES IDX 47 56 61 58 82 59 49 60 33 61 34 62 42 63 35 64 36 65 40 66
REMARK SMILES IDX 43 67 37 68 38 69 41 70 39 71 65 72 66 73 74 74 67 75 68 76
REMARK SMILES IDX 72 77 75 78 69 79 70 80 73 81 71 82 50 83 51 84 59 85 52 86
REMARK SMILES IDX 53 87 57 88 60 89 54 90 55 91 58 92 56 93
REMARK H PARENT 17 6 21 27 80 46 48 57
REMARK Flexibility Score: inf
ROOT
ATOM      1  C   UNL A   1      31.536  30.074  25.707  1.00  0.00     0.042 C 
ENDROOT
BRANCH   1   2
ATOM      2  C   UNL A   1      32.227  29.384  24.535  1.00  0.00     0.118 C 
BRANCH   2   3
ATOM      3  N   UNL A   1      31.298  29.137  23.448  1.00  0.00    -0.351 N 
ATOM      4  C   UNL A   1      30.758  27.993  22.914  1.00  0.00     0.261 C 
ATOM      5  O   UNL A   1      29.949  28.189  22.001  1.00  0.00    -0.268 OA
ATOM      6  H   UNL A   1      30.992  29.959  23.002  1.00  0.00     0.163 HD
BRANCH   4   7
ATOM      7  C   UNL A   1      31.033  26.652  23.405  1.00  0.00     0.094 A 
ATOM      8  C   UNL A   1      31.918  24.388  23.945  1.00  0.00     0.099 A 
ATOM      9  S   UNL A   1      31.912  25.445  22.587  1.00  0.00    -0.112 S 
ATOM     10  C   UNL A   1      31.020  24.831  24.907  1.00  0.00    -0.015 A 
ATOM     11  C   UNL A   1      30.520  26.134  24.581  1.00  0.00     0.031 A 
ATOM     12  C   UNL A   1      30.644  24.123  26.167  1.00  0.00     0.047 C 
BRANCH   8  13
ATOM     13  N   UNL A   1      32.667  23.248  23.986  1.00  0.00    -0.327 N 
ATOM     14  C   UNL A   1      38.044  22.647  25.991  1.00  0.00     0.044 C 
ATOM     15  C   UNL A   1      36.654  22.815  25.454  1.00  0.00    -0.047 A 
ATOM     16  C   UNL A   1      36.065  24.078  25.370  1.00  0.00     0.006 A 
ATOM     17  C   UNL A   1      35.899  21.698  25.088  1.00  0.00     0.052 A 
ATOM     18  C   UNL A   1      34.752  24.225  24.901  1.00  0.00     0.030 A 
ATOM     19  C   UNL A   1      34.588  21.848  24.619  1.00  0.00     0.143 A 
ATOM     20  C   UNL A   1      33.991  23.121  24.485  1.00  0.00     0.085 A 
ATOM     21  O   UNL A   1      33.946  20.669  24.309  1.00  0.00    -0.490 OA
ATOM     22  C   UNL A   1      32.527  20.830  24.234  1.00  0.00     0.251 C 
ATOM     23  C   UNL A   1      32.155  22.026  23.366  1.00  0.00     0.165 C 
ENDBRANCH   8  13
ENDBRANCH   4   7
ENDBRANCH   2   3
ENDBRANCH   1   2
BRANCH   1  24
ATOM     24  C   UNL A   1      32.503  30.504  26.808  1.00  0.00     0.118 C 
BRANCH  24  25
ATOM     25  N   UNL A   1      32.540  31.951  26.996  1.00  0.00    -0.352 N 
ATOM     26  C   UNL A   1      33.473  32.739  27.625  1.00  0.00     0.251 C 
ATOM     27  H   UNL A   1      31.777  32.439  26.613  1.00  0.00     0.163 HD
ATOM     28  O   UNL A   1      33.236  33.928  27.819  1.00  0.00    -0.269 OA
BRANCH  26  29
ATOM     29  C   UNL A   1      34.749  32.158  28.098  1.00  0.00     0.039 A 
ATOM     30  C   UNL A   1      34.825  30.822  28.492  1.00  0.00     0.014 A 
ATOM     31  C   UNL A   1      35.888  32.968  28.151  1.00  0.00     0.014 A 
ATOM     32  C   UNL A   1      35.980  30.351  29.107  1.00  0.00     0.010 A 
ATOM     33  C   UNL A   1      37.076  32.465  28.687  1.00  0.00     0.010 A 
ATOM     34  C   UNL A   1      37.115  31.171  29.225  1.00  0.00    -0.014 A 
BRANCH  34  35
ATOM     35  C   UNL A   1      38.308  30.656  29.949  1.00  0.00     0.031 A 
ATOM     36  C   UNL A   1      38.547  31.022  31.390  1.00  0.00     0.074 A 
ATOM     37  C   UNL A   1      39.131  29.786  29.332  1.00  0.00     0.049 A 
ATOM     38  N   UNL A   1      39.489  30.611  32.201  1.00  0.00    -0.248 NA
ATOM     39  C   UNL A   1      37.610  31.977  32.003  1.00  0.00     0.031 C 
ATOM     40  C   UNL A   1      39.001  29.349  27.942  1.00  0.00     0.029 A 
ATOM     41  N   UNL A   1      40.214  29.086  29.801  1.00  0.00    -0.354 N 
ATOM     42  C   UNL A   1      39.266  31.262  33.407  1.00  0.00     0.074 A 
ATOM     43  C   UNL A   1      38.124  32.127  33.215  1.00  0.00     0.031 C 
ATOM     44  C   UNL A   1      39.921  28.407  27.689  1.00  0.00     0.029 A 
ATOM     45  C   UNL A   1      40.745  28.215  28.879  1.00  0.00     0.049 A 
ATOM     46  H   UNL A   1      40.576  29.196  30.709  1.00  0.00     0.167 HD
ATOM     47  C   UNL A   1      39.938  31.133  34.576  1.00  0.00     0.037 A 
ATOM     48  C   UNL A   1      41.779  27.359  28.979  1.00  0.00     0.037 A 
ATOM     49  C   UNL A   1      41.054  30.247  34.777  1.00  0.00     0.049 A 
ATOM     50  C   UNL A   1      42.537  27.271  30.274  1.00  0.00     0.074 A 
ATOM     51  C   UNL A   1      41.773  30.018  35.937  1.00  0.00     0.029 A 
ATOM     52  N   UNL A   1      41.610  29.441  33.795  1.00  0.00    -0.354 N 
ATOM     53  N   UNL A   1      42.299  27.875  31.413  1.00  0.00    -0.248 NA
ATOM     54  C   UNL A   1      43.717  26.394  30.294  1.00  0.00     0.031 C 
ATOM     55  C   UNL A   1      42.794  29.107  35.646  1.00  0.00     0.029 A 
ATOM     56  C   UNL A   1      42.684  28.737  34.315  1.00  0.00     0.049 A 
ATOM     57  H   UNL A   1      41.290  29.380  32.866  1.00  0.00     0.167 HD
ATOM     58  C   UNL A   1      43.295  27.454  32.282  1.00  0.00     0.074 A 
ATOM     59  C   UNL A   1      44.125  26.520  31.550  1.00  0.00     0.031 C 
ATOM     60  C   UNL A   1      43.506  27.818  33.570  1.00  0.00     0.037 A 
BRANCH  47  61
ATOM     61  C   UNL A   1      39.488  31.967  35.741  1.00  0.00     0.064 A 
ATOM     62  C   UNL A   1      38.481  31.527  36.611  1.00  0.00     0.173 A 
ATOM     63  C   UNL A   1      40.120  33.187  36.029  1.00  0.00     0.173 A 
ATOM     64  F   UNL A   1      37.840  30.373  36.375  1.00  0.00    -0.203 F 
ATOM     65  C   UNL A   1      38.110  32.287  37.718  1.00  0.00     0.198 A 
ATOM     66  C   UNL A   1      39.765  33.930  37.150  1.00  0.00     0.198 A 
ATOM     67  F   UNL A   1      41.095  33.648  35.231  1.00  0.00    -0.203 F 
ATOM     68  F   UNL A   1      37.122  31.862  38.519  1.00  0.00    -0.200 F 
ATOM     69  C   UNL A   1      38.758  33.482  37.992  1.00  0.00     0.200 A 
ATOM     70  F   UNL A   1      40.400  35.078  37.421  1.00  0.00    -0.200 F 
ATOM     71  F   UNL A   1      38.409  34.203  39.066  1.00  0.00    -0.200 F 
ENDBRANCH  47  61
BRANCH  48  72
ATOM     72  C   UNL A   1      42.147  26.513  27.815  1.00  0.00     0.064 A 
ATOM     73  C   UNL A   1      43.155  26.910  26.927  1.00  0.00     0.173 A 
ATOM     74  C   UNL A   1      41.522  25.278  27.584  1.00  0.00     0.173 A 
ATOM     75  F   UNL A   1      43.766  28.092  27.093  1.00  0.00    -0.203 F 
ATOM     76  C   UNL A   1      43.523  26.105  25.851  1.00  0.00     0.198 A 
ATOM     77  C   UNL A   1      41.909  24.461  26.526  1.00  0.00     0.198 A 
ATOM     78  F   UNL A   1      40.551  24.853  28.407  1.00  0.00    -0.203 F 
ATOM     79  F   UNL A   1      44.470  26.521  24.999  1.00  0.00    -0.200 F 
ATOM     80  C   UNL A   1      42.907  24.878  25.657  1.00  0.00     0.200 A 
ATOM     81  F   UNL A   1      41.321  23.270  26.351  1.00  0.00    -0.200 F 
ATOM     82  F   UNL A   1      43.271  24.097  24.631  1.00  0.00    -0.200 F 
ENDBRANCH  48  72
BRANCH  60  83
ATOM     83  C   UNL A   1      44.688  27.222  34.274  1.00  0.00     0.064 A 
ATOM     84  C   UNL A   1      45.922  27.886  34.307  1.00  0.00     0.173 A 
ATOM     85  C   UNL A   1      44.563  26.024  34.993  1.00  0.00     0.173 A 
ATOM     86  F   UNL A   1      46.092  29.028  33.623  1.00  0.00    -0.203 F 
ATOM     87  C   UNL A   1      46.993  27.368  35.029  1.00  0.00     0.198 A 
ATOM     88  C   UNL A   1      45.629  25.522  35.735  1.00  0.00     0.198 A 
ATOM     89  F   UNL A   1      43.401  25.355  34.999  1.00  0.00    -0.203 F 
ATOM     90  F   UNL A   1      48.172  28.007  35.027  1.00  0.00    -0.200 F 
ATOM     91  C   UNL A   1      46.842  26.194  35.752  1.00  0.00     0.200 A 
ATOM     92  F   UNL A   1      45.478  24.394  36.444  1.00  0.00    -0.200 F 
ATOM     93  F   UNL A   1      47.869  25.707  36.463  1.00  0.00    -0.200 F 
ENDBRANCH  60  83
ENDBRANCH  34  35
ENDBRANCH  26  29
ENDBRANCH  24  25
ENDBRANCH   1  24
TORSDOF 11
ENDMDL
