MODEL 1
REMARK VINA RESULT:     -12.2      0.000      0.000
REMARK SMILES CC[C@H](C(=O)NCCCNC(=O)c1ccc(-c2c3nc(c(-c4c(F)c(F)c(F)c(F)c4F)c4ccc([nH]4)c(-c4c(F)c(F)c(F)c(F)c4F)c4nc(c(-c5c(F)c(F)c(F)c(F)c5F)c5ccc2[nH]5)C=C4)C=C3)cc1)N(C)c1cc(C)ccc1[N+](=O)[O-]
REMARK SMILES IDX 7 1 6 2 4 3 5 4 3 6 2 7 1 8 76 9 77 10 78 11 79 12 84 13
REMARK SMILES IDX 80 14 83 15 81 16 82 17 85 18 86 19 87 20 8 21 9 22 10 23
REMARK SMILES IDX 11 24 12 26 13 27 14 28 75 29 15 30 74 31 16 32 17 33 18 34
REMARK SMILES IDX 68 35 19 36 73 37 67 38 69 39 20 40 72 41 66 42 65 43 21 45
REMARK SMILES IDX 53 46 33 47 52 48 34 49 37 50 51 51 70 52 35 53 36 54 50 56
REMARK SMILES IDX 71 57 38 58 22 59 23 60 31 61 24 62 25 63 29 64 32 65 26 66
REMARK SMILES IDX 27 67 30 68 28 69 54 70 55 71 63 72 56 73 57 74 61 75 64 76
REMARK SMILES IDX 58 77 59 78 62 79 60 80 39 81 40 82 48 83 41 84 42 85 46 86
REMARK SMILES IDX 49 87 43 88 44 89 47 90 45 91
REMARK H PARENT 6 5 10 25 69 44 37 55
REMARK Flexibility Score: inf
ROOT
ATOM      1  C   UNL A   1      31.772  30.662  26.135  1.00  0.00     0.117 C 
ENDROOT
BRANCH   1   2
ATOM      2  N   UNL A   1      31.107  30.413  24.875  1.00  0.00    -0.354 N 
ATOM      3  C   UNL A   1      31.027  29.302  24.101  1.00  0.00     0.242 C 
ATOM      4  O   UNL A   1      30.470  29.436  23.006  1.00  0.00    -0.273 OA
ATOM      5  H   UNL A   1      30.626  31.191  24.513  1.00  0.00     0.163 HD
BRANCH   3   6
ATOM      6  C   UNL A   1      31.538  27.926  24.553  1.00  0.00     0.171 C 
BRANCH   6   7
ATOM      7  C   UNL A   1      30.513  26.784  24.678  1.00  0.00     0.032 C 
ATOM      8  C   UNL A   1      30.659  25.946  25.947  1.00  0.00     0.006 C 
ENDBRANCH   6   7
BRANCH   6   9
ATOM      9  N   UNL A   1      32.804  27.477  23.882  1.00  0.00    -0.357 N 
ATOM     10  C   UNL A   1      33.789  28.536  23.634  1.00  0.00     0.144 C 
BRANCH   9  11
ATOM     11  C   UNL A   1      33.248  26.171  23.686  1.00  0.00     0.116 A 
ATOM     12  C   UNL A   1      34.125  25.596  24.639  1.00  0.00     0.036 A 
ATOM     13  C   UNL A   1      33.011  25.361  22.556  1.00  0.00     0.292 A 
ATOM     14  C   UNL A   1      34.717  24.323  24.484  1.00  0.00    -0.049 A 
ATOM     15  C   UNL A   1      33.500  24.039  22.439  1.00  0.00     0.088 A 
ATOM     16  C   UNL A   1      35.792  23.872  25.434  1.00  0.00     0.044 C 
ATOM     17  C   UNL A   1      34.353  23.524  23.405  1.00  0.00     0.010 A 
BRANCH  13  18
ATOM     18  N   UNL A   1      32.434  25.885  21.326  1.00  0.00     0.064 N 
ATOM     19  O   UNL A   1      31.243  26.241  21.376  1.00  0.00    -0.258 OA
ATOM     20  O   UNL A   1      33.125  25.836  20.300  1.00  0.00    -0.258 OA
ENDBRANCH  13  18
ENDBRANCH   9  11
ENDBRANCH   6   9
ENDBRANCH   3   6
ENDBRANCH   1   2
BRANCH   1  21
ATOM     21  C   UNL A   1      31.478  32.082  26.589  1.00  0.00     0.042 C 
BRANCH  21  22
ATOM     22  C   UNL A   1      32.693  32.682  27.275  1.00  0.00     0.118 C 
BRANCH  22  23
ATOM     23  N   UNL A   1      32.486  34.101  27.551  1.00  0.00    -0.352 N 
ATOM     24  C   UNL A   1      33.006  34.860  28.569  1.00  0.00     0.251 C 
ATOM     25  H   UNL A   1      31.895  34.576  26.923  1.00  0.00     0.163 HD
ATOM     26  O   UNL A   1      32.516  35.949  28.853  1.00  0.00    -0.269 OA
BRANCH  24  27
ATOM     27  C   UNL A   1      34.160  34.339  29.326  1.00  0.00     0.039 A 
ATOM     28  C   UNL A   1      33.953  33.569  30.471  1.00  0.00     0.014 A 
ATOM     29  C   UNL A   1      35.455  34.604  28.875  1.00  0.00     0.014 A 
ATOM     30  C   UNL A   1      35.052  33.012  31.129  1.00  0.00     0.010 A 
ATOM     31  C   UNL A   1      36.531  33.953  29.456  1.00  0.00     0.010 A 
ATOM     32  C   UNL A   1      36.346  33.173  30.607  1.00  0.00    -0.014 A 
BRANCH  32  33
ATOM     33  C   UNL A   1      37.544  32.604  31.269  1.00  0.00     0.031 A 
ATOM     34  C   UNL A   1      38.291  31.486  30.588  1.00  0.00     0.074 A 
ATOM     35  C   UNL A   1      37.909  33.023  32.496  1.00  0.00     0.049 A 
ATOM     36  N   UNL A   1      39.249  30.726  31.048  1.00  0.00    -0.248 NA
ATOM     37  C   UNL A   1      37.867  31.149  29.217  1.00  0.00     0.031 C 
ATOM     38  C   UNL A   1      37.241  34.070  33.271  1.00  0.00     0.029 A 
ATOM     39  N   UNL A   1      38.926  32.602  33.315  1.00  0.00    -0.354 N 
ATOM     40  C   UNL A   1      39.523  29.815  30.036  1.00  0.00     0.074 A 
ATOM     41  C   UNL A   1      38.580  30.062  28.970  1.00  0.00     0.031 C 
ATOM     42  C   UNL A   1      37.880  34.225  34.443  1.00  0.00     0.029 A 
ATOM     43  C   UNL A   1      38.969  33.258  34.522  1.00  0.00     0.049 A 
ATOM     44  H   UNL A   1      39.566  31.898  33.062  1.00  0.00     0.167 HD
ATOM     45  C   UNL A   1      40.500  28.880  29.982  1.00  0.00     0.037 A 
ATOM     46  C   UNL A   1      39.789  33.081  35.576  1.00  0.00     0.037 A 
ATOM     47  C   UNL A   1      41.461  28.666  31.029  1.00  0.00     0.049 A 
ATOM     48  C   UNL A   1      40.859  32.022  35.494  1.00  0.00     0.074 A 
ATOM     49  C   UNL A   1      42.509  27.764  31.069  1.00  0.00     0.029 A 
ATOM     50  N   UNL A   1      41.498  29.382  32.216  1.00  0.00    -0.354 N 
ATOM     51  N   UNL A   1      41.135  31.195  34.515  1.00  0.00    -0.248 NA
ATOM     52  C   UNL A   1      41.740  31.877  36.663  1.00  0.00     0.031 C 
ATOM     53  C   UNL A   1      43.164  27.914  32.294  1.00  0.00     0.029 A 
ATOM     54  C   UNL A   1      42.554  28.942  32.995  1.00  0.00     0.049 A 
ATOM     55  H   UNL A   1      40.869  30.095  32.467  1.00  0.00     0.167 HD
ATOM     56  C   UNL A   1      42.243  30.468  34.929  1.00  0.00     0.074 A 
ATOM     57  C   UNL A   1      42.596  30.957  36.244  1.00  0.00     0.031 C 
ATOM     58  C   UNL A   1      42.909  29.480  34.282  1.00  0.00     0.037 A 
BRANCH  45  59
ATOM     59  C   UNL A   1      40.598  28.045  28.738  1.00  0.00     0.064 A 
ATOM     60  C   UNL A   1      39.899  26.834  28.616  1.00  0.00     0.173 A 
ATOM     61  C   UNL A   1      41.360  28.475  27.642  1.00  0.00     0.173 A 
ATOM     62  F   UNL A   1      39.169  26.369  29.642  1.00  0.00    -0.203 F 
ATOM     63  C   UNL A   1      39.978  26.074  27.453  1.00  0.00     0.198 A 
ATOM     64  C   UNL A   1      41.410  27.729  26.467  1.00  0.00     0.198 A 
ATOM     65  F   UNL A   1      42.045  29.627  27.704  1.00  0.00    -0.203 F 
ATOM     66  F   UNL A   1      39.339  24.898  27.379  1.00  0.00    -0.200 F 
ATOM     67  C   UNL A   1      40.724  26.527  26.376  1.00  0.00     0.200 A 
ATOM     68  F   UNL A   1      42.120  28.174  25.422  1.00  0.00    -0.200 F 
ATOM     69  F   UNL A   1      40.788  25.801  25.251  1.00  0.00    -0.200 F 
ENDBRANCH  45  59
BRANCH  46  70
ATOM     70  C   UNL A   1      39.653  33.924  36.794  1.00  0.00     0.064 A 
ATOM     71  C   UNL A   1      38.866  33.502  37.876  1.00  0.00     0.173 A 
ATOM     72  C   UNL A   1      40.261  35.185  36.887  1.00  0.00     0.173 A 
ATOM     73  F   UNL A   1      38.248  32.312  37.830  1.00  0.00    -0.203 F 
ATOM     74  C   UNL A   1      38.654  34.325  38.980  1.00  0.00     0.198 A 
ATOM     75  C   UNL A   1      40.078  35.992  38.009  1.00  0.00     0.198 A 
ATOM     76  F   UNL A   1      41.032  35.635  35.888  1.00  0.00    -0.203 F 
ATOM     77  F   UNL A   1      37.839  33.924  39.965  1.00  0.00    -0.200 F 
ATOM     78  C   UNL A   1      39.262  35.568  39.048  1.00  0.00     0.200 A 
ATOM     79  F   UNL A   1      40.680  37.187  38.076  1.00  0.00    -0.200 F 
ATOM     80  F   UNL A   1      39.051  36.364  40.105  1.00  0.00    -0.200 F 
ENDBRANCH  46  70
BRANCH  58  81
ATOM     81  C   UNL A   1      44.130  28.919  34.948  1.00  0.00     0.064 A 
ATOM     82  C   UNL A   1      44.066  27.800  35.790  1.00  0.00     0.173 A 
ATOM     83  C   UNL A   1      45.391  29.476  34.686  1.00  0.00     0.173 A 
ATOM     84  F   UNL A   1      42.882  27.241  36.081  1.00  0.00    -0.203 F 
ATOM     85  C   UNL A   1      45.219  27.274  36.366  1.00  0.00     0.198 A 
ATOM     86  C   UNL A   1      46.545  28.928  35.239  1.00  0.00     0.198 A 
ATOM     87  F   UNL A   1      45.506  30.542  33.879  1.00  0.00    -0.203 F 
ATOM     88  F   UNL A   1      45.129  26.232  37.205  1.00  0.00    -0.200 F 
ATOM     89  C   UNL A   1      46.456  27.831  36.082  1.00  0.00     0.200 A 
ATOM     90  F   UNL A   1      47.741  29.458  34.950  1.00  0.00    -0.200 F 
ATOM     91  F   UNL A   1      47.566  27.315  36.627  1.00  0.00    -0.200 F 
ENDBRANCH  58  81
ENDBRANCH  32  33
ENDBRANCH  24  27
ENDBRANCH  22  23
ENDBRANCH  21  22
ENDBRANCH   1  21
TORSDOF 14
ENDMDL
MODEL 2
REMARK VINA RESULT:     -12.2      5.703     10.710
REMARK SMILES CC[C@H](C(=O)NCCCNC(=O)c1ccc(-c2c3nc(c(-c4c(F)c(F)c(F)c(F)c4F)c4ccc([nH]4)c(-c4c(F)c(F)c(F)c(F)c4F)c4nc(c(-c5c(F)c(F)c(F)c(F)c5F)c5ccc2[nH]5)C=C4)C=C3)cc1)N(C)c1cc(C)ccc1[N+](=O)[O-]
REMARK SMILES IDX 7 1 6 2 4 3 5 4 3 6 2 7 1 8 76 9 77 10 78 11 79 12 84 13
REMARK SMILES IDX 80 14 83 15 81 16 82 17 85 18 86 19 87 20 8 21 9 22 10 23
REMARK SMILES IDX 11 24 12 26 13 27 14 28 75 29 15 30 74 31 16 32 17 33 18 34
REMARK SMILES IDX 68 35 19 36 73 37 67 38 69 39 20 40 72 41 66 42 65 43 21 45
REMARK SMILES IDX 53 46 33 47 52 48 34 49 37 50 51 51 70 52 35 53 36 54 50 56
REMARK SMILES IDX 71 57 38 58 22 59 23 60 31 61 24 62 25 63 29 64 32 65 26 66
REMARK SMILES IDX 27 67 30 68 28 69 54 70 55 71 63 72 56 73 57 74 61 75 64 76
REMARK SMILES IDX 58 77 59 78 62 79 60 80 39 81 40 82 48 83 41 84 42 85 46 86
REMARK SMILES IDX 49 87 43 88 44 89 47 90 45 91
REMARK H PARENT 6 5 10 25 69 44 37 55
REMARK Flexibility Score: inf
ROOT
ATOM      1  C   UNL A   1      36.803  20.825  25.052  1.00  0.00     0.117 C 
ENDROOT
BRANCH   1   2
ATOM      2  N   UNL A   1      35.534  20.132  25.066  1.00  0.00    -0.354 N 
ATOM      3  C   UNL A   1      34.256  20.587  25.035  1.00  0.00     0.242 C 
ATOM      4  O   UNL A   1      33.369  19.739  25.175  1.00  0.00    -0.273 OA
ATOM      5  H   UNL A   1      35.610  19.152  25.106  1.00  0.00     0.163 HD
BRANCH   3   6
ATOM      6  C   UNL A   1      33.896  22.059  24.784  1.00  0.00     0.171 C 
BRANCH   6   7
ATOM      7  C   UNL A   1      33.089  22.396  23.517  1.00  0.00     0.032 C 
ATOM      8  C   UNL A   1      33.788  23.368  22.568  1.00  0.00     0.006 C 
ENDBRANCH   6   7
BRANCH   6   9
ATOM      9  N   UNL A   1      33.385  22.792  25.991  1.00  0.00    -0.357 N 
ATOM     10  C   UNL A   1      33.918  22.328  27.277  1.00  0.00     0.144 C 
BRANCH   9  11
ATOM     11  C   UNL A   1      32.668  23.986  26.022  1.00  0.00     0.116 A 
ATOM     12  C   UNL A   1      33.379  25.212  26.015  1.00  0.00     0.036 A 
ATOM     13  C   UNL A   1      31.273  24.129  26.178  1.00  0.00     0.292 A 
ATOM     14  C   UNL A   1      32.758  26.474  26.150  1.00  0.00    -0.049 A 
ATOM     15  C   UNL A   1      30.624  25.384  26.196  1.00  0.00     0.088 A 
ATOM     16  C   UNL A   1      33.595  27.709  26.339  1.00  0.00     0.044 C 
ATOM     17  C   UNL A   1      31.370  26.554  26.184  1.00  0.00     0.010 A 
BRANCH  13  18
ATOM     18  N   UNL A   1      30.412  23.015  26.551  1.00  0.00     0.064 N 
ATOM     19  O   UNL A   1      29.706  23.170  27.565  1.00  0.00    -0.258 OA
ATOM     20  O   UNL A   1      30.525  21.962  25.910  1.00  0.00    -0.258 OA
ENDBRANCH  13  18
ENDBRANCH   9  11
ENDBRANCH   6   9
ENDBRANCH   3   6
ENDBRANCH   1   2
BRANCH   1  21
ATOM     21  C   UNL A   1      37.932  19.811  24.968  1.00  0.00     0.042 C 
BRANCH  21  22
ATOM     22  C   UNL A   1      39.133  20.287  25.765  1.00  0.00     0.118 C 
BRANCH  22  23
ATOM     23  N   UNL A   1      40.112  19.215  25.921  1.00  0.00    -0.352 N 
ATOM     24  C   UNL A   1      41.473  19.313  26.072  1.00  0.00     0.251 C 
ATOM     25  H   UNL A   1      39.747  18.300  25.917  1.00  0.00     0.163 HD
ATOM     26  O   UNL A   1      42.195  18.337  25.890  1.00  0.00    -0.269 OA
BRANCH  24  27
ATOM     27  C   UNL A   1      42.055  20.614  26.447  1.00  0.00     0.039 A 
ATOM     28  C   UNL A   1      42.434  21.521  25.456  1.00  0.00     0.014 A 
ATOM     29  C   UNL A   1      42.200  20.940  27.797  1.00  0.00     0.014 A 
ATOM     30  C   UNL A   1      42.905  22.782  25.825  1.00  0.00     0.010 A 
ATOM     31  C   UNL A   1      42.551  22.231  28.158  1.00  0.00     0.010 A 
ATOM     32  C   UNL A   1      42.934  23.158  27.178  1.00  0.00    -0.014 A 
BRANCH  32  33
ATOM     33  C   UNL A   1      43.428  24.484  27.622  1.00  0.00     0.031 A 
ATOM     34  C   UNL A   1      42.425  25.555  27.970  1.00  0.00     0.074 A 
ATOM     35  C   UNL A   1      44.747  24.753  27.633  1.00  0.00     0.049 A 
ATOM     36  N   UNL A   1      42.616  26.825  28.212  1.00  0.00    -0.248 NA
ATOM     37  C   UNL A   1      41.009  25.146  28.005  1.00  0.00     0.031 C 
ATOM     38  C   UNL A   1      45.810  23.810  27.279  1.00  0.00     0.029 A 
ATOM     39  N   UNL A   1      45.419  25.909  27.939  1.00  0.00    -0.354 N 
ATOM     40  C   UNL A   1      41.350  27.363  28.404  1.00  0.00     0.074 A 
ATOM     41  C   UNL A   1      40.395  26.305  28.173  1.00  0.00     0.031 C 
ATOM     42  C   UNL A   1      47.001  24.420  27.409  1.00  0.00     0.029 A 
ATOM     43  C   UNL A   1      46.783  25.807  27.807  1.00  0.00     0.049 A 
ATOM     44  H   UNL A   1      44.967  26.736  28.226  1.00  0.00     0.167 HD
ATOM     45  C   UNL A   1      41.015  28.620  28.779  1.00  0.00     0.037 A 
ATOM     46  C   UNL A   1      47.742  26.736  27.977  1.00  0.00     0.037 A 
ATOM     47  C   UNL A   1      41.973  29.657  29.047  1.00  0.00     0.049 A 
ATOM     48  C   UNL A   1      47.339  28.132  28.380  1.00  0.00     0.074 A 
ATOM     49  C   UNL A   1      41.745  30.958  29.457  1.00  0.00     0.029 A 
ATOM     50  N   UNL A   1      43.347  29.500  28.946  1.00  0.00    -0.354 N 
ATOM     51  N   UNL A   1      46.141  28.619  28.599  1.00  0.00    -0.248 NA
ATOM     52  C   UNL A   1      48.422  29.108  28.568  1.00  0.00     0.031 C 
ATOM     53  C   UNL A   1      42.982  31.598  29.577  1.00  0.00     0.029 A 
ATOM     54  C   UNL A   1      43.981  30.681  29.290  1.00  0.00     0.049 A 
ATOM     55  H   UNL A   1      43.803  28.672  28.672  1.00  0.00     0.167 HD
ATOM     56  C   UNL A   1      46.330  29.937  28.994  1.00  0.00     0.074 A 
ATOM     57  C   UNL A   1      47.758  30.172  28.993  1.00  0.00     0.031 C 
ATOM     58  C   UNL A   1      45.406  30.872  29.324  1.00  0.00     0.037 A 
BRANCH  45  59
ATOM     59  C   UNL A   1      39.557  28.929  28.955  1.00  0.00     0.064 A 
ATOM     60  C   UNL A   1      38.762  29.336  27.871  1.00  0.00     0.173 A 
ATOM     61  C   UNL A   1      38.935  28.776  30.202  1.00  0.00     0.173 A 
ATOM     62  F   UNL A   1      39.311  29.514  26.660  1.00  0.00    -0.203 F 
ATOM     63  C   UNL A   1      37.406  29.603  28.036  1.00  0.00     0.198 A 
ATOM     64  C   UNL A   1      37.571  29.010  30.357  1.00  0.00     0.198 A 
ATOM     65  F   UNL A   1      39.647  28.385  31.270  1.00  0.00    -0.203 F 
ATOM     66  F   UNL A   1      36.679  30.036  26.997  1.00  0.00    -0.200 F 
ATOM     67  C   UNL A   1      36.810  29.429  29.276  1.00  0.00     0.200 A 
ATOM     68  F   UNL A   1      36.992  28.830  31.551  1.00  0.00    -0.200 F 
ATOM     69  F   UNL A   1      35.500  29.672  29.430  1.00  0.00    -0.200 F 
ENDBRANCH  45  59
BRANCH  46  70
ATOM     70  C   UNL A   1      49.177  26.392  27.784  1.00  0.00     0.064 A 
ATOM     71  C   UNL A   1      50.026  26.209  28.887  1.00  0.00     0.173 A 
ATOM     72  C   UNL A   1      49.742  26.286  26.505  1.00  0.00     0.173 A 
ATOM     73  F   UNL A   1      49.539  26.316  30.132  1.00  0.00    -0.203 F 
ATOM     74  C   UNL A   1      51.390  25.980  28.717  1.00  0.00     0.198 A 
ATOM     75  C   UNL A   1      51.101  26.022  26.337  1.00  0.00     0.198 A 
ATOM     76  F   UNL A   1      48.977  26.441  25.416  1.00  0.00    -0.203 F 
ATOM     77  F   UNL A   1      52.188  25.881  29.789  1.00  0.00    -0.200 F 
ATOM     78  C   UNL A   1      51.926  25.884  27.443  1.00  0.00     0.200 A 
ATOM     79  F   UNL A   1      51.612  25.914  25.104  1.00  0.00    -0.200 F 
ATOM     80  F   UNL A   1      53.240  25.674  27.281  1.00  0.00    -0.200 F 
ENDBRANCH  46  70
BRANCH  58  81
ATOM     81  C   UNL A   1      45.910  32.207  29.787  1.00  0.00     0.064 A 
ATOM     82  C   UNL A   1      46.214  32.458  31.132  1.00  0.00     0.173 A 
ATOM     83  C   UNL A   1      46.148  33.229  28.855  1.00  0.00     0.173 A 
ATOM     84  F   UNL A   1      45.990  31.517  32.061  1.00  0.00    -0.203 F 
ATOM     85  C   UNL A   1      46.716  33.693  31.531  1.00  0.00     0.198 A 
ATOM     86  C   UNL A   1      46.681  34.451  29.253  1.00  0.00     0.198 A 
ATOM     87  F   UNL A   1      45.883  33.034  27.554  1.00  0.00    -0.203 F 
ATOM     88  F   UNL A   1      46.957  33.927  32.829  1.00  0.00    -0.200 F 
ATOM     89  C   UNL A   1      46.958  34.684  30.591  1.00  0.00     0.200 A 
ATOM     90  F   UNL A   1      46.930  35.401  28.341  1.00  0.00    -0.200 F 
ATOM     91  F   UNL A   1      47.455  35.867  30.976  1.00  0.00    -0.200 F 
ENDBRANCH  58  81
ENDBRANCH  32  33
ENDBRANCH  24  27
ENDBRANCH  22  23
ENDBRANCH  21  22
ENDBRANCH   1  21
TORSDOF 14
ENDMDL
MODEL 3
REMARK VINA RESULT:     -12.1      5.774     11.121
REMARK SMILES CC[C@H](C(=O)NCCCNC(=O)c1ccc(-c2c3nc(c(-c4c(F)c(F)c(F)c(F)c4F)c4ccc([nH]4)c(-c4c(F)c(F)c(F)c(F)c4F)c4nc(c(-c5c(F)c(F)c(F)c(F)c5F)c5ccc2[nH]5)C=C4)C=C3)cc1)N(C)c1cc(C)ccc1[N+](=O)[O-]
REMARK SMILES IDX 7 1 6 2 4 3 5 4 3 6 2 7 1 8 76 9 77 10 78 11 79 12 84 13
REMARK SMILES IDX 80 14 83 15 81 16 82 17 85 18 86 19 87 20 8 21 9 22 10 23
REMARK SMILES IDX 11 24 12 26 13 27 14 28 75 29 15 30 74 31 16 32 17 33 18 34
REMARK SMILES IDX 68 35 19 36 73 37 67 38 69 39 20 40 72 41 66 42 65 43 21 45
REMARK SMILES IDX 53 46 33 47 52 48 34 49 37 50 51 51 70 52 35 53 36 54 50 56
REMARK SMILES IDX 71 57 38 58 22 59 23 60 31 61 24 62 25 63 29 64 32 65 26 66
REMARK SMILES IDX 27 67 30 68 28 69 54 70 55 71 63 72 56 73 57 74 61 75 64 76
REMARK SMILES IDX 58 77 59 78 62 79 60 80 39 81 40 82 48 83 41 84 42 85 46 86
REMARK SMILES IDX 49 87 43 88 44 89 47 90 45 91
REMARK H PARENT 6 5 10 25 69 44 37 55
REMARK Flexibility Score: inf
ROOT
ATOM      1  C   UNL A   1      37.017  20.708  24.841  1.00  0.00     0.117 C 
ENDROOT
BRANCH   1   2
ATOM      2  N   UNL A   1      35.729  20.094  25.079  1.00  0.00    -0.354 N 
ATOM      3  C   UNL A   1      34.483  20.622  25.176  1.00  0.00     0.242 C 
ATOM      4  O   UNL A   1      33.582  19.841  25.502  1.00  0.00    -0.273 OA
ATOM      5  H   UNL A   1      35.762  19.118  25.192  1.00  0.00     0.163 HD
BRANCH   3   6
ATOM      6  C   UNL A   1      34.164  22.088  24.850  1.00  0.00     0.171 C 
BRANCH   6   7
ATOM      7  C   UNL A   1      33.373  22.383  23.562  1.00  0.00     0.032 C 
ATOM      8  C   UNL A   1      34.026  23.419  22.649  1.00  0.00     0.006 C 
ENDBRANCH   6   7
BRANCH   6   9
ATOM      9  N   UNL A   1      33.666  22.894  26.015  1.00  0.00    -0.357 N 
ATOM     10  C   UNL A   1      34.284  22.574  27.307  1.00  0.00     0.144 C 
BRANCH   9  11
ATOM     11  C   UNL A   1      32.880  24.044  25.982  1.00  0.00     0.116 A 
ATOM     12  C   UNL A   1      33.518  25.307  25.913  1.00  0.00     0.036 A 
ATOM     13  C   UNL A   1      31.478  24.112  26.127  1.00  0.00     0.292 A 
ATOM     14  C   UNL A   1      32.824  26.535  25.981  1.00  0.00    -0.049 A 
ATOM     15  C   UNL A   1      30.757  25.327  26.078  1.00  0.00     0.088 A 
ATOM     16  C   UNL A   1      33.586  27.825  26.109  1.00  0.00     0.044 C 
ATOM     17  C   UNL A   1      31.433  26.536  26.007  1.00  0.00     0.010 A 
BRANCH  13  18
ATOM     18  N   UNL A   1      30.682  22.971  26.555  1.00  0.00     0.064 N 
ATOM     19  O   UNL A   1      30.142  23.054  27.673  1.00  0.00    -0.258 OA
ATOM     20  O   UNL A   1      30.689  21.963  25.836  1.00  0.00    -0.258 OA
ENDBRANCH  13  18
ENDBRANCH   9  11
ENDBRANCH   6   9
ENDBRANCH   3   6
ENDBRANCH   1   2
BRANCH   1  21
ATOM     21  C   UNL A   1      38.105  19.652  24.938  1.00  0.00     0.042 C 
BRANCH  21  22
ATOM     22  C   UNL A   1      39.247  20.144  25.808  1.00  0.00     0.118 C 
BRANCH  22  23
ATOM     23  N   UNL A   1      40.250  19.099  25.991  1.00  0.00    -0.352 N 
ATOM     24  C   UNL A   1      41.613  19.227  26.088  1.00  0.00     0.251 C 
ATOM     25  H   UNL A   1      39.901  18.180  26.055  1.00  0.00     0.163 HD
ATOM     26  O   UNL A   1      42.346  18.253  25.938  1.00  0.00    -0.269 OA
BRANCH  24  27
ATOM     27  C   UNL A   1      42.184  20.558  26.365  1.00  0.00     0.039 A 
ATOM     28  C   UNL A   1      42.497  21.416  25.309  1.00  0.00     0.014 A 
ATOM     29  C   UNL A   1      42.386  20.959  27.687  1.00  0.00     0.014 A 
ATOM     30  C   UNL A   1      42.958  22.704  25.588  1.00  0.00     0.010 A 
ATOM     31  C   UNL A   1      42.726  22.273  27.962  1.00  0.00     0.010 A 
ATOM     32  C   UNL A   1      43.043  23.153  26.916  1.00  0.00    -0.014 A 
BRANCH  32  33
ATOM     33  C   UNL A   1      43.529  24.510  27.265  1.00  0.00     0.031 A 
ATOM     34  C   UNL A   1      42.549  25.514  27.816  1.00  0.00     0.074 A 
ATOM     35  C   UNL A   1      44.803  24.864  27.014  1.00  0.00     0.049 A 
ATOM     36  N   UNL A   1      42.702  26.795  28.027  1.00  0.00    -0.248 NA
ATOM     37  C   UNL A   1      41.198  25.014  28.130  1.00  0.00     0.031 C 
ATOM     38  C   UNL A   1      45.833  23.992  26.446  1.00  0.00     0.029 A 
ATOM     39  N   UNL A   1      45.446  26.063  27.190  1.00  0.00    -0.354 N 
ATOM     40  C   UNL A   1      41.468  27.251  28.473  1.00  0.00     0.074 A 
ATOM     41  C   UNL A   1      40.556  26.132  28.428  1.00  0.00     0.031 C 
ATOM     42  C   UNL A   1      46.984  24.678  26.341  1.00  0.00     0.029 A 
ATOM     43  C   UNL A   1      46.761  26.049  26.788  1.00  0.00     0.049 A 
ATOM     44  H   UNL A   1      45.009  26.859  27.569  1.00  0.00     0.167 HD
ATOM     45  C   UNL A   1      41.134  28.485  28.919  1.00  0.00     0.037 A 
ATOM     46  C   UNL A   1      47.673  27.040  26.771  1.00  0.00     0.037 A 
ATOM     47  C   UNL A   1      42.057  29.583  29.000  1.00  0.00     0.049 A 
ATOM     48  C   UNL A   1      47.268  28.408  27.260  1.00  0.00     0.074 A 
ATOM     49  C   UNL A   1      41.833  30.868  29.459  1.00  0.00     0.029 A 
ATOM     50  N   UNL A   1      43.391  29.515  28.625  1.00  0.00    -0.354 N 
ATOM     51  N   UNL A   1      46.110  28.817  27.718  1.00  0.00    -0.248 NA
ATOM     52  C   UNL A   1      48.302  29.453  27.236  1.00  0.00     0.031 C 
ATOM     53  C   UNL A   1      43.024  31.587  29.335  1.00  0.00     0.029 A 
ATOM     54  C   UNL A   1      44.003  30.736  28.846  1.00  0.00     0.049 A 
ATOM     55  H   UNL A   1      43.836  28.717  28.258  1.00  0.00     0.167 HD
ATOM     56  C   UNL A   1      46.288  30.145  28.079  1.00  0.00     0.074 A 
ATOM     57  C   UNL A   1      47.669  30.473  27.795  1.00  0.00     0.031 C 
ATOM     58  C   UNL A   1      45.391  31.020  28.596  1.00  0.00     0.037 A 
BRANCH  45  59
ATOM     59  C   UNL A   1      39.724  28.698  29.386  1.00  0.00     0.064 A 
ATOM     60  C   UNL A   1      39.356  28.468  30.720  1.00  0.00     0.173 A 
ATOM     61  C   UNL A   1      38.741  29.178  28.508  1.00  0.00     0.173 A 
ATOM     62  F   UNL A   1      40.254  27.994  31.597  1.00  0.00    -0.203 F 
ATOM     63  C   UNL A   1      38.050  28.686  31.153  1.00  0.00     0.198 A 
ATOM     64  C   UNL A   1      37.444  29.427  28.951  1.00  0.00     0.198 A 
ATOM     65  F   UNL A   1      39.040  29.418  27.222  1.00  0.00    -0.203 F 
ATOM     66  F   UNL A   1      37.712  28.414  32.420  1.00  0.00    -0.200 F 
ATOM     67  C   UNL A   1      37.099  29.176  30.271  1.00  0.00     0.200 A 
ATOM     68  F   UNL A   1      36.529  29.913  28.102  1.00  0.00    -0.200 F 
ATOM     69  F   UNL A   1      35.847  29.400  30.692  1.00  0.00    -0.200 F 
ENDBRANCH  45  59
BRANCH  46  70
ATOM     70  C   UNL A   1      49.059  26.788  26.292  1.00  0.00     0.064 A 
ATOM     71  C   UNL A   1      49.418  27.051  24.961  1.00  0.00     0.173 A 
ATOM     72  C   UNL A   1      50.037  26.237  27.132  1.00  0.00     0.173 A 
ATOM     73  F   UNL A   1      48.514  27.563  24.113  1.00  0.00    -0.203 F 
ATOM     74  C   UNL A   1      50.685  26.730  24.479  1.00  0.00     0.198 A 
ATOM     75  C   UNL A   1      51.316  25.949  26.656  1.00  0.00     0.198 A 
ATOM     76  F   UNL A   1      49.753  25.974  28.415  1.00  0.00    -0.203 F 
ATOM     77  F   UNL A   1      50.976  26.926  23.186  1.00  0.00    -0.200 F 
ATOM     78  C   UNL A   1      51.634  26.182  25.326  1.00  0.00     0.200 A 
ATOM     79  F   UNL A   1      52.235  25.434  27.484  1.00  0.00    -0.200 F 
ATOM     80  F   UNL A   1      52.850  25.864  24.860  1.00  0.00    -0.200 F 
ENDBRANCH  46  70
BRANCH  58  81
ATOM     81  C   UNL A   1      45.890  32.386  28.961  1.00  0.00     0.064 A 
ATOM     82  C   UNL A   1      45.817  33.465  28.069  1.00  0.00     0.173 A 
ATOM     83  C   UNL A   1      46.391  32.629  30.250  1.00  0.00     0.173 A 
ATOM     84  F   UNL A   1      45.358  33.279  26.823  1.00  0.00    -0.203 F 
ATOM     85  C   UNL A   1      46.251  34.732  28.446  1.00  0.00     0.198 A 
ATOM     86  C   UNL A   1      46.793  33.905  30.633  1.00  0.00     0.198 A 
ATOM     87  F   UNL A   1      46.471  31.631  31.144  1.00  0.00    -0.203 F 
ATOM     88  F   UNL A   1      46.215  35.739  27.561  1.00  0.00    -0.200 F 
ATOM     89  C   UNL A   1      46.729  34.953  29.729  1.00  0.00     0.200 A 
ATOM     90  F   UNL A   1      47.239  34.119  31.879  1.00  0.00    -0.200 F 
ATOM     91  F   UNL A   1      47.133  36.177  30.093  1.00  0.00    -0.200 F 
ENDBRANCH  58  81
ENDBRANCH  32  33
ENDBRANCH  24  27
ENDBRANCH  22  23
ENDBRANCH  21  22
ENDBRANCH   1  21
TORSDOF 14
ENDMDL
