MODEL 1
REMARK VINA RESULT:     -11.6      0.000      0.000
REMARK SMILES C[C@@H]1C[N@@H+](CC(C)(C)C(=O)NCCCNC(=O)c2ccc(-c3c4nc(c(-c5c(F)c(F)c(F)c(F)c5F)c5ccc([nH]5)c(-c5c(F)c(F)c(F)c(F)c5F)c5nc(c(-c6c(F)c(F)c(F)c(F)c6F)c6ccc3[nH]6)C=C5)C=C4)cc2)CC[C@@H]1[NH3+]
REMARK SMILES IDX 12 1 11 2 9 3 10 4 6 6 7 7 8 8 5 9 4 10 1 11 2 12 3 13 83 14
REMARK SMILES IDX 82 15 81 16 84 18 13 22 14 23 15 24 16 25 17 27 18 28 19 29
REMARK SMILES IDX 80 30 20 31 79 32 21 33 22 34 23 35 73 36 24 37 78 38 72 39
REMARK SMILES IDX 74 40 25 41 77 42 71 43 70 44 26 46 58 47 38 48 57 49 39 50
REMARK SMILES IDX 42 51 56 52 75 53 40 54 41 55 55 57 76 58 43 59 27 60 28 61
REMARK SMILES IDX 36 62 29 63 30 64 34 65 37 66 31 67 32 68 35 69 33 70 59 71
REMARK SMILES IDX 60 72 68 73 61 74 62 75 66 76 69 77 63 78 64 79 67 80 65 81
REMARK SMILES IDX 44 82 45 83 53 84 46 85 47 86 51 87 54 88 48 89 49 90 52 91
REMARK SMILES IDX 50 92
REMARK H PARENT 11 5 4 17 84 19 84 20 84 21 15 26 74 45 42 56
REMARK Flexibility Score: inf
ROOT
ATOM      1  C   UNL A   1      31.319  30.814  26.570  1.00  0.00     0.117 C 
ENDROOT
BRANCH   1   2
ATOM      2  N   UNL A   1      31.709  30.222  25.308  1.00  0.00    -0.355 N 
ATOM      3  C   UNL A   1      32.579  29.224  25.015  1.00  0.00     0.231 C 
ATOM      4  O   UNL A   1      33.127  29.327  23.912  1.00  0.00    -0.274 OA
ATOM      5  H   UNL A   1      31.264  30.615  24.522  1.00  0.00     0.163 HD
BRANCH   3   6
ATOM      6  C   UNL A   1      32.922  28.081  25.984  1.00  0.00     0.092 C 
ATOM      7  C   UNL A   1      31.730  27.392  26.666  1.00  0.00     0.027 C 
ATOM      8  C   UNL A   1      33.794  28.719  27.087  1.00  0.00     0.027 C 
BRANCH   6   9
ATOM      9  C   UNL A   1      33.794  27.016  25.210  1.00  0.00     0.278 C 
BRANCH   9  10
ATOM     10  N   UNL A   1      33.201  25.978  24.330  1.00  0.00    -0.333 N 
ATOM     11  C   UNL A   1      31.042  23.707  24.142  1.00  0.00     0.020 C 
ATOM     12  C   UNL A   1      32.566  23.556  24.020  1.00  0.00     0.099 C 
ATOM     13  C   UNL A   1      33.305  24.614  24.865  1.00  0.00     0.271 C 
ATOM     14  C   UNL A   1      33.097  23.652  22.578  1.00  0.00     0.194 C 
ATOM     15  C   UNL A   1      32.844  25.054  22.028  1.00  0.00     0.126 C 
ATOM     16  C   UNL A   1      33.549  26.085  22.915  1.00  0.00     0.268 C 
ATOM     17  H   UNL A   1      32.206  26.198  24.345  1.00  0.00     0.348 HD
BRANCH  14  18
ATOM     18  N   UNL A   1      32.530  22.624  21.704  1.00  0.00    -0.355 N 
ATOM     19  H   UNL A   1      33.026  22.623  20.813  1.00  0.00     0.344 HD
ATOM     20  H   UNL A   1      31.542  22.822  21.542  1.00  0.00     0.344 HD
ATOM     21  H   UNL A   1      32.625  21.710  22.148  1.00  0.00     0.344 HD
ENDBRANCH  14  18
ENDBRANCH   9  10
ENDBRANCH   6   9
ENDBRANCH   3   6
ENDBRANCH   1   2
BRANCH   1  22
ATOM     22  C   UNL A   1      31.411  32.332  26.502  1.00  0.00     0.042 C 
BRANCH  22  23
ATOM     23  C   UNL A   1      32.635  32.898  27.209  1.00  0.00     0.118 C 
BRANCH  23  24
ATOM     24  N   UNL A   1      32.443  34.279  27.629  1.00  0.00    -0.352 N 
ATOM     25  C   UNL A   1      32.998  34.965  28.680  1.00  0.00     0.251 C 
ATOM     26  H   UNL A   1      31.820  34.801  27.073  1.00  0.00     0.163 HD
ATOM     27  O   UNL A   1      32.534  36.050  29.015  1.00  0.00    -0.269 OA
BRANCH  25  28
ATOM     28  C   UNL A   1      34.141  34.391  29.418  1.00  0.00     0.039 A 
ATOM     29  C   UNL A   1      33.906  33.734  30.627  1.00  0.00     0.014 A 
ATOM     30  C   UNL A   1      35.444  34.515  28.930  1.00  0.00     0.014 A 
ATOM     31  C   UNL A   1      34.972  33.151  31.315  1.00  0.00     0.010 A 
ATOM     32  C   UNL A   1      36.488  33.848  29.561  1.00  0.00     0.010 A 
ATOM     33  C   UNL A   1      36.266  33.174  30.769  1.00  0.00    -0.014 A 
BRANCH  33  34
ATOM     34  C   UNL A   1      37.403  32.517  31.462  1.00  0.00     0.031 A 
ATOM     35  C   UNL A   1      38.114  31.359  30.815  1.00  0.00     0.074 A 
ATOM     36  C   UNL A   1      37.759  32.928  32.694  1.00  0.00     0.049 A 
ATOM     37  N   UNL A   1      39.100  30.631  31.274  1.00  0.00    -0.248 NA
ATOM     38  C   UNL A   1      37.631  30.942  29.488  1.00  0.00     0.031 C 
ATOM     39  C   UNL A   1      37.106  33.998  33.450  1.00  0.00     0.029 A 
ATOM     40  N   UNL A   1      38.755  32.491  33.530  1.00  0.00    -0.354 N 
ATOM     41  C   UNL A   1      39.343  29.669  30.303  1.00  0.00     0.074 A 
ATOM     42  C   UNL A   1      38.360  29.860  29.260  1.00  0.00     0.031 C 
ATOM     43  C   UNL A   1      37.739  34.157  34.622  1.00  0.00     0.029 A 
ATOM     44  C   UNL A   1      38.817  33.178  34.717  1.00  0.00     0.049 A 
ATOM     45  H   UNL A   1      39.368  31.755  33.300  1.00  0.00     0.167 HD
ATOM     46  C   UNL A   1      40.317  28.728  30.270  1.00  0.00     0.037 A 
ATOM     47  C   UNL A   1      39.651  33.032  35.764  1.00  0.00     0.037 A 
ATOM     48  C   UNL A   1      41.309  28.559  31.298  1.00  0.00     0.049 A 
ATOM     49  C   UNL A   1      40.728  31.984  35.698  1.00  0.00     0.074 A 
ATOM     50  C   UNL A   1      42.379  27.681  31.330  1.00  0.00     0.029 A 
ATOM     51  N   UNL A   1      41.352  29.285  32.479  1.00  0.00    -0.354 N 
ATOM     52  N   UNL A   1      40.999  31.132  34.740  1.00  0.00    -0.248 NA
ATOM     53  C   UNL A   1      41.622  31.884  36.860  1.00  0.00     0.031 C 
ATOM     54  C   UNL A   1      43.038  27.842  32.553  1.00  0.00     0.029 A 
ATOM     55  C   UNL A   1      42.415  28.858  33.260  1.00  0.00     0.049 A 
ATOM     56  H   UNL A   1      40.720  29.999  32.727  1.00  0.00     0.167 HD
ATOM     57  C   UNL A   1      42.107  30.413  35.169  1.00  0.00     0.074 A 
ATOM     58  C   UNL A   1      42.472  30.947  36.465  1.00  0.00     0.031 C 
ATOM     59  C   UNL A   1      42.762  29.400  34.549  1.00  0.00     0.037 A 
BRANCH  46  60
ATOM     60  C   UNL A   1      40.359  27.814  29.078  1.00  0.00     0.064 A 
ATOM     61  C   UNL A   1      39.632  26.614  29.043  1.00  0.00     0.173 A 
ATOM     62  C   UNL A   1      41.113  28.154  27.944  1.00  0.00     0.173 A 
ATOM     63  F   UNL A   1      38.904  26.234  30.106  1.00  0.00    -0.203 F 
ATOM     64  C   UNL A   1      39.683  25.774  27.934  1.00  0.00     0.198 A 
ATOM     65  C   UNL A   1      41.135  27.328  26.823  1.00  0.00     0.198 A 
ATOM     66  F   UNL A   1      41.824  29.291  27.921  1.00  0.00    -0.203 F 
ATOM     67  F   UNL A   1      39.024  24.607  27.948  1.00  0.00    -0.200 F 
ATOM     68  C   UNL A   1      40.429  26.135  26.823  1.00  0.00     0.200 A 
ATOM     69  F   UNL A   1      41.845  27.685  25.744  1.00  0.00    -0.200 F 
ATOM     70  F   UNL A   1      40.471  25.329  25.753  1.00  0.00    -0.200 F 
ENDBRANCH  46  60
BRANCH  47  71
ATOM     71  C   UNL A   1      39.521  33.920  36.949  1.00  0.00     0.064 A 
ATOM     72  C   UNL A   1      38.772  33.526  38.066  1.00  0.00     0.173 A 
ATOM     73  C   UNL A   1      40.133  35.182  36.987  1.00  0.00     0.173 A 
ATOM     74  F   UNL A   1      38.152  32.336  38.069  1.00  0.00    -0.203 F 
ATOM     75  C   UNL A   1      38.618  34.366  39.165  1.00  0.00     0.198 A 
ATOM     76  C   UNL A   1      40.004  36.010  38.101  1.00  0.00     0.198 A 
ATOM     77  F   UNL A   1      40.866  35.605  35.948  1.00  0.00    -0.203 F 
ATOM     78  F   UNL A   1      37.856  33.983  40.198  1.00  0.00    -0.200 F 
ATOM     79  C   UNL A   1      39.240  35.607  39.185  1.00  0.00     0.200 A 
ATOM     80  F   UNL A   1      40.620  37.201  38.122  1.00  0.00    -0.200 F 
ATOM     81  F   UNL A   1      39.095  36.414  40.243  1.00  0.00    -0.200 F 
ENDBRANCH  47  71
BRANCH  59  82
ATOM     82  C   UNL A   1      43.953  28.823  35.255  1.00  0.00     0.064 A 
ATOM     83  C   UNL A   1      43.835  27.726  36.122  1.00  0.00     0.173 A 
ATOM     84  C   UNL A   1      45.233  29.359  35.047  1.00  0.00     0.173 A 
ATOM     85  F   UNL A   1      42.632  27.185  36.367  1.00  0.00    -0.203 F 
ATOM     86  C   UNL A   1      44.949  27.210  36.779  1.00  0.00     0.198 A 
ATOM     87  C   UNL A   1      46.349  28.820  35.679  1.00  0.00     0.198 A 
ATOM     88  F   UNL A   1      45.402  30.404  34.221  1.00  0.00    -0.203 F 
ATOM     89  F   UNL A   1      44.803  26.200  37.648  1.00  0.00    -0.200 F 
ATOM     90  C   UNL A   1      46.205  27.753  36.553  1.00  0.00     0.200 A 
ATOM     91  F   UNL A   1      47.564  29.335  35.446  1.00  0.00    -0.200 F 
ATOM     92  F   UNL A   1      47.275  27.252  37.184  1.00  0.00    -0.200 F 
ENDBRANCH  59  82
ENDBRANCH  33  34
ENDBRANCH  25  28
ENDBRANCH  23  24
ENDBRANCH  22  23
ENDBRANCH   1  22
TORSDOF 13
ENDMDL
MODEL 2
REMARK VINA RESULT:     -11.6      0.120      1.165
REMARK SMILES C[C@@H]1C[N@@H+](CC(C)(C)C(=O)NCCCNC(=O)c2ccc(-c3c4nc(c(-c5c(F)c(F)c(F)c(F)c5F)c5ccc([nH]5)c(-c5c(F)c(F)c(F)c(F)c5F)c5nc(c(-c6c(F)c(F)c(F)c(F)c6F)c6ccc3[nH]6)C=C5)C=C4)cc2)CC[C@@H]1[NH3+]
REMARK SMILES IDX 12 1 11 2 9 3 10 4 6 6 7 7 8 8 5 9 4 10 1 11 2 12 3 13 83 14
REMARK SMILES IDX 82 15 81 16 84 18 13 22 14 23 15 24 16 25 17 27 18 28 19 29
REMARK SMILES IDX 80 30 20 31 79 32 21 33 22 34 23 35 73 36 24 37 78 38 72 39
REMARK SMILES IDX 74 40 25 41 77 42 71 43 70 44 26 46 58 47 38 48 57 49 39 50
REMARK SMILES IDX 42 51 56 52 75 53 40 54 41 55 55 57 76 58 43 59 27 60 28 61
REMARK SMILES IDX 36 62 29 63 30 64 34 65 37 66 31 67 32 68 35 69 33 70 59 71
REMARK SMILES IDX 60 72 68 73 61 74 62 75 66 76 69 77 63 78 64 79 67 80 65 81
REMARK SMILES IDX 44 82 45 83 53 84 46 85 47 86 51 87 54 88 48 89 49 90 52 91
REMARK SMILES IDX 50 92
REMARK H PARENT 11 5 4 17 84 19 84 20 84 21 15 26 74 45 42 56
REMARK Flexibility Score: inf
ROOT
ATOM      1  C   UNL A   1      31.342  30.811  26.557  1.00  0.00     0.117 C 
ENDROOT
BRANCH   1   2
ATOM      2  N   UNL A   1      31.776  30.230  25.304  1.00  0.00    -0.355 N 
ATOM      3  C   UNL A   1      32.640  29.220  25.034  1.00  0.00     0.231 C 
ATOM      4  O   UNL A   1      33.236  29.328  23.957  1.00  0.00    -0.274 OA
ATOM      5  H   UNL A   1      31.372  30.640  24.505  1.00  0.00     0.163 HD
BRANCH   3   6
ATOM      6  C   UNL A   1      32.921  28.059  26.001  1.00  0.00     0.092 C 
ATOM      7  C   UNL A   1      31.690  27.393  26.635  1.00  0.00     0.027 C 
ATOM      8  C   UNL A   1      33.771  28.662  27.140  1.00  0.00     0.027 C 
BRANCH   6   9
ATOM      9  C   UNL A   1      33.792  26.980  25.244  1.00  0.00     0.278 C 
BRANCH   9  10
ATOM     10  N   UNL A   1      33.200  25.946  24.359  1.00  0.00    -0.333 N 
ATOM     11  C   UNL A   1      31.012  23.705  24.143  1.00  0.00     0.020 C 
ATOM     12  C   UNL A   1      32.536  23.532  24.051  1.00  0.00     0.099 C 
ATOM     13  C   UNL A   1      33.274  24.583  24.903  1.00  0.00     0.271 C 
ATOM     14  C   UNL A   1      33.094  23.612  22.619  1.00  0.00     0.194 C 
ATOM     15  C   UNL A   1      32.872  25.015  22.057  1.00  0.00     0.126 C 
ATOM     16  C   UNL A   1      33.576  26.040  22.950  1.00  0.00     0.268 C 
ATOM     17  H   UNL A   1      32.208  26.181  24.355  1.00  0.00     0.348 HD
BRANCH  14  18
ATOM     18  N   UNL A   1      32.529  22.587  21.739  1.00  0.00    -0.355 N 
ATOM     19  H   UNL A   1      33.056  21.721  21.842  1.00  0.00     0.344 HD
ATOM     20  H   UNL A   1      32.581  22.904  20.770  1.00  0.00     0.344 HD
ATOM     21  H   UNL A   1      31.553  22.425  21.991  1.00  0.00     0.344 HD
ENDBRANCH  14  18
ENDBRANCH   9  10
ENDBRANCH   6   9
ENDBRANCH   3   6
ENDBRANCH   1   2
BRANCH   1  22
ATOM     22  C   UNL A   1      31.428  32.330  26.501  1.00  0.00     0.042 C 
BRANCH  22  23
ATOM     23  C   UNL A   1      32.642  32.896  27.226  1.00  0.00     0.118 C 
BRANCH  23  24
ATOM     24  N   UNL A   1      32.447  34.281  27.634  1.00  0.00    -0.352 N 
ATOM     25  C   UNL A   1      32.994  34.973  28.685  1.00  0.00     0.251 C 
ATOM     26  H   UNL A   1      31.829  34.798  27.070  1.00  0.00     0.163 HD
ATOM     27  O   UNL A   1      32.529  36.060  29.009  1.00  0.00    -0.269 OA
BRANCH  25  28
ATOM     28  C   UNL A   1      34.132  34.404  29.435  1.00  0.00     0.039 A 
ATOM     29  C   UNL A   1      33.886  33.748  30.643  1.00  0.00     0.014 A 
ATOM     30  C   UNL A   1      35.439  34.532  28.961  1.00  0.00     0.014 A 
ATOM     31  C   UNL A   1      34.947  33.169  31.343  1.00  0.00     0.010 A 
ATOM     32  C   UNL A   1      36.479  33.869  29.604  1.00  0.00     0.010 A 
ATOM     33  C   UNL A   1      36.247  33.196  30.810  1.00  0.00    -0.014 A 
BRANCH  33  34
ATOM     34  C   UNL A   1      37.378  32.543  31.516  1.00  0.00     0.031 A 
ATOM     35  C   UNL A   1      38.109  31.396  30.871  1.00  0.00     0.074 A 
ATOM     36  C   UNL A   1      37.711  32.948  32.756  1.00  0.00     0.049 A 
ATOM     37  N   UNL A   1      39.094  30.674  31.340  1.00  0.00    -0.248 NA
ATOM     38  C   UNL A   1      37.651  30.986  29.534  1.00  0.00     0.031 C 
ATOM     39  C   UNL A   1      37.037  34.006  33.510  1.00  0.00     0.029 A 
ATOM     40  N   UNL A   1      38.698  32.513  33.605  1.00  0.00    -0.354 N 
ATOM     41  C   UNL A   1      39.361  29.721  30.366  1.00  0.00     0.074 A 
ATOM     42  C   UNL A   1      38.393  29.912  29.309  1.00  0.00     0.031 C 
ATOM     43  C   UNL A   1      37.650  34.162  34.694  1.00  0.00     0.029 A 
ATOM     44  C   UNL A   1      38.735  33.191  34.798  1.00  0.00     0.049 A 
ATOM     45  H   UNL A   1      39.321  31.784  33.379  1.00  0.00     0.167 HD
ATOM     46  C   UNL A   1      40.344  28.789  30.340  1.00  0.00     0.037 A 
ATOM     47  C   UNL A   1      39.554  33.044  35.857  1.00  0.00     0.037 A 
ATOM     48  C   UNL A   1      41.321  28.621  31.383  1.00  0.00     0.049 A 
ATOM     49  C   UNL A   1      40.641  32.006  35.800  1.00  0.00     0.074 A 
ATOM     50  C   UNL A   1      42.398  27.753  31.425  1.00  0.00     0.029 A 
ATOM     51  N   UNL A   1      41.339  29.338  32.570  1.00  0.00    -0.354 N 
ATOM     52  N   UNL A   1      40.935  31.164  34.839  1.00  0.00    -0.248 NA
ATOM     53  C   UNL A   1      41.518  31.905  36.975  1.00  0.00     0.031 C 
ATOM     54  C   UNL A   1      43.036  27.909  32.660  1.00  0.00     0.029 A 
ATOM     55  C   UNL A   1      42.394  28.914  33.364  1.00  0.00     0.049 A 
ATOM     56  H   UNL A   1      40.697  30.044  32.814  1.00  0.00     0.167 HD
ATOM     57  C   UNL A   1      42.041  30.452  35.280  1.00  0.00     0.074 A 
ATOM     58  C   UNL A   1      42.382  30.978  36.586  1.00  0.00     0.031 C 
ATOM     59  C   UNL A   1      42.715  29.450  34.662  1.00  0.00     0.037 A 
BRANCH  46  60
ATOM     60  C   UNL A   1      40.413  27.885  29.143  1.00  0.00     0.064 A 
ATOM     61  C   UNL A   1      39.670  26.696  29.073  1.00  0.00     0.173 A 
ATOM     62  C   UNL A   1      41.208  28.224  28.038  1.00  0.00     0.173 A 
ATOM     63  F   UNL A   1      38.903  26.317  30.107  1.00  0.00    -0.203 F 
ATOM     64  C   UNL A   1      39.747  25.865  27.958  1.00  0.00     0.198 A 
ATOM     65  C   UNL A   1      41.256  27.408  26.910  1.00  0.00     0.198 A 
ATOM     66  F   UNL A   1      41.935  29.351  28.048  1.00  0.00    -0.203 F 
ATOM     67  F   UNL A   1      39.071  24.707  27.940  1.00  0.00    -0.200 F 
ATOM     68  C   UNL A   1      40.534  26.225  26.876  1.00  0.00     0.200 A 
ATOM     69  F   UNL A   1      42.007  27.764  25.858  1.00  0.00    -0.200 F 
ATOM     70  F   UNL A   1      40.601  25.428  25.800  1.00  0.00    -0.200 F 
ENDBRANCH  46  60
BRANCH  47  71
ATOM     71  C   UNL A   1      39.397  33.922  37.046  1.00  0.00     0.064 A 
ATOM     72  C   UNL A   1      39.982  35.196  37.082  1.00  0.00     0.173 A 
ATOM     73  C   UNL A   1      38.669  33.507  38.171  1.00  0.00     0.173 A 
ATOM     74  F   UNL A   1      40.703  35.631  36.039  1.00  0.00    -0.203 F 
ATOM     75  C   UNL A   1      39.866  36.011  38.206  1.00  0.00     0.198 A 
ATOM     76  C   UNL A   1      38.528  34.335  39.282  1.00  0.00     0.198 A 
ATOM     77  F   UNL A   1      38.084  32.301  38.184  1.00  0.00    -0.203 F 
ATOM     78  F   UNL A   1      40.476  37.203  38.232  1.00  0.00    -0.200 F 
ATOM     79  C   UNL A   1      39.134  35.582  39.304  1.00  0.00     0.200 A 
ATOM     80  F   UNL A   1      37.807  33.923  40.334  1.00  0.00    -0.200 F 
ATOM     81  F   UNL A   1      39.020  36.367  40.383  1.00  0.00    -0.200 F 
ENDBRANCH  47  71
BRANCH  59  82
ATOM     82  C   UNL A   1      43.901  28.877  35.383  1.00  0.00     0.064 A 
ATOM     83  C   UNL A   1      43.773  27.792  36.264  1.00  0.00     0.173 A 
ATOM     84  C   UNL A   1      45.184  29.406  35.175  1.00  0.00     0.173 A 
ATOM     85  F   UNL A   1      42.567  27.259  36.509  1.00  0.00    -0.203 F 
ATOM     86  C   UNL A   1      44.882  27.280  36.934  1.00  0.00     0.198 A 
ATOM     87  C   UNL A   1      46.294  28.871  35.820  1.00  0.00     0.198 A 
ATOM     88  F   UNL A   1      45.361  30.439  34.337  1.00  0.00    -0.203 F 
ATOM     89  F   UNL A   1      44.727  26.283  37.815  1.00  0.00    -0.200 F 
ATOM     90  C   UNL A   1      46.141  27.816  36.707  1.00  0.00     0.200 A 
ATOM     91  F   UNL A   1      47.512  29.378  35.588  1.00  0.00    -0.200 F 
ATOM     92  F   UNL A   1      47.206  27.320  37.351  1.00  0.00    -0.200 F 
ENDBRANCH  59  82
ENDBRANCH  33  34
ENDBRANCH  25  28
ENDBRANCH  23  24
ENDBRANCH  22  23
ENDBRANCH   1  22
TORSDOF 13
ENDMDL
MODEL 3
REMARK VINA RESULT:     -11.4      5.990     11.423
REMARK SMILES C[C@@H]1C[N@@H+](CC(C)(C)C(=O)NCCCNC(=O)c2ccc(-c3c4nc(c(-c5c(F)c(F)c(F)c(F)c5F)c5ccc([nH]5)c(-c5c(F)c(F)c(F)c(F)c5F)c5nc(c(-c6c(F)c(F)c(F)c(F)c6F)c6ccc3[nH]6)C=C5)C=C4)cc2)CC[C@@H]1[NH3+]
REMARK SMILES IDX 12 1 11 2 9 3 10 4 6 6 7 7 8 8 5 9 4 10 1 11 2 12 3 13 83 14
REMARK SMILES IDX 82 15 81 16 84 18 13 22 14 23 15 24 16 25 17 27 18 28 19 29
REMARK SMILES IDX 80 30 20 31 79 32 21 33 22 34 23 35 73 36 24 37 78 38 72 39
REMARK SMILES IDX 74 40 25 41 77 42 71 43 70 44 26 46 58 47 38 48 57 49 39 50
REMARK SMILES IDX 42 51 56 52 75 53 40 54 41 55 55 57 76 58 43 59 27 60 28 61
REMARK SMILES IDX 36 62 29 63 30 64 34 65 37 66 31 67 32 68 35 69 33 70 59 71
REMARK SMILES IDX 60 72 68 73 61 74 62 75 66 76 69 77 63 78 64 79 67 80 65 81
REMARK SMILES IDX 44 82 45 83 53 84 46 85 47 86 51 87 54 88 48 89 49 90 52 91
REMARK SMILES IDX 50 92
REMARK H PARENT 11 5 4 17 84 19 84 20 84 21 15 26 74 45 42 56
REMARK Flexibility Score: inf
ROOT
ATOM      1  C   UNL A   1      37.276  20.517  24.626  1.00  0.00     0.117 C 
ENDROOT
BRANCH   1   2
ATOM      2  N   UNL A   1      36.048  20.675  25.377  1.00  0.00    -0.355 N 
ATOM      3  C   UNL A   1      35.362  21.781  25.754  1.00  0.00     0.231 C 
ATOM      4  O   UNL A   1      34.735  21.662  26.812  1.00  0.00    -0.274 OA
ATOM      5  H   UNL A   1      35.638  19.827  25.664  1.00  0.00     0.163 HD
BRANCH   3   6
ATOM      6  C   UNL A   1      35.397  23.110  24.981  1.00  0.00     0.092 C 
ATOM      7  C   UNL A   1      35.774  23.019  23.495  1.00  0.00     0.027 C 
ATOM      8  C   UNL A   1      36.464  23.974  25.687  1.00  0.00     0.027 C 
BRANCH   6   9
ATOM      9  C   UNL A   1      33.994  23.817  25.142  1.00  0.00     0.278 C 
BRANCH   9  10
ATOM     10  N   UNL A   1      33.812  25.284  25.009  1.00  0.00    -0.333 N 
ATOM     11  C   UNL A   1      34.028  28.038  26.500  1.00  0.00     0.020 C 
ATOM     12  C   UNL A   1      32.763  27.392  25.915  1.00  0.00     0.099 C 
ATOM     13  C   UNL A   1      32.846  25.853  25.958  1.00  0.00     0.271 C 
ATOM     14  C   UNL A   1      32.457  27.805  24.463  1.00  0.00     0.194 C 
ATOM     15  C   UNL A   1      33.563  27.298  23.540  1.00  0.00     0.126 C 
ATOM     16  C   UNL A   1      33.653  25.773  23.641  1.00  0.00     0.268 C 
ATOM     17  H   UNL A   1      34.718  25.659  25.290  1.00  0.00     0.348 HD
BRANCH  14  18
ATOM     18  N   UNL A   1      32.262  29.249  24.322  1.00  0.00    -0.355 N 
ATOM     19  H   UNL A   1      32.904  29.742  24.941  1.00  0.00     0.344 HD
ATOM     20  H   UNL A   1      31.301  29.488  24.568  1.00  0.00     0.344 HD
ATOM     21  H   UNL A   1      32.443  29.522  23.355  1.00  0.00     0.344 HD
ENDBRANCH  14  18
ENDBRANCH   9  10
ENDBRANCH   6   9
ENDBRANCH   3   6
ENDBRANCH   1   2
BRANCH   1  22
ATOM     22  C   UNL A   1      38.139  19.419  25.232  1.00  0.00     0.042 C 
BRANCH  22  23
ATOM     23  C   UNL A   1      39.326  19.949  26.025  1.00  0.00     0.118 C 
BRANCH  23  24
ATOM     24  N   UNL A   1      40.420  18.989  26.090  1.00  0.00    -0.352 N 
ATOM     25  C   UNL A   1      41.775  19.202  26.126  1.00  0.00     0.251 C 
ATOM     26  H   UNL A   1      40.146  18.045  26.111  1.00  0.00     0.163 HD
ATOM     27  O   UNL A   1      42.546  18.267  25.939  1.00  0.00    -0.269 OA
BRANCH  25  28
ATOM     28  C   UNL A   1      42.306  20.558  26.374  1.00  0.00     0.039 A 
ATOM     29  C   UNL A   1      42.684  21.347  25.286  1.00  0.00     0.014 A 
ATOM     30  C   UNL A   1      42.450  21.045  27.676  1.00  0.00     0.014 A 
ATOM     31  C   UNL A   1      43.149  22.646  25.503  1.00  0.00     0.010 A 
ATOM     32  C   UNL A   1      42.815  22.370  27.885  1.00  0.00     0.010 A 
ATOM     33  C   UNL A   1      43.185  23.179  26.802  1.00  0.00    -0.014 A 
BRANCH  33  34
ATOM     34  C   UNL A   1      43.629  24.573  27.047  1.00  0.00     0.031 A 
ATOM     35  C   UNL A   1      42.650  25.602  27.545  1.00  0.00     0.074 A 
ATOM     36  C   UNL A   1      44.899  24.926  26.769  1.00  0.00     0.049 A 
ATOM     37  N   UNL A   1      42.835  26.875  27.783  1.00  0.00    -0.248 NA
ATOM     38  C   UNL A   1      41.270  25.145  27.778  1.00  0.00     0.031 C 
ATOM     39  C   UNL A   1      45.924  24.035  26.223  1.00  0.00     0.029 A 
ATOM     40  N   UNL A   1      45.544  26.129  26.904  1.00  0.00    -0.354 N 
ATOM     41  C   UNL A   1      41.598  27.370  28.177  1.00  0.00     0.074 A 
ATOM     42  C   UNL A   1      40.656  26.278  28.083  1.00  0.00     0.031 C 
ATOM     43  C   UNL A   1      47.076  24.712  26.101  1.00  0.00     0.029 A 
ATOM     44  C   UNL A   1      46.863  26.092  26.525  1.00  0.00     0.049 A 
ATOM     45  H   UNL A   1      45.103  26.943  27.241  1.00  0.00     0.167 HD
ATOM     46  C   UNL A   1      41.283  28.615  28.607  1.00  0.00     0.037 A 
ATOM     47  C   UNL A   1      47.795  27.065  26.519  1.00  0.00     0.037 A 
ATOM     48  C   UNL A   1      42.231  29.691  28.723  1.00  0.00     0.049 A 
ATOM     49  C   UNL A   1      47.419  28.437  27.008  1.00  0.00     0.074 A 
ATOM     50  C   UNL A   1      42.030  30.971  29.211  1.00  0.00     0.029 A 
ATOM     51  N   UNL A   1      43.563  29.612  28.346  1.00  0.00    -0.354 N 
ATOM     52  N   UNL A   1      46.266  28.872  27.454  1.00  0.00    -0.248 NA
ATOM     53  C   UNL A   1      48.481  29.452  27.000  1.00  0.00     0.031 C 
ATOM     54  C   UNL A   1      43.227  31.680  29.080  1.00  0.00     0.029 A 
ATOM     55  C   UNL A   1      44.191  30.828  28.566  1.00  0.00     0.049 A 
ATOM     56  H   UNL A   1      44.000  28.810  27.976  1.00  0.00     0.167 HD
ATOM     57  C   UNL A   1      46.468  30.200  27.803  1.00  0.00     0.074 A 
ATOM     58  C   UNL A   1      47.862  30.493  27.539  1.00  0.00     0.031 C 
ATOM     59  C   UNL A   1      45.580  31.100  28.295  1.00  0.00     0.037 A 
BRANCH  46  60
ATOM     60  C   UNL A   1      39.854  28.876  28.989  1.00  0.00     0.064 A 
ATOM     61  C   UNL A   1      38.911  29.327  28.052  1.00  0.00     0.173 A 
ATOM     62  C   UNL A   1      39.413  28.647  30.301  1.00  0.00     0.173 A 
ATOM     63  F   UNL A   1      39.282  29.575  26.786  1.00  0.00    -0.203 F 
ATOM     64  C   UNL A   1      37.590  29.570  28.421  1.00  0.00     0.198 A 
ATOM     65  C   UNL A   1      38.083  28.858  30.659  1.00  0.00     0.198 A 
ATOM     66  F   UNL A   1      40.270  28.211  31.236  1.00  0.00    -0.203 F 
ATOM     67  F   UNL A   1      36.723  30.053  27.521  1.00  0.00    -0.200 F 
ATOM     68  C   UNL A   1      37.176  29.328  29.721  1.00  0.00     0.200 A 
ATOM     69  F   UNL A   1      37.681  28.611  31.913  1.00  0.00    -0.200 F 
ATOM     70  F   UNL A   1      35.903  29.555  30.073  1.00  0.00    -0.200 F 
ENDBRANCH  46  60
BRANCH  47  71
ATOM     71  C   UNL A   1      49.178  26.767  26.066  1.00  0.00     0.064 A 
ATOM     72  C   UNL A   1      50.136  26.264  26.958  1.00  0.00     0.173 A 
ATOM     73  C   UNL A   1      49.575  26.984  24.738  1.00  0.00     0.173 A 
ATOM     74  F   UNL A   1      49.810  26.058  28.243  1.00  0.00    -0.203 F 
ATOM     75  C   UNL A   1      51.443  26.014  26.548  1.00  0.00     0.198 A 
ATOM     76  C   UNL A   1      50.875  26.703  24.321  1.00  0.00     0.198 A 
ATOM     77  F   UNL A   1      48.696  27.456  23.843  1.00  0.00    -0.203 F 
ATOM     78  F   UNL A   1      52.350  25.581  27.433  1.00  0.00    -0.200 F 
ATOM     79  C   UNL A   1      51.810  26.228  25.227  1.00  0.00     0.200 A 
ATOM     80  F   UNL A   1      51.221  26.897  23.041  1.00  0.00    -0.200 F 
ATOM     81  F   UNL A   1      53.066  25.984  24.832  1.00  0.00    -0.200 F 
ENDBRANCH  47  71
BRANCH  59  82
ATOM     82  C   UNL A   1      46.098  32.475  28.601  1.00  0.00     0.064 A 
ATOM     83  C   UNL A   1      46.644  32.795  29.853  1.00  0.00     0.173 A 
ATOM     84  C   UNL A   1      46.067  33.481  27.622  1.00  0.00     0.173 A 
ATOM     85  F   UNL A   1      46.683  31.874  30.827  1.00  0.00    -0.203 F 
ATOM     86  C   UNL A   1      47.108  34.079  30.124  1.00  0.00     0.198 A 
ATOM     87  C   UNL A   1      46.563  34.754  27.886  1.00  0.00     0.198 A 
ATOM     88  F   UNL A   1      45.563  33.225  26.405  1.00  0.00    -0.203 F 
ATOM     89  F   UNL A   1      47.571  34.378  31.346  1.00  0.00    -0.200 F 
ATOM     90  C   UNL A   1      47.074  35.055  29.139  1.00  0.00     0.200 A 
ATOM     91  F   UNL A   1      46.544  35.691  26.927  1.00  0.00    -0.200 F 
ATOM     92  F   UNL A   1      47.524  36.289  29.402  1.00  0.00    -0.200 F 
ENDBRANCH  59  82
ENDBRANCH  33  34
ENDBRANCH  25  28
ENDBRANCH  23  24
ENDBRANCH  22  23
ENDBRANCH   1  22
TORSDOF 13
ENDMDL
