MODEL 1
REMARK VINA RESULT:     -11.0      0.000      0.000
REMARK SMILES CC[N@@H+]([C@H]1C[C@H]2CC[C@@H](C1)[NH2+]2)[C@@H](C)[C@@H](C)C(=O)NCCCNC(=O)c1ccc(-c2c3nc(c(-c4c(F)c(F)c(F)c(F)c4F)c4ccc([nH]4)c(-c4c(F)c(F)c(F)c(F)c4F)c4nc(c(-c5c(F)c(F)c(F)c(F)c5F)c5ccc2[nH]5)C=C4)C=C3)cc1
REMARK SMILES IDX 19 1 18 2 16 3 17 4 14 6 15 7 12 8 13 9 3 10 2 12 1 13 4 14
REMARK SMILES IDX 5 15 10 16 6 17 9 18 7 19 11 20 8 21 20 24 21 25 22 26 23 27
REMARK SMILES IDX 24 29 25 30 26 31 87 32 27 33 86 34 28 35 29 36 30 37 80 38
REMARK SMILES IDX 31 39 85 40 79 41 81 42 32 43 84 44 78 45 77 46 33 48 65 49
REMARK SMILES IDX 45 50 64 51 46 52 49 53 63 54 82 55 47 56 48 57 62 59 83 60
REMARK SMILES IDX 50 61 34 62 35 63 43 64 36 65 37 66 41 67 44 68 38 69 39 70
REMARK SMILES IDX 42 71 40 72 66 73 67 74 75 75 68 76 69 77 73 78 76 79 70 80
REMARK SMILES IDX 71 81 74 82 72 83 51 84 52 85 60 86 53 87 54 88 58 89 61 90
REMARK SMILES IDX 55 91 56 92 59 93 57 94
REMARK H PARENT 18 5 3 11 11 22 11 23 22 28 81 47 49 58
REMARK Flexibility Score: inf
ROOT
ATOM      1  C   UNL A   1      31.968  27.627  26.854  1.00  0.00     0.117 C 
ENDROOT
BRANCH   1   2
ATOM      2  N   UNL A   1      31.351  26.312  26.883  1.00  0.00    -0.356 N 
ATOM      3  C   UNL A   1      31.257  25.324  25.949  1.00  0.00     0.228 C 
ATOM      4  O   UNL A   1      30.776  24.251  26.332  1.00  0.00    -0.275 OA
ATOM      5  H   UNL A   1      30.919  26.092  27.741  1.00  0.00     0.163 HD
BRANCH   3   6
ATOM      6  C   UNL A   1      31.632  25.512  24.475  1.00  0.00     0.133 C 
ATOM      7  C   UNL A   1      30.447  25.246  23.544  1.00  0.00     0.024 C 
BRANCH   6   8
ATOM      8  C   UNL A   1      32.995  24.790  24.202  1.00  0.00     0.193 C 
ATOM      9  C   UNL A   1      33.655  25.422  22.958  1.00  0.00     0.076 C 
BRANCH   8  10
ATOM     10  N   UNL A   1      32.965  23.310  24.168  1.00  0.00    -0.329 N 
ATOM     11  H   UNL A   1      32.004  23.159  24.477  1.00  0.00     0.348 HD
BRANCH  10  12
ATOM     12  C   UNL A   1      33.044  22.659  22.841  1.00  0.00     0.259 C 
ATOM     13  C   UNL A   1      32.036  21.566  22.505  1.00  0.00     0.071 C 
ENDBRANCH  10  12
BRANCH  10  14
ATOM     14  C   UNL A   1      33.879  22.627  25.156  1.00  0.00     0.196 C 
ATOM     15  C   UNL A   1      34.643  21.341  24.705  1.00  0.00     0.130 C 
ATOM     16  C   UNL A   1      34.719  23.558  26.072  1.00  0.00     0.130 C 
ATOM     17  C   UNL A   1      36.159  21.308  24.962  1.00  0.00     0.188 C 
ATOM     18  C   UNL A   1      36.235  23.312  26.057  1.00  0.00     0.188 C 
ATOM     19  C   UNL A   1      36.950  22.211  24.027  1.00  0.00     0.071 C 
ATOM     20  N   UNL A   1      36.480  21.884  26.269  1.00  0.00    -0.341 N 
ATOM     21  C   UNL A   1      36.929  23.566  24.717  1.00  0.00     0.071 C 
ATOM     22  H   UNL A   1      37.454  21.709  26.518  1.00  0.00     0.346 HD
ATOM     23  H   UNL A   1      35.934  21.486  27.032  1.00  0.00     0.346 HD
ENDBRANCH  10  14
ENDBRANCH   8  10
ENDBRANCH   6   8
ENDBRANCH   3   6
ENDBRANCH   1   2
BRANCH   1  24
ATOM     24  C   UNL A   1      33.480  27.614  26.679  1.00  0.00     0.042 C 
BRANCH  24  25
ATOM     25  C   UNL A   1      34.080  28.802  25.948  1.00  0.00     0.118 C 
BRANCH  25  26
ATOM     26  N   UNL A   1      33.798  30.068  26.603  1.00  0.00    -0.352 N 
ATOM     27  C   UNL A   1      34.458  30.710  27.619  1.00  0.00     0.251 C 
ATOM     28  H   UNL A   1      33.004  30.539  26.263  1.00  0.00     0.163 HD
ATOM     29  O   UNL A   1      33.934  31.692  28.148  1.00  0.00    -0.269 OA
BRANCH  27  30
ATOM     30  C   UNL A   1      35.774  30.239  28.111  1.00  0.00     0.039 A 
ATOM     31  C   UNL A   1      36.903  30.455  27.314  1.00  0.00     0.014 A 
ATOM     32  C   UNL A   1      35.905  29.539  29.313  1.00  0.00     0.014 A 
ATOM     33  C   UNL A   1      38.160  30.024  27.744  1.00  0.00     0.010 A 
ATOM     34  C   UNL A   1      37.169  29.180  29.781  1.00  0.00     0.010 A 
ATOM     35  C   UNL A   1      38.310  29.407  28.997  1.00  0.00    -0.014 A 
BRANCH  35  36
ATOM     36  C   UNL A   1      39.644  28.973  29.489  1.00  0.00     0.031 A 
ATOM     37  C   UNL A   1      40.406  29.828  30.466  1.00  0.00     0.074 A 
ATOM     38  C   UNL A   1      40.198  27.840  29.016  1.00  0.00     0.049 A 
ATOM     39  N   UNL A   1      41.609  29.658  30.954  1.00  0.00    -0.248 NA
ATOM     40  C   UNL A   1      39.736  31.049  30.937  1.00  0.00     0.031 C 
ATOM     41  C   UNL A   1      39.585  26.946  28.033  1.00  0.00     0.029 A 
ATOM     42  N   UNL A   1      41.410  27.253  29.288  1.00  0.00    -0.354 N 
ATOM     43  C   UNL A   1      41.846  30.756  31.770  1.00  0.00     0.074 A 
ATOM     44  C   UNL A   1      40.682  31.611  31.676  1.00  0.00     0.031 C 
ATOM     45  C   UNL A   1      40.413  25.915  27.800  1.00  0.00     0.029 A 
ATOM     46  C   UNL A   1      41.629  26.093  28.589  1.00  0.00     0.049 A 
ATOM     47  H   UNL A   1      42.058  27.630  29.926  1.00  0.00     0.167 HD
ATOM     48  C   UNL A   1      42.926  31.020  32.544  1.00  0.00     0.037 A 
ATOM     49  C   UNL A   1      42.694  25.268  28.579  1.00  0.00     0.037 A 
ATOM     50  C   UNL A   1      44.069  30.154  32.666  1.00  0.00     0.049 A 
ATOM     51  C   UNL A   1      43.877  25.578  29.455  1.00  0.00     0.074 A 
ATOM     52  C   UNL A   1      45.183  30.303  33.474  1.00  0.00     0.029 A 
ATOM     53  N   UNL A   1      44.243  28.973  31.959  1.00  0.00    -0.354 N 
ATOM     54  N   UNL A   1      44.061  26.588  30.269  1.00  0.00    -0.248 NA
ATOM     55  C   UNL A   1      44.998  24.628  29.415  1.00  0.00     0.031 C 
ATOM     56  C   UNL A   1      46.048  29.231  33.230  1.00  0.00     0.029 A 
ATOM     57  C   UNL A   1      45.454  28.392  32.301  1.00  0.00     0.049 A 
ATOM     58  H   UNL A   1      43.602  28.603  31.311  1.00  0.00     0.167 HD
ATOM     59  C   UNL A   1      45.302  26.384  30.857  1.00  0.00     0.074 A 
ATOM     60  C   UNL A   1      45.821  25.144  30.316  1.00  0.00     0.031 C 
ATOM     61  C   UNL A   1      45.953  27.154  31.762  1.00  0.00     0.037 A 
BRANCH  48  62
ATOM     62  C   UNL A   1      42.922  32.300  33.328  1.00  0.00     0.064 A 
ATOM     63  C   UNL A   1      43.406  33.498  32.780  1.00  0.00     0.173 A 
ATOM     64  C   UNL A   1      42.395  32.338  34.627  1.00  0.00     0.173 A 
ATOM     65  F   UNL A   1      43.931  33.512  31.546  1.00  0.00    -0.203 F 
ATOM     66  C   UNL A   1      43.388  34.681  33.515  1.00  0.00     0.198 A 
ATOM     67  C   UNL A   1      42.353  33.530  35.348  1.00  0.00     0.198 A 
ATOM     68  F   UNL A   1      41.914  31.222  35.196  1.00  0.00    -0.203 F 
ATOM     69  F   UNL A   1      43.898  35.802  32.988  1.00  0.00    -0.200 F 
ATOM     70  C   UNL A   1      42.855  34.697  34.795  1.00  0.00     0.200 A 
ATOM     71  F   UNL A   1      41.826  33.546  36.581  1.00  0.00    -0.200 F 
ATOM     72  F   UNL A   1      42.832  35.837  35.498  1.00  0.00    -0.200 F 
ENDBRANCH  48  62
BRANCH  49  73
ATOM     73  C   UNL A   1      42.678  24.050  27.728  1.00  0.00     0.064 A 
ATOM     74  C   UNL A   1      42.980  24.127  26.361  1.00  0.00     0.173 A 
ATOM     75  C   UNL A   1      42.362  22.792  28.257  1.00  0.00     0.173 A 
ATOM     76  F   UNL A   1      43.266  25.314  25.805  1.00  0.00    -0.203 F 
ATOM     77  C   UNL A   1      42.949  22.994  25.552  1.00  0.00     0.198 A 
ATOM     78  C   UNL A   1      42.356  21.655  27.453  1.00  0.00     0.198 A 
ATOM     79  F   UNL A   1      42.069  22.666  29.561  1.00  0.00    -0.203 F 
ATOM     80  F   UNL A   1      43.200  23.102  24.241  1.00  0.00    -0.200 F 
ATOM     81  C   UNL A   1      42.642  21.757  26.100  1.00  0.00     0.200 A 
ATOM     82  F   UNL A   1      42.072  20.459  27.988  1.00  0.00    -0.200 F 
ATOM     83  F   UNL A   1      42.617  20.666  25.324  1.00  0.00    -0.200 F 
ENDBRANCH  49  73
BRANCH  61  84
ATOM     84  C   UNL A   1      47.284  26.664  32.252  1.00  0.00     0.064 A 
ATOM     85  C   UNL A   1      48.483  27.068  31.649  1.00  0.00     0.173 A 
ATOM     86  C   UNL A   1      47.360  25.811  33.364  1.00  0.00     0.173 A 
ATOM     87  F   UNL A   1      48.461  27.870  30.574  1.00  0.00    -0.203 F 
ATOM     88  C   UNL A   1      49.711  26.618  32.127  1.00  0.00     0.198 A 
ATOM     89  C   UNL A   1      48.590  25.385  33.855  1.00  0.00     0.198 A 
ATOM     90  F   UNL A   1      46.241  25.400  33.979  1.00  0.00    -0.203 F 
ATOM     91  F   UNL A   1      50.842  26.982  31.509  1.00  0.00    -0.200 F 
ATOM     92  C   UNL A   1      49.764  25.783  33.233  1.00  0.00     0.200 A 
ATOM     93  F   UNL A   1      48.640  24.586  34.931  1.00  0.00    -0.200 F 
ATOM     94  F   UNL A   1      50.947  25.356  33.696  1.00  0.00    -0.200 F 
ENDBRANCH  61  84
ENDBRANCH  35  36
ENDBRANCH  27  30
ENDBRANCH  25  26
ENDBRANCH  24  25
ENDBRANCH   1  24
TORSDOF 14
ENDMDL
MODEL 2
REMARK VINA RESULT:     -11.0      0.411      2.024
REMARK SMILES CC[N@@H+]([C@H]1C[C@H]2CC[C@@H](C1)[NH2+]2)[C@@H](C)[C@@H](C)C(=O)NCCCNC(=O)c1ccc(-c2c3nc(c(-c4c(F)c(F)c(F)c(F)c4F)c4ccc([nH]4)c(-c4c(F)c(F)c(F)c(F)c4F)c4nc(c(-c5c(F)c(F)c(F)c(F)c5F)c5ccc2[nH]5)C=C4)C=C3)cc1
REMARK SMILES IDX 19 1 18 2 16 3 17 4 14 6 15 7 12 8 13 9 3 10 2 12 1 13 4 14
REMARK SMILES IDX 5 15 10 16 6 17 9 18 7 19 11 20 8 21 20 24 21 25 22 26 23 27
REMARK SMILES IDX 24 29 25 30 26 31 87 32 27 33 86 34 28 35 29 36 30 37 80 38
REMARK SMILES IDX 31 39 85 40 79 41 81 42 32 43 84 44 78 45 77 46 33 48 65 49
REMARK SMILES IDX 45 50 64 51 46 52 49 53 63 54 82 55 47 56 48 57 62 59 83 60
REMARK SMILES IDX 50 61 34 62 35 63 43 64 36 65 37 66 41 67 44 68 38 69 39 70
REMARK SMILES IDX 42 71 40 72 66 73 67 74 75 75 68 76 69 77 73 78 76 79 70 80
REMARK SMILES IDX 71 81 74 82 72 83 51 84 52 85 60 86 53 87 54 88 58 89 61 90
REMARK SMILES IDX 55 91 56 92 59 93 57 94
REMARK H PARENT 18 5 3 11 11 22 11 23 22 28 81 47 49 58
REMARK Flexibility Score: inf
ROOT
ATOM      1  C   UNL A   1      31.871  27.824  26.715  1.00  0.00     0.117 C 
ENDROOT
BRANCH   1   2
ATOM      2  N   UNL A   1      31.177  26.554  26.842  1.00  0.00    -0.356 N 
ATOM      3  C   UNL A   1      30.945  25.545  25.956  1.00  0.00     0.228 C 
ATOM      4  O   UNL A   1      30.431  24.519  26.415  1.00  0.00    -0.275 OA
ATOM      5  H   UNL A   1      30.804  26.391  27.739  1.00  0.00     0.163 HD
BRANCH   3   6
ATOM      6  C   UNL A   1      31.210  25.661  24.451  1.00  0.00     0.133 C 
ATOM      7  C   UNL A   1      30.072  25.063  23.621  1.00  0.00     0.024 C 
BRANCH   6   8
ATOM      8  C   UNL A   1      32.683  25.218  24.158  1.00  0.00     0.193 C 
ATOM      9  C   UNL A   1      33.078  25.693  22.744  1.00  0.00     0.076 C 
BRANCH   8  10
ATOM     10  N   UNL A   1      33.011  23.797  24.418  1.00  0.00    -0.329 N 
ATOM     11  H   UNL A   1      32.118  23.492  24.806  1.00  0.00     0.348 HD
BRANCH  10  12
ATOM     12  C   UNL A   1      33.232  22.925  23.243  1.00  0.00     0.259 C 
ATOM     13  C   UNL A   1      32.226  21.816  22.959  1.00  0.00     0.071 C 
ENDBRANCH  10  12
BRANCH  10  14
ATOM     14  C   UNL A   1      34.072  23.564  25.466  1.00  0.00     0.196 C 
ATOM     15  C   UNL A   1      34.363  22.100  25.926  1.00  0.00     0.130 C 
ATOM     16  C   UNL A   1      35.347  24.446  25.360  1.00  0.00     0.130 C 
ATOM     17  C   UNL A   1      35.834  21.650  25.923  1.00  0.00     0.188 C 
ATOM     18  C   UNL A   1      36.679  23.683  25.311  1.00  0.00     0.188 C 
ATOM     19  C   UNL A   1      36.390  21.415  24.527  1.00  0.00     0.071 C 
ATOM     20  N   UNL A   1      36.707  22.718  26.412  1.00  0.00    -0.341 N 
ATOM     21  C   UNL A   1      36.877  22.786  24.087  1.00  0.00     0.071 C 
ATOM     22  H   UNL A   1      37.653  22.373  26.576  1.00  0.00     0.346 HD
ATOM     23  H   UNL A   1      36.408  23.110  27.305  1.00  0.00     0.346 HD
ENDBRANCH  10  14
ENDBRANCH   8  10
ENDBRANCH   6   8
ENDBRANCH   3   6
ENDBRANCH   1   2
BRANCH   1  24
ATOM     24  C   UNL A   1      33.389  27.724  26.757  1.00  0.00     0.042 C 
BRANCH  24  25
ATOM     25  C   UNL A   1      34.154  28.878  26.133  1.00  0.00     0.118 C 
BRANCH  25  26
ATOM     26  N   UNL A   1      33.908  30.144  26.803  1.00  0.00    -0.352 N 
ATOM     27  C   UNL A   1      34.601  30.767  27.809  1.00  0.00     0.251 C 
ATOM     28  H   UNL A   1      33.116  30.632  26.482  1.00  0.00     0.163 HD
ATOM     29  O   UNL A   1      34.105  31.755  28.355  1.00  0.00    -0.269 OA
BRANCH  27  30
ATOM     30  C   UNL A   1      35.917  30.270  28.270  1.00  0.00     0.039 A 
ATOM     31  C   UNL A   1      37.030  30.454  27.443  1.00  0.00     0.014 A 
ATOM     32  C   UNL A   1      36.064  29.575  29.474  1.00  0.00     0.014 A 
ATOM     33  C   UNL A   1      38.288  29.996  27.844  1.00  0.00     0.010 A 
ATOM     34  C   UNL A   1      37.331  29.190  29.912  1.00  0.00     0.010 A 
ATOM     35  C   UNL A   1      38.456  29.386  29.097  1.00  0.00    -0.014 A 
BRANCH  35  36
ATOM     36  C   UNL A   1      39.792  28.925  29.558  1.00  0.00     0.031 A 
ATOM     37  C   UNL A   1      40.586  29.755  30.530  1.00  0.00     0.074 A 
ATOM     38  C   UNL A   1      40.319  27.789  29.061  1.00  0.00     0.049 A 
ATOM     39  N   UNL A   1      41.796  29.560  30.992  1.00  0.00    -0.248 NA
ATOM     40  C   UNL A   1      39.945  30.981  31.029  1.00  0.00     0.031 C 
ATOM     41  C   UNL A   1      39.672  26.916  28.079  1.00  0.00     0.029 A 
ATOM     42  N   UNL A   1      41.526  27.179  29.303  1.00  0.00    -0.354 N 
ATOM     43  C   UNL A   1      42.066  30.644  31.816  1.00  0.00     0.074 A 
ATOM     44  C   UNL A   1      40.914  31.519  31.755  1.00  0.00     0.031 C 
ATOM     45  C   UNL A   1      40.479  25.875  27.819  1.00  0.00     0.029 A 
ATOM     46  C   UNL A   1      41.713  26.024  28.586  1.00  0.00     0.049 A 
ATOM     47  H   UNL A   1      42.192  27.538  29.932  1.00  0.00     0.167 HD
ATOM     48  C   UNL A   1      43.165  30.881  32.572  1.00  0.00     0.037 A 
ATOM     49  C   UNL A   1      42.763  25.183  28.546  1.00  0.00     0.037 A 
ATOM     50  C   UNL A   1      44.296  29.996  32.662  1.00  0.00     0.049 A 
ATOM     51  C   UNL A   1      43.968  25.463  29.402  1.00  0.00     0.074 A 
ATOM     52  C   UNL A   1      45.428  30.117  33.450  1.00  0.00     0.029 A 
ATOM     53  N   UNL A   1      44.437  28.821  31.938  1.00  0.00    -0.354 N 
ATOM     54  N   UNL A   1      44.185  26.460  30.224  1.00  0.00    -0.248 NA
ATOM     55  C   UNL A   1      45.072  24.495  29.329  1.00  0.00     0.031 C 
ATOM     56  C   UNL A   1      46.270  29.035  33.177  1.00  0.00     0.029 A 
ATOM     57  C   UNL A   1      45.645  28.217  32.250  1.00  0.00     0.049 A 
ATOM     58  H   UNL A   1      43.777  28.469  31.299  1.00  0.00     0.167 HD
ATOM     59  C   UNL A   1      45.433  26.229  30.785  1.00  0.00     0.074 A 
ATOM     60  C   UNL A   1      45.921  24.988  30.220  1.00  0.00     0.031 C 
ATOM     61  C   UNL A   1      46.113  26.978  31.686  1.00  0.00     0.037 A 
BRANCH  48  62
ATOM     62  C   UNL A   1      43.197  32.152  33.372  1.00  0.00     0.064 A 
ATOM     63  C   UNL A   1      42.687  32.211  34.677  1.00  0.00     0.173 A 
ATOM     64  C   UNL A   1      43.777  33.313  32.842  1.00  0.00     0.173 A 
ATOM     65  F   UNL A   1      42.110  31.130  35.226  1.00  0.00    -0.203 F 
ATOM     66  C   UNL A   1      42.730  33.393  35.412  1.00  0.00     0.198 A 
ATOM     67  C   UNL A   1      43.845  34.487  33.590  1.00  0.00     0.198 A 
ATOM     68  F   UNL A   1      44.286  33.310  31.600  1.00  0.00    -0.203 F 
ATOM     69  F   UNL A   1      42.194  33.437  36.639  1.00  0.00    -0.200 F 
ATOM     70  C   UNL A   1      43.315  34.527  34.870  1.00  0.00     0.200 A 
ATOM     71  F   UNL A   1      44.422  35.579  33.069  1.00  0.00    -0.200 F 
ATOM     72  F   UNL A   1      43.363  35.662  35.580  1.00  0.00    -0.200 F 
ENDBRANCH  48  62
BRANCH  49  73
ATOM     73  C   UNL A   1      42.712  23.976  27.680  1.00  0.00     0.064 A 
ATOM     74  C   UNL A   1      42.345  22.730  28.209  1.00  0.00     0.173 A 
ATOM     75  C   UNL A   1      43.027  24.039  26.316  1.00  0.00     0.173 A 
ATOM     76  F   UNL A   1      42.058  22.616  29.514  1.00  0.00    -0.203 F 
ATOM     77  C   UNL A   1      42.314  21.590  27.410  1.00  0.00     0.198 A 
ATOM     78  C   UNL A   1      42.970  22.904  25.511  1.00  0.00     0.198 A 
ATOM     79  F   UNL A   1      43.381  25.210  25.762  1.00  0.00    -0.203 F 
ATOM     80  F   UNL A   1      42.001  20.404  27.948  1.00  0.00    -0.200 F 
ATOM     81  C   UNL A   1      42.621  21.679  26.059  1.00  0.00     0.200 A 
ATOM     82  F   UNL A   1      43.254  22.996  24.205  1.00  0.00    -0.200 F 
ATOM     83  F   UNL A   1      42.585  20.584  25.289  1.00  0.00    -0.200 F 
ENDBRANCH  49  73
BRANCH  61  84
ATOM     84  C   UNL A   1      47.445  26.460  32.145  1.00  0.00     0.064 A 
ATOM     85  C   UNL A   1      47.553  25.559  33.214  1.00  0.00     0.173 A 
ATOM     86  C   UNL A   1      48.622  26.841  31.483  1.00  0.00     0.173 A 
ATOM     87  F   UNL A   1      46.458  25.177  33.889  1.00  0.00    -0.203 F 
ATOM     88  C   UNL A   1      48.795  25.074  33.617  1.00  0.00     0.198 A 
ATOM     89  C   UNL A   1      49.858  26.334  31.871  1.00  0.00     0.198 A 
ATOM     90  F   UNL A   1      48.569  27.697  30.451  1.00  0.00    -0.203 F 
ATOM     91  F   UNL A   1      48.880  24.247  34.667  1.00  0.00    -0.200 F 
ATOM     92  C   UNL A   1      49.944  25.456  32.941  1.00  0.00     0.200 A 
ATOM     93  F   UNL A   1      50.967  26.695  31.210  1.00  0.00    -0.200 F 
ATOM     94  F   UNL A   1      51.138  24.984  33.326  1.00  0.00    -0.200 F 
ENDBRANCH  61  84
ENDBRANCH  35  36
ENDBRANCH  27  30
ENDBRANCH  25  26
ENDBRANCH  24  25
ENDBRANCH   1  24
TORSDOF 14
ENDMDL
MODEL 3
REMARK VINA RESULT:     -11.0      1.292      1.926
REMARK SMILES CC[N@@H+]([C@H]1C[C@H]2CC[C@@H](C1)[NH2+]2)[C@@H](C)[C@@H](C)C(=O)NCCCNC(=O)c1ccc(-c2c3nc(c(-c4c(F)c(F)c(F)c(F)c4F)c4ccc([nH]4)c(-c4c(F)c(F)c(F)c(F)c4F)c4nc(c(-c5c(F)c(F)c(F)c(F)c5F)c5ccc2[nH]5)C=C4)C=C3)cc1
REMARK SMILES IDX 19 1 18 2 16 3 17 4 14 6 15 7 12 8 13 9 3 10 2 12 1 13 4 14
REMARK SMILES IDX 5 15 10 16 6 17 9 18 7 19 11 20 8 21 20 24 21 25 22 26 23 27
REMARK SMILES IDX 24 29 25 30 26 31 87 32 27 33 86 34 28 35 29 36 30 37 80 38
REMARK SMILES IDX 31 39 85 40 79 41 81 42 32 43 84 44 78 45 77 46 33 48 65 49
REMARK SMILES IDX 45 50 64 51 46 52 49 53 63 54 82 55 47 56 48 57 62 59 83 60
REMARK SMILES IDX 50 61 34 62 35 63 43 64 36 65 37 66 41 67 44 68 38 69 39 70
REMARK SMILES IDX 42 71 40 72 66 73 67 74 75 75 68 76 69 77 73 78 76 79 70 80
REMARK SMILES IDX 71 81 74 82 72 83 51 84 52 85 60 86 53 87 54 88 58 89 61 90
REMARK SMILES IDX 55 91 56 92 59 93 57 94
REMARK H PARENT 18 5 3 11 11 22 11 23 22 28 81 47 49 58
REMARK Flexibility Score: inf
ROOT
ATOM      1  C   UNL A   1      32.414  28.514  24.961  1.00  0.00     0.117 C 
ENDROOT
BRANCH   1   2
ATOM      2  N   UNL A   1      31.460  27.783  25.777  1.00  0.00    -0.356 N 
ATOM      3  C   UNL A   1      30.839  26.583  25.606  1.00  0.00     0.228 C 
ATOM      4  O   UNL A   1      30.174  26.168  26.562  1.00  0.00    -0.275 OA
ATOM      5  H   UNL A   1      31.216  28.243  26.613  1.00  0.00     0.163 HD
BRANCH   3   6
ATOM      6  C   UNL A   1      30.865  25.795  24.292  1.00  0.00     0.133 C 
ATOM      7  C   UNL A   1      29.462  25.591  23.718  1.00  0.00     0.024 C 
BRANCH   6   8
ATOM      8  C   UNL A   1      31.808  24.555  24.461  1.00  0.00     0.193 C 
ATOM      9  C   UNL A   1      31.497  23.534  23.346  1.00  0.00     0.076 C 
BRANCH   8  10
ATOM     10  N   UNL A   1      31.876  23.954  25.812  1.00  0.00    -0.329 N 
ATOM     11  H   UNL A   1      31.417  24.695  26.343  1.00  0.00     0.348 HD
BRANCH  10  12
ATOM     12  C   UNL A   1      31.059  22.746  26.060  1.00  0.00     0.259 C 
ATOM     13  C   UNL A   1      29.880  22.848  27.020  1.00  0.00     0.071 C 
ENDBRANCH  10  12
BRANCH  10  14
ATOM     14  C   UNL A   1      33.268  23.783  26.370  1.00  0.00     0.196 C 
ATOM     15  C   UNL A   1      33.712  22.368  26.859  1.00  0.00     0.130 C 
ATOM     16  C   UNL A   1      34.397  24.574  25.653  1.00  0.00     0.130 C 
ATOM     17  C   UNL A   1      35.054  21.838  26.327  1.00  0.00     0.188 C 
ATOM     18  C   UNL A   1      35.592  23.736  25.174  1.00  0.00     0.188 C 
ATOM     19  C   UNL A   1      34.999  21.413  24.867  1.00  0.00     0.071 C 
ATOM     20  N   UNL A   1      36.057  22.904  26.286  1.00  0.00    -0.341 N 
ATOM     21  C   UNL A   1      35.275  22.695  24.098  1.00  0.00     0.071 C 
ATOM     22  H   UNL A   1      36.986  22.527  26.101  1.00  0.00     0.346 HD
ATOM     23  H   UNL A   1      36.144  23.412  27.165  1.00  0.00     0.346 HD
ENDBRANCH  10  14
ENDBRANCH   8  10
ENDBRANCH   6   8
ENDBRANCH   3   6
ENDBRANCH   1   2
BRANCH   1  24
ATOM     24  C   UNL A   1      33.861  28.396  25.418  1.00  0.00     0.042 C 
BRANCH  24  25
ATOM     25  C   UNL A   1      34.098  28.463  26.917  1.00  0.00     0.118 C 
BRANCH  25  26
ATOM     26  N   UNL A   1      33.955  29.807  27.450  1.00  0.00    -0.352 N 
ATOM     27  C   UNL A   1      34.802  30.546  28.237  1.00  0.00     0.251 C 
ATOM     28  H   UNL A   1      33.115  30.259  27.208  1.00  0.00     0.163 HD
ATOM     29  O   UNL A   1      34.395  31.601  28.728  1.00  0.00    -0.269 OA
BRANCH  27  30
ATOM     30  C   UNL A   1      36.182  30.096  28.529  1.00  0.00     0.039 A 
ATOM     31  C   UNL A   1      37.160  30.251  27.540  1.00  0.00     0.014 A 
ATOM     32  C   UNL A   1      36.517  29.474  29.735  1.00  0.00     0.014 A 
ATOM     33  C   UNL A   1      38.473  29.837  27.779  1.00  0.00     0.010 A 
ATOM     34  C   UNL A   1      37.843  29.135  30.005  1.00  0.00     0.010 A 
ATOM     35  C   UNL A   1      38.834  29.302  29.026  1.00  0.00    -0.014 A 
BRANCH  35  36
ATOM     36  C   UNL A   1      40.233  28.889  29.313  1.00  0.00     0.031 A 
ATOM     37  C   UNL A   1      41.148  29.800  30.086  1.00  0.00     0.074 A 
ATOM     38  C   UNL A   1      40.701  27.721  28.830  1.00  0.00     0.049 A 
ATOM     39  N   UNL A   1      42.417  29.651  30.373  1.00  0.00    -0.248 NA
ATOM     40  C   UNL A   1      40.566  31.057  30.580  1.00  0.00     0.031 C 
ATOM     41  C   UNL A   1      39.931  26.769  28.029  1.00  0.00     0.029 A 
ATOM     42  N   UNL A   1      41.942  27.142  28.933  1.00  0.00    -0.354 N 
ATOM     43  C   UNL A   1      42.787  30.800  31.060  1.00  0.00     0.074 A 
ATOM     44  C   UNL A   1      41.622  31.658  31.107  1.00  0.00     0.031 C 
ATOM     45  C   UNL A   1      40.710  25.717  27.730  1.00  0.00     0.029 A 
ATOM     46  C   UNL A   1      42.042  25.935  28.287  1.00  0.00     0.049 A 
ATOM     47  H   UNL A   1      42.689  27.555  29.424  1.00  0.00     0.167 HD
ATOM     48  C   UNL A   1      43.983  31.105  31.620  1.00  0.00     0.037 A 
ATOM     49  C   UNL A   1      43.091  25.102  28.153  1.00  0.00     0.037 A 
ATOM     50  C   UNL A   1      45.132  30.238  31.605  1.00  0.00     0.049 A 
ATOM     51  C   UNL A   1      44.405  25.458  28.792  1.00  0.00     0.074 A 
ATOM     52  C   UNL A   1      46.367  30.430  32.200  1.00  0.00     0.029 A 
ATOM     53  N   UNL A   1      45.185  29.010  30.961  1.00  0.00    -0.354 N 
ATOM     54  N   UNL A   1      44.723  26.519  29.492  1.00  0.00    -0.248 NA
ATOM     55  C   UNL A   1      45.505  24.497  28.627  1.00  0.00     0.031 C 
ATOM     56  C   UNL A   1      47.179  29.336  31.886  1.00  0.00     0.029 A 
ATOM     57  C   UNL A   1      46.438  28.442  31.131  1.00  0.00     0.049 A 
ATOM     58  H   UNL A   1      44.443  28.604  30.458  1.00  0.00     0.167 HD
ATOM     59  C   UNL A   1      46.046  26.342  29.873  1.00  0.00     0.074 A 
ATOM     60  C   UNL A   1      46.468  25.065  29.338  1.00  0.00     0.031 C 
ATOM     61  C   UNL A   1      46.840  27.166  30.600  1.00  0.00     0.037 A 
BRANCH  48  62
ATOM     62  C   UNL A   1      44.110  32.435  32.304  1.00  0.00     0.064 A 
ATOM     63  C   UNL A   1      44.532  33.579  31.612  1.00  0.00     0.173 A 
ATOM     64  C   UNL A   1      43.770  32.575  33.657  1.00  0.00     0.173 A 
ATOM     65  F   UNL A   1      44.880  33.496  30.319  1.00  0.00    -0.203 F 
ATOM     66  C   UNL A   1      44.637  34.809  32.256  1.00  0.00     0.198 A 
ATOM     67  C   UNL A   1      43.848  33.813  34.292  1.00  0.00     0.198 A 
ATOM     68  F   UNL A   1      43.354  31.513  34.365  1.00  0.00    -0.203 F 
ATOM     69  F   UNL A   1      45.087  35.879  31.585  1.00  0.00    -0.200 F 
ATOM     70  C   UNL A   1      44.288  34.927  33.593  1.00  0.00     0.200 A 
ATOM     71  F   UNL A   1      43.499  33.927  35.581  1.00  0.00    -0.200 F 
ATOM     72  F   UNL A   1      44.383  36.112  34.210  1.00  0.00    -0.200 F 
ENDBRANCH  48  62
BRANCH  49  73
ATOM     73  C   UNL A   1      42.933  23.829  27.401  1.00  0.00     0.064 A 
ATOM     74  C   UNL A   1      42.400  22.691  28.023  1.00  0.00     0.173 A 
ATOM     75  C   UNL A   1      43.310  23.723  26.056  1.00  0.00     0.173 A 
ATOM     76  F   UNL A   1      42.047  22.738  29.316  1.00  0.00    -0.203 F 
ATOM     77  C   UNL A   1      42.268  21.489  27.331  1.00  0.00     0.198 A 
ATOM     78  C   UNL A   1      43.153  22.528  25.357  1.00  0.00     0.198 A 
ATOM     79  F   UNL A   1      43.822  24.786  25.416  1.00  0.00    -0.203 F 
ATOM     80  F   UNL A   1      41.795  20.405  27.960  1.00  0.00    -0.200 F 
ATOM     81  C   UNL A   1      42.639  21.411  25.996  1.00  0.00     0.200 A 
ATOM     82  F   UNL A   1      43.500  22.459  24.065  1.00  0.00    -0.200 F 
ATOM     83  F   UNL A   1      42.506  20.257  25.330  1.00  0.00    -0.200 F 
ENDBRANCH  49  73
BRANCH  61  84
ATOM     84  C   UNL A   1      48.236  26.697  30.890  1.00  0.00     0.064 A 
ATOM     85  C   UNL A   1      49.318  27.065  30.077  1.00  0.00     0.173 A 
ATOM     86  C   UNL A   1      48.498  25.903  32.016  1.00  0.00     0.173 A 
ATOM     87  F   UNL A   1      49.115  27.810  28.980  1.00  0.00    -0.203 F 
ATOM     88  C   UNL A   1      50.609  26.636  30.369  1.00  0.00     0.198 A 
ATOM     89  C   UNL A   1      49.794  25.498  32.320  1.00  0.00     0.198 A 
ATOM     90  F   UNL A   1      47.497  25.529  32.828  1.00  0.00    -0.203 F 
ATOM     91  F   UNL A   1      51.622  26.963  29.556  1.00  0.00    -0.200 F 
ATOM     92  C   UNL A   1      50.847  25.859  31.494  1.00  0.00     0.200 A 
ATOM     93  F   UNL A   1      50.024  24.757  33.414  1.00  0.00    -0.200 F 
ATOM     94  F   UNL A   1      52.093  25.452  31.778  1.00  0.00    -0.200 F 
ENDBRANCH  61  84
ENDBRANCH  35  36
ENDBRANCH  27  30
ENDBRANCH  25  26
ENDBRANCH  24  25
ENDBRANCH   1  24
TORSDOF 14
ENDMDL
