MODEL 1
REMARK VINA RESULT:     -12.1      0.000      0.000
REMARK SMILES N#C[C@H]1CN(C(=O)c2csc(/C=C/C(=O)NCCCNC(=O)c3ccc(-c4c5nc(c(-c6c(F)c(F)c(F)c(F)c6F)c6ccc([nH]6)c(-c6c(F)c(F)c(F)c(F)c6F)c6nc(c(-c7c(F)c(F)c(F)c(F)c7F)c7ccc4[nH]7)C=C6)C=C5)cc3)c2)CCO1
REMARK SMILES IDX 17 1 16 2 14 3 15 4 13 6 12 7 11 8 8 9 9 10 86 11 10 12 6 13
REMARK SMILES IDX 7 14 5 15 3 16 4 17 89 18 88 19 87 20 2 21 1 22 18 23 19 24
REMARK SMILES IDX 20 25 21 26 22 28 23 29 24 30 85 31 25 32 84 33 26 34 27 35
REMARK SMILES IDX 28 36 78 37 29 38 83 39 77 40 79 41 30 42 82 43 76 44 75 45
REMARK SMILES IDX 31 47 63 48 43 49 62 50 44 51 47 52 61 53 80 54 45 55 46 56
REMARK SMILES IDX 60 58 81 59 48 60 32 61 33 62 41 63 34 64 35 65 39 66 42 67
REMARK SMILES IDX 36 68 37 69 40 70 38 71 64 72 65 73 73 74 66 75 67 76 71 77
REMARK SMILES IDX 74 78 68 79 69 80 72 81 70 82 49 83 50 84 58 85 51 86 52 87
REMARK SMILES IDX 56 88 59 89 53 90 54 91 57 92 55 93
REMARK H PARENT 16 5 20 27 79 46 47 57
REMARK Flexibility Score: inf
ROOT
ATOM      1  C   UNL A   1      31.325  30.899  25.796  1.00  0.00     0.118 C 
ENDROOT
BRANCH   1   2
ATOM      2  N   UNL A   1      30.418  30.837  24.663  1.00  0.00    -0.352 N 
ATOM      3  C   UNL A   1      30.170  29.863  23.750  1.00  0.00     0.244 C 
ATOM      4  O   UNL A   1      29.296  30.051  22.907  1.00  0.00    -0.270 OA
ATOM      5  H   UNL A   1      29.883  31.654  24.533  1.00  0.00     0.163 HD
BRANCH   3   6
ATOM      6  C   UNL A   1      30.855  28.551  23.794  1.00  0.00     0.072 C 
ATOM      7  C   UNL A   1      31.625  28.048  22.822  1.00  0.00     0.024 C 
BRANCH   7   8
ATOM      8  C   UNL A   1      32.321  26.807  22.903  1.00  0.00     0.028 A 
ATOM      9  C   UNL A   1      33.575  25.047  23.841  1.00  0.00     0.051 A 
ATOM     10  C   UNL A   1      33.579  24.708  22.503  1.00  0.00     0.079 A 
ATOM     11  C   UNL A   1      32.786  26.218  24.066  1.00  0.00     0.033 A 
ATOM     12  S   UNL A   1      32.739  25.845  21.543  1.00  0.00    -0.144 S 
BRANCH   9  13
ATOM     13  C   UNL A   1      34.257  24.304  24.892  1.00  0.00     0.254 C 
ATOM     14  O   UNL A   1      35.425  24.557  25.172  1.00  0.00    -0.269 OA
BRANCH  13  15
ATOM     15  N   UNL A   1      33.554  23.261  25.484  1.00  0.00    -0.333 N 
ATOM     16  C   UNL A   1      31.175  22.710  25.913  1.00  0.00     0.240 C 
ATOM     17  C   UNL A   1      32.451  23.390  26.451  1.00  0.00     0.167 C 
ATOM     18  O   UNL A   1      31.454  21.341  25.545  1.00  0.00    -0.360 OA
ATOM     19  C   UNL A   1      32.473  21.273  24.532  1.00  0.00     0.183 C 
ATOM     20  C   UNL A   1      33.785  21.889  25.031  1.00  0.00     0.148 C 
BRANCH  16  21
ATOM     21  C   UNL A   1      30.119  22.764  26.942  1.00  0.00     0.096 C 
ATOM     22  N   UNL A   1      29.261  22.823  27.720  1.00  0.00    -0.195 NA
ENDBRANCH  16  21
ENDBRANCH  13  15
ENDBRANCH   9  13
ENDBRANCH   7   8
ENDBRANCH   3   6
ENDBRANCH   1   2
BRANCH   1  23
ATOM     23  C   UNL A   1      31.221  32.251  26.500  1.00  0.00     0.042 C 
BRANCH  23  24
ATOM     24  C   UNL A   1      32.531  32.678  27.154  1.00  0.00     0.118 C 
BRANCH  24  25
ATOM     25  N   UNL A   1      32.482  34.065  27.597  1.00  0.00    -0.352 N 
ATOM     26  C   UNL A   1      33.122  34.693  28.631  1.00  0.00     0.251 C 
ATOM     27  H   UNL A   1      31.890  34.646  27.066  1.00  0.00     0.163 HD
ATOM     28  O   UNL A   1      32.730  35.797  28.998  1.00  0.00    -0.269 OA
BRANCH  26  29
ATOM     29  C   UNL A   1      34.281  34.067  29.298  1.00  0.00     0.039 A 
ATOM     30  C   UNL A   1      35.567  34.428  28.884  1.00  0.00     0.014 A 
ATOM     31  C   UNL A   1      34.115  33.072  30.265  1.00  0.00     0.014 A 
ATOM     32  C   UNL A   1      36.677  33.804  29.449  1.00  0.00     0.010 A 
ATOM     33  C   UNL A   1      35.224  32.526  30.902  1.00  0.00     0.010 A 
ATOM     34  C   UNL A   1      36.517  32.859  30.476  1.00  0.00    -0.014 A 
BRANCH  34  35
ATOM     35  C   UNL A   1      37.692  32.176  31.069  1.00  0.00     0.031 A 
ATOM     36  C   UNL A   1      38.156  32.539  32.455  1.00  0.00     0.074 A 
ATOM     37  C   UNL A   1      38.350  31.244  30.355  1.00  0.00     0.049 A 
ATOM     38  N   UNL A   1      39.160  32.056  33.146  1.00  0.00    -0.248 NA
ATOM     39  C   UNL A   1      37.413  33.603  33.149  1.00  0.00     0.031 C 
ATOM     40  C   UNL A   1      38.019  30.841  28.987  1.00  0.00     0.029 A 
ATOM     41  N   UNL A   1      39.429  30.463  30.680  1.00  0.00    -0.354 N 
ATOM     42  C   UNL A   1      39.169  32.762  34.343  1.00  0.00     0.074 A 
ATOM     43  C   UNL A   1      38.122  33.756  34.257  1.00  0.00     0.031 C 
ATOM     44  C   UNL A   1      38.851  29.859  28.606  1.00  0.00     0.029 A 
ATOM     45  C   UNL A   1      39.800  29.596  29.682  1.00  0.00     0.049 A 
ATOM     46  H   UNL A   1      39.894  30.518  31.547  1.00  0.00     0.167 HD
ATOM     47  C   UNL A   1      39.958  32.578  35.427  1.00  0.00     0.037 A 
ATOM     48  C   UNL A   1      40.798  28.694  29.641  1.00  0.00     0.037 A 
ATOM     49  C   UNL A   1      40.993  31.581  35.507  1.00  0.00     0.049 A 
ATOM     50  C   UNL A   1      41.679  28.528  30.851  1.00  0.00     0.074 A 
ATOM     51  C   UNL A   1      41.823  31.281  36.572  1.00  0.00     0.029 A 
ATOM     52  N   UNL A   1      41.344  30.723  34.473  1.00  0.00    -0.354 N 
ATOM     53  N   UNL A   1      41.635  29.153  32.003  1.00  0.00    -0.248 NA
ATOM     54  C   UNL A   1      42.739  27.517  30.758  1.00  0.00     0.031 C 
ATOM     55  C   UNL A   1      42.724  30.294  36.160  1.00  0.00     0.029 A 
ATOM     56  C   UNL A   1      42.398  29.914  34.867  1.00  0.00     0.049 A 
ATOM     57  H   UNL A   1      40.909  30.695  33.591  1.00  0.00     0.167 HD
ATOM     58  C   UNL A   1      42.631  28.583  32.785  1.00  0.00     0.074 A 
ATOM     59  C   UNL A   1      43.250  27.550  31.980  1.00  0.00     0.031 C 
ATOM     60  C   UNL A   1      42.998  28.883  34.057  1.00  0.00     0.037 A 
BRANCH  47  61
ATOM     61  C   UNL A   1      39.738  33.480  36.611  1.00  0.00     0.064 A 
ATOM     62  C   UNL A   1      38.856  33.137  37.650  1.00  0.00     0.173 A 
ATOM     63  C   UNL A   1      40.437  34.691  36.723  1.00  0.00     0.173 A 
ATOM     64  F   UNL A   1      38.152  31.997  37.591  1.00  0.00    -0.203 F 
ATOM     65  C   UNL A   1      38.657  33.990  38.734  1.00  0.00     0.198 A 
ATOM     66  C   UNL A   1      40.266  35.522  37.828  1.00  0.00     0.198 A 
ATOM     67  F   UNL A   1      41.296  35.068  35.764  1.00  0.00    -0.203 F 
ATOM     68  F   UNL A   1      37.763  33.671  39.679  1.00  0.00    -0.200 F 
ATOM     69  C   UNL A   1      39.368  35.176  38.825  1.00  0.00     0.200 A 
ATOM     70  F   UNL A   1      40.968  36.659  37.923  1.00  0.00    -0.200 F 
ATOM     71  F   UNL A   1      39.182  35.991  39.873  1.00  0.00    -0.200 F 
ENDBRANCH  47  61
BRANCH  48  72
ATOM     72  C   UNL A   1      41.004  27.862  28.425  1.00  0.00     0.064 A 
ATOM     73  C   UNL A   1      41.819  28.306  27.373  1.00  0.00     0.173 A 
ATOM     74  C   UNL A   1      40.379  26.615  28.280  1.00  0.00     0.173 A 
ATOM     75  F   UNL A   1      42.429  29.498  27.455  1.00  0.00    -0.203 F 
ATOM     76  C   UNL A   1      41.970  27.552  26.211  1.00  0.00     0.198 A 
ATOM     77  C   UNL A   1      40.562  25.845  27.134  1.00  0.00     0.198 A 
ATOM     78  F   UNL A   1      39.598  26.138  29.260  1.00  0.00    -0.203 F 
ATOM     79  F   UNL A   1      42.704  28.030  25.196  1.00  0.00    -0.200 F 
ATOM     80  C   UNL A   1      41.346  26.320  26.094  1.00  0.00     0.200 A 
ATOM     81  F   UNL A   1      39.974  24.645  27.036  1.00  0.00    -0.200 F 
ATOM     82  F   UNL A   1      41.493  25.594  24.977  1.00  0.00    -0.200 F 
ENDBRANCH  48  72
BRANCH  60  83
ATOM     83  C   UNL A   1      44.075  28.038  34.681  1.00  0.00     0.064 A 
ATOM     84  C   UNL A   1      45.428  28.407  34.649  1.00  0.00     0.173 A 
ATOM     85  C   UNL A   1      43.739  26.842  35.334  1.00  0.00     0.173 A 
ATOM     86  F   UNL A   1      45.806  29.536  34.030  1.00  0.00    -0.203 F 
ATOM     87  C   UNL A   1      46.408  27.587  35.202  1.00  0.00     0.198 A 
ATOM     88  C   UNL A   1      44.717  26.047  35.926  1.00  0.00     0.198 A 
ATOM     89  F   UNL A   1      42.460  26.445  35.406  1.00  0.00    -0.203 F 
ATOM     90  F   UNL A   1      47.700  27.923  35.091  1.00  0.00    -0.200 F 
ATOM     91  C   UNL A   1      46.051  26.412  35.846  1.00  0.00     0.200 A 
ATOM     92  F   UNL A   1      44.366  24.924  36.568  1.00  0.00    -0.200 F 
ATOM     93  F   UNL A   1      46.994  25.625  36.380  1.00  0.00    -0.200 F 
ENDBRANCH  60  83
ENDBRANCH  34  35
ENDBRANCH  26  29
ENDBRANCH  24  25
ENDBRANCH  23  24
ENDBRANCH   1  23
TORSDOF 14
ENDMDL
MODEL 2
REMARK VINA RESULT:     -12.1      5.180     10.956
REMARK SMILES N#C[C@H]1CN(C(=O)c2csc(/C=C/C(=O)NCCCNC(=O)c3ccc(-c4c5nc(c(-c6c(F)c(F)c(F)c(F)c6F)c6ccc([nH]6)c(-c6c(F)c(F)c(F)c(F)c6F)c6nc(c(-c7c(F)c(F)c(F)c(F)c7F)c7ccc4[nH]7)C=C6)C=C5)cc3)c2)CCO1
REMARK SMILES IDX 17 1 16 2 14 3 15 4 13 6 12 7 11 8 8 9 9 10 86 11 10 12 6 13
REMARK SMILES IDX 7 14 5 15 3 16 4 17 89 18 88 19 87 20 2 21 1 22 18 23 19 24
REMARK SMILES IDX 20 25 21 26 22 28 23 29 24 30 85 31 25 32 84 33 26 34 27 35
REMARK SMILES IDX 28 36 78 37 29 38 83 39 77 40 79 41 30 42 82 43 76 44 75 45
REMARK SMILES IDX 31 47 63 48 43 49 62 50 44 51 47 52 61 53 80 54 45 55 46 56
REMARK SMILES IDX 60 58 81 59 48 60 32 61 33 62 41 63 34 64 35 65 39 66 42 67
REMARK SMILES IDX 36 68 37 69 40 70 38 71 64 72 65 73 73 74 66 75 67 76 71 77
REMARK SMILES IDX 74 78 68 79 69 80 72 81 70 82 49 83 50 84 58 85 51 86 52 87
REMARK SMILES IDX 56 88 59 89 53 90 54 91 57 92 55 93
REMARK H PARENT 16 5 20 27 79 46 47 57
REMARK Flexibility Score: inf
ROOT
ATOM      1  C   UNL A   1      37.684  20.977  24.705  1.00  0.00     0.118 C 
ENDROOT
BRANCH   1   2
ATOM      2  N   UNL A   1      38.302  22.123  25.350  1.00  0.00    -0.352 N 
ATOM      3  C   UNL A   1      37.800  23.320  25.750  1.00  0.00     0.244 C 
ATOM      4  O   UNL A   1      38.544  24.107  26.332  1.00  0.00    -0.270 OA
ATOM      5  H   UNL A   1      39.263  22.010  25.532  1.00  0.00     0.163 HD
BRANCH   3   6
ATOM      6  C   UNL A   1      36.370  23.667  25.589  1.00  0.00     0.072 C 
ATOM      7  C   UNL A   1      35.389  23.312  26.427  1.00  0.00     0.024 C 
BRANCH   7   8
ATOM      8  C   UNL A   1      34.026  23.700  26.286  1.00  0.00     0.028 A 
ATOM      9  C   UNL A   1      32.156  25.112  26.036  1.00  0.00     0.051 A 
ATOM     10  C   UNL A   1      31.553  23.894  26.278  1.00  0.00     0.079 A 
ATOM     11  C   UNL A   1      33.577  24.971  25.971  1.00  0.00     0.033 A 
ATOM     12  S   UNL A   1      32.692  22.644  26.527  1.00  0.00    -0.144 S 
BRANCH   9  13
ATOM     13  C   UNL A   1      31.448  26.370  25.845  1.00  0.00     0.254 C 
ATOM     14  O   UNL A   1      30.721  26.813  26.730  1.00  0.00    -0.269 OA
BRANCH  13  15
ATOM     15  N   UNL A   1      31.570  26.980  24.602  1.00  0.00    -0.333 N 
ATOM     16  C   UNL A   1      31.444  26.267  22.230  1.00  0.00     0.240 C 
ATOM     17  C   UNL A   1      32.353  26.480  23.458  1.00  0.00     0.167 C 
ATOM     18  O   UNL A   1      30.710  27.476  21.934  1.00  0.00    -0.360 OA
ATOM     19  C   UNL A   1      29.891  27.871  23.048  1.00  0.00     0.183 C 
ATOM     20  C   UNL A   1      30.747  28.149  24.289  1.00  0.00     0.148 C 
BRANCH  16  21
ATOM     21  C   UNL A   1      32.268  25.867  21.073  1.00  0.00     0.096 C 
ATOM     22  N   UNL A   1      32.933  25.520  20.188  1.00  0.00    -0.195 NA
ENDBRANCH  16  21
ENDBRANCH  13  15
ENDBRANCH   9  13
ENDBRANCH   7   8
ENDBRANCH   3   6
ENDBRANCH   1   2
BRANCH   1  23
ATOM     23  C   UNL A   1      38.473  19.702  24.994  1.00  0.00     0.042 C 
BRANCH  23  24
ATOM     24  C   UNL A   1      39.304  19.796  26.270  1.00  0.00     0.118 C 
BRANCH  24  25
ATOM     25  N   UNL A   1      40.579  19.106  26.132  1.00  0.00    -0.352 N 
ATOM     26  C   UNL A   1      41.853  19.597  26.042  1.00  0.00     0.251 C 
ATOM     27  H   UNL A   1      40.513  18.124  26.098  1.00  0.00     0.163 HD
ATOM     28  O   UNL A   1      42.755  18.860  25.655  1.00  0.00    -0.269 OA
BRANCH  26  29
ATOM     29  C   UNL A   1      42.155  20.994  26.414  1.00  0.00     0.039 A 
ATOM     30  C   UNL A   1      42.152  21.969  25.412  1.00  0.00     0.014 A 
ATOM     31  C   UNL A   1      42.520  21.336  27.718  1.00  0.00     0.014 A 
ATOM     32  C   UNL A   1      42.499  23.282  25.724  1.00  0.00     0.010 A 
ATOM     33  C   UNL A   1      42.764  22.665  28.049  1.00  0.00     0.010 A 
ATOM     34  C   UNL A   1      42.793  23.646  27.048  1.00  0.00    -0.014 A 
BRANCH  34  35
ATOM     35  C   UNL A   1      43.182  25.037  27.385  1.00  0.00     0.031 A 
ATOM     36  C   UNL A   1      44.573  25.528  27.079  1.00  0.00     0.074 A 
ATOM     37  C   UNL A   1      42.291  25.851  27.982  1.00  0.00     0.049 A 
ATOM     38  N   UNL A   1      45.102  26.706  27.296  1.00  0.00    -0.248 NA
ATOM     39  C   UNL A   1      45.502  24.560  26.472  1.00  0.00     0.031 C 
ATOM     40  C   UNL A   1      40.930  25.473  28.366  1.00  0.00     0.029 A 
ATOM     41  N   UNL A   1      42.392  27.164  28.363  1.00  0.00    -0.354 N 
ATOM     42  C   UNL A   1      46.419  26.615  26.862  1.00  0.00     0.074 A 
ATOM     43  C   UNL A   1      46.632  25.249  26.439  1.00  0.00     0.031 C 
ATOM     44  C   UNL A   1      40.310  26.541  28.891  1.00  0.00     0.029 A 
ATOM     45  C   UNL A   1      41.242  27.663  28.923  1.00  0.00     0.049 A 
ATOM     46  H   UNL A   1      43.212  27.698  28.248  1.00  0.00     0.167 HD
ATOM     47  C   UNL A   1      47.356  27.589  26.792  1.00  0.00     0.037 A 
ATOM     48  C   UNL A   1      40.974  28.889  29.409  1.00  0.00     0.037 A 
ATOM     49  C   UNL A   1      47.132  28.949  27.208  1.00  0.00     0.049 A 
ATOM     50  C   UNL A   1      42.042  29.948  29.345  1.00  0.00     0.074 A 
ATOM     51  C   UNL A   1      47.999  30.026  27.143  1.00  0.00     0.029 A 
ATOM     52  N   UNL A   1      45.955  29.418  27.774  1.00  0.00    -0.354 N 
ATOM     53  N   UNL A   1      43.262  29.869  28.869  1.00  0.00    -0.248 NA
ATOM     54  C   UNL A   1      41.689  31.271  29.872  1.00  0.00     0.031 C 
ATOM     55  C   UNL A   1      47.373  31.127  27.736  1.00  0.00     0.029 A 
ATOM     56  C   UNL A   1      46.083  30.761  28.090  1.00  0.00     0.049 A 
ATOM     57  H   UNL A   1      45.148  28.876  27.930  1.00  0.00     0.167 HD
ATOM     58  C   UNL A   1      43.806  31.140  29.000  1.00  0.00     0.074 A 
ATOM     59  C   UNL A   1      42.776  31.973  29.585  1.00  0.00     0.031 C 
ATOM     60  C   UNL A   1      45.044  31.581  28.664  1.00  0.00     0.037 A 
BRANCH  47  61
ATOM     61  C   UNL A   1      48.711  27.217  26.255  1.00  0.00     0.064 A 
ATOM     62  C   UNL A   1      48.997  27.247  24.880  1.00  0.00     0.173 A 
ATOM     63  C   UNL A   1      49.746  26.850  27.128  1.00  0.00     0.173 A 
ATOM     64  F   UNL A   1      48.043  27.579  23.998  1.00  0.00    -0.203 F 
ATOM     65  C   UNL A   1      50.255  26.888  24.400  1.00  0.00     0.198 A 
ATOM     66  C   UNL A   1      51.015  26.531  26.647  1.00  0.00     0.198 A 
ATOM     67  F   UNL A   1      49.533  26.808  28.452  1.00  0.00    -0.203 F 
ATOM     68  F   UNL A   1      50.484  26.864  23.080  1.00  0.00    -0.200 F 
ATOM     69  C   UNL A   1      51.263  26.540  25.284  1.00  0.00     0.200 A 
ATOM     70  F   UNL A   1      51.993  26.212  27.505  1.00  0.00    -0.200 F 
ATOM     71  F   UNL A   1      52.476  26.204  24.821  1.00  0.00    -0.200 F 
ENDBRANCH  47  61
BRANCH  48  72
ATOM     72  C   UNL A   1      39.631  29.190  29.977  1.00  0.00     0.064 A 
ATOM     73  C   UNL A   1      38.609  29.719  29.175  1.00  0.00     0.173 A 
ATOM     74  C   UNL A   1      39.348  28.974  31.333  1.00  0.00     0.173 A 
ATOM     75  F   UNL A   1      38.832  29.957  27.875  1.00  0.00    -0.203 F 
ATOM     76  C   UNL A   1      37.368  30.050  29.716  1.00  0.00     0.198 A 
ATOM     77  C   UNL A   1      38.095  29.271  31.864  1.00  0.00     0.198 A 
ATOM     78  F   UNL A   1      40.286  28.460  32.142  1.00  0.00    -0.203 F 
ATOM     79  F   UNL A   1      36.431  30.612  28.940  1.00  0.00    -0.200 F 
ATOM     80  C   UNL A   1      37.110  29.822  31.059  1.00  0.00     0.200 A 
ATOM     81  F   UNL A   1      37.844  29.027  33.157  1.00  0.00    -0.200 F 
ATOM     82  F   UNL A   1      35.916  30.140  31.578  1.00  0.00    -0.200 F 
ENDBRANCH  48  72
BRANCH  60  83
ATOM     83  C   UNL A   1      45.332  33.045  28.856  1.00  0.00     0.064 A 
ATOM     84  C   UNL A   1      45.942  33.542  30.017  1.00  0.00     0.173 A 
ATOM     85  C   UNL A   1      44.999  33.964  27.848  1.00  0.00     0.173 A 
ATOM     86  F   UNL A   1      46.273  32.709  31.016  1.00  0.00    -0.203 F 
ATOM     87  C   UNL A   1      46.160  34.907  30.183  1.00  0.00     0.198 A 
ATOM     88  C   UNL A   1      45.261  35.322  27.998  1.00  0.00     0.198 A 
ATOM     89  F   UNL A   1      44.425  33.544  26.711  1.00  0.00    -0.203 F 
ATOM     90  F   UNL A   1      46.673  35.365  31.333  1.00  0.00    -0.200 F 
ATOM     91  C   UNL A   1      45.827  35.795  29.172  1.00  0.00     0.200 A 
ATOM     92  F   UNL A   1      44.958  36.175  27.009  1.00  0.00    -0.200 F 
ATOM     93  F   UNL A   1      46.041  37.107  29.332  1.00  0.00    -0.200 F 
ENDBRANCH  60  83
ENDBRANCH  34  35
ENDBRANCH  26  29
ENDBRANCH  24  25
ENDBRANCH  23  24
ENDBRANCH   1  23
TORSDOF 14
ENDMDL
MODEL 3
REMARK VINA RESULT:     -12.1      5.159     10.817
REMARK SMILES N#C[C@H]1CN(C(=O)c2csc(/C=C/C(=O)NCCCNC(=O)c3ccc(-c4c5nc(c(-c6c(F)c(F)c(F)c(F)c6F)c6ccc([nH]6)c(-c6c(F)c(F)c(F)c(F)c6F)c6nc(c(-c7c(F)c(F)c(F)c(F)c7F)c7ccc4[nH]7)C=C6)C=C5)cc3)c2)CCO1
REMARK SMILES IDX 17 1 16 2 14 3 15 4 13 6 12 7 11 8 8 9 9 10 86 11 10 12 6 13
REMARK SMILES IDX 7 14 5 15 3 16 4 17 89 18 88 19 87 20 2 21 1 22 18 23 19 24
REMARK SMILES IDX 20 25 21 26 22 28 23 29 24 30 85 31 25 32 84 33 26 34 27 35
REMARK SMILES IDX 28 36 78 37 29 38 83 39 77 40 79 41 30 42 82 43 76 44 75 45
REMARK SMILES IDX 31 47 63 48 43 49 62 50 44 51 47 52 61 53 80 54 45 55 46 56
REMARK SMILES IDX 60 58 81 59 48 60 32 61 33 62 41 63 34 64 35 65 39 66 42 67
REMARK SMILES IDX 36 68 37 69 40 70 38 71 64 72 65 73 73 74 66 75 67 76 71 77
REMARK SMILES IDX 74 78 68 79 69 80 72 81 70 82 49 83 50 84 58 85 51 86 52 87
REMARK SMILES IDX 56 88 59 89 53 90 54 91 57 92 55 93
REMARK H PARENT 16 5 20 27 79 46 47 57
REMARK Flexibility Score: inf
ROOT
ATOM      1  C   UNL A   1      37.703  20.793  24.818  1.00  0.00     0.118 C 
ENDROOT
BRANCH   1   2
ATOM      2  N   UNL A   1      38.251  21.991  25.429  1.00  0.00    -0.352 N 
ATOM      3  C   UNL A   1      37.731  23.232  25.620  1.00  0.00     0.244 C 
ATOM      4  O   UNL A   1      38.402  24.066  26.225  1.00  0.00    -0.270 OA
ATOM      5  H   UNL A   1      39.169  21.885  25.768  1.00  0.00     0.163 HD
BRANCH   3   6
ATOM      6  C   UNL A   1      36.354  23.581  25.204  1.00  0.00     0.072 C 
ATOM      7  C   UNL A   1      35.271  23.521  25.988  1.00  0.00     0.024 C 
BRANCH   7   8
ATOM      8  C   UNL A   1      33.961  23.912  25.587  1.00  0.00     0.028 A 
ATOM      9  C   UNL A   1      31.933  25.111  25.570  1.00  0.00     0.051 A 
ATOM     10  C   UNL A   1      31.656  24.084  24.690  1.00  0.00     0.079 A 
ATOM     11  C   UNL A   1      33.288  25.041  26.021  1.00  0.00     0.033 A 
ATOM     12  S   UNL A   1      32.972  23.009  24.511  1.00  0.00    -0.144 S 
BRANCH   9  13
ATOM     13  C   UNL A   1      30.989  26.146  25.969  1.00  0.00     0.254 C 
ATOM     14  O   UNL A   1      29.954  25.848  26.556  1.00  0.00    -0.269 OA
BRANCH  13  15
ATOM     15  N   UNL A   1      31.279  27.448  25.578  1.00  0.00    -0.333 N 
ATOM     16  C   UNL A   1      33.071  29.104  26.025  1.00  0.00     0.240 C 
ATOM     17  C   UNL A   1      31.698  28.551  26.460  1.00  0.00     0.167 C 
ATOM     18  O   UNL A   1      33.044  29.469  24.627  1.00  0.00    -0.360 OA
ATOM     19  C   UNL A   1      32.720  28.338  23.801  1.00  0.00     0.183 C 
ATOM     20  C   UNL A   1      31.339  27.777  24.153  1.00  0.00     0.148 C 
BRANCH  16  21
ATOM     21  C   UNL A   1      33.418  30.271  26.858  1.00  0.00     0.096 C 
ATOM     22  N   UNL A   1      33.682  31.164  27.549  1.00  0.00    -0.195 NA
ENDBRANCH  16  21
ENDBRANCH  13  15
ENDBRANCH   9  13
ENDBRANCH   7   8
ENDBRANCH   3   6
ENDBRANCH   1   2
BRANCH   1  23
ATOM     23  C   UNL A   1      38.639  19.603  25.024  1.00  0.00     0.042 C 
BRANCH  23  24
ATOM     24  C   UNL A   1      39.619  19.814  26.174  1.00  0.00     0.118 C 
BRANCH  24  25
ATOM     25  N   UNL A   1      40.829  19.024  25.999  1.00  0.00    -0.352 N 
ATOM     26  C   UNL A   1      42.139  19.410  25.902  1.00  0.00     0.251 C 
ATOM     27  H   UNL A   1      40.682  18.052  25.940  1.00  0.00     0.163 HD
ATOM     28  O   UNL A   1      42.971  18.611  25.482  1.00  0.00    -0.269 OA
BRANCH  26  29
ATOM     29  C   UNL A   1      42.562  20.766  26.307  1.00  0.00     0.039 A 
ATOM     30  C   UNL A   1      42.507  21.108  27.661  1.00  0.00     0.014 A 
ATOM     31  C   UNL A   1      42.932  21.725  25.361  1.00  0.00     0.014 A 
ATOM     32  C   UNL A   1      42.837  22.401  28.063  1.00  0.00     0.010 A 
ATOM     33  C   UNL A   1      43.361  22.982  25.773  1.00  0.00     0.010 A 
ATOM     34  C   UNL A   1      43.282  23.346  27.124  1.00  0.00    -0.014 A 
BRANCH  34  35
ATOM     35  C   UNL A   1      43.617  24.730  27.540  1.00  0.00     0.031 A 
ATOM     36  C   UNL A   1      45.054  25.177  27.591  1.00  0.00     0.074 A 
ATOM     37  C   UNL A   1      42.629  25.576  27.889  1.00  0.00     0.049 A 
ATOM     38  N   UNL A   1      45.547  26.343  27.928  1.00  0.00    -0.248 NA
ATOM     39  C   UNL A   1      46.076  24.176  27.243  1.00  0.00     0.031 C 
ATOM     40  C   UNL A   1      41.205  25.241  27.921  1.00  0.00     0.029 A 
ATOM     41  N   UNL A   1      42.672  26.890  28.277  1.00  0.00    -0.354 N 
ATOM     42  C   UNL A   1      46.928  26.209  27.839  1.00  0.00     0.074 A 
ATOM     43  C   UNL A   1      47.198  24.832  27.491  1.00  0.00     0.031 C 
ATOM     44  C   UNL A   1      40.506  26.333  28.267  1.00  0.00     0.029 A 
ATOM     45  C   UNL A   1      41.433  27.429  28.526  1.00  0.00     0.049 A 
ATOM     46  H   UNL A   1      43.510  27.399  28.369  1.00  0.00     0.167 HD
ATOM     47  C   UNL A   1      47.881  27.156  28.003  1.00  0.00     0.037 A 
ATOM     48  C   UNL A   1      41.089  28.668  28.923  1.00  0.00     0.037 A 
ATOM     49  C   UNL A   1      47.602  28.527  28.341  1.00  0.00     0.049 A 
ATOM     50  C   UNL A   1      42.171  29.695  29.124  1.00  0.00     0.074 A 
ATOM     51  C   UNL A   1      48.489  29.578  28.490  1.00  0.00     0.029 A 
ATOM     52  N   UNL A   1      46.335  29.036  28.591  1.00  0.00    -0.354 N 
ATOM     53  N   UNL A   1      43.468  29.576  28.970  1.00  0.00    -0.248 NA
ATOM     54  C   UNL A   1      41.737  31.035  29.538  1.00  0.00     0.031 C 
ATOM     55  C   UNL A   1      47.768  30.704  28.901  1.00  0.00     0.029 A 
ATOM     56  C   UNL A   1      46.421  30.379  28.921  1.00  0.00     0.049 A 
ATOM     57  H   UNL A   1      45.498  28.519  28.542  1.00  0.00     0.167 HD
ATOM     58  C   UNL A   1      44.000  30.833  29.228  1.00  0.00     0.074 A 
ATOM     59  C   UNL A   1      42.882  31.702  29.530  1.00  0.00     0.031 C 
ATOM     60  C   UNL A   1      45.296  31.234  29.210  1.00  0.00     0.037 A 
BRANCH  47  61
ATOM     61  C   UNL A   1      49.316  26.739  27.825  1.00  0.00     0.064 A 
ATOM     62  C   UNL A   1      49.892  26.587  26.553  1.00  0.00     0.173 A 
ATOM     63  C   UNL A   1      50.134  26.514  28.943  1.00  0.00     0.173 A 
ATOM     64  F   UNL A   1      49.154  26.778  25.449  1.00  0.00    -0.203 F 
ATOM     65  C   UNL A   1      51.220  26.189  26.408  1.00  0.00     0.198 A 
ATOM     66  C   UNL A   1      51.473  26.156  28.794  1.00  0.00     0.198 A 
ATOM     67  F   UNL A   1      49.640  26.648  30.183  1.00  0.00    -0.203 F 
ATOM     68  F   UNL A   1      51.727  25.989  25.185  1.00  0.00    -0.200 F 
ATOM     69  C   UNL A   1      52.010  25.983  27.528  1.00  0.00     0.200 A 
ATOM     70  F   UNL A   1      52.240  25.975  29.878  1.00  0.00    -0.200 F 
ATOM     71  F   UNL A   1      53.290  25.609  27.388  1.00  0.00    -0.200 F 
ENDBRANCH  47  61
BRANCH  48  72
ATOM     72  C   UNL A   1      39.657  29.014  29.133  1.00  0.00     0.064 A 
ATOM     73  C   UNL A   1      39.068  28.923  30.403  1.00  0.00     0.173 A 
ATOM     74  C   UNL A   1      38.843  29.427  28.067  1.00  0.00     0.173 A 
ATOM     75  F   UNL A   1      39.799  28.521  31.452  1.00  0.00    -0.203 F 
ATOM     76  C   UNL A   1      37.715  29.196  30.590  1.00  0.00     0.198 A 
ATOM     77  C   UNL A   1      37.499  29.736  28.265  1.00  0.00     0.198 A 
ATOM     78  F   UNL A   1      39.358  29.541  26.835  1.00  0.00    -0.203 F 
ATOM     79  F   UNL A   1      37.165  29.040  31.803  1.00  0.00    -0.200 F 
ATOM     80  C   UNL A   1      36.932  29.607  29.523  1.00  0.00     0.200 A 
ATOM     81  F   UNL A   1      36.753  30.154  27.233  1.00  0.00    -0.200 F 
ATOM     82  F   UNL A   1      35.631  29.871  29.705  1.00  0.00    -0.200 F 
ENDBRANCH  48  72
BRANCH  60  83
ATOM     83  C   UNL A   1      45.570  32.692  29.461  1.00  0.00     0.064 A 
ATOM     84  C   UNL A   1      45.824  33.197  30.745  1.00  0.00     0.173 A 
ATOM     85  C   UNL A   1      45.590  33.597  28.388  1.00  0.00     0.173 A 
ATOM     86  F   UNL A   1      45.809  32.378  31.808  1.00  0.00    -0.203 F 
ATOM     87  C   UNL A   1      46.037  34.557  30.951  1.00  0.00     0.198 A 
ATOM     88  C   UNL A   1      45.849  34.950  28.592  1.00  0.00     0.198 A 
ATOM     89  F   UNL A   1      45.365  33.170  27.136  1.00  0.00    -0.203 F 
ATOM     90  F   UNL A   1      46.201  35.026  32.196  1.00  0.00    -0.200 F 
ATOM     91  C   UNL A   1      46.056  35.431  29.875  1.00  0.00     0.200 A 
ATOM     92  F   UNL A   1      45.889  35.787  27.547  1.00  0.00    -0.200 F 
ATOM     93  F   UNL A   1      46.264  36.739  30.075  1.00  0.00    -0.200 F 
ENDBRANCH  60  83
ENDBRANCH  34  35
ENDBRANCH  26  29
ENDBRANCH  24  25
ENDBRANCH  23  24
ENDBRANCH   1  23
TORSDOF 14
ENDMDL
