MODEL 1
REMARK VINA RESULT:     -13.8      0.000      0.000
REMARK SMILES Cc1ccc(S(=O)(=O)Nc2cc(C(=O)NCCCNC(=O)c3ccc(-c4c5nc(c(-c6c(F)c(F)c(F)c(F)c6F)c6ccc([nH]6)c(-c6c(F)c(F)c(F)c(F)c6F)c6nc(c(-c7c(F)c(F)c(F)c(F)c7F)c7ccc4[nH]7)C=C6)C=C5)cc3)ccc2C)c(Br)c1
REMARK SMILES IDX 16 1 15 2 13 3 14 4 12 6 10 7 11 8 87 9 86 10 88 11 85 12
REMARK SMILES IDX 9 13 6 15 7 16 8 17 5 18 1 19 2 20 3 21 91 22 4 23 89 24
REMARK SMILES IDX 90 25 17 26 18 27 19 28 20 29 21 31 22 32 23 33 84 34 24 35
REMARK SMILES IDX 83 36 25 37 26 38 27 39 77 40 28 41 82 42 76 43 78 44 29 45
REMARK SMILES IDX 81 46 75 47 74 48 30 50 62 51 42 52 61 53 43 54 46 55 60 56
REMARK SMILES IDX 79 57 44 58 45 59 59 61 80 62 47 63 31 64 32 65 40 66 33 67
REMARK SMILES IDX 34 68 38 69 41 70 35 71 36 72 39 73 37 74 63 75 64 76 72 77
REMARK SMILES IDX 65 78 66 79 70 80 73 81 67 82 68 83 71 84 69 85 48 86 49 87
REMARK SMILES IDX 57 88 50 89 51 90 55 91 58 92 52 93 53 94 56 95 54 96
REMARK H PARENT 15 5 9 14 19 30 78 49 46 60
REMARK Flexibility Score: inf
ROOT
ATOM      1  C   UNL A   1      37.080  21.145  25.287  1.00  0.00     0.118 C 
ENDROOT
BRANCH   1   2
ATOM      2  N   UNL A   1      36.829  21.914  24.078  1.00  0.00    -0.352 N 
ATOM      3  C   UNL A   1      35.717  22.584  23.625  1.00  0.00     0.251 C 
ATOM      4  O   UNL A   1      35.839  23.225  22.581  1.00  0.00    -0.269 OA
ATOM      5  H   UNL A   1      37.602  21.964  23.469  1.00  0.00     0.163 HD
BRANCH   3   6
ATOM      6  C   UNL A   1      34.407  22.630  24.348  1.00  0.00     0.041 A 
ATOM      7  C   UNL A   1      32.692  23.723  25.699  1.00  0.00     0.053 A 
ATOM      8  C   UNL A   1      34.005  23.644  25.220  1.00  0.00     0.040 A 
ATOM      9  C   UNL A   1      31.835  22.623  25.535  1.00  0.00    -0.027 A 
ATOM     10  C   UNL A   1      32.256  21.560  24.722  1.00  0.00     0.006 A 
ATOM     11  C   UNL A   1      30.460  22.531  26.139  1.00  0.00     0.046 C 
ATOM     12  C   UNL A   1      33.509  21.583  24.105  1.00  0.00     0.014 A 
BRANCH   7  13
ATOM     13  N   UNL A   1      32.171  24.936  26.243  1.00  0.00    -0.279 N 
ATOM     14  H   UNL A   1      32.230  25.039  27.220  1.00  0.00     0.180 HD
BRANCH  13  15
ATOM     15  S   UNL A   1      31.466  26.205  25.398  1.00  0.00     0.263 S 
ATOM     16  O   UNL A   1      30.110  26.338  25.917  1.00  0.00    -0.201 OA
ATOM     17  O   UNL A   1      31.718  25.915  24.016  1.00  0.00    -0.201 OA
BRANCH  15  18
ATOM     18  C   UNL A   1      32.328  27.720  25.786  1.00  0.00     0.101 A 
ATOM     19  C   UNL A   1      33.576  31.460  27.544  1.00  0.00     0.044 C 
ATOM     20  C   UNL A   1      33.209  30.164  26.879  1.00  0.00    -0.050 A 
ATOM     21  C   UNL A   1      33.783  28.958  27.291  1.00  0.00     0.005 A 
ATOM     22  C   UNL A   1      32.295  30.148  25.820  1.00  0.00     0.020 A 
ATOM     23  C   UNL A   1      33.364  27.745  26.730  1.00  0.00     0.024 A 
ATOM     24  C   UNL A   1      31.844  28.934  25.279  1.00  0.00     0.038 A 
ATOM     25  Br  UNL A   1      30.582  29.069  23.866  1.00  0.00    -0.049 Br
ENDBRANCH  15  18
ENDBRANCH  13  15
ENDBRANCH   7  13
ENDBRANCH   3   6
ENDBRANCH   1   2
BRANCH   1  26
ATOM     26  C   UNL A   1      38.541  21.221  25.722  1.00  0.00     0.042 C 
BRANCH  26  27
ATOM     27  C   UNL A   1      38.992  22.630  26.028  1.00  0.00     0.118 C 
BRANCH  27  28
ATOM     28  N   UNL A   1      40.388  22.742  26.444  1.00  0.00    -0.352 N 
ATOM     29  C   UNL A   1      41.101  23.868  26.817  1.00  0.00     0.251 C 
ATOM     30  H   UNL A   1      40.892  21.896  26.462  1.00  0.00     0.163 HD
ATOM     31  O   UNL A   1      42.299  23.788  27.066  1.00  0.00    -0.269 OA
BRANCH  29  32
ATOM     32  C   UNL A   1      40.377  25.140  27.054  1.00  0.00     0.039 A 
ATOM     33  C   UNL A   1      40.728  26.257  26.288  1.00  0.00     0.014 A 
ATOM     34  C   UNL A   1      39.575  25.290  28.178  1.00  0.00     0.014 A 
ATOM     35  C   UNL A   1      40.509  27.532  26.804  1.00  0.00     0.010 A 
ATOM     36  C   UNL A   1      39.512  26.530  28.768  1.00  0.00     0.010 A 
ATOM     37  C   UNL A   1      40.020  27.650  28.103  1.00  0.00    -0.014 A 
BRANCH  37  38
ATOM     38  C   UNL A   1      40.073  28.875  28.890  1.00  0.00     0.031 A 
ATOM     39  C   UNL A   1      39.007  29.892  28.749  1.00  0.00     0.074 A 
ATOM     40  C   UNL A   1      41.007  29.009  29.859  1.00  0.00     0.049 A 
ATOM     41  N   UNL A   1      39.144  31.131  29.083  1.00  0.00    -0.248 NA
ATOM     42  C   UNL A   1      37.695  29.598  28.186  1.00  0.00     0.031 C 
ATOM     43  C   UNL A   1      40.993  29.968  30.961  1.00  0.00     0.029 A 
ATOM     44  N   UNL A   1      42.265  28.387  29.956  1.00  0.00    -0.354 N 
ATOM     45  C   UNL A   1      37.897  31.717  29.055  1.00  0.00     0.074 A 
ATOM     46  C   UNL A   1      37.042  30.738  28.430  1.00  0.00     0.031 C 
ATOM     47  C   UNL A   1      42.238  30.099  31.442  1.00  0.00     0.029 A 
ATOM     48  C   UNL A   1      43.114  29.338  30.571  1.00  0.00     0.049 A 
ATOM     49  H   UNL A   1      42.505  27.480  29.657  1.00  0.00     0.167 HD
ATOM     50  C   UNL A   1      37.713  32.910  29.691  1.00  0.00     0.037 A 
ATOM     51  C   UNL A   1      44.205  29.851  29.935  1.00  0.00     0.037 A 
ATOM     52  C   UNL A   1      38.964  33.384  30.280  1.00  0.00     0.049 A 
ATOM     53  C   UNL A   1      44.182  31.351  29.784  1.00  0.00     0.074 A 
ATOM     54  C   UNL A   1      39.465  33.325  31.570  1.00  0.00     0.029 A 
ATOM     55  N   UNL A   1      40.025  33.748  29.459  1.00  0.00    -0.354 N 
ATOM     56  N   UNL A   1      43.093  32.065  29.835  1.00  0.00    -0.248 NA
ATOM     57  C   UNL A   1      45.370  32.162  29.541  1.00  0.00     0.031 C 
ATOM     58  C   UNL A   1      40.839  33.656  31.525  1.00  0.00     0.029 A 
ATOM     59  C   UNL A   1      41.173  33.920  30.208  1.00  0.00     0.049 A 
ATOM     60  H   UNL A   1      39.967  33.866  28.484  1.00  0.00     0.167 HD
ATOM     61  C   UNL A   1      43.398  33.385  29.621  1.00  0.00     0.074 A 
ATOM     62  C   UNL A   1      44.839  33.395  29.459  1.00  0.00     0.031 C 
ATOM     63  C   UNL A   1      42.422  34.342  29.593  1.00  0.00     0.037 A 
BRANCH  50  64
ATOM     64  C   UNL A   1      36.365  33.509  30.046  1.00  0.00     0.064 A 
ATOM     65  C   UNL A   1      35.533  34.057  29.043  1.00  0.00     0.173 A 
ATOM     66  C   UNL A   1      35.850  33.622  31.350  1.00  0.00     0.173 A 
ATOM     67  F   UNL A   1      35.810  33.911  27.742  1.00  0.00    -0.203 F 
ATOM     68  C   UNL A   1      34.370  34.777  29.334  1.00  0.00     0.198 A 
ATOM     69  C   UNL A   1      34.714  34.384  31.648  1.00  0.00     0.198 A 
ATOM     70  F   UNL A   1      36.379  32.943  32.373  1.00  0.00    -0.203 F 
ATOM     71  F   UNL A   1      33.635  35.285  28.335  1.00  0.00    -0.200 F 
ATOM     72  C   UNL A   1      33.983  34.975  30.641  1.00  0.00     0.200 A 
ATOM     73  F   UNL A   1      34.331  34.532  32.925  1.00  0.00    -0.200 F 
ATOM     74  F   UNL A   1      32.893  35.701  30.925  1.00  0.00    -0.200 F 
ENDBRANCH  50  64
BRANCH  51  75
ATOM     75  C   UNL A   1      44.811  28.907  28.963  1.00  0.00     0.064 A 
ATOM     76  C   UNL A   1      45.633  27.880  29.463  1.00  0.00     0.173 A 
ATOM     77  C   UNL A   1      44.277  28.748  27.679  1.00  0.00     0.173 A 
ATOM     78  F   UNL A   1      46.165  27.987  30.691  1.00  0.00    -0.203 F 
ATOM     79  C   UNL A   1      45.811  26.691  28.760  1.00  0.00     0.198 A 
ATOM     80  C   UNL A   1      44.464  27.557  26.974  1.00  0.00     0.198 A 
ATOM     81  F   UNL A   1      43.468  29.683  27.161  1.00  0.00    -0.203 F 
ATOM     82  F   UNL A   1      46.503  25.685  29.314  1.00  0.00    -0.200 F 
ATOM     83  C   UNL A   1      45.198  26.519  27.530  1.00  0.00     0.200 A 
ATOM     84  F   UNL A   1      43.846  27.375  25.798  1.00  0.00    -0.200 F 
ATOM     85  F   UNL A   1      45.280  25.338  26.900  1.00  0.00    -0.200 F 
ENDBRANCH  51  75
BRANCH  63  86
ATOM     86  C   UNL A   1      42.548  35.775  29.113  1.00  0.00     0.064 A 
ATOM     87  C   UNL A   1      41.920  36.290  27.969  1.00  0.00     0.173 A 
ATOM     88  C   UNL A   1      43.224  36.740  29.908  1.00  0.00     0.173 A 
ATOM     89  F   UNL A   1      41.142  35.527  27.192  1.00  0.00    -0.203 F 
ATOM     90  C   UNL A   1      42.015  37.640  27.610  1.00  0.00     0.198 A 
ATOM     91  C   UNL A   1      43.266  38.094  29.580  1.00  0.00     0.198 A 
ATOM     92  F   UNL A   1      43.846  36.407  31.049  1.00  0.00    -0.203 F 
ATOM     93  F   UNL A   1      41.431  38.067  26.482  1.00  0.00    -0.200 F 
ATOM     94  C   UNL A   1      42.676  38.543  28.421  1.00  0.00     0.200 A 
ATOM     95  F   UNL A   1      43.862  38.962  30.410  1.00  0.00    -0.200 F 
ATOM     96  F   UNL A   1      42.722  39.842  28.096  1.00  0.00    -0.200 F 
ENDBRANCH  63  86
ENDBRANCH  37  38
ENDBRANCH  29  32
ENDBRANCH  27  28
ENDBRANCH  26  27
ENDBRANCH   1  26
TORSDOF 13
ENDMDL
MODEL 2
REMARK VINA RESULT:     -13.7      3.563      9.797
REMARK SMILES Cc1ccc(S(=O)(=O)Nc2cc(C(=O)NCCCNC(=O)c3ccc(-c4c5nc(c(-c6c(F)c(F)c(F)c(F)c6F)c6ccc([nH]6)c(-c6c(F)c(F)c(F)c(F)c6F)c6nc(c(-c7c(F)c(F)c(F)c(F)c7F)c7ccc4[nH]7)C=C6)C=C5)cc3)ccc2C)c(Br)c1
REMARK SMILES IDX 16 1 15 2 13 3 14 4 12 6 10 7 11 8 87 9 86 10 88 11 85 12
REMARK SMILES IDX 9 13 6 15 7 16 8 17 5 18 1 19 2 20 3 21 91 22 4 23 89 24
REMARK SMILES IDX 90 25 17 26 18 27 19 28 20 29 21 31 22 32 23 33 84 34 24 35
REMARK SMILES IDX 83 36 25 37 26 38 27 39 77 40 28 41 82 42 76 43 78 44 29 45
REMARK SMILES IDX 81 46 75 47 74 48 30 50 62 51 42 52 61 53 43 54 46 55 60 56
REMARK SMILES IDX 79 57 44 58 45 59 59 61 80 62 47 63 31 64 32 65 40 66 33 67
REMARK SMILES IDX 34 68 38 69 41 70 35 71 36 72 39 73 37 74 63 75 64 76 72 77
REMARK SMILES IDX 65 78 66 79 70 80 73 81 67 82 68 83 71 84 69 85 48 86 49 87
REMARK SMILES IDX 57 88 50 89 51 90 55 91 58 92 52 93 53 94 56 95 54 96
REMARK H PARENT 15 5 9 14 19 30 78 49 46 60
REMARK Flexibility Score: inf
ROOT
ATOM      1  C   UNL A   1      31.622  30.078  25.454  1.00  0.00     0.118 C 
ENDROOT
BRANCH   1   2
ATOM      2  N   UNL A   1      32.769  29.686  24.651  1.00  0.00    -0.352 N 
ATOM      3  C   UNL A   1      33.251  28.456  24.269  1.00  0.00     0.251 C 
ATOM      4  O   UNL A   1      34.214  28.447  23.502  1.00  0.00    -0.269 OA
ATOM      5  H   UNL A   1      33.301  30.445  24.317  1.00  0.00     0.163 HD
BRANCH   3   6
ATOM      6  C   UNL A   1      32.642  27.149  24.674  1.00  0.00     0.041 A 
ATOM      7  C   UNL A   1      31.748  24.922  24.228  1.00  0.00     0.053 A 
ATOM      8  C   UNL A   1      32.113  26.202  23.794  1.00  0.00     0.040 A 
ATOM      9  C   UNL A   1      31.644  24.666  25.604  1.00  0.00    -0.027 A 
ATOM     10  C   UNL A   1      32.103  25.641  26.503  1.00  0.00     0.006 A 
ATOM     11  C   UNL A   1      31.115  23.384  26.184  1.00  0.00     0.046 C 
ATOM     12  C   UNL A   1      32.631  26.850  26.042  1.00  0.00     0.014 A 
BRANCH   7  13
ATOM     13  N   UNL A   1      31.595  23.841  23.307  1.00  0.00    -0.279 N 
ATOM     14  H   UNL A   1      30.674  23.539  23.134  1.00  0.00     0.180 HD
BRANCH  13  15
ATOM     15  S   UNL A   1      32.815  23.029  22.485  1.00  0.00     0.263 S 
ATOM     16  O   UNL A   1      33.278  23.937  21.442  1.00  0.00    -0.201 OA
ATOM     17  O   UNL A   1      32.260  21.745  22.172  1.00  0.00    -0.201 OA
BRANCH  15  18
ATOM     18  C   UNL A   1      34.189  22.757  23.593  1.00  0.00     0.101 A 
ATOM     19  C   UNL A   1      37.891  21.439  25.381  1.00  0.00     0.044 C 
ATOM     20  C   UNL A   1      36.588  21.944  24.830  1.00  0.00    -0.050 A 
ATOM     21  C   UNL A   1      36.518  23.168  24.158  1.00  0.00     0.005 A 
ATOM     22  C   UNL A   1      35.415  21.201  24.997  1.00  0.00     0.020 A 
ATOM     23  C   UNL A   1      35.319  23.585  23.565  1.00  0.00     0.024 A 
ATOM     24  C   UNL A   1      34.220  21.594  24.375  1.00  0.00     0.038 A 
ATOM     25  Br  UNL A   1      32.717  20.471  24.671  1.00  0.00    -0.049 Br
ENDBRANCH  15  18
ENDBRANCH  13  15
ENDBRANCH   7  13
ENDBRANCH   3   6
ENDBRANCH   1   2
BRANCH   1  26
ATOM     26  C   UNL A   1      32.020  30.982  26.618  1.00  0.00     0.042 C 
BRANCH  26  27
ATOM     27  C   UNL A   1      33.327  30.576  27.259  1.00  0.00     0.118 C 
BRANCH  27  28
ATOM     28  N   UNL A   1      33.975  31.631  28.033  1.00  0.00    -0.352 N 
ATOM     29  C   UNL A   1      35.122  31.570  28.806  1.00  0.00     0.251 C 
ATOM     30  H   UNL A   1      33.534  32.511  28.000  1.00  0.00     0.163 HD
ATOM     31  O   UNL A   1      35.485  32.545  29.455  1.00  0.00    -0.269 OA
BRANCH  29  32
ATOM     32  C   UNL A   1      35.986  30.367  28.727  1.00  0.00     0.039 A 
ATOM     33  C   UNL A   1      36.297  29.694  29.914  1.00  0.00     0.014 A 
ATOM     34  C   UNL A   1      36.683  30.081  27.561  1.00  0.00     0.014 A 
ATOM     35  C   UNL A   1      37.474  28.952  29.987  1.00  0.00     0.010 A 
ATOM     36  C   UNL A   1      37.923  29.498  27.674  1.00  0.00     0.010 A 
ATOM     37  C   UNL A   1      38.343  28.972  28.899  1.00  0.00    -0.014 A 
BRANCH  37  38
ATOM     38  C   UNL A   1      39.735  28.551  28.955  1.00  0.00     0.031 A 
ATOM     39  C   UNL A   1      40.113  27.182  28.537  1.00  0.00     0.074 A 
ATOM     40  C   UNL A   1      40.699  29.457  29.239  1.00  0.00     0.049 A 
ATOM     41  N   UNL A   1      41.202  26.592  28.897  1.00  0.00    -0.248 NA
ATOM     42  C   UNL A   1      39.268  26.346  27.692  1.00  0.00     0.031 C 
ATOM     43  C   UNL A   1      42.132  29.317  28.990  1.00  0.00     0.029 A 
ATOM     44  N   UNL A   1      40.588  30.655  29.967  1.00  0.00    -0.354 N 
ATOM     45  C   UNL A   1      41.342  25.456  28.130  1.00  0.00     0.074 A 
ATOM     46  C   UNL A   1      40.081  25.316  27.443  1.00  0.00     0.031 C 
ATOM     47  C   UNL A   1      42.796  30.185  29.768  1.00  0.00     0.029 A 
ATOM     48  C   UNL A   1      41.822  30.805  30.644  1.00  0.00     0.049 A 
ATOM     49  H   UNL A   1      39.813  31.262  29.999  1.00  0.00     0.167 HD
ATOM     50  C   UNL A   1      42.561  24.846  28.067  1.00  0.00     0.037 A 
ATOM     51  C   UNL A   1      41.902  30.814  32.005  1.00  0.00     0.037 A 
ATOM     52  C   UNL A   1      43.533  25.539  28.911  1.00  0.00     0.049 A 
ATOM     53  C   UNL A   1      42.784  29.734  32.577  1.00  0.00     0.074 A 
ATOM     54  C   UNL A   1      44.521  26.466  28.623  1.00  0.00     0.029 A 
ATOM     55  N   UNL A   1      43.375  25.544  30.292  1.00  0.00    -0.354 N 
ATOM     56  N   UNL A   1      43.095  28.642  31.938  1.00  0.00    -0.248 NA
ATOM     57  C   UNL A   1      43.366  29.782  33.915  1.00  0.00     0.031 C 
ATOM     58  C   UNL A   1      44.961  27.034  29.841  1.00  0.00     0.029 A 
ATOM     59  C   UNL A   1      44.243  26.450  30.870  1.00  0.00     0.049 A 
ATOM     60  H   UNL A   1      42.736  24.982  30.787  1.00  0.00     0.167 HD
ATOM     61  C   UNL A   1      43.873  27.845  32.740  1.00  0.00     0.074 A 
ATOM     62  C   UNL A   1      44.027  28.612  33.961  1.00  0.00     0.031 C 
ATOM     63  C   UNL A   1      44.308  26.622  32.313  1.00  0.00     0.037 A 
BRANCH  50  64
ATOM     64  C   UNL A   1      42.968  23.818  27.028  1.00  0.00     0.064 A 
ATOM     65  C   UNL A   1      42.562  22.469  27.151  1.00  0.00     0.173 A 
ATOM     66  C   UNL A   1      43.792  24.074  25.917  1.00  0.00     0.173 A 
ATOM     67  F   UNL A   1      41.669  22.085  28.071  1.00  0.00    -0.203 F 
ATOM     68  C   UNL A   1      43.053  21.453  26.327  1.00  0.00     0.198 A 
ATOM     69  C   UNL A   1      44.324  23.053  25.122  1.00  0.00     0.198 A 
ATOM     70  F   UNL A   1      44.055  25.322  25.514  1.00  0.00    -0.203 F 
ATOM     71  F   UNL A   1      42.639  20.191  26.509  1.00  0.00    -0.200 F 
ATOM     72  C   UNL A   1      43.967  21.739  25.337  1.00  0.00     0.200 A 
ATOM     73  F   UNL A   1      45.182  23.358  24.137  1.00  0.00    -0.200 F 
ATOM     74  F   UNL A   1      44.472  20.761  24.574  1.00  0.00    -0.200 F 
ENDBRANCH  50  64
BRANCH  51  75
ATOM     75  C   UNL A   1      40.683  31.352  32.658  1.00  0.00     0.064 A 
ATOM     76  C   UNL A   1      40.500  32.747  32.672  1.00  0.00     0.173 A 
ATOM     77  C   UNL A   1      39.557  30.545  32.868  1.00  0.00     0.173 A 
ATOM     78  F   UNL A   1      41.549  33.561  32.472  1.00  0.00    -0.203 F 
ATOM     79  C   UNL A   1      39.229  33.308  32.766  1.00  0.00     0.198 A 
ATOM     80  C   UNL A   1      38.286  31.112  32.969  1.00  0.00     0.198 A 
ATOM     81  F   UNL A   1      39.668  29.209  32.842  1.00  0.00    -0.203 F 
ATOM     82  F   UNL A   1      39.075  34.636  32.658  1.00  0.00    -0.200 F 
ATOM     83  C   UNL A   1      38.119  32.487  32.882  1.00  0.00     0.200 A 
ATOM     84  F   UNL A   1      37.208  30.318  33.050  1.00  0.00    -0.200 F 
ATOM     85  F   UNL A   1      36.888  33.017  32.866  1.00  0.00    -0.200 F 
ENDBRANCH  51  75
BRANCH  63  86
ATOM     86  C   UNL A   1      44.935  25.522  33.148  1.00  0.00     0.064 A 
ATOM     87  C   UNL A   1      46.306  25.223  33.172  1.00  0.00     0.173 A 
ATOM     88  C   UNL A   1      44.151  24.801  34.089  1.00  0.00     0.173 A 
ATOM     89  F   UNL A   1      47.187  25.908  32.435  1.00  0.00    -0.203 F 
ATOM     90  C   UNL A   1      46.840  24.241  34.016  1.00  0.00     0.198 A 
ATOM     91  C   UNL A   1      44.695  23.868  34.969  1.00  0.00     0.198 A 
ATOM     92  F   UNL A   1      42.830  24.999  34.208  1.00  0.00    -0.203 F 
ATOM     93  F   UNL A   1      48.151  23.968  33.964  1.00  0.00    -0.200 F 
ATOM     94  C   UNL A   1      46.038  23.573  34.921  1.00  0.00     0.200 A 
ATOM     95  F   UNL A   1      43.909  23.273  35.879  1.00  0.00    -0.200 F 
ATOM     96  F   UNL A   1      46.564  22.669  35.758  1.00  0.00    -0.200 F 
ENDBRANCH  63  86
ENDBRANCH  37  38
ENDBRANCH  29  32
ENDBRANCH  27  28
ENDBRANCH  26  27
ENDBRANCH   1  26
TORSDOF 13
ENDMDL
MODEL 3
REMARK VINA RESULT:     -13.7      3.599      9.691
REMARK SMILES Cc1ccc(S(=O)(=O)Nc2cc(C(=O)NCCCNC(=O)c3ccc(-c4c5nc(c(-c6c(F)c(F)c(F)c(F)c6F)c6ccc([nH]6)c(-c6c(F)c(F)c(F)c(F)c6F)c6nc(c(-c7c(F)c(F)c(F)c(F)c7F)c7ccc4[nH]7)C=C6)C=C5)cc3)ccc2C)c(Br)c1
REMARK SMILES IDX 16 1 15 2 13 3 14 4 12 6 10 7 11 8 87 9 86 10 88 11 85 12
REMARK SMILES IDX 9 13 6 15 7 16 8 17 5 18 1 19 2 20 3 21 91 22 4 23 89 24
REMARK SMILES IDX 90 25 17 26 18 27 19 28 20 29 21 31 22 32 23 33 84 34 24 35
REMARK SMILES IDX 83 36 25 37 26 38 27 39 77 40 28 41 82 42 76 43 78 44 29 45
REMARK SMILES IDX 81 46 75 47 74 48 30 50 62 51 42 52 61 53 43 54 46 55 60 56
REMARK SMILES IDX 79 57 44 58 45 59 59 61 80 62 47 63 31 64 32 65 40 66 33 67
REMARK SMILES IDX 34 68 38 69 41 70 35 71 36 72 39 73 37 74 63 75 64 76 72 77
REMARK SMILES IDX 65 78 66 79 70 80 73 81 67 82 68 83 71 84 69 85 48 86 49 87
REMARK SMILES IDX 57 88 50 89 51 90 55 91 58 92 52 93 53 94 56 95 54 96
REMARK H PARENT 15 5 9 14 19 30 78 49 46 60
REMARK Flexibility Score: inf
ROOT
ATOM      1  C   UNL A   1      33.999  28.841  25.786  1.00  0.00     0.118 C 
ENDROOT
BRANCH   1   2
ATOM      2  N   UNL A   1      34.295  28.748  24.365  1.00  0.00    -0.352 N 
ATOM      3  C   UNL A   1      33.561  28.288  23.297  1.00  0.00     0.251 C 
ATOM      4  O   UNL A   1      34.061  28.418  22.179  1.00  0.00    -0.269 OA
ATOM      5  H   UNL A   1      35.191  29.077  24.122  1.00  0.00     0.163 HD
BRANCH   3   6
ATOM      6  C   UNL A   1      32.186  27.707  23.408  1.00  0.00     0.041 A 
ATOM      7  C   UNL A   1      30.605  25.901  23.857  1.00  0.00     0.053 A 
ATOM      8  C   UNL A   1      31.898  26.348  23.558  1.00  0.00     0.040 A 
ATOM      9  C   UNL A   1      29.525  26.789  23.732  1.00  0.00    -0.027 A 
ATOM     10  C   UNL A   1      29.797  28.147  23.506  1.00  0.00     0.006 A 
ATOM     11  C   UNL A   1      28.084  26.386  23.877  1.00  0.00     0.046 C 
ATOM     12  C   UNL A   1      31.112  28.605  23.386  1.00  0.00     0.014 A 
BRANCH   7  13
ATOM     13  N   UNL A   1      30.376  24.600  24.400  1.00  0.00    -0.279 N 
ATOM     14  H   UNL A   1      29.769  24.015  23.892  1.00  0.00     0.180 HD
BRANCH  13  15
ATOM     15  S   UNL A   1      31.029  23.961  25.809  1.00  0.00     0.263 S 
ATOM     16  O   UNL A   1      30.281  22.740  26.088  1.00  0.00    -0.201 OA
ATOM     17  O   UNL A   1      31.056  25.055  26.735  1.00  0.00    -0.201 OA
BRANCH  15  18
ATOM     18  C   UNL A   1      32.723  23.480  25.507  1.00  0.00     0.101 A 
ATOM     19  C   UNL A   1      36.827  23.328  24.179  1.00  0.00     0.044 C 
ATOM     20  C   UNL A   1      35.413  23.307  24.683  1.00  0.00    -0.050 A 
ATOM     21  C   UNL A   1      35.091  23.823  25.941  1.00  0.00     0.005 A 
ATOM     22  C   UNL A   1      34.393  22.751  23.903  1.00  0.00     0.020 A 
ATOM     23  C   UNL A   1      33.756  23.886  26.362  1.00  0.00     0.024 A 
ATOM     24  C   UNL A   1      33.051  22.844  24.302  1.00  0.00     0.038 A 
ATOM     25  Br  UNL A   1      31.776  22.069  23.126  1.00  0.00    -0.049 Br
ENDBRANCH  15  18
ENDBRANCH  13  15
ENDBRANCH   7  13
ENDBRANCH   3   6
ENDBRANCH   1   2
BRANCH   1  26
ATOM     26  C   UNL A   1      33.241  30.120  26.130  1.00  0.00     0.042 C 
BRANCH  26  27
ATOM     27  C   UNL A   1      33.126  30.354  27.619  1.00  0.00     0.118 C 
BRANCH  27  28
ATOM     28  N   UNL A   1      33.871  31.510  28.110  1.00  0.00    -0.352 N 
ATOM     29  C   UNL A   1      35.134  31.560  28.676  1.00  0.00     0.251 C 
ATOM     30  H   UNL A   1      33.411  32.377  28.025  1.00  0.00     0.163 HD
ATOM     31  O   UNL A   1      35.579  32.619  29.106  1.00  0.00    -0.269 OA
BRANCH  29  32
ATOM     32  C   UNL A   1      35.999  30.357  28.626  1.00  0.00     0.039 A 
ATOM     33  C   UNL A   1      36.284  29.694  29.825  1.00  0.00     0.014 A 
ATOM     34  C   UNL A   1      36.720  30.061  27.477  1.00  0.00     0.014 A 
ATOM     35  C   UNL A   1      37.459  28.952  29.929  1.00  0.00     0.010 A 
ATOM     36  C   UNL A   1      37.958  29.479  27.621  1.00  0.00     0.010 A 
ATOM     37  C   UNL A   1      38.351  28.963  28.859  1.00  0.00    -0.014 A 
BRANCH  37  38
ATOM     38  C   UNL A   1      39.742  28.542  28.949  1.00  0.00     0.031 A 
ATOM     39  C   UNL A   1      40.132  27.179  28.525  1.00  0.00     0.074 A 
ATOM     40  C   UNL A   1      40.697  29.446  29.269  1.00  0.00     0.049 A 
ATOM     41  N   UNL A   1      41.213  26.586  28.908  1.00  0.00    -0.248 NA
ATOM     42  C   UNL A   1      39.312  26.352  27.648  1.00  0.00     0.031 C 
ATOM     43  C   UNL A   1      42.137  29.311  29.058  1.00  0.00     0.029 A 
ATOM     44  N   UNL A   1      40.565  30.636  30.008  1.00  0.00    -0.354 N 
ATOM     45  C   UNL A   1      41.374  25.459  28.133  1.00  0.00     0.074 A 
ATOM     46  C   UNL A   1      40.133  25.326  27.410  1.00  0.00     0.031 C 
ATOM     47  C   UNL A   1      42.778  30.169  29.864  1.00  0.00     0.029 A 
ATOM     48  C   UNL A   1      41.779  30.779  30.721  1.00  0.00     0.049 A 
ATOM     49  H   UNL A   1      39.789  31.242  30.025  1.00  0.00     0.167 HD
ATOM     50  C   UNL A   1      42.595  24.851  28.095  1.00  0.00     0.037 A 
ATOM     51  C   UNL A   1      41.822  30.773  32.083  1.00  0.00     0.037 A 
ATOM     52  C   UNL A   1      43.543  25.534  28.974  1.00  0.00     0.049 A 
ATOM     53  C   UNL A   1      42.690  29.686  32.666  1.00  0.00     0.074 A 
ATOM     54  C   UNL A   1      44.538  26.466  28.723  1.00  0.00     0.029 A 
ATOM     55  N   UNL A   1      43.348  25.523  30.350  1.00  0.00    -0.354 N 
ATOM     56  N   UNL A   1      43.019  28.602  32.024  1.00  0.00    -0.248 NA
ATOM     57  C   UNL A   1      43.234  29.720  34.020  1.00  0.00     0.031 C 
ATOM     58  C   UNL A   1      44.944  27.020  29.960  1.00  0.00     0.029 A 
ATOM     59  C   UNL A   1      44.198  26.423  30.962  1.00  0.00     0.049 A 
ATOM     60  H   UNL A   1      42.696  24.956  30.821  1.00  0.00     0.167 HD
ATOM     61  C   UNL A   1      43.776  27.797  32.837  1.00  0.00     0.074 A 
ATOM     62  C   UNL A   1      43.895  28.550  34.070  1.00  0.00     0.031 C 
ATOM     63  C   UNL A   1      44.224  26.578  32.408  1.00  0.00     0.037 A 
BRANCH  50  64
ATOM     64  C   UNL A   1      43.032  23.835  27.056  1.00  0.00     0.064 A 
ATOM     65  C   UNL A   1      42.616  22.487  27.147  1.00  0.00     0.173 A 
ATOM     66  C   UNL A   1      43.893  24.103  25.977  1.00  0.00     0.173 A 
ATOM     67  F   UNL A   1      41.691  22.094  28.032  1.00  0.00    -0.203 F 
ATOM     68  C   UNL A   1      43.130  21.479  26.326  1.00  0.00     0.198 A 
ATOM     69  C   UNL A   1      44.447  23.089  25.185  1.00  0.00     0.198 A 
ATOM     70  F   UNL A   1      44.175  25.354  25.600  1.00  0.00    -0.203 F 
ATOM     71  F   UNL A   1      42.704  20.217  26.476  1.00  0.00    -0.200 F 
ATOM     72  C   UNL A   1      44.077  21.775  25.371  1.00  0.00     0.200 A 
ATOM     73  F   UNL A   1      45.338  23.404  24.234  1.00  0.00    -0.200 F 
ATOM     74  F   UNL A   1      44.602  20.805  24.611  1.00  0.00    -0.200 F 
ENDBRANCH  50  64
BRANCH  51  75
ATOM     75  C   UNL A   1      40.585  31.301  32.708  1.00  0.00     0.064 A 
ATOM     76  C   UNL A   1      40.401  32.696  32.734  1.00  0.00     0.173 A 
ATOM     77  C   UNL A   1      39.455  30.491  32.877  1.00  0.00     0.173 A 
ATOM     78  F   UNL A   1      41.453  33.514  32.573  1.00  0.00    -0.203 F 
ATOM     79  C   UNL A   1      39.127  33.255  32.800  1.00  0.00     0.198 A 
ATOM     80  C   UNL A   1      38.181  31.056  32.950  1.00  0.00     0.198 A 
ATOM     81  F   UNL A   1      39.567  29.156  32.839  1.00  0.00    -0.203 F 
ATOM     82  F   UNL A   1      38.974  34.584  32.704  1.00  0.00    -0.200 F 
ATOM     83  C   UNL A   1      38.015  32.432  32.875  1.00  0.00     0.200 A 
ATOM     84  F   UNL A   1      37.101  30.261  32.992  1.00  0.00    -0.200 F 
ATOM     85  F   UNL A   1      36.784  32.962  32.831  1.00  0.00    -0.200 F 
ENDBRANCH  51  75
BRANCH  63  86
ATOM     86  C   UNL A   1      44.829  25.470  33.247  1.00  0.00     0.064 A 
ATOM     87  C   UNL A   1      46.186  25.112  33.236  1.00  0.00     0.173 A 
ATOM     88  C   UNL A   1      44.044  24.803  34.226  1.00  0.00     0.173 A 
ATOM     89  F   UNL A   1      47.072  25.743  32.457  1.00  0.00    -0.203 F 
ATOM     90  C   UNL A   1      46.704  24.125  34.084  1.00  0.00     0.198 A 
ATOM     91  C   UNL A   1      44.575  23.865  35.110  1.00  0.00     0.198 A 
ATOM     92  F   UNL A   1      42.737  25.061  34.381  1.00  0.00    -0.203 F 
ATOM     93  F   UNL A   1      47.999  23.794  33.999  1.00  0.00    -0.200 F 
ATOM     94  C   UNL A   1      45.903  23.511  35.028  1.00  0.00     0.200 A 
ATOM     95  F   UNL A   1      43.794  23.324  36.056  1.00  0.00    -0.200 F 
ATOM     96  F   UNL A   1      46.415  22.602  35.867  1.00  0.00    -0.200 F 
ENDBRANCH  63  86
ENDBRANCH  37  38
ENDBRANCH  29  32
ENDBRANCH  27  28
ENDBRANCH  26  27
ENDBRANCH   1  26
TORSDOF 13
ENDMDL
