MODEL 1
REMARK VINA RESULT:     -13.7      0.000      0.000
REMARK SMILES C[C@H]1[C@@H](C(=O)NCCCNC(=O)c2ccc(-c3c4nc(c(-c5c(F)c(F)c(F)c(F)c5F)c5ccc([nH]5)c(-c5c(F)c(F)c(F)c(F)c5F)c5nc(c(-c6c(F)c(F)c(F)c(F)c6F)c6ccc3[nH]6)C=C5)C=C4)cc2)CCN1C(=O)N[C@@H]1CC[N@H+]2CCCC[C@H]12
REMARK SMILES IDX 8 1 7 2 6 3 4 4 5 5 3 7 1 8 2 9 78 10 76 11 77 12 79 13
REMARK SMILES IDX 80 14 81 15 82 17 83 18 90 19 84 20 85 21 89 22 86 23 88 25
REMARK SMILES IDX 87 26 9 27 10 28 11 29 12 31 13 32 14 33 75 34 15 35 74 36
REMARK SMILES IDX 16 37 17 38 18 39 68 40 19 41 73 42 67 43 69 44 20 45 72 46
REMARK SMILES IDX 66 47 65 48 21 50 53 51 33 52 52 53 34 54 37 55 51 56 70 57
REMARK SMILES IDX 35 58 36 59 50 61 71 62 38 63 22 64 23 65 31 66 24 67 25 68
REMARK SMILES IDX 29 69 32 70 26 71 27 72 30 73 28 74 54 75 55 76 63 77 56 78
REMARK SMILES IDX 57 79 61 80 64 81 58 82 59 83 62 84 60 85 39 86 40 87 48 88
REMARK SMILES IDX 41 89 42 90 46 91 49 92 43 93 44 94 47 95 45 96
REMARK H PARENT 6 6 81 16 85 24 10 30 69 49 37 60
REMARK Flexibility Score: inf
ROOT
ATOM      1  C   UNL A   1      31.293  32.242  26.501  1.00  0.00     0.042 C 
ENDROOT
BRANCH   1   2
ATOM      2  C   UNL A   1      31.490  30.833  25.954  1.00  0.00     0.117 C 
BRANCH   2   3
ATOM      3  N   UNL A   1      30.786  30.621  24.704  1.00  0.00    -0.356 N 
ATOM      4  C   UNL A   1      30.584  29.480  23.988  1.00  0.00     0.225 C 
ATOM      5  O   UNL A   1      29.808  29.556  23.040  1.00  0.00    -0.275 OA
ATOM      6  H   UNL A   1      30.391  31.432  24.310  1.00  0.00     0.163 HD
BRANCH   4   7
ATOM      7  C   UNL A   1      31.251  28.191  24.447  1.00  0.00     0.102 C 
ATOM      8  C   UNL A   1      33.297  28.881  22.987  1.00  0.00     0.032 C 
ATOM      9  C   UNL A   1      32.643  27.828  23.871  1.00  0.00     0.096 C 
ATOM     10  N   UNL A   1      32.470  26.559  23.167  1.00  0.00    -0.321 N 
ATOM     11  C   UNL A   1      30.355  27.002  24.087  1.00  0.00     0.037 C 
ATOM     12  C   UNL A   1      31.056  26.348  22.909  1.00  0.00     0.122 C 
BRANCH  10  13
ATOM     13  C   UNL A   1      33.372  25.670  22.665  1.00  0.00     0.318 C 
ATOM     14  O   UNL A   1      33.652  25.660  21.463  1.00  0.00    -0.249 OA
ATOM     15  N   UNL A   1      34.007  24.747  23.414  1.00  0.00    -0.329 N 
ATOM     16  H   UNL A   1      34.699  24.279  22.894  1.00  0.00     0.165 HD
BRANCH  15  17
ATOM     17  C   UNL A   1      33.946  24.254  24.787  1.00  0.00     0.147 C 
ATOM     18  C   UNL A   1      35.325  24.309  25.476  1.00  0.00     0.092 C 
ATOM     19  C   UNL A   1      33.548  22.766  24.927  1.00  0.00     0.207 C 
ATOM     20  C   UNL A   1      35.558  22.929  26.071  1.00  0.00     0.264 C 
ATOM     21  N   UNL A   1      34.826  22.071  25.153  1.00  0.00    -0.331 N 
ATOM     22  C   UNL A   1      32.798  22.086  23.789  1.00  0.00     0.067 C 
ATOM     23  C   UNL A   1      34.608  20.717  25.652  1.00  0.00     0.262 C 
ATOM     24  H   UNL A   1      35.360  21.931  24.296  1.00  0.00     0.348 HD
ATOM     25  C   UNL A   1      32.528  20.626  24.175  1.00  0.00     0.012 C 
ATOM     26  C   UNL A   1      33.811  19.912  24.621  1.00  0.00     0.062 C 
ENDBRANCH  15  17
ENDBRANCH  10  13
ENDBRANCH   4   7
ENDBRANCH   2   3
ENDBRANCH   1   2
BRANCH   1  27
ATOM     27  C   UNL A   1      32.506  32.810  27.235  1.00  0.00     0.118 C 
BRANCH  27  28
ATOM     28  N   UNL A   1      32.335  34.203  27.626  1.00  0.00    -0.352 N 
ATOM     29  C   UNL A   1      32.954  34.941  28.599  1.00  0.00     0.251 C 
ATOM     30  H   UNL A   1      31.661  34.696  27.104  1.00  0.00     0.163 HD
ATOM     31  O   UNL A   1      32.528  36.063  28.871  1.00  0.00    -0.269 OA
BRANCH  29  32
ATOM     32  C   UNL A   1      34.111  34.400  29.339  1.00  0.00     0.039 A 
ATOM     33  C   UNL A   1      33.881  33.754  30.557  1.00  0.00     0.014 A 
ATOM     34  C   UNL A   1      35.414  34.544  28.859  1.00  0.00     0.014 A 
ATOM     35  C   UNL A   1      34.952  33.198  31.259  1.00  0.00     0.010 A 
ATOM     36  C   UNL A   1      36.469  33.917  29.516  1.00  0.00     0.010 A 
ATOM     37  C   UNL A   1      36.249  33.239  30.724  1.00  0.00    -0.014 A 
BRANCH  37  38
ATOM     38  C   UNL A   1      37.377  32.564  31.415  1.00  0.00     0.031 A 
ATOM     39  C   UNL A   1      38.083  31.402  30.772  1.00  0.00     0.074 A 
ATOM     40  C   UNL A   1      37.733  32.970  32.650  1.00  0.00     0.049 A 
ATOM     41  N   UNL A   1      39.067  30.673  31.236  1.00  0.00    -0.248 NA
ATOM     42  C   UNL A   1      37.605  30.989  29.444  1.00  0.00     0.031 C 
ATOM     43  C   UNL A   1      37.087  34.047  33.402  1.00  0.00     0.029 A 
ATOM     44  N   UNL A   1      38.721  32.524  33.491  1.00  0.00    -0.354 N 
ATOM     45  C   UNL A   1      39.321  29.717  30.261  1.00  0.00     0.074 A 
ATOM     46  C   UNL A   1      38.345  29.916  29.211  1.00  0.00     0.031 C 
ATOM     47  C   UNL A   1      37.711  34.197  34.579  1.00  0.00     0.029 A 
ATOM     48  C   UNL A   1      38.775  33.202  34.684  1.00  0.00     0.049 A 
ATOM     49  H   UNL A   1      39.333  31.788  33.261  1.00  0.00     0.167 HD
ATOM     50  C   UNL A   1      40.296  28.777  30.232  1.00  0.00     0.037 A 
ATOM     51  C   UNL A   1      39.585  33.036  35.747  1.00  0.00     0.037 A 
ATOM     52  C   UNL A   1      41.270  28.588  31.276  1.00  0.00     0.049 A 
ATOM     53  C   UNL A   1      40.652  31.977  35.694  1.00  0.00     0.074 A 
ATOM     54  C   UNL A   1      42.326  27.696  31.321  1.00  0.00     0.029 A 
ATOM     55  N   UNL A   1      41.300  29.302  32.466  1.00  0.00    -0.354 N 
ATOM     56  N   UNL A   1      40.929  31.127  34.735  1.00  0.00    -0.248 NA
ATOM     57  C   UNL A   1      41.528  31.864  36.868  1.00  0.00     0.031 C 
ATOM     58  C   UNL A   1      42.962  27.830  32.560  1.00  0.00     0.029 A 
ATOM     59  C   UNL A   1      42.342  28.851  33.262  1.00  0.00     0.049 A 
ATOM     60  H   UNL A   1      40.675  30.022  32.710  1.00  0.00     0.167 HD
ATOM     61  C   UNL A   1      42.023  30.396  35.177  1.00  0.00     0.074 A 
ATOM     62  C   UNL A   1      42.373  30.920  36.481  1.00  0.00     0.031 C 
ATOM     63  C   UNL A   1      42.676  29.380  34.561  1.00  0.00     0.037 A 
BRANCH  50  64
ATOM     64  C   UNL A   1      40.359  27.882  29.026  1.00  0.00     0.064 A 
ATOM     65  C   UNL A   1      41.138  28.210  27.904  1.00  0.00     0.173 A 
ATOM     66  C   UNL A   1      39.658  26.666  29.000  1.00  0.00     0.173 A 
ATOM     67  F   UNL A   1      41.821  29.365  27.871  1.00  0.00    -0.203 F 
ATOM     68  C   UNL A   1      41.184  27.374  26.792  1.00  0.00     0.198 A 
ATOM     69  C   UNL A   1      39.735  25.816  27.900  1.00  0.00     0.198 A 
ATOM     70  F   UNL A   1      38.903  26.299  30.047  1.00  0.00    -0.203 F 
ATOM     71  F   UNL A   1      41.889  27.738  25.711  1.00  0.00    -0.200 F 
ATOM     72  C   UNL A   1      40.489  26.175  26.793  1.00  0.00     0.200 A 
ATOM     73  F   UNL A   1      39.074  24.650  27.910  1.00  0.00    -0.200 F 
ATOM     74  F   UNL A   1      40.540  25.367  25.725  1.00  0.00    -0.200 F 
ENDBRANCH  50  64
BRANCH  51  75
ATOM     75  C   UNL A   1      39.426  33.906  36.942  1.00  0.00     0.064 A 
ATOM     76  C   UNL A   1      38.698  33.474  38.060  1.00  0.00     0.173 A 
ATOM     77  C   UNL A   1      39.998  35.186  36.991  1.00  0.00     0.173 A 
ATOM     78  F   UNL A   1      38.118  32.265  38.055  1.00  0.00    -0.203 F 
ATOM     79  C   UNL A   1      38.528  34.299  39.171  1.00  0.00     0.198 A 
ATOM     80  C   UNL A   1      39.855  35.996  38.114  1.00  0.00     0.198 A 
ATOM     81  F   UNL A   1      40.710  35.644  35.951  1.00  0.00    -0.203 F 
ATOM     82  F   UNL A   1      37.787  33.880  40.205  1.00  0.00    -0.200 F 
ATOM     83  C   UNL A   1      39.112  35.556  39.200  1.00  0.00     0.200 A 
ATOM     84  F   UNL A   1      40.437  37.203  38.146  1.00  0.00    -0.200 F 
ATOM     85  F   UNL A   1      38.954  36.346  40.271  1.00  0.00    -0.200 F 
ENDBRANCH  51  75
BRANCH  63  86
ATOM     86  C   UNL A   1      43.856  28.788  35.281  1.00  0.00     0.064 A 
ATOM     87  C   UNL A   1      45.158  29.274  35.092  1.00  0.00     0.173 A 
ATOM     88  C   UNL A   1      43.678  27.729  36.186  1.00  0.00     0.173 A 
ATOM     89  F   UNL A   1      45.386  30.275  34.227  1.00  0.00    -0.203 F 
ATOM     90  C   UNL A   1      46.242  28.699  35.752  1.00  0.00     0.198 A 
ATOM     91  C   UNL A   1      44.758  27.182  36.872  1.00  0.00     0.198 A 
ATOM     92  F   UNL A   1      42.453  27.230  36.412  1.00  0.00    -0.203 F 
ATOM     93  F   UNL A   1      47.483  29.140  35.507  1.00  0.00    -0.200 F 
ATOM     94  C   UNL A   1      46.039  27.659  36.646  1.00  0.00     0.200 A 
ATOM     95  F   UNL A   1      44.559  26.187  37.748  1.00  0.00    -0.200 F 
ATOM     96  F   UNL A   1      47.083  27.109  37.283  1.00  0.00    -0.200 F 
ENDBRANCH  63  86
ENDBRANCH  37  38
ENDBRANCH  29  32
ENDBRANCH  27  28
ENDBRANCH   1  27
TORSDOF 12
ENDMDL
MODEL 2
REMARK VINA RESULT:     -13.7      0.132      1.589
REMARK SMILES C[C@H]1[C@@H](C(=O)NCCCNC(=O)c2ccc(-c3c4nc(c(-c5c(F)c(F)c(F)c(F)c5F)c5ccc([nH]5)c(-c5c(F)c(F)c(F)c(F)c5F)c5nc(c(-c6c(F)c(F)c(F)c(F)c6F)c6ccc3[nH]6)C=C5)C=C4)cc2)CCN1C(=O)N[C@@H]1CC[N@H+]2CCCC[C@H]12
REMARK SMILES IDX 8 1 7 2 6 3 4 4 5 5 3 7 1 8 2 9 78 10 76 11 77 12 79 13
REMARK SMILES IDX 80 14 81 15 82 17 83 18 90 19 84 20 85 21 89 22 86 23 88 25
REMARK SMILES IDX 87 26 9 27 10 28 11 29 12 31 13 32 14 33 75 34 15 35 74 36
REMARK SMILES IDX 16 37 17 38 18 39 68 40 19 41 73 42 67 43 69 44 20 45 72 46
REMARK SMILES IDX 66 47 65 48 21 50 53 51 33 52 52 53 34 54 37 55 51 56 70 57
REMARK SMILES IDX 35 58 36 59 50 61 71 62 38 63 22 64 23 65 31 66 24 67 25 68
REMARK SMILES IDX 29 69 32 70 26 71 27 72 30 73 28 74 54 75 55 76 63 77 56 78
REMARK SMILES IDX 57 79 61 80 64 81 58 82 59 83 62 84 60 85 39 86 40 87 48 88
REMARK SMILES IDX 41 89 42 90 46 91 49 92 43 93 44 94 47 95 45 96
REMARK H PARENT 6 6 81 16 85 24 10 30 69 49 37 60
REMARK Flexibility Score: inf
ROOT
ATOM      1  C   UNL A   1      31.400  32.206  26.790  1.00  0.00     0.042 C 
ENDROOT
BRANCH   1   2
ATOM      2  C   UNL A   1      31.618  30.837  26.157  1.00  0.00     0.117 C 
BRANCH   2   3
ATOM      3  N   UNL A   1      30.930  30.697  24.888  1.00  0.00    -0.356 N 
ATOM      4  C   UNL A   1      30.714  29.595  24.119  1.00  0.00     0.225 C 
ATOM      5  O   UNL A   1      29.954  29.731  23.164  1.00  0.00    -0.275 OA
ATOM      6  H   UNL A   1      30.560  31.535  24.525  1.00  0.00     0.163 HD
BRANCH   4   7
ATOM      7  C   UNL A   1      31.344  28.272  24.529  1.00  0.00     0.102 C 
ATOM      8  C   UNL A   1      33.406  28.955  23.089  1.00  0.00     0.032 C 
ATOM      9  C   UNL A   1      32.724  27.890  23.936  1.00  0.00     0.096 C 
ATOM     10  N   UNL A   1      32.514  26.652  23.188  1.00  0.00    -0.321 N 
ATOM     11  C   UNL A   1      30.414  27.122  24.129  1.00  0.00     0.037 C 
ATOM     12  C   UNL A   1      31.093  26.491  22.927  1.00  0.00     0.122 C 
BRANCH  10  13
ATOM     13  C   UNL A   1      33.388  25.756  22.652  1.00  0.00     0.318 C 
ATOM     14  O   UNL A   1      33.642  25.761  21.443  1.00  0.00    -0.249 OA
ATOM     15  N   UNL A   1      34.023  24.811  23.371  1.00  0.00    -0.329 N 
ATOM     16  H   UNL A   1      34.696  24.339  22.829  1.00  0.00     0.165 HD
BRANCH  15  17
ATOM     17  C   UNL A   1      33.985  24.296  24.737  1.00  0.00     0.147 C 
ATOM     18  C   UNL A   1      35.385  24.286  25.384  1.00  0.00     0.092 C 
ATOM     19  C   UNL A   1      33.533  22.823  24.865  1.00  0.00     0.207 C 
ATOM     20  C   UNL A   1      35.581  22.888  25.950  1.00  0.00     0.264 C 
ATOM     21  N   UNL A   1      34.789  22.075  25.040  1.00  0.00    -0.331 N 
ATOM     22  C   UNL A   1      32.724  22.191  23.740  1.00  0.00     0.067 C 
ATOM     23  C   UNL A   1      34.534  20.722  25.524  1.00  0.00     0.262 C 
ATOM     24  H   UNL A   1      35.292  21.929  24.165  1.00  0.00     0.348 HD
ATOM     25  C   UNL A   1      32.408  20.737  24.110  1.00  0.00     0.012 C 
ATOM     26  C   UNL A   1      33.675  19.966  24.505  1.00  0.00     0.062 C 
ENDBRANCH  15  17
ENDBRANCH  10  13
ENDBRANCH   4   7
ENDBRANCH   2   3
ENDBRANCH   1   2
BRANCH   1  27
ATOM     27  C   UNL A   1      32.685  32.946  27.155  1.00  0.00     0.118 C 
BRANCH  27  28
ATOM     28  N   UNL A   1      32.447  34.302  27.632  1.00  0.00    -0.352 N 
ATOM     29  C   UNL A   1      33.011  34.998  28.667  1.00  0.00     0.251 C 
ATOM     30  H   UNL A   1      31.766  34.802  27.125  1.00  0.00     0.163 HD
ATOM     31  O   UNL A   1      32.533  36.081  29.001  1.00  0.00    -0.269 OA
BRANCH  29  32
ATOM     32  C   UNL A   1      34.171  34.455  29.401  1.00  0.00     0.039 A 
ATOM     33  C   UNL A   1      33.949  33.817  30.624  1.00  0.00     0.014 A 
ATOM     34  C   UNL A   1      35.471  34.590  28.909  1.00  0.00     0.014 A 
ATOM     35  C   UNL A   1      35.023  33.260  31.320  1.00  0.00     0.010 A 
ATOM     36  C   UNL A   1      36.529  33.961  29.561  1.00  0.00     0.010 A 
ATOM     37  C   UNL A   1      36.316  33.291  30.774  1.00  0.00    -0.014 A 
BRANCH  37  38
ATOM     38  C   UNL A   1      37.446  32.614  31.460  1.00  0.00     0.031 A 
ATOM     39  C   UNL A   1      38.143  31.449  30.816  1.00  0.00     0.074 A 
ATOM     40  C   UNL A   1      37.812  33.023  32.690  1.00  0.00     0.049 A 
ATOM     41  N   UNL A   1      39.129  30.718  31.275  1.00  0.00    -0.248 NA
ATOM     42  C   UNL A   1      37.655  31.033  29.492  1.00  0.00     0.031 C 
ATOM     43  C   UNL A   1      37.174  34.104  33.444  1.00  0.00     0.029 A 
ATOM     44  N   UNL A   1      38.804  32.577  33.527  1.00  0.00    -0.354 N 
ATOM     45  C   UNL A   1      39.373  29.757  30.301  1.00  0.00     0.074 A 
ATOM     46  C   UNL A   1      38.390  29.957  29.257  1.00  0.00     0.031 C 
ATOM     47  C   UNL A   1      37.807  34.256  34.617  1.00  0.00     0.029 A 
ATOM     48  C   UNL A   1      38.868  33.258  34.717  1.00  0.00     0.049 A 
ATOM     49  H   UNL A   1      39.411  31.838  33.295  1.00  0.00     0.167 HD
ATOM     50  C   UNL A   1      40.344  28.814  30.268  1.00  0.00     0.037 A 
ATOM     51  C   UNL A   1      39.685  33.092  35.775  1.00  0.00     0.037 A 
ATOM     52  C   UNL A   1      41.325  28.625  31.306  1.00  0.00     0.049 A 
ATOM     53  C   UNL A   1      40.748  32.030  35.718  1.00  0.00     0.074 A 
ATOM     54  C   UNL A   1      42.378  27.730  31.346  1.00  0.00     0.029 A 
ATOM     55  N   UNL A   1      41.366  29.343  32.494  1.00  0.00    -0.354 N 
ATOM     56  N   UNL A   1      41.016  31.176  34.760  1.00  0.00    -0.248 NA
ATOM     57  C   UNL A   1      41.632  31.918  36.886  1.00  0.00     0.031 C 
ATOM     58  C   UNL A   1      43.023  27.865  32.581  1.00  0.00     0.029 A 
ATOM     59  C   UNL A   1      42.411  28.890  33.285  1.00  0.00     0.049 A 
ATOM     60  H   UNL A   1      40.744  30.065  32.740  1.00  0.00     0.167 HD
ATOM     61  C   UNL A   1      42.110  30.442  35.197  1.00  0.00     0.074 A 
ATOM     62  C   UNL A   1      42.471  30.970  36.497  1.00  0.00     0.031 C 
ATOM     63  C   UNL A   1      42.756  29.422  34.579  1.00  0.00     0.037 A 
BRANCH  50  64
ATOM     64  C   UNL A   1      40.396  27.915  29.065  1.00  0.00     0.064 A 
ATOM     65  C   UNL A   1      39.654  26.724  29.002  1.00  0.00     0.173 A 
ATOM     66  C   UNL A   1      41.174  28.258  27.948  1.00  0.00     0.173 A 
ATOM     67  F   UNL A   1      38.901  26.342  30.045  1.00  0.00    -0.203 F 
ATOM     68  C   UNL A   1      39.715  25.898  27.883  1.00  0.00     0.198 A 
ATOM     69  C   UNL A   1      41.205  27.446  26.817  1.00  0.00     0.198 A 
ATOM     70  F   UNL A   1      41.899  29.387  27.950  1.00  0.00    -0.203 F 
ATOM     71  F   UNL A   1      39.041  24.738  27.872  1.00  0.00    -0.200 F 
ATOM     72  C   UNL A   1      40.483  26.262  26.789  1.00  0.00     0.200 A 
ATOM     73  F   UNL A   1      41.937  27.808  25.755  1.00  0.00    -0.200 F 
ATOM     74  F   UNL A   1      40.536  25.469  25.710  1.00  0.00    -0.200 F 
ENDBRANCH  50  64
BRANCH  51  75
ATOM     75  C   UNL A   1      39.537  33.966  36.968  1.00  0.00     0.064 A 
ATOM     76  C   UNL A   1      40.153  35.225  37.023  1.00  0.00     0.173 A 
ATOM     77  C   UNL A   1      38.779  33.563  38.077  1.00  0.00     0.173 A 
ATOM     78  F   UNL A   1      40.903  35.649  35.995  1.00  0.00    -0.203 F 
ATOM     79  C   UNL A   1      40.036  36.035  38.151  1.00  0.00     0.198 A 
ATOM     80  C   UNL A   1      38.636  34.387  39.190  1.00  0.00     0.198 A 
ATOM     81  F   UNL A   1      38.162  32.372  38.072  1.00  0.00    -0.203 F 
ATOM     82  F   UNL A   1      40.676  37.212  38.197  1.00  0.00    -0.200 F 
ATOM     83  C   UNL A   1      39.272  35.619  39.231  1.00  0.00     0.200 A 
ATOM     84  F   UNL A   1      37.881  33.989  40.223  1.00  0.00    -0.200 F 
ATOM     85  F   UNL A   1      39.154  36.402  40.312  1.00  0.00    -0.200 F 
ENDBRANCH  51  75
BRANCH  63  86
ATOM     86  C   UNL A   1      43.939  28.828  35.293  1.00  0.00     0.064 A 
ATOM     87  C   UNL A   1      45.246  29.283  35.063  1.00  0.00     0.173 A 
ATOM     88  C   UNL A   1      43.759  27.801  36.233  1.00  0.00     0.173 A 
ATOM     89  F   UNL A   1      45.475  30.253  34.165  1.00  0.00    -0.203 F 
ATOM     90  C   UNL A   1      46.331  28.706  35.719  1.00  0.00     0.198 A 
ATOM     91  C   UNL A   1      44.842  27.253  36.913  1.00  0.00     0.198 A 
ATOM     92  F   UNL A   1      42.530  27.334  36.498  1.00  0.00    -0.203 F 
ATOM     93  F   UNL A   1      47.576  29.115  35.436  1.00  0.00    -0.200 F 
ATOM     94  C   UNL A   1      46.127  27.698  36.648  1.00  0.00     0.200 A 
ATOM     95  F   UNL A   1      44.642  26.288  37.823  1.00  0.00    -0.200 F 
ATOM     96  F   UNL A   1      47.173  27.146  37.279  1.00  0.00    -0.200 F 
ENDBRANCH  63  86
ENDBRANCH  37  38
ENDBRANCH  29  32
ENDBRANCH  27  28
ENDBRANCH   1  27
TORSDOF 12
ENDMDL
MODEL 3
REMARK VINA RESULT:     -13.6      0.681      7.214
REMARK SMILES C[C@H]1[C@@H](C(=O)NCCCNC(=O)c2ccc(-c3c4nc(c(-c5c(F)c(F)c(F)c(F)c5F)c5ccc([nH]5)c(-c5c(F)c(F)c(F)c(F)c5F)c5nc(c(-c6c(F)c(F)c(F)c(F)c6F)c6ccc3[nH]6)C=C5)C=C4)cc2)CCN1C(=O)N[C@@H]1CC[N@H+]2CCCC[C@H]12
REMARK SMILES IDX 8 1 7 2 6 3 4 4 5 5 3 7 1 8 2 9 78 10 76 11 77 12 79 13
REMARK SMILES IDX 80 14 81 15 82 17 83 18 90 19 84 20 85 21 89 22 86 23 88 25
REMARK SMILES IDX 87 26 9 27 10 28 11 29 12 31 13 32 14 33 75 34 15 35 74 36
REMARK SMILES IDX 16 37 17 38 18 39 68 40 19 41 73 42 67 43 69 44 20 45 72 46
REMARK SMILES IDX 66 47 65 48 21 50 53 51 33 52 52 53 34 54 37 55 51 56 70 57
REMARK SMILES IDX 35 58 36 59 50 61 71 62 38 63 22 64 23 65 31 66 24 67 25 68
REMARK SMILES IDX 29 69 32 70 26 71 27 72 30 73 28 74 54 75 55 76 63 77 56 78
REMARK SMILES IDX 57 79 61 80 64 81 58 82 59 83 62 84 60 85 39 86 40 87 48 88
REMARK SMILES IDX 41 89 42 90 46 91 49 92 43 93 44 94 47 95 45 96
REMARK H PARENT 6 6 81 16 85 24 10 30 69 49 37 60
REMARK Flexibility Score: inf
ROOT
ATOM      1  C   UNL A   1      31.284  32.241  26.503  1.00  0.00     0.042 C 
ENDROOT
BRANCH   1   2
ATOM      2  C   UNL A   1      31.403  30.827  25.947  1.00  0.00     0.117 C 
BRANCH   2   3
ATOM      3  N   UNL A   1      30.740  30.679  24.665  1.00  0.00    -0.356 N 
ATOM      4  C   UNL A   1      30.520  29.569  23.908  1.00  0.00     0.225 C 
ATOM      5  O   UNL A   1      29.785  29.703  22.934  1.00  0.00    -0.275 OA
ATOM      6  H   UNL A   1      30.393  31.518  24.280  1.00  0.00     0.163 HD
BRANCH   4   7
ATOM      7  C   UNL A   1      31.117  28.241  24.353  1.00  0.00     0.102 C 
ATOM      8  C   UNL A   1      33.297  28.953  23.115  1.00  0.00     0.032 C 
ATOM      9  C   UNL A   1      32.546  27.873  23.882  1.00  0.00     0.096 C 
ATOM     10  N   UNL A   1      32.410  26.646  23.098  1.00  0.00    -0.321 N 
ATOM     11  C   UNL A   1      30.231  27.095  23.854  1.00  0.00     0.037 C 
ATOM     12  C   UNL A   1      31.019  26.486  22.708  1.00  0.00     0.122 C 
BRANCH  10  13
ATOM     13  C   UNL A   1      33.333  25.762  22.630  1.00  0.00     0.318 C 
ATOM     14  O   UNL A   1      33.653  25.749  21.437  1.00  0.00    -0.249 OA
ATOM     15  N   UNL A   1      33.949  24.846  23.402  1.00  0.00    -0.329 N 
ATOM     16  H   UNL A   1      34.661  24.380  22.907  1.00  0.00     0.165 HD
BRANCH  15  17
ATOM     17  C   UNL A   1      33.846  24.357  24.775  1.00  0.00     0.147 C 
ATOM     18  C   UNL A   1      35.196  24.445  25.515  1.00  0.00     0.092 C 
ATOM     19  C   UNL A   1      33.476  22.862  24.907  1.00  0.00     0.207 C 
ATOM     20  C   UNL A   1      35.437  23.073  26.126  1.00  0.00     0.264 C 
ATOM     21  N   UNL A   1      34.759  22.196  25.184  1.00  0.00    -0.331 N 
ATOM     22  C   UNL A   1      32.786  22.160  23.744  1.00  0.00     0.067 C 
ATOM     23  C   UNL A   1      34.553  20.840  25.682  1.00  0.00     0.262 C 
ATOM     24  H   UNL A   1      35.329  22.064  24.349  1.00  0.00     0.348 HD
ATOM     25  C   UNL A   1      32.533  20.696  24.127  1.00  0.00     0.012 C 
ATOM     26  C   UNL A   1      33.814  20.012  24.625  1.00  0.00     0.062 C 
ENDBRANCH  15  17
ENDBRANCH  10  13
ENDBRANCH   4   7
ENDBRANCH   2   3
ENDBRANCH   1   2
BRANCH   1  27
ATOM     27  C   UNL A   1      32.556  32.771  27.161  1.00  0.00     0.118 C 
BRANCH  27  28
ATOM     28  N   UNL A   1      32.429  34.145  27.626  1.00  0.00    -0.352 N 
ATOM     29  C   UNL A   1      33.092  34.819  28.617  1.00  0.00     0.251 C 
ATOM     30  H   UNL A   1      31.752  34.679  27.149  1.00  0.00     0.163 HD
ATOM     31  O   UNL A   1      32.699  35.935  28.958  1.00  0.00    -0.269 OA
BRANCH  29  32
ATOM     32  C   UNL A   1      34.255  34.215  29.295  1.00  0.00     0.039 A 
ATOM     33  C   UNL A   1      34.029  33.357  30.375  1.00  0.00     0.014 A 
ATOM     34  C   UNL A   1      35.561  34.506  28.895  1.00  0.00     0.014 A 
ATOM     35  C   UNL A   1      35.108  32.742  31.010  1.00  0.00     0.010 A 
ATOM     36  C   UNL A   1      36.631  33.827  29.473  1.00  0.00     0.010 A 
ATOM     37  C   UNL A   1      36.416  32.940  30.538  1.00  0.00    -0.014 A 
BRANCH  37  38
ATOM     38  C   UNL A   1      37.560  32.212  31.144  1.00  0.00     0.031 A 
ATOM     39  C   UNL A   1      38.050  32.568  32.519  1.00  0.00     0.074 A 
ATOM     40  C   UNL A   1      38.189  31.258  30.429  1.00  0.00     0.049 A 
ATOM     41  N   UNL A   1      39.050  32.062  33.198  1.00  0.00    -0.248 NA
ATOM     42  C   UNL A   1      37.341  33.651  33.216  1.00  0.00     0.031 C 
ATOM     43  C   UNL A   1      37.843  30.864  29.062  1.00  0.00     0.029 A 
ATOM     44  N   UNL A   1      39.252  30.451  30.748  1.00  0.00    -0.354 N 
ATOM     45  C   UNL A   1      39.091  32.767  34.394  1.00  0.00     0.074 A 
ATOM     46  C   UNL A   1      38.059  33.778  34.322  1.00  0.00     0.031 C 
ATOM     47  C   UNL A   1      38.659  29.873  28.671  1.00  0.00     0.029 A 
ATOM     48  C   UNL A   1      39.610  29.589  29.742  1.00  0.00     0.049 A 
ATOM     49  H   UNL A   1      39.713  30.488  31.617  1.00  0.00     0.167 HD
ATOM     50  C   UNL A   1      39.896  32.569  35.465  1.00  0.00     0.037 A 
ATOM     51  C   UNL A   1      40.600  28.678  29.684  1.00  0.00     0.037 A 
ATOM     52  C   UNL A   1      40.916  31.555  35.535  1.00  0.00     0.049 A 
ATOM     53  C   UNL A   1      41.488  28.486  30.883  1.00  0.00     0.074 A 
ATOM     54  C   UNL A   1      41.753  31.243  36.591  1.00  0.00     0.029 A 
ATOM     55  N   UNL A   1      41.243  30.691  34.499  1.00  0.00    -0.354 N 
ATOM     56  N   UNL A   1      41.468  29.109  32.036  1.00  0.00    -0.248 NA
ATOM     57  C   UNL A   1      42.527  27.454  30.775  1.00  0.00     0.031 C 
ATOM     58  C   UNL A   1      42.625  30.229  36.176  1.00  0.00     0.029 A 
ATOM     59  C   UNL A   1      42.288  29.865  34.883  1.00  0.00     0.049 A 
ATOM     60  H   UNL A   1      40.800  30.669  33.620  1.00  0.00     0.167 HD
ATOM     61  C   UNL A   1      42.474  28.531  32.799  1.00  0.00     0.074 A 
ATOM     62  C   UNL A   1      43.067  27.490  31.985  1.00  0.00     0.031 C 
ATOM     63  C   UNL A   1      42.872  28.836  34.059  1.00  0.00     0.037 A 
BRANCH  50  64
ATOM     64  C   UNL A   1      39.701  33.469  36.654  1.00  0.00     0.064 A 
ATOM     65  C   UNL A   1      40.370  34.699  36.763  1.00  0.00     0.173 A 
ATOM     66  C   UNL A   1      38.816  33.114  37.682  1.00  0.00     0.173 A 
ATOM     67  F   UNL A   1      41.236  35.084  35.813  1.00  0.00    -0.203 F 
ATOM     68  C   UNL A   1      40.185  35.521  37.872  1.00  0.00     0.198 A 
ATOM     69  C   UNL A   1      38.607  33.955  38.773  1.00  0.00     0.198 A 
ATOM     70  F   UNL A   1      38.146  31.952  37.628  1.00  0.00    -0.203 F 
ATOM     71  F   UNL A   1      40.878  36.664  37.980  1.00  0.00    -0.200 F 
ATOM     72  C   UNL A   1      39.298  35.153  38.872  1.00  0.00     0.200 A 
ATOM     73  F   UNL A   1      37.738  33.603  39.730  1.00  0.00    -0.200 F 
ATOM     74  F   UNL A   1      39.116  35.948  39.935  1.00  0.00    -0.200 F 
ENDBRANCH  50  64
BRANCH  51  75
ATOM     75  C   UNL A   1      40.788  27.867  28.452  1.00  0.00     0.064 A 
ATOM     76  C   UNL A   1      40.155  26.626  28.300  1.00  0.00     0.173 A 
ATOM     77  C   UNL A   1      41.605  28.315  27.403  1.00  0.00     0.173 A 
ATOM     78  F   UNL A   1      39.377  26.146  29.281  1.00  0.00    -0.203 F 
ATOM     79  C   UNL A   1      40.350  25.853  27.156  1.00  0.00     0.198 A 
ATOM     80  C   UNL A   1      41.774  27.558  26.247  1.00  0.00     0.198 A 
ATOM     81  F   UNL A   1      42.228  29.499  27.496  1.00  0.00    -0.203 F 
ATOM     82  F   UNL A   1      39.771  24.649  27.057  1.00  0.00    -0.200 F 
ATOM     83  C   UNL A   1      41.154  26.322  26.128  1.00  0.00     0.200 A 
ATOM     84  F   UNL A   1      42.536  28.024  25.249  1.00  0.00    -0.200 F 
ATOM     85  F   UNL A   1      41.335  25.583  25.026  1.00  0.00    -0.200 F 
ENDBRANCH  51  75
BRANCH  63  86
ATOM     86  C   UNL A   1      43.986  28.012  34.643  1.00  0.00     0.064 A 
ATOM     87  C   UNL A   1      45.329  28.405  34.539  1.00  0.00     0.173 A 
ATOM     88  C   UNL A   1      43.704  26.822  35.331  1.00  0.00     0.173 A 
ATOM     89  F   UNL A   1      45.655  29.527  33.879  1.00  0.00    -0.203 F 
ATOM     90  C   UNL A   1      46.349  27.619  35.069  1.00  0.00     0.198 A 
ATOM     91  C   UNL A   1      44.724  26.057  35.891  1.00  0.00     0.198 A 
ATOM     92  F   UNL A   1      42.437  26.403  35.468  1.00  0.00    -0.203 F 
ATOM     93  F   UNL A   1      47.628  27.983  34.901  1.00  0.00    -0.200 F 
ATOM     94  C   UNL A   1      46.045  26.450  35.750  1.00  0.00     0.200 A 
ATOM     95  F   UNL A   1      44.427  24.936  36.563  1.00  0.00    -0.200 F 
ATOM     96  F   UNL A   1      47.029  25.696  36.261  1.00  0.00    -0.200 F 
ENDBRANCH  63  86
ENDBRANCH  37  38
ENDBRANCH  29  32
ENDBRANCH  27  28
ENDBRANCH   1  27
TORSDOF 12
ENDMDL
