MODEL 1
REMARK VINA RESULT:     -12.2      0.000      0.000
REMARK SMILES CCCc1nn2c(=O)cc(CSc3ccccc3C(=O)NCCCNC(=O)c3ccc(-c4c5nc(c(-c6c(F)c(F)c(F)c(F)c6F)c6ccc([nH]6)c(-c6c(F)c(F)c(F)c(F)c6F)c6nc(c(-c7c(F)c(F)c(F)c(F)c7F)c7ccc4[nH]7)C=C6)C=C5)cc3)nc2s1
REMARK SMILES IDX 19 1 20 2 21 3 18 5 13 6 14 7 15 8 17 9 16 10 12 11 11 12
REMARK SMILES IDX 10 13 4 14 5 15 93 16 6 17 92 18 7 19 91 20 8 21 9 22 3 23
REMARK SMILES IDX 2 24 1 25 22 26 23 27 24 28 25 29 26 30 27 32 28 33 29 34
REMARK SMILES IDX 90 35 30 36 89 37 31 38 32 39 33 40 83 41 34 42 88 43 82 44
REMARK SMILES IDX 84 45 35 46 87 47 81 48 80 49 36 51 68 52 48 53 67 54 49 55
REMARK SMILES IDX 52 56 66 57 85 58 50 59 51 60 65 62 86 63 53 64 37 65 38 66
REMARK SMILES IDX 46 67 39 68 40 69 44 70 47 71 41 72 42 73 45 74 43 75 69 76
REMARK SMILES IDX 70 77 78 78 71 79 72 80 76 81 79 82 73 83 74 84 77 85 75 86
REMARK SMILES IDX 54 87 55 88 63 89 56 90 57 91 61 92 64 93 58 94 59 95 62 96
REMARK SMILES IDX 60 97
REMARK H PARENT 21 4 25 31 84 50 52 61
REMARK Flexibility Score: inf
ROOT
ATOM      1  C   UNL A   1      32.142  29.545  24.895  1.00  0.00     0.252 C 
ATOM      2  O   UNL A   1      33.317  29.317  24.571  1.00  0.00    -0.269 OA
ATOM      3  N   UNL A   1      31.961  30.803  25.399  1.00  0.00    -0.352 N 
ATOM      4  H   UNL A   1      32.777  31.350  25.322  1.00  0.00     0.163 HD
ENDROOT
BRANCH   1   5
ATOM      5  C   UNL A   1      31.137  28.454  24.641  1.00  0.00     0.053 A 
ATOM      6  C   UNL A   1      31.016  27.153  25.164  1.00  0.00     0.020 A 
ATOM      7  C   UNL A   1      30.000  26.295  24.668  1.00  0.00     0.016 A 
ATOM      8  C   UNL A   1      29.133  26.678  23.650  1.00  0.00     0.001 A 
ATOM      9  C   UNL A   1      30.216  28.817  23.619  1.00  0.00     0.015 A 
ATOM     10  C   UNL A   1      29.239  27.950  23.125  1.00  0.00     0.001 A 
BRANCH   6  11
ATOM     11  S   UNL A   1      31.970  26.385  26.452  1.00  0.00    -0.119 SA
BRANCH  11  12
ATOM     12  C   UNL A   1      33.630  26.283  25.675  1.00  0.00     0.131 C 
BRANCH  12  13
ATOM     13  C   UNL A   1      33.782  24.929  25.032  1.00  0.00     0.060 A 
ATOM     14  C   UNL A   1      33.198  20.432  24.745  1.00  0.00     0.117 A 
ATOM     15  N   UNL A   1      33.273  21.153  23.669  1.00  0.00    -0.156 NA
ATOM     16  S   UNL A   1      33.416  21.244  26.275  1.00  0.00    -0.079 S 
ATOM     17  N   UNL A   1      33.519  22.453  24.031  1.00  0.00    -0.167 N 
ATOM     18  C   UNL A   1      33.604  22.706  25.371  1.00  0.00     0.215 A 
ATOM     19  C   UNL A   1      33.711  23.450  23.097  1.00  0.00     0.275 A 
ATOM     20  N   UNL A   1      33.783  23.862  25.907  1.00  0.00    -0.223 NA
ATOM     21  O   UNL A   1      33.773  23.323  21.884  1.00  0.00    -0.267 OA
ATOM     22  C   UNL A   1      33.808  24.802  23.696  1.00  0.00     0.098 A 
BRANCH  14  23
ATOM     23  C   UNL A   1      32.962  18.955  24.740  1.00  0.00     0.069 C 
BRANCH  23  24
ATOM     24  C   UNL A   1      34.204  18.209  24.255  1.00  0.00     0.004 C 
ATOM     25  C   UNL A   1      33.876  16.851  23.649  1.00  0.00     0.004 C 
ENDBRANCH  23  24
ENDBRANCH  14  23
ENDBRANCH  12  13
ENDBRANCH  11  12
ENDBRANCH   6  11
ENDBRANCH   1   5
BRANCH   3  26
ATOM     26  C   UNL A   1      30.876  31.536  26.018  1.00  0.00     0.118 C 
BRANCH  26  27
ATOM     27  C   UNL A   1      31.391  32.279  27.253  1.00  0.00     0.042 C 
BRANCH  27  28
ATOM     28  C   UNL A   1      32.653  33.093  27.011  1.00  0.00     0.118 C 
BRANCH  28  29
ATOM     29  N   UNL A   1      32.554  34.404  27.632  1.00  0.00    -0.352 N 
ATOM     30  C   UNL A   1      33.110  34.875  28.796  1.00  0.00     0.251 C 
ATOM     31  H   UNL A   1      32.004  35.054  27.142  1.00  0.00     0.163 HD
ATOM     32  O   UNL A   1      32.663  35.906  29.294  1.00  0.00    -0.269 OA
BRANCH  30  33
ATOM     33  C   UNL A   1      34.238  34.176  29.460  1.00  0.00     0.039 A 
ATOM     34  C   UNL A   1      35.547  34.514  29.094  1.00  0.00     0.014 A 
ATOM     35  C   UNL A   1      34.029  33.133  30.366  1.00  0.00     0.014 A 
ATOM     36  C   UNL A   1      36.633  33.831  29.648  1.00  0.00     0.010 A 
ATOM     37  C   UNL A   1      35.112  32.510  30.985  1.00  0.00     0.010 A 
ATOM     38  C   UNL A   1      36.425  32.832  30.613  1.00  0.00    -0.014 A 
BRANCH  38  39
ATOM     39  C   UNL A   1      37.561  32.078  31.205  1.00  0.00     0.031 A 
ATOM     40  C   UNL A   1      38.033  32.400  32.597  1.00  0.00     0.074 A 
ATOM     41  C   UNL A   1      38.200  31.143  30.476  1.00  0.00     0.049 A 
ATOM     42  N   UNL A   1      39.059  31.923  33.259  1.00  0.00    -0.248 NA
ATOM     43  C   UNL A   1      37.269  33.418  33.336  1.00  0.00     0.031 C 
ATOM     44  C   UNL A   1      37.863  30.766  29.104  1.00  0.00     0.029 A 
ATOM     45  N   UNL A   1      39.276  30.348  30.786  1.00  0.00    -0.354 N 
ATOM     46  C   UNL A   1      39.071  32.595  34.475  1.00  0.00     0.074 A 
ATOM     47  C   UNL A   1      37.987  33.552  34.440  1.00  0.00     0.031 C 
ATOM     48  C   UNL A   1      38.699  29.797  28.697  1.00  0.00     0.029 A 
ATOM     49  C   UNL A   1      39.653  29.512  29.764  1.00  0.00     0.049 A 
ATOM     50  H   UNL A   1      39.732  30.374  31.657  1.00  0.00     0.167 HD
ATOM     51  C   UNL A   1      39.896  32.415  35.534  1.00  0.00     0.037 A 
ATOM     52  C   UNL A   1      40.660  28.620  29.695  1.00  0.00     0.037 A 
ATOM     53  C   UNL A   1      40.953  31.439  35.578  1.00  0.00     0.049 A 
ATOM     54  C   UNL A   1      41.558  28.431  30.888  1.00  0.00     0.074 A 
ATOM     55  C   UNL A   1      41.815  31.145  36.621  1.00  0.00     0.029 A 
ATOM     56  N   UNL A   1      41.287  30.592  34.531  1.00  0.00    -0.354 N 
ATOM     57  N   UNL A   1      41.532  29.043  32.047  1.00  0.00    -0.248 NA
ATOM     58  C   UNL A   1      42.618  27.422  30.764  1.00  0.00     0.031 C 
ATOM     59  C   UNL A   1      42.694  30.144  36.193  1.00  0.00     0.029 A 
ATOM     60  C   UNL A   1      42.351  29.782  34.899  1.00  0.00     0.049 A 
ATOM     61  H   UNL A   1      40.836  30.570  33.657  1.00  0.00     0.167 HD
ATOM     62  C   UNL A   1      42.554  28.477  32.799  1.00  0.00     0.074 A 
ATOM     63  C   UNL A   1      43.170  27.463  31.969  1.00  0.00     0.031 C 
ATOM     64  C   UNL A   1      42.946  28.773  34.062  1.00  0.00     0.037 A 
BRANCH  51  65
ATOM     65  C   UNL A   1      39.682  33.288  36.737  1.00  0.00     0.064 A 
ATOM     66  C   UNL A   1      40.380  34.495  36.902  1.00  0.00     0.173 A 
ATOM     67  C   UNL A   1      38.749  32.932  37.722  1.00  0.00     0.173 A 
ATOM     68  F   UNL A   1      41.293  34.876  35.995  1.00  0.00    -0.203 F 
ATOM     69  C   UNL A   1      40.176  35.295  38.023  1.00  0.00     0.198 A 
ATOM     70  C   UNL A   1      38.525  33.750  38.828  1.00  0.00     0.198 A 
ATOM     71  F   UNL A   1      38.050  31.793  37.613  1.00  0.00    -0.203 F 
ATOM     72  F   UNL A   1      40.892  36.416  38.183  1.00  0.00    -0.200 F 
ATOM     73  C   UNL A   1      39.243  34.926  38.981  1.00  0.00     0.200 A 
ATOM     74  F   UNL A   1      37.614  33.399  39.746  1.00  0.00    -0.200 F 
ATOM     75  F   UNL A   1      39.044  35.700  40.057  1.00  0.00    -0.200 F 
ENDBRANCH  51  65
BRANCH  52  76
ATOM     76  C   UNL A   1      40.851  27.816  28.460  1.00  0.00     0.064 A 
ATOM     77  C   UNL A   1      40.188  26.592  28.292  1.00  0.00     0.173 A 
ATOM     78  C   UNL A   1      41.683  28.257  27.422  1.00  0.00     0.173 A 
ATOM     79  F   UNL A   1      39.397  26.120  29.266  1.00  0.00    -0.203 F 
ATOM     80  C   UNL A   1      40.363  25.831  27.138  1.00  0.00     0.198 A 
ATOM     81  C   UNL A   1      41.837  27.508  26.256  1.00  0.00     0.198 A 
ATOM     82  F   UNL A   1      42.334  29.424  27.531  1.00  0.00    -0.203 F 
ATOM     83  F   UNL A   1      39.749  24.647  27.020  1.00  0.00    -0.200 F 
ATOM     84  C   UNL A   1      41.182  26.292  26.118  1.00  0.00     0.200 A 
ATOM     85  F   UNL A   1      42.617  27.964  25.267  1.00  0.00    -0.200 F 
ATOM     86  F   UNL A   1      41.344  25.565  25.006  1.00  0.00    -0.200 F 
ENDBRANCH  52  76
BRANCH  64  87
ATOM     87  C   UNL A   1      44.074  27.968  34.637  1.00  0.00     0.064 A 
ATOM     88  C   UNL A   1      45.408  28.380  34.516  1.00  0.00     0.173 A 
ATOM     89  C   UNL A   1      43.811  26.789  35.352  1.00  0.00     0.173 A 
ATOM     90  F   UNL A   1      45.711  29.493  33.829  1.00  0.00    -0.203 F 
ATOM     91  C   UNL A   1      46.442  27.628  35.068  1.00  0.00     0.198 A 
ATOM     92  C   UNL A   1      44.843  26.055  35.927  1.00  0.00     0.198 A 
ATOM     93  F   UNL A   1      42.550  26.356  35.501  1.00  0.00    -0.203 F 
ATOM     94  F   UNL A   1      47.713  28.018  34.902  1.00  0.00    -0.200 F 
ATOM     95  C   UNL A   1      46.159  26.472  35.779  1.00  0.00     0.200 A 
ATOM     96  F   UNL A   1      44.568  24.945  36.624  1.00  0.00    -0.200 F 
ATOM     97  F   UNL A   1      47.154  25.753  36.316  1.00  0.00    -0.200 F 
ENDBRANCH  64  87
ENDBRANCH  38  39
ENDBRANCH  30  33
ENDBRANCH  28  29
ENDBRANCH  27  28
ENDBRANCH  26  27
ENDBRANCH   3  26
TORSDOF 15
ENDMDL
MODEL 2
REMARK VINA RESULT:     -12.2      1.232      7.383
REMARK SMILES CCCc1nn2c(=O)cc(CSc3ccccc3C(=O)NCCCNC(=O)c3ccc(-c4c5nc(c(-c6c(F)c(F)c(F)c(F)c6F)c6ccc([nH]6)c(-c6c(F)c(F)c(F)c(F)c6F)c6nc(c(-c7c(F)c(F)c(F)c(F)c7F)c7ccc4[nH]7)C=C6)C=C5)cc3)nc2s1
REMARK SMILES IDX 19 1 20 2 21 3 18 5 13 6 14 7 15 8 17 9 16 10 12 11 11 12
REMARK SMILES IDX 10 13 4 14 5 15 93 16 6 17 92 18 7 19 91 20 8 21 9 22 3 23
REMARK SMILES IDX 2 24 1 25 22 26 23 27 24 28 25 29 26 30 27 32 28 33 29 34
REMARK SMILES IDX 90 35 30 36 89 37 31 38 32 39 33 40 83 41 34 42 88 43 82 44
REMARK SMILES IDX 84 45 35 46 87 47 81 48 80 49 36 51 68 52 48 53 67 54 49 55
REMARK SMILES IDX 52 56 66 57 85 58 50 59 51 60 65 62 86 63 53 64 37 65 38 66
REMARK SMILES IDX 46 67 39 68 40 69 44 70 47 71 41 72 42 73 45 74 43 75 69 76
REMARK SMILES IDX 70 77 78 78 71 79 72 80 76 81 79 82 73 83 74 84 77 85 75 86
REMARK SMILES IDX 54 87 55 88 63 89 56 90 57 91 61 92 64 93 58 94 59 95 62 96
REMARK SMILES IDX 60 97
REMARK H PARENT 21 4 25 31 84 50 52 61
REMARK Flexibility Score: inf
ROOT
ATOM      1  C   UNL A   1      32.156  28.704  26.445  1.00  0.00     0.252 C 
ATOM      2  O   UNL A   1      32.963  28.234  27.260  1.00  0.00    -0.269 OA
ATOM      3  N   UNL A   1      32.160  30.071  26.418  1.00  0.00    -0.352 N 
ATOM      4  H   UNL A   1      32.878  30.447  26.977  1.00  0.00     0.163 HD
ENDROOT
BRANCH   1   5
ATOM      5  C   UNL A   1      31.371  27.726  25.615  1.00  0.00     0.053 A 
ATOM      6  C   UNL A   1      31.028  27.719  24.250  1.00  0.00     0.020 A 
ATOM      7  C   UNL A   1      30.186  26.693  23.748  1.00  0.00     0.016 A 
ATOM      8  C   UNL A   1      29.650  25.703  24.566  1.00  0.00     0.001 A 
ATOM      9  C   UNL A   1      30.823  26.683  26.414  1.00  0.00     0.015 A 
ATOM     10  C   UNL A   1      29.974  25.695  25.907  1.00  0.00     0.001 A 
BRANCH   6  11
ATOM     11  S   UNL A   1      31.548  28.842  22.974  1.00  0.00    -0.119 SA
BRANCH  11  12
ATOM     12  C   UNL A   1      33.354  28.525  22.912  1.00  0.00     0.131 C 
BRANCH  12  13
ATOM     13  C   UNL A   1      33.582  27.043  22.762  1.00  0.00     0.060 A 
ATOM     14  C   UNL A   1      33.811  22.755  24.248  1.00  0.00     0.117 A 
ATOM     15  N   UNL A   1      33.452  23.006  23.027  1.00  0.00    -0.156 NA
ATOM     16  S   UNL A   1      34.277  24.109  25.246  1.00  0.00    -0.079 S 
ATOM     17  N   UNL A   1      33.535  24.360  22.819  1.00  0.00    -0.167 N 
ATOM     18  C   UNL A   1      33.930  25.117  23.884  1.00  0.00     0.215 A 
ATOM     19  C   UNL A   1      33.272  24.930  21.590  1.00  0.00     0.275 A 
ATOM     20  N   UNL A   1      34.024  26.400  23.901  1.00  0.00    -0.223 NA
ATOM     21  O   UNL A   1      33.025  24.348  20.544  1.00  0.00    -0.267 OA
ATOM     22  C   UNL A   1      33.267  26.411  21.621  1.00  0.00     0.098 A 
BRANCH  14  23
ATOM     23  C   UNL A   1      33.870  21.377  24.829  1.00  0.00     0.069 C 
BRANCH  23  24
ATOM     24  C   UNL A   1      32.747  20.505  24.270  1.00  0.00     0.004 C 
ATOM     25  C   UNL A   1      33.126  19.032  24.198  1.00  0.00     0.004 C 
ENDBRANCH  23  24
ENDBRANCH  14  23
ENDBRANCH  12  13
ENDBRANCH  11  12
ENDBRANCH   6  11
ENDBRANCH   1   5
BRANCH   3  26
ATOM     26  C   UNL A   1      31.377  31.107  25.777  1.00  0.00     0.118 C 
BRANCH  26  27
ATOM     27  C   UNL A   1      31.252  32.314  26.710  1.00  0.00     0.042 C 
BRANCH  27  28
ATOM     28  C   UNL A   1      32.578  32.830  27.246  1.00  0.00     0.118 C 
BRANCH  28  29
ATOM     29  N   UNL A   1      32.475  34.228  27.632  1.00  0.00    -0.352 N 
ATOM     30  C   UNL A   1      33.048  34.899  28.684  1.00  0.00     0.251 C 
ATOM     31  H   UNL A   1      31.907  34.779  27.048  1.00  0.00     0.163 HD
ATOM     32  O   UNL A   1      32.598  35.997  29.005  1.00  0.00    -0.269 OA
BRANCH  30  33
ATOM     33  C   UNL A   1      34.197  34.335  29.435  1.00  0.00     0.039 A 
ATOM     34  C   UNL A   1      35.491  34.549  28.943  1.00  0.00     0.014 A 
ATOM     35  C   UNL A   1      34.018  33.525  30.560  1.00  0.00     0.014 A 
ATOM     36  C   UNL A   1      36.592  33.978  29.586  1.00  0.00     0.010 A 
ATOM     37  C   UNL A   1      35.121  33.028  31.252  1.00  0.00     0.010 A 
ATOM     38  C   UNL A   1      36.418  33.225  30.758  1.00  0.00    -0.014 A 
BRANCH  38  39
ATOM     39  C   UNL A   1      37.571  32.591  31.451  1.00  0.00     0.031 A 
ATOM     40  C   UNL A   1      38.305  31.450  30.799  1.00  0.00     0.074 A 
ATOM     41  C   UNL A   1      37.925  33.004  32.682  1.00  0.00     0.049 A 
ATOM     42  N   UNL A   1      39.274  30.706  31.272  1.00  0.00    -0.248 NA
ATOM     43  C   UNL A   1      37.872  31.072  29.444  1.00  0.00     0.031 C 
ATOM     44  C   UNL A   1      37.270  34.074  33.435  1.00  0.00     0.029 A 
ATOM     45  N   UNL A   1      38.917  32.564  33.523  1.00  0.00    -0.354 N 
ATOM     46  C   UNL A   1      39.548  29.767  30.286  1.00  0.00     0.074 A 
ATOM     47  C   UNL A   1      38.609  29.998  29.211  1.00  0.00     0.031 C 
ATOM     48  C   UNL A   1      37.891  34.223  34.616  1.00  0.00     0.029 A 
ATOM     49  C   UNL A   1      38.962  33.236  34.719  1.00  0.00     0.049 A 
ATOM     50  H   UNL A   1      39.538  31.837  33.290  1.00  0.00     0.167 HD
ATOM     51  C   UNL A   1      40.512  28.815  30.266  1.00  0.00     0.037 A 
ATOM     52  C   UNL A   1      39.773  33.070  35.782  1.00  0.00     0.037 A 
ATOM     53  C   UNL A   1      41.467  28.609  31.324  1.00  0.00     0.049 A 
ATOM     54  C   UNL A   1      40.841  32.012  35.734  1.00  0.00     0.074 A 
ATOM     55  C   UNL A   1      42.511  27.703  31.381  1.00  0.00     0.029 A 
ATOM     56  N   UNL A   1      41.495  29.330  32.509  1.00  0.00    -0.354 N 
ATOM     57  N   UNL A   1      41.117  31.158  34.777  1.00  0.00    -0.248 NA
ATOM     58  C   UNL A   1      41.714  31.899  36.910  1.00  0.00     0.031 C 
ATOM     59  C   UNL A   1      43.150  27.850  32.617  1.00  0.00     0.029 A 
ATOM     60  C   UNL A   1      42.533  28.879  33.311  1.00  0.00     0.049 A 
ATOM     61  H   UNL A   1      40.871  30.052  32.746  1.00  0.00     0.167 HD
ATOM     62  C   UNL A   1      42.209  30.426  35.223  1.00  0.00     0.074 A 
ATOM     63  C   UNL A   1      42.553  30.945  36.530  1.00  0.00     0.031 C 
ATOM     64  C   UNL A   1      42.866  29.413  34.606  1.00  0.00     0.037 A 
BRANCH  51  65
ATOM     65  C   UNL A   1      40.585  27.926  29.058  1.00  0.00     0.064 A 
ATOM     66  C   UNL A   1      39.802  26.766  28.951  1.00  0.00     0.173 A 
ATOM     67  C   UNL A   1      41.424  28.250  27.982  1.00  0.00     0.173 A 
ATOM     68  F   UNL A   1      38.991  26.404  29.958  1.00  0.00    -0.203 F 
ATOM     69  C   UNL A   1      39.880  25.948  27.828  1.00  0.00     0.198 A 
ATOM     70  C   UNL A   1      41.477  27.446  26.845  1.00  0.00     0.198 A 
ATOM     71  F   UNL A   1      42.189  29.350  28.027  1.00  0.00    -0.203 F 
ATOM     72  F   UNL A   1      39.161  24.818  27.772  1.00  0.00    -0.200 F 
ATOM     73  C   UNL A   1      40.712  26.292  26.772  1.00  0.00     0.200 A 
ATOM     74  F   UNL A   1      42.272  27.786  25.821  1.00  0.00    -0.200 F 
ATOM     75  F   UNL A   1      40.782  25.506  25.689  1.00  0.00    -0.200 F 
ENDBRANCH  51  65
BRANCH  52  76
ATOM     76  C   UNL A   1      39.622  33.951  36.969  1.00  0.00     0.064 A 
ATOM     77  C   UNL A   1      38.863  33.541  38.075  1.00  0.00     0.173 A 
ATOM     78  C   UNL A   1      40.241  35.208  37.031  1.00  0.00     0.173 A 
ATOM     79  F   UNL A   1      38.237  32.356  38.054  1.00  0.00    -0.203 F 
ATOM     80  C   UNL A   1      38.716  34.362  39.191  1.00  0.00     0.198 A 
ATOM     81  C   UNL A   1      40.115  36.017  38.159  1.00  0.00     0.198 A 
ATOM     82  F   UNL A   1      40.983  35.642  36.002  1.00  0.00    -0.203 F 
ATOM     83  F   UNL A   1      37.953  33.962  40.216  1.00  0.00    -0.200 F 
ATOM     84  C   UNL A   1      39.346  35.596  39.235  1.00  0.00     0.200 A 
ATOM     85  F   UNL A   1      40.739  37.202  38.204  1.00  0.00    -0.200 F 
ATOM     86  F   UNL A   1      39.211  36.382  40.311  1.00  0.00    -0.200 F 
ENDBRANCH  52  76
BRANCH  64  87
ATOM     87  C   UNL A   1      44.044  28.822  35.322  1.00  0.00     0.064 A 
ATOM     88  C   UNL A   1      43.895  27.777  36.244  1.00  0.00     0.173 A 
ATOM     89  C   UNL A   1      45.342  29.282  35.051  1.00  0.00     0.173 A 
ATOM     90  F   UNL A   1      42.673  27.313  36.547  1.00  0.00    -0.203 F 
ATOM     91  C   UNL A   1      45.001  27.229  36.889  1.00  0.00     0.198 A 
ATOM     92  C   UNL A   1      46.448  28.714  35.675  1.00  0.00     0.198 A 
ATOM     93  F   UNL A   1      45.537  30.276  34.172  1.00  0.00    -0.203 F 
ATOM     94  F   UNL A   1      44.832  26.261  37.800  1.00  0.00    -0.200 F 
ATOM     95  C   UNL A   1      46.276  27.692  36.599  1.00  0.00     0.200 A 
ATOM     96  F   UNL A   1      47.679  29.153  35.385  1.00  0.00    -0.200 F 
ATOM     97  F   UNL A   1      47.340  27.160  37.215  1.00  0.00    -0.200 F 
ENDBRANCH  64  87
ENDBRANCH  38  39
ENDBRANCH  30  33
ENDBRANCH  28  29
ENDBRANCH  27  28
ENDBRANCH  26  27
ENDBRANCH   3  26
TORSDOF 15
ENDMDL
MODEL 3
REMARK VINA RESULT:     -12.1      0.997      7.234
REMARK SMILES CCCc1nn2c(=O)cc(CSc3ccccc3C(=O)NCCCNC(=O)c3ccc(-c4c5nc(c(-c6c(F)c(F)c(F)c(F)c6F)c6ccc([nH]6)c(-c6c(F)c(F)c(F)c(F)c6F)c6nc(c(-c7c(F)c(F)c(F)c(F)c7F)c7ccc4[nH]7)C=C6)C=C5)cc3)nc2s1
REMARK SMILES IDX 19 1 20 2 21 3 18 5 13 6 14 7 15 8 17 9 16 10 12 11 11 12
REMARK SMILES IDX 10 13 4 14 5 15 93 16 6 17 92 18 7 19 91 20 8 21 9 22 3 23
REMARK SMILES IDX 2 24 1 25 22 26 23 27 24 28 25 29 26 30 27 32 28 33 29 34
REMARK SMILES IDX 90 35 30 36 89 37 31 38 32 39 33 40 83 41 34 42 88 43 82 44
REMARK SMILES IDX 84 45 35 46 87 47 81 48 80 49 36 51 68 52 48 53 67 54 49 55
REMARK SMILES IDX 52 56 66 57 85 58 50 59 51 60 65 62 86 63 53 64 37 65 38 66
REMARK SMILES IDX 46 67 39 68 40 69 44 70 47 71 41 72 42 73 45 74 43 75 69 76
REMARK SMILES IDX 70 77 78 78 71 79 72 80 76 81 79 82 73 83 74 84 77 85 75 86
REMARK SMILES IDX 54 87 55 88 63 89 56 90 57 91 61 92 64 93 58 94 59 95 62 96
REMARK SMILES IDX 60 97
REMARK H PARENT 21 4 25 31 84 50 52 61
REMARK Flexibility Score: inf
ROOT
ATOM      1  C   UNL A   1      32.247  29.222  25.000  1.00  0.00     0.252 C 
ATOM      2  O   UNL A   1      33.428  28.870  24.861  1.00  0.00    -0.269 OA
ATOM      3  N   UNL A   1      32.121  30.518  25.417  1.00  0.00    -0.352 N 
ATOM      4  H   UNL A   1      32.989  30.983  25.436  1.00  0.00     0.163 HD
ENDROOT
BRANCH   1   5
ATOM      5  C   UNL A   1      31.186  28.214  24.650  1.00  0.00     0.053 A 
ATOM      6  C   UNL A   1      31.006  26.872  25.035  1.00  0.00     0.020 A 
ATOM      7  C   UNL A   1      29.944  26.121  24.468  1.00  0.00     0.016 A 
ATOM      8  C   UNL A   1      29.086  26.651  23.511  1.00  0.00     0.001 A 
ATOM      9  C   UNL A   1      30.274  28.727  23.686  1.00  0.00     0.015 A 
ATOM     10  C   UNL A   1      29.249  27.965  23.119  1.00  0.00     0.001 A 
BRANCH   6  11
ATOM     11  S   UNL A   1      31.936  25.928  26.219  1.00  0.00    -0.119 SA
BRANCH  11  12
ATOM     12  C   UNL A   1      31.189  24.261  26.036  1.00  0.00     0.131 C 
BRANCH  12  13
ATOM     13  C   UNL A   1      32.292  23.235  26.013  1.00  0.00     0.060 A 
ATOM     14  C   UNL A   1      34.252  19.343  24.726  1.00  0.00     0.117 A 
ATOM     15  N   UNL A   1      34.978  20.383  24.999  1.00  0.00    -0.156 NA
ATOM     16  S   UNL A   1      32.528  19.482  24.957  1.00  0.00    -0.079 S 
ATOM     17  N   UNL A   1      34.152  21.392  25.426  1.00  0.00    -0.167 N 
ATOM     18  C   UNL A   1      32.815  21.115  25.450  1.00  0.00     0.215 A 
ATOM     19  C   UNL A   1      34.641  22.611  25.849  1.00  0.00     0.275 A 
ATOM     20  N   UNL A   1      31.882  21.939  25.774  1.00  0.00    -0.223 NA
ATOM     21  O   UNL A   1      35.813  22.930  25.981  1.00  0.00    -0.267 OA
ATOM     22  C   UNL A   1      33.578  23.606  26.119  1.00  0.00     0.098 A 
BRANCH  14  23
ATOM     23  C   UNL A   1      34.814  18.040  24.254  1.00  0.00     0.069 C 
BRANCH  23  24
ATOM     24  C   UNL A   1      33.740  17.207  23.557  1.00  0.00     0.004 C 
ATOM     25  C   UNL A   1      33.315  15.992  24.372  1.00  0.00     0.004 C 
ENDBRANCH  23  24
ENDBRANCH  14  23
ENDBRANCH  12  13
ENDBRANCH  11  12
ENDBRANCH   6  11
ENDBRANCH   1   5
BRANCH   3  26
ATOM     26  C   UNL A   1      31.037  31.380  25.838  1.00  0.00     0.118 C 
BRANCH  26  27
ATOM     27  C   UNL A   1      31.409  32.078  27.149  1.00  0.00     0.042 C 
BRANCH  27  28
ATOM     28  C   UNL A   1      32.709  32.863  27.092  1.00  0.00     0.118 C 
BRANCH  28  29
ATOM     29  N   UNL A   1      32.529  34.208  27.614  1.00  0.00    -0.352 N 
ATOM     30  C   UNL A   1      33.039  34.792  28.747  1.00  0.00     0.251 C 
ATOM     31  H   UNL A   1      31.952  34.789  27.070  1.00  0.00     0.163 HD
ATOM     32  O   UNL A   1      32.528  35.829  29.163  1.00  0.00    -0.269 OA
BRANCH  30  33
ATOM     33  C   UNL A   1      34.193  34.207  29.474  1.00  0.00     0.039 A 
ATOM     34  C   UNL A   1      35.487  34.495  29.023  1.00  0.00     0.014 A 
ATOM     35  C   UNL A   1      34.021  33.308  30.531  1.00  0.00     0.014 A 
ATOM     36  C   UNL A   1      36.595  33.909  29.641  1.00  0.00     0.010 A 
ATOM     37  C   UNL A   1      35.127  32.791  31.203  1.00  0.00     0.010 A 
ATOM     38  C   UNL A   1      36.425  33.063  30.749  1.00  0.00    -0.014 A 
BRANCH  38  39
ATOM     39  C   UNL A   1      37.586  32.412  31.413  1.00  0.00     0.031 A 
ATOM     40  C   UNL A   1      38.335  31.313  30.709  1.00  0.00     0.074 A 
ATOM     41  C   UNL A   1      37.933  32.771  32.663  1.00  0.00     0.049 A 
ATOM     42  N   UNL A   1      39.313  30.560  31.148  1.00  0.00    -0.248 NA
ATOM     43  C   UNL A   1      37.908  30.995  29.337  1.00  0.00     0.031 C 
ATOM     44  C   UNL A   1      37.264  33.795  33.465  1.00  0.00     0.029 A 
ATOM     45  N   UNL A   1      38.930  32.304  33.483  1.00  0.00    -0.354 N 
ATOM     46  C   UNL A   1      39.600  29.672  30.119  1.00  0.00     0.074 A 
ATOM     47  C   UNL A   1      38.659  29.942  29.054  1.00  0.00     0.031 C 
ATOM     48  C   UNL A   1      37.882  33.897  34.652  1.00  0.00     0.029 A 
ATOM     49  C   UNL A   1      38.965  32.920  34.710  1.00  0.00     0.049 A 
ATOM     50  H   UNL A   1      39.560  31.597  33.217  1.00  0.00     0.167 HD
ATOM     51  C   UNL A   1      40.576  28.735  30.055  1.00  0.00     0.037 A 
ATOM     52  C   UNL A   1      39.777  32.714  35.765  1.00  0.00     0.037 A 
ATOM     53  C   UNL A   1      41.532  28.492  31.103  1.00  0.00     0.049 A 
ATOM     54  C   UNL A   1      40.859  31.673  35.669  1.00  0.00     0.074 A 
ATOM     55  C   UNL A   1      42.588  27.597  31.119  1.00  0.00     0.029 A 
ATOM     56  N   UNL A   1      41.551  29.155  32.322  1.00  0.00    -0.354 N 
ATOM     57  N   UNL A   1      41.147  30.869  34.673  1.00  0.00    -0.248 NA
ATOM     58  C   UNL A   1      41.732  31.515  36.839  1.00  0.00     0.031 C 
ATOM     59  C   UNL A   1      43.225  27.694  32.362  1.00  0.00     0.029 A 
ATOM     60  C   UNL A   1      42.593  28.681  33.102  1.00  0.00     0.049 A 
ATOM     61  H   UNL A   1      40.917  29.857  32.592  1.00  0.00     0.167 HD
ATOM     62  C   UNL A   1      42.248  30.131  35.086  1.00  0.00     0.074 A 
ATOM     63  C   UNL A   1      42.584  30.592  36.416  1.00  0.00     0.031 C 
ATOM     64  C   UNL A   1      42.918  29.157  34.422  1.00  0.00     0.037 A 
BRANCH  51  65
ATOM     65  C   UNL A   1      40.662  27.906  28.806  1.00  0.00     0.064 A 
ATOM     66  C   UNL A   1      41.490  28.276  27.735  1.00  0.00     0.173 A 
ATOM     67  C   UNL A   1      39.932  26.714  28.687  1.00  0.00     0.173 A 
ATOM     68  F   UNL A   1      42.200  29.413  27.792  1.00  0.00    -0.203 F 
ATOM     69  C   UNL A   1      41.560  27.501  26.580  1.00  0.00     0.198 A 
ATOM     70  C   UNL A   1      40.027  25.925  27.543  1.00  0.00     0.198 A 
ATOM     71  F   UNL A   1      39.130  26.309  29.682  1.00  0.00    -0.203 F 
ATOM     72  F   UNL A   1      42.318  27.902  25.550  1.00  0.00    -0.200 F 
ATOM     73  C   UNL A   1      40.834  26.323  26.487  1.00  0.00     0.200 A 
ATOM     74  F   UNL A   1      39.335  24.780  27.460  1.00  0.00    -0.200 F 
ATOM     75  F   UNL A   1      40.906  25.576  25.377  1.00  0.00    -0.200 F 
ENDBRANCH  51  65
BRANCH  52  76
ATOM     76  C   UNL A   1      39.614  33.535  36.993  1.00  0.00     0.064 A 
ATOM     77  C   UNL A   1      38.748  33.128  38.018  1.00  0.00     0.173 A 
ATOM     78  C   UNL A   1      40.325  34.730  37.173  1.00  0.00     0.173 A 
ATOM     79  F   UNL A   1      38.032  32.004  37.882  1.00  0.00    -0.203 F 
ATOM     80  C   UNL A   1      38.589  33.895  39.171  1.00  0.00     0.198 A 
ATOM     81  C   UNL A   1      40.185  35.482  38.339  1.00  0.00     0.198 A 
ATOM     82  F   UNL A   1      41.171  35.159  36.224  1.00  0.00    -0.203 F 
ATOM     83  F   UNL A   1      37.726  33.503  40.118  1.00  0.00    -0.200 F 
ATOM     84  C   UNL A   1      39.311  35.067  39.333  1.00  0.00     0.200 A 
ATOM     85  F   UNL A   1      40.897  36.606  38.498  1.00  0.00    -0.200 F 
ATOM     86  F   UNL A   1      39.164  35.799  40.445  1.00  0.00    -0.200 F 
ENDBRANCH  52  76
BRANCH  64  87
ATOM     87  C   UNL A   1      44.103  28.548  35.111  1.00  0.00     0.064 A 
ATOM     88  C   UNL A   1      43.980  27.403  35.911  1.00  0.00     0.173 A 
ATOM     89  C   UNL A   1      45.384  29.095  34.935  1.00  0.00     0.173 A 
ATOM     90  F   UNL A   1      42.774  26.853  36.121  1.00  0.00    -0.203 F 
ATOM     91  C   UNL A   1      45.093  26.842  36.531  1.00  0.00     0.198 A 
ATOM     92  C   UNL A   1      46.498  28.514  35.533  1.00  0.00     0.198 A 
ATOM     93  F   UNL A   1      45.554  30.186  34.174  1.00  0.00    -0.203 F 
ATOM     94  F   UNL A   1      44.946  25.774  37.328  1.00  0.00    -0.200 F 
ATOM     95  C   UNL A   1      46.351  27.393  36.336  1.00  0.00     0.200 A 
ATOM     96  F   UNL A   1      47.714  29.040  35.334  1.00  0.00    -0.200 F 
ATOM     97  F   UNL A   1      47.422  26.847  36.928  1.00  0.00    -0.200 F 
ENDBRANCH  64  87
ENDBRANCH  38  39
ENDBRANCH  30  33
ENDBRANCH  28  29
ENDBRANCH  27  28
ENDBRANCH  26  27
ENDBRANCH   3  26
TORSDOF 15
ENDMDL
