MODEL 1
REMARK VINA RESULT:     -10.8      0.000      0.000
REMARK SMILES C=CCCCOc1ccc(C(=O)NCCCNC(=O)c2ccc(-c3c4nc(c(-c5c(F)c(F)c(F)c(F)c5F)c5ccc([nH]5)c(-c5c(F)c(F)c(F)c(F)c5F)c5nc(c(-c6c(F)c(F)c(F)c(F)c6F)c6ccc3[nH]6)C=C5)C=C4)cc2)cc1[N+](=O)[O-]
REMARK SMILES IDX 11 1 12 2 13 3 10 5 7 6 8 7 84 8 9 9 83 10 6 11 5 12 4 13
REMARK SMILES IDX 3 14 2 15 1 16 85 17 86 18 87 19 14 20 15 21 16 22 17 23
REMARK SMILES IDX 18 24 19 26 20 27 21 28 82 29 22 30 81 31 23 32 24 33 25 34
REMARK SMILES IDX 75 35 26 36 80 37 74 38 76 39 27 40 79 41 73 42 72 43 28 45
REMARK SMILES IDX 60 46 40 47 59 48 41 49 44 50 58 51 77 52 42 53 43 54 57 56
REMARK SMILES IDX 78 57 45 58 29 59 30 60 38 61 31 62 32 63 36 64 39 65 33 66
REMARK SMILES IDX 34 67 37 68 35 69 61 70 62 71 70 72 63 73 64 74 68 75 71 76
REMARK SMILES IDX 65 77 66 78 69 79 67 80 46 81 47 82 55 83 48 84 49 85 53 86
REMARK SMILES IDX 56 87 50 88 51 89 54 90 52 91
REMARK H PARENT 13 4 17 25 76 44 44 55
REMARK Flexibility Score: inf
ROOT
ATOM      1  C   UNL A   1      33.479  25.242  22.276  1.00  0.00     0.251 C 
ATOM      2  O   UNL A   1      33.275  25.284  21.063  1.00  0.00    -0.269 OA
ATOM      3  N   UNL A   1      33.426  26.397  23.016  1.00  0.00    -0.352 N 
ATOM      4  H   UNL A   1      33.378  27.226  22.486  1.00  0.00     0.163 HD
ENDROOT
BRANCH   1   5
ATOM      5  C   UNL A   1      33.727  23.935  22.921  1.00  0.00     0.046 A 
ATOM      6  C   UNL A   1      34.052  21.531  24.326  1.00  0.00     0.197 A 
ATOM      7  C   UNL A   1      32.852  21.796  23.661  1.00  0.00     0.055 A 
ATOM      8  C   UNL A   1      35.125  22.410  24.159  1.00  0.00     0.311 A 
ATOM      9  C   UNL A   1      32.686  22.999  22.967  1.00  0.00     0.018 A 
ATOM     10  C   UNL A   1      34.972  23.611  23.457  1.00  0.00     0.103 A 
BRANCH   6  11
ATOM     11  O   UNL A   1      34.180  20.422  25.110  1.00  0.00    -0.487 OA
BRANCH  11  12
ATOM     12  C   UNL A   1      32.927  19.819  25.475  1.00  0.00     0.230 C 
BRANCH  12  13
ATOM     13  C   UNL A   1      32.965  18.297  25.286  1.00  0.00     0.046 C 
BRANCH  13  14
ATOM     14  C   UNL A   1      33.704  17.816  24.029  1.00  0.00     0.030 C 
BRANCH  14  15
ATOM     15  C   UNL A   1      32.813  17.508  22.858  1.00  0.00    -0.035 C 
ATOM     16  C   UNL A   1      32.422  18.442  21.982  1.00  0.00     0.004 C 
ENDBRANCH  14  15
ENDBRANCH  13  14
ENDBRANCH  12  13
ENDBRANCH  11  12
ENDBRANCH   6  11
BRANCH   8  17
ATOM     17  N   UNL A   1      36.402  22.167  24.815  1.00  0.00     0.066 N 
ATOM     18  O   UNL A   1      36.578  22.730  25.907  1.00  0.00    -0.258 OA
ATOM     19  O   UNL A   1      37.231  21.453  24.241  1.00  0.00    -0.258 OA
ENDBRANCH   8  17
ENDBRANCH   1   5
BRANCH   3  20
ATOM     20  C   UNL A   1      33.432  26.591  24.461  1.00  0.00     0.118 C 
BRANCH  20  21
ATOM     21  C   UNL A   1      33.659  28.050  24.850  1.00  0.00     0.042 C 
BRANCH  21  22
ATOM     22  C   UNL A   1      34.055  28.252  26.308  1.00  0.00     0.118 C 
BRANCH  22  23
ATOM     23  N   UNL A   1      33.743  29.588  26.792  1.00  0.00    -0.352 N 
ATOM     24  C   UNL A   1      34.428  30.398  27.665  1.00  0.00     0.251 C 
ATOM     25  H   UNL A   1      32.909  29.973  26.439  1.00  0.00     0.163 HD
ATOM     26  O   UNL A   1      33.891  31.419  28.086  1.00  0.00    -0.269 OA
BRANCH  24  27
ATOM     27  C   UNL A   1      35.794  30.051  28.122  1.00  0.00     0.039 A 
ATOM     28  C   UNL A   1      35.970  29.626  29.444  1.00  0.00     0.014 A 
ATOM     29  C   UNL A   1      36.906  30.185  27.286  1.00  0.00     0.014 A 
ATOM     30  C   UNL A   1      37.243  29.285  29.906  1.00  0.00     0.010 A 
ATOM     31  C   UNL A   1      38.163  29.770  27.723  1.00  0.00     0.010 A 
ATOM     32  C   UNL A   1      38.347  29.324  29.040  1.00  0.00    -0.014 A 
BRANCH  32  33
ATOM     33  C   UNL A   1      39.699  28.907  29.496  1.00  0.00     0.031 A 
ATOM     34  C   UNL A   1      40.473  29.759  30.464  1.00  0.00     0.074 A 
ATOM     35  C   UNL A   1      40.255  27.788  28.994  1.00  0.00     0.049 A 
ATOM     36  N   UNL A   1      41.683  29.591  30.934  1.00  0.00    -0.248 NA
ATOM     37  C   UNL A   1      39.807  30.979  30.946  1.00  0.00     0.031 C 
ATOM     38  C   UNL A   1      39.625  26.897  28.020  1.00  0.00     0.029 A 
ATOM     39  N   UNL A   1      41.479  27.212  29.230  1.00  0.00    -0.354 N 
ATOM     40  C   UNL A   1      41.928  30.687  31.751  1.00  0.00     0.074 A 
ATOM     41  C   UNL A   1      40.763  31.541  31.669  1.00  0.00     0.031 C 
ATOM     42  C   UNL A   1      40.454  25.874  27.761  1.00  0.00     0.029 A 
ATOM     43  C   UNL A   1      41.687  26.056  28.519  1.00  0.00     0.049 A 
ATOM     44  H   UNL A   1      42.143  27.593  29.848  1.00  0.00     0.167 HD
ATOM     45  C   UNL A   1      43.015  30.947  32.518  1.00  0.00     0.037 A 
ATOM     46  C   UNL A   1      42.755  25.236  28.482  1.00  0.00     0.037 A 
ATOM     47  C   UNL A   1      44.166  30.085  32.609  1.00  0.00     0.049 A 
ATOM     48  C   UNL A   1      43.957  25.553  29.328  1.00  0.00     0.074 A 
ATOM     49  C   UNL A   1      45.292  30.227  33.404  1.00  0.00     0.029 A 
ATOM     50  N   UNL A   1      44.341  28.920  31.876  1.00  0.00    -0.354 N 
ATOM     51  N   UNL A   1      44.150  26.556  30.150  1.00  0.00    -0.248 NA
ATOM     52  C   UNL A   1      45.088  24.619  29.244  1.00  0.00     0.031 C 
ATOM     53  C   UNL A   1      46.169  29.177  33.112  1.00  0.00     0.029 A 
ATOM     54  C   UNL A   1      45.568  28.349  32.177  1.00  0.00     0.049 A 
ATOM     55  H   UNL A   1      43.690  28.554  31.235  1.00  0.00     0.167 HD
ATOM     56  C   UNL A   1      45.409  26.361  30.700  1.00  0.00     0.074 A 
ATOM     57  C   UNL A   1      45.929  25.136  30.129  1.00  0.00     0.031 C 
ATOM     58  C   UNL A   1      46.074  27.128  31.600  1.00  0.00     0.037 A 
BRANCH  45  59
ATOM     59  C   UNL A   1      43.011  32.223  33.311  1.00  0.00     0.064 A 
ATOM     60  C   UNL A   1      42.475  32.284  34.608  1.00  0.00     0.173 A 
ATOM     61  C   UNL A   1      43.559  33.398  32.776  1.00  0.00     0.173 A 
ATOM     62  F   UNL A   1      41.930  31.192  35.165  1.00  0.00    -0.203 F 
ATOM     63  C   UNL A   1      42.448  33.482  35.318  1.00  0.00     0.198 A 
ATOM     64  C   UNL A   1      43.561  34.586  33.502  1.00  0.00     0.198 A 
ATOM     65  F   UNL A   1      44.093  33.396  31.544  1.00  0.00    -0.203 F 
ATOM     66  F   UNL A   1      41.872  33.528  36.527  1.00  0.00    -0.200 F 
ATOM     67  C   UNL A   1      42.994  34.630  34.767  1.00  0.00     0.200 A 
ATOM     68  F   UNL A   1      44.103  35.692  32.973  1.00  0.00    -0.200 F 
ATOM     69  F   UNL A   1      42.967  35.782  35.451  1.00  0.00    -0.200 F 
ENDBRANCH  45  59
BRANCH  46  70
ATOM     70  C   UNL A   1      42.714  24.014  27.637  1.00  0.00     0.064 A 
ATOM     71  C   UNL A   1      43.045  24.075  26.276  1.00  0.00     0.173 A 
ATOM     72  C   UNL A   1      42.368  22.764  28.171  1.00  0.00     0.173 A 
ATOM     73  F   UNL A   1      43.362  25.252  25.717  1.00  0.00    -0.203 F 
ATOM     74  C   UNL A   1      43.019  22.933  25.479  1.00  0.00     0.198 A 
ATOM     75  C   UNL A   1      42.368  21.619  27.378  1.00  0.00     0.198 A 
ATOM     76  F   UNL A   1      42.047  22.655  29.469  1.00  0.00    -0.203 F 
ATOM     77  F   UNL A   1      43.305  23.025  24.172  1.00  0.00    -0.200 F 
ATOM     78  C   UNL A   1      42.688  21.706  26.031  1.00  0.00     0.200 A 
ATOM     79  F   UNL A   1      42.061  20.433  27.919  1.00  0.00    -0.200 F 
ATOM     80  F   UNL A   1      42.674  20.606  25.265  1.00  0.00    -0.200 F 
ENDBRANCH  46  70
BRANCH  58  81
ATOM     81  C   UNL A   1      47.424  26.648  32.048  1.00  0.00     0.064 A 
ATOM     82  C   UNL A   1      47.566  25.689  33.063  1.00  0.00     0.173 A 
ATOM     83  C   UNL A   1      48.590  27.130  31.432  1.00  0.00     0.173 A 
ATOM     84  F   UNL A   1      46.485  25.210  33.694  1.00  0.00    -0.203 F 
ATOM     85  C   UNL A   1      48.827  25.249  33.460  1.00  0.00     0.198 A 
ATOM     86  C   UNL A   1      49.846  26.664  31.811  1.00  0.00     0.198 A 
ATOM     87  F   UNL A   1      48.509  28.043  30.453  1.00  0.00    -0.203 F 
ATOM     88  F   UNL A   1      48.941  24.370  34.465  1.00  0.00    -0.200 F 
ATOM     89  C   UNL A   1      49.964  25.731  32.830  1.00  0.00     0.200 A 
ATOM     90  F   UNL A   1      50.943  27.121  31.191  1.00  0.00    -0.200 F 
ATOM     91  F   UNL A   1      51.175  25.302  33.209  1.00  0.00    -0.200 F 
ENDBRANCH  58  81
ENDBRANCH  32  33
ENDBRANCH  24  27
ENDBRANCH  22  23
ENDBRANCH  21  22
ENDBRANCH  20  21
ENDBRANCH   3  20
TORSDOF 16
ENDMDL
MODEL 2
REMARK VINA RESULT:     -10.8      3.206      4.770
REMARK SMILES C=CCCCOc1ccc(C(=O)NCCCNC(=O)c2ccc(-c3c4nc(c(-c5c(F)c(F)c(F)c(F)c5F)c5ccc([nH]5)c(-c5c(F)c(F)c(F)c(F)c5F)c5nc(c(-c6c(F)c(F)c(F)c(F)c6F)c6ccc3[nH]6)C=C5)C=C4)cc2)cc1[N+](=O)[O-]
REMARK SMILES IDX 11 1 12 2 13 3 10 5 7 6 8 7 84 8 9 9 83 10 6 11 5 12 4 13
REMARK SMILES IDX 3 14 2 15 1 16 85 17 86 18 87 19 14 20 15 21 16 22 17 23
REMARK SMILES IDX 18 24 19 26 20 27 21 28 82 29 22 30 81 31 23 32 24 33 25 34
REMARK SMILES IDX 75 35 26 36 80 37 74 38 76 39 27 40 79 41 73 42 72 43 28 45
REMARK SMILES IDX 60 46 40 47 59 48 41 49 44 50 58 51 77 52 42 53 43 54 57 56
REMARK SMILES IDX 78 57 45 58 29 59 30 60 38 61 31 62 32 63 36 64 39 65 33 66
REMARK SMILES IDX 34 67 37 68 35 69 61 70 62 71 70 72 63 73 64 74 68 75 71 76
REMARK SMILES IDX 65 77 66 78 69 79 67 80 46 81 47 82 55 83 48 84 49 85 53 86
REMARK SMILES IDX 56 87 50 88 51 89 54 90 52 91
REMARK H PARENT 13 4 17 25 76 44 44 55
REMARK Flexibility Score: inf
ROOT
ATOM      1  C   UNL A   1      29.759  29.358  23.191  1.00  0.00     0.251 C 
ATOM      2  O   UNL A   1      28.750  29.722  22.590  1.00  0.00    -0.269 OA
ATOM      3  N   UNL A   1      30.389  30.223  24.052  1.00  0.00    -0.352 N 
ATOM      4  H   UNL A   1      30.067  31.153  24.013  1.00  0.00     0.163 HD
ENDROOT
BRANCH   1   5
ATOM      5  C   UNL A   1      30.247  27.974  23.011  1.00  0.00     0.046 A 
ATOM      6  C   UNL A   1      31.260  25.362  22.898  1.00  0.00     0.197 A 
ATOM      7  C   UNL A   1      30.113  25.636  23.650  1.00  0.00     0.055 A 
ATOM      8  C   UNL A   1      31.799  26.372  22.098  1.00  0.00     0.311 A 
ATOM      9  C   UNL A   1      29.613  26.941  23.713  1.00  0.00     0.018 A 
ATOM     10  C   UNL A   1      31.299  27.678  22.147  1.00  0.00     0.103 A 
BRANCH   6  11
ATOM     11  O   UNL A   1      31.829  24.123  22.931  1.00  0.00    -0.487 OA
BRANCH  11  12
ATOM     12  C   UNL A   1      31.793  23.499  24.225  1.00  0.00     0.230 C 
BRANCH  12  13
ATOM     13  C   UNL A   1      33.022  23.877  25.061  1.00  0.00     0.046 C 
BRANCH  13  14
ATOM     14  C   UNL A   1      32.720  24.690  26.329  1.00  0.00     0.030 C 
BRANCH  14  15
ATOM     15  C   UNL A   1      32.709  26.179  26.129  1.00  0.00    -0.035 C 
ATOM     16  C   UNL A   1      31.825  26.983  26.732  1.00  0.00     0.004 C 
ENDBRANCH  14  15
ENDBRANCH  13  14
ENDBRANCH  12  13
ENDBRANCH  11  12
ENDBRANCH   6  11
BRANCH   8  17
ATOM     17  N   UNL A   1      32.980  26.129  21.282  1.00  0.00     0.066 N 
ATOM     18  O   UNL A   1      34.029  26.686  21.647  1.00  0.00    -0.258 OA
ATOM     19  O   UNL A   1      32.864  25.422  20.276  1.00  0.00    -0.258 OA
ENDBRANCH   8  17
ENDBRANCH   1   5
BRANCH   3  20
ATOM     20  C   UNL A   1      31.458  29.983  25.014  1.00  0.00     0.118 C 
BRANCH  20  21
ATOM     21  C   UNL A   1      31.329  30.861  26.256  1.00  0.00     0.042 C 
BRANCH  21  22
ATOM     22  C   UNL A   1      32.660  31.356  26.812  1.00  0.00     0.118 C 
BRANCH  22  23
ATOM     23  N   UNL A   1      32.657  32.785  27.079  1.00  0.00    -0.352 N 
ATOM     24  C   UNL A   1      33.433  33.529  27.935  1.00  0.00     0.251 C 
ATOM     25  H   UNL A   1      31.995  33.302  26.567  1.00  0.00     0.163 HD
ATOM     26  O   UNL A   1      33.139  34.702  28.147  1.00  0.00    -0.269 OA
BRANCH  24  27
ATOM     27  C   UNL A   1      34.605  32.935  28.620  1.00  0.00     0.039 A 
ATOM     28  C   UNL A   1      34.403  32.262  29.830  1.00  0.00     0.014 A 
ATOM     29  C   UNL A   1      35.901  33.074  28.115  1.00  0.00     0.014 A 
ATOM     30  C   UNL A   1      35.485  31.684  30.499  1.00  0.00     0.010 A 
ATOM     31  C   UNL A   1      36.968  32.432  28.741  1.00  0.00     0.010 A 
ATOM     32  C   UNL A   1      36.773  31.737  29.944  1.00  0.00    -0.014 A 
BRANCH  32  33
ATOM     33  C   UNL A   1      37.926  31.077  30.611  1.00  0.00     0.031 A 
ATOM     34  C   UNL A   1      38.281  31.417  32.032  1.00  0.00     0.074 A 
ATOM     35  C   UNL A   1      38.690  30.211  29.917  1.00  0.00     0.049 A 
ATOM     36  N   UNL A   1      39.280  30.988  32.763  1.00  0.00    -0.248 NA
ATOM     37  C   UNL A   1      37.414  32.390  32.713  1.00  0.00     0.031 C 
ATOM     38  C   UNL A   1      38.475  29.829  28.522  1.00  0.00     0.029 A 
ATOM     39  N   UNL A   1      39.805  29.503  30.289  1.00  0.00    -0.354 N 
ATOM     40  C   UNL A   1      39.169  31.650  33.979  1.00  0.00     0.074 A 
ATOM     41  C   UNL A   1      38.041  32.548  33.869  1.00  0.00     0.031 C 
ATOM     42  C   UNL A   1      39.410  28.935  28.162  1.00  0.00     0.029 A 
ATOM     43  C   UNL A   1      40.312  28.711  29.288  1.00  0.00     0.049 A 
ATOM     44  H   UNL A   1      40.203  29.558  31.188  1.00  0.00     0.167 HD
ATOM     45  C   UNL A   1      39.926  31.505  35.095  1.00  0.00     0.037 A 
ATOM     46  C   UNL A   1      41.386  27.899  29.278  1.00  0.00     0.037 A 
ATOM     47  C   UNL A   1      41.039  30.597  35.206  1.00  0.00     0.049 A 
ATOM     48  C   UNL A   1      42.220  27.766  30.522  1.00  0.00     0.074 A 
ATOM     49  C   UNL A   1      41.830  30.330  36.311  1.00  0.00     0.029 A 
ATOM     50  N   UNL A   1      41.522  29.809  34.171  1.00  0.00    -0.354 N 
ATOM     51  N   UNL A   1      42.066  28.344  31.688  1.00  0.00    -0.248 NA
ATOM     52  C   UNL A   1      43.377  26.863  30.448  1.00  0.00     0.031 C 
ATOM     53  C   UNL A   1      42.823  29.421  35.929  1.00  0.00     0.029 A 
ATOM     54  C   UNL A   1      42.618  29.078  34.603  1.00  0.00     0.049 A 
ATOM     55  H   UNL A   1      41.143  29.775  33.263  1.00  0.00     0.167 HD
ATOM     56  C   UNL A   1      43.086  27.856  32.494  1.00  0.00     0.074 A 
ATOM     57  C   UNL A   1      43.845  26.924  31.687  1.00  0.00     0.031 C 
ATOM     58  C   UNL A   1      43.366  28.153  33.787  1.00  0.00     0.037 A 
BRANCH  45  59
ATOM     59  C   UNL A   1      39.576  32.358  36.281  1.00  0.00     0.064 A 
ATOM     60  C   UNL A   1      40.266  33.548  36.564  1.00  0.00     0.173 A 
ATOM     61  C   UNL A   1      38.532  31.989  37.143  1.00  0.00     0.173 A 
ATOM     62  F   UNL A   1      41.279  33.944  35.778  1.00  0.00    -0.203 F 
ATOM     63  C   UNL A   1      39.953  34.311  37.686  1.00  0.00     0.198 A 
ATOM     64  C   UNL A   1      38.198  32.773  38.245  1.00  0.00     0.198 A 
ATOM     65  F   UNL A   1      37.833  30.866  36.917  1.00  0.00    -0.203 F 
ATOM     66  F   UNL A   1      40.669  35.408  37.969  1.00  0.00    -0.200 F 
ATOM     67  C   UNL A   1      38.917  33.926  38.523  1.00  0.00     0.200 A 
ATOM     68  F   UNL A   1      37.188  32.406  39.045  1.00  0.00    -0.200 F 
ATOM     69  F   UNL A   1      38.617  34.661  39.602  1.00  0.00    -0.200 F 
ENDBRANCH  45  59
BRANCH  46  70
ATOM     70  C   UNL A   1      41.706  27.119  28.055  1.00  0.00     0.064 A 
ATOM     71  C   UNL A   1      42.569  27.640  27.080  1.00  0.00     0.173 A 
ATOM     72  C   UNL A   1      41.179  25.837  27.843  1.00  0.00     0.173 A 
ATOM     73  F   UNL A   1      43.080  28.870  27.229  1.00  0.00    -0.203 F 
ATOM     74  C   UNL A   1      42.883  26.912  25.935  1.00  0.00     0.198 A 
ATOM     75  C   UNL A   1      41.514  25.100  26.710  1.00  0.00     0.198 A 
ATOM     76  F   UNL A   1      40.351  25.293  28.748  1.00  0.00    -0.203 F 
ATOM     77  F   UNL A   1      43.682  27.448  25.002  1.00  0.00    -0.200 F 
ATOM     78  C   UNL A   1      42.362  25.641  25.753  1.00  0.00     0.200 A 
ATOM     79  F   UNL A   1      41.020  23.866  26.545  1.00  0.00    -0.200 F 
ATOM     80  F   UNL A   1      42.673  24.937  24.656  1.00  0.00    -0.200 F 
ENDBRANCH  46  70
BRANCH  58  81
ATOM     81  C   UNL A   1      44.524  27.438  34.422  1.00  0.00     0.064 A 
ATOM     82  C   UNL A   1      45.814  27.992  34.435  1.00  0.00     0.173 A 
ATOM     83  C   UNL A   1      44.335  26.199  35.052  1.00  0.00     0.173 A 
ATOM     84  F   UNL A   1      46.050  29.166  33.832  1.00  0.00    -0.203 F 
ATOM     85  C   UNL A   1      46.875  27.319  35.036  1.00  0.00     0.198 A 
ATOM     86  C   UNL A   1      45.392  25.544  35.679  1.00  0.00     0.198 A 
ATOM     87  F   UNL A   1      43.121  25.629  35.072  1.00  0.00    -0.203 F 
ATOM     88  F   UNL A   1      48.107  27.843  34.994  1.00  0.00    -0.200 F 
ATOM     89  C   UNL A   1      46.663  26.101  35.662  1.00  0.00     0.200 A 
ATOM     90  F   UNL A   1      45.182  24.374  36.295  1.00  0.00    -0.200 F 
ATOM     91  F   UNL A   1      47.683  25.457  36.245  1.00  0.00    -0.200 F 
ENDBRANCH  58  81
ENDBRANCH  32  33
ENDBRANCH  24  27
ENDBRANCH  22  23
ENDBRANCH  21  22
ENDBRANCH  20  21
ENDBRANCH   3  20
TORSDOF 16
ENDMDL
MODEL 3
REMARK VINA RESULT:     -10.7      3.588      8.960
REMARK SMILES C=CCCCOc1ccc(C(=O)NCCCNC(=O)c2ccc(-c3c4nc(c(-c5c(F)c(F)c(F)c(F)c5F)c5ccc([nH]5)c(-c5c(F)c(F)c(F)c(F)c5F)c5nc(c(-c6c(F)c(F)c(F)c(F)c6F)c6ccc3[nH]6)C=C5)C=C4)cc2)cc1[N+](=O)[O-]
REMARK SMILES IDX 11 1 12 2 13 3 10 5 7 6 8 7 84 8 9 9 83 10 6 11 5 12 4 13
REMARK SMILES IDX 3 14 2 15 1 16 85 17 86 18 87 19 14 20 15 21 16 22 17 23
REMARK SMILES IDX 18 24 19 26 20 27 21 28 82 29 22 30 81 31 23 32 24 33 25 34
REMARK SMILES IDX 75 35 26 36 80 37 74 38 76 39 27 40 79 41 73 42 72 43 28 45
REMARK SMILES IDX 60 46 40 47 59 48 41 49 44 50 58 51 77 52 42 53 43 54 57 56
REMARK SMILES IDX 78 57 45 58 29 59 30 60 38 61 31 62 32 63 36 64 39 65 33 66
REMARK SMILES IDX 34 67 37 68 35 69 61 70 62 71 70 72 63 73 64 74 68 75 71 76
REMARK SMILES IDX 65 77 66 78 69 79 67 80 46 81 47 82 55 83 48 84 49 85 53 86
REMARK SMILES IDX 56 87 50 88 51 89 54 90 52 91
REMARK H PARENT 13 4 17 25 76 44 44 55
REMARK Flexibility Score: inf
ROOT
ATOM      1  C   UNL A   1      30.448  29.575  23.849  1.00  0.00     0.251 C 
ATOM      2  O   UNL A   1      29.571  29.597  22.987  1.00  0.00    -0.269 OA
ATOM      3  N   UNL A   1      30.627  30.665  24.665  1.00  0.00    -0.352 N 
ATOM      4  H   UNL A   1      30.126  31.470  24.397  1.00  0.00     0.163 HD
ENDROOT
BRANCH   1   5
ATOM      5  C   UNL A   1      31.262  28.353  24.021  1.00  0.00     0.046 A 
ATOM      6  C   UNL A   1      32.755  25.982  24.116  1.00  0.00     0.197 A 
ATOM      7  C   UNL A   1      33.251  27.095  23.430  1.00  0.00     0.055 A 
ATOM      8  C   UNL A   1      31.584  26.118  24.866  1.00  0.00     0.311 A 
ATOM      9  C   UNL A   1      32.503  28.275  23.376  1.00  0.00     0.018 A 
ATOM     10  C   UNL A   1      30.834  27.299  24.826  1.00  0.00     0.103 A 
BRANCH   6  11
ATOM     11  O   UNL A   1      33.414  24.789  24.070  1.00  0.00    -0.487 OA
BRANCH  11  12
ATOM     12  C   UNL A   1      34.772  24.855  24.538  1.00  0.00     0.230 C 
BRANCH  12  13
ATOM     13  C   UNL A   1      35.545  23.577  24.191  1.00  0.00     0.046 C 
BRANCH  13  14
ATOM     14  C   UNL A   1      36.687  23.226  25.157  1.00  0.00     0.030 C 
BRANCH  14  15
ATOM     15  C   UNL A   1      36.632  21.830  25.709  1.00  0.00    -0.035 C 
ATOM     16  C   UNL A   1      36.433  20.754  24.938  1.00  0.00     0.004 C 
ENDBRANCH  14  15
ENDBRANCH  13  14
ENDBRANCH  12  13
ENDBRANCH  11  12
ENDBRANCH   6  11
BRANCH   8  17
ATOM     17  N   UNL A   1      31.039  24.995  25.613  1.00  0.00     0.066 N 
ATOM     18  O   UNL A   1      31.007  25.115  26.848  1.00  0.00    -0.258 OA
ATOM     19  O   UNL A   1      30.676  23.993  24.986  1.00  0.00    -0.258 OA
ENDBRANCH   8  17
ENDBRANCH   1   5
BRANCH   3  20
ATOM     20  C   UNL A   1      31.440  30.819  25.865  1.00  0.00     0.118 C 
BRANCH  20  21
ATOM     21  C   UNL A   1      31.250  32.183  26.524  1.00  0.00     0.042 C 
BRANCH  21  22
ATOM     22  C   UNL A   1      32.518  32.757  27.148  1.00  0.00     0.118 C 
BRANCH  22  23
ATOM     23  N   UNL A   1      32.356  34.138  27.572  1.00  0.00    -0.352 N 
ATOM     24  C   UNL A   1      32.992  34.842  28.566  1.00  0.00     0.251 C 
ATOM     25  H   UNL A   1      31.684  34.651  27.068  1.00  0.00     0.163 HD
ATOM     26  O   UNL A   1      32.570  35.951  28.882  1.00  0.00    -0.269 OA
BRANCH  24  27
ATOM     27  C   UNL A   1      34.165  34.278  29.273  1.00  0.00     0.039 A 
ATOM     28  C   UNL A   1      33.946  33.488  30.408  1.00  0.00     0.014 A 
ATOM     29  C   UNL A   1      35.473  34.555  28.867  1.00  0.00     0.014 A 
ATOM     30  C   UNL A   1      35.029  32.935  31.096  1.00  0.00     0.010 A 
ATOM     31  C   UNL A   1      36.549  33.941  29.506  1.00  0.00     0.010 A 
ATOM     32  C   UNL A   1      36.339  33.131  30.632  1.00  0.00    -0.014 A 
BRANCH  32  33
ATOM     33  C   UNL A   1      37.500  32.501  31.315  1.00  0.00     0.031 A 
ATOM     34  C   UNL A   1      38.250  31.375  30.659  1.00  0.00     0.074 A 
ATOM     35  C   UNL A   1      37.843  32.904  32.554  1.00  0.00     0.049 A 
ATOM     36  N   UNL A   1      39.250  30.666  31.118  1.00  0.00    -0.248 NA
ATOM     37  C   UNL A   1      37.798  30.976  29.318  1.00  0.00     0.031 C 
ATOM     38  C   UNL A   1      37.170  33.957  33.314  1.00  0.00     0.029 A 
ATOM     39  N   UNL A   1      38.839  32.471  33.393  1.00  0.00    -0.354 N 
ATOM     40  C   UNL A   1      39.535  29.730  30.132  1.00  0.00     0.074 A 
ATOM     41  C   UNL A   1      38.567  29.926  29.075  1.00  0.00     0.031 C 
ATOM     42  C   UNL A   1      37.788  34.108  34.497  1.00  0.00     0.029 A 
ATOM     43  C   UNL A   1      38.874  33.138  34.593  1.00  0.00     0.049 A 
ATOM     44  H   UNL A   1      39.467  31.751  33.156  1.00  0.00     0.167 HD
ATOM     45  C   UNL A   1      40.526  28.806  30.101  1.00  0.00     0.037 A 
ATOM     46  C   UNL A   1      39.689  32.982  35.653  1.00  0.00     0.037 A 
ATOM     47  C   UNL A   1      41.498  28.625  31.149  1.00  0.00     0.049 A 
ATOM     48  C   UNL A   1      40.772  31.940  35.603  1.00  0.00     0.074 A 
ATOM     49  C   UNL A   1      42.579  27.761  31.186  1.00  0.00     0.029 A 
ATOM     50  N   UNL A   1      41.503  29.321  32.350  1.00  0.00    -0.354 N 
ATOM     51  N   UNL A   1      41.075  31.107  34.638  1.00  0.00    -0.248 NA
ATOM     52  C   UNL A   1      41.629  31.820  36.790  1.00  0.00     0.031 C 
ATOM     53  C   UNL A   1      43.206  27.896  32.430  1.00  0.00     0.029 A 
ATOM     54  C   UNL A   1      42.551  28.885  33.147  1.00  0.00     0.049 A 
ATOM     55  H   UNL A   1      40.858  30.020  32.600  1.00  0.00     0.167 HD
ATOM     56  C   UNL A   1      42.172  30.384  35.088  1.00  0.00     0.074 A 
ATOM     57  C   UNL A   1      42.489  30.886  36.408  1.00  0.00     0.031 C 
ATOM     58  C   UNL A   1      42.855  29.394  34.461  1.00  0.00     0.037 A 
BRANCH  45  59
ATOM     59  C   UNL A   1      40.600  27.913  28.894  1.00  0.00     0.064 A 
ATOM     60  C   UNL A   1      41.402  28.234  27.787  1.00  0.00     0.173 A 
ATOM     61  C   UNL A   1      39.869  26.718  28.845  1.00  0.00     0.173 A 
ATOM     62  F   UNL A   1      42.116  29.369  27.777  1.00  0.00    -0.203 F 
ATOM     63  C   UNL A   1      41.435  27.413  26.662  1.00  0.00     0.198 A 
ATOM     64  C   UNL A   1      39.930  25.882  27.733  1.00  0.00     0.198 A 
ATOM     65  F   UNL A   1      39.091  26.357  29.878  1.00  0.00    -0.203 F 
ATOM     66  F   UNL A   1      42.158  27.774  25.593  1.00  0.00    -0.200 F 
ATOM     67  C   UNL A   1      40.703  26.237  26.637  1.00  0.00     0.200 A 
ATOM     68  F   UNL A   1      39.232  24.738  27.716  1.00  0.00    -0.200 F 
ATOM     69  F   UNL A   1      40.734  25.449  25.554  1.00  0.00    -0.200 F 
ENDBRANCH  45  59
BRANCH  46  70
ATOM     70  C   UNL A   1      39.532  33.865  36.838  1.00  0.00     0.064 A 
ATOM     71  C   UNL A   1      38.756  33.461  37.933  1.00  0.00     0.173 A 
ATOM     72  C   UNL A   1      40.165  35.115  36.910  1.00  0.00     0.173 A 
ATOM     73  F   UNL A   1      38.115  32.284  37.899  1.00  0.00    -0.203 F 
ATOM     74  C   UNL A   1      38.611  34.278  39.052  1.00  0.00     0.198 A 
ATOM     75  C   UNL A   1      40.040  35.919  38.040  1.00  0.00     0.198 A 
ATOM     76  F   UNL A   1      40.921  35.545  35.889  1.00  0.00    -0.203 F 
ATOM     77  F   UNL A   1      37.834  33.882  40.070  1.00  0.00    -0.200 F 
ATOM     78  C   UNL A   1      39.258  35.502  39.108  1.00  0.00     0.200 A 
ATOM     79  F   UNL A   1      40.678  37.095  38.097  1.00  0.00    -0.200 F 
ATOM     80  F   UNL A   1      39.126  36.283  40.190  1.00  0.00    -0.200 F 
ENDBRANCH  46  70
BRANCH  58  81
ATOM     81  C   UNL A   1      44.035  28.810  35.182  1.00  0.00     0.064 A 
ATOM     82  C   UNL A   1      45.326  29.341  35.035  1.00  0.00     0.173 A 
ATOM     83  C   UNL A   1      43.867  27.726  36.058  1.00  0.00     0.173 A 
ATOM     84  F   UNL A   1      45.542  30.366  34.199  1.00  0.00    -0.203 F 
ATOM     85  C   UNL A   1      46.408  28.791  35.719  1.00  0.00     0.198 A 
ATOM     86  C   UNL A   1      44.946  27.199  36.763  1.00  0.00     0.198 A 
ATOM     87  F   UNL A   1      42.653  27.185  36.239  1.00  0.00    -0.203 F 
ATOM     88  F   UNL A   1      47.639  29.283  35.526  1.00  0.00    -0.200 F 
ATOM     89  C   UNL A   1      46.216  27.727  36.587  1.00  0.00     0.200 A 
ATOM     90  F   UNL A   1      44.756  26.180  37.612  1.00  0.00    -0.200 F 
ATOM     91  F   UNL A   1      47.257  27.204  37.249  1.00  0.00    -0.200 F 
ENDBRANCH  58  81
ENDBRANCH  32  33
ENDBRANCH  24  27
ENDBRANCH  22  23
ENDBRANCH  21  22
ENDBRANCH  20  21
ENDBRANCH   3  20
TORSDOF 16
ENDMDL
