MODEL 1
REMARK VINA RESULT:     -11.7      0.000      0.000
REMARK SMILES CC1=C(CCC(=O)NCCCNC(=O)c2ccc(-c3c4nc(c(-c5c(F)c(F)c(F)c(F)c5F)c5ccc([nH]5)c(-c5c(F)c(F)c(F)c(F)c5F)c5nc(c(-c6c(F)c(F)c(F)c(F)c6F)c6ccc3[nH]6)C=C5)C=C4)cc2)N=N[C@H]1C
REMARK SMILES IDX 10 1 9 2 8 3 6 4 7 5 5 7 4 8 3 9 1 10 2 11 80 12 78 13 79 14
REMARK SMILES IDX 81 15 11 16 12 17 13 18 14 20 15 21 16 22 77 23 17 24 76 25
REMARK SMILES IDX 18 26 19 27 20 28 70 29 21 30 75 31 69 32 71 33 22 34 74 35
REMARK SMILES IDX 68 36 67 37 23 39 55 40 35 41 54 42 36 43 39 44 53 45 72 46
REMARK SMILES IDX 37 47 38 48 52 50 73 51 40 52 24 53 25 54 33 55 26 56 27 57
REMARK SMILES IDX 31 58 34 59 28 60 29 61 32 62 30 63 56 64 57 65 65 66 58 67
REMARK SMILES IDX 59 68 63 69 66 70 60 71 61 72 64 73 62 74 41 75 42 76 50 77
REMARK SMILES IDX 43 78 44 79 48 80 51 81 45 82 46 83 49 84 47 85
REMARK H PARENT 8 6 12 19 71 38 39 49
REMARK Flexibility Score: inf
ROOT
ATOM      1  C   UNL A   1      34.429  35.515  28.352  1.00  0.00     0.042 C 
ENDROOT
BRANCH   1   2
ATOM      2  C   UNL A   1      33.179  35.678  29.207  1.00  0.00     0.117 C 
BRANCH   2   3
ATOM      3  N   UNL A   1      33.269  36.894  30.003  1.00  0.00    -0.356 N 
ATOM      4  C   UNL A   1      33.026  37.074  31.333  1.00  0.00     0.220 C 
ATOM      5  O   UNL A   1      32.903  38.226  31.751  1.00  0.00    -0.275 OA
ATOM      6  H   UNL A   1      33.546  37.700  29.511  1.00  0.00     0.163 HD
BRANCH   4   7
ATOM      7  C   UNL A   1      32.982  35.888  32.280  1.00  0.00     0.106 C 
BRANCH   7   8
ATOM      8  C   UNL A   1      34.302  35.591  33.003  1.00  0.00     0.068 C 
BRANCH   8   9
ATOM      9  C   UNL A   1      34.784  34.181  32.831  1.00  0.00     0.064 C 
ATOM     10  C   UNL A   1      36.169  33.745  34.947  1.00  0.00     0.044 C 
ATOM     11  C   UNL A   1      35.596  33.464  33.614  1.00  0.00    -0.024 C 
ATOM     12  C   UNL A   1      35.855  32.195  32.876  1.00  0.00     0.153 C 
ATOM     13  N   UNL A   1      34.346  33.446  31.761  1.00  0.00    -0.160 NA
ATOM     14  N   UNL A   1      34.926  32.325  31.722  1.00  0.00    -0.181 NA
ATOM     15  C   UNL A   1      37.296  32.100  32.377  1.00  0.00     0.040 C 
ENDBRANCH   8   9
ENDBRANCH   7   8
ENDBRANCH   4   7
ENDBRANCH   2   3
ENDBRANCH   1   2
BRANCH   1  16
ATOM     16  C   UNL A   1      35.082  34.166  28.459  1.00  0.00     0.118 C 
BRANCH  16  17
ATOM     17  N   UNL A   1      34.163  33.033  28.373  1.00  0.00    -0.352 N 
ATOM     18  C   UNL A   1      34.497  31.714  28.108  1.00  0.00     0.251 C 
ATOM     19  H   UNL A   1      33.209  33.227  28.517  1.00  0.00     0.163 HD
ATOM     20  O   UNL A   1      33.633  30.891  27.817  1.00  0.00    -0.269 OA
BRANCH  18  21
ATOM     21  C   UNL A   1      35.924  31.326  28.146  1.00  0.00     0.039 A 
ATOM     22  C   UNL A   1      36.884  32.111  28.783  1.00  0.00     0.014 A 
ATOM     23  C   UNL A   1      36.275  30.084  27.627  1.00  0.00     0.014 A 
ATOM     24  C   UNL A   1      38.158  31.579  28.973  1.00  0.00     0.010 A 
ATOM     25  C   UNL A   1      37.421  29.472  28.048  1.00  0.00     0.010 A 
ATOM     26  C   UNL A   1      38.408  30.234  28.640  1.00  0.00    -0.014 A 
BRANCH  26  27
ATOM     27  C   UNL A   1      39.660  29.575  29.005  1.00  0.00     0.031 A 
ATOM     28  C   UNL A   1      39.875  29.497  30.466  1.00  0.00     0.074 A 
ATOM     29  C   UNL A   1      40.487  28.958  28.129  1.00  0.00     0.049 A 
ATOM     30  N   UNL A   1      40.655  30.256  31.158  1.00  0.00    -0.248 NA
ATOM     31  C   UNL A   1      39.005  28.636  31.282  1.00  0.00     0.031 C 
ATOM     32  C   UNL A   1      40.265  28.697  26.699  1.00  0.00     0.029 A 
ATOM     33  N   UNL A   1      41.686  28.343  28.353  1.00  0.00    -0.354 N 
ATOM     34  C   UNL A   1      40.576  29.787  32.462  1.00  0.00     0.074 A 
ATOM     35  C   UNL A   1      39.399  28.962  32.518  1.00  0.00     0.031 C 
ATOM     36  C   UNL A   1      41.152  27.782  26.254  1.00  0.00     0.029 A 
ATOM     37  C   UNL A   1      42.126  27.544  27.300  1.00  0.00     0.049 A 
ATOM     38  H   UNL A   1      42.196  28.455  29.188  1.00  0.00     0.167 HD
ATOM     39  C   UNL A   1      41.678  29.853  33.258  1.00  0.00     0.037 A 
ATOM     40  C   UNL A   1      43.223  26.749  27.277  1.00  0.00     0.037 A 
ATOM     41  C   UNL A   1      42.670  30.722  32.663  1.00  0.00     0.049 A 
ATOM     42  C   UNL A   1      44.155  27.282  28.293  1.00  0.00     0.074 A 
ATOM     43  C   UNL A   1      42.768  32.061  32.344  1.00  0.00     0.029 A 
ATOM     44  N   UNL A   1      43.607  30.063  31.912  1.00  0.00    -0.354 N 
ATOM     45  N   UNL A   1      44.769  28.427  28.181  1.00  0.00    -0.248 NA
ATOM     46  C   UNL A   1      44.145  26.706  29.631  1.00  0.00     0.031 C 
ATOM     47  C   UNL A   1      43.604  32.125  31.188  1.00  0.00     0.029 A 
ATOM     48  C   UNL A   1      44.043  30.839  30.876  1.00  0.00     0.049 A 
ATOM     49  H   UNL A   1      43.926  29.150  32.095  1.00  0.00     0.167 HD
ATOM     50  C   UNL A   1      44.792  28.922  29.470  1.00  0.00     0.074 A 
ATOM     51  C   UNL A   1      44.585  27.758  30.324  1.00  0.00     0.031 C 
ATOM     52  C   UNL A   1      44.643  30.262  29.692  1.00  0.00     0.037 A 
BRANCH  39  53
ATOM     53  C   UNL A   1      42.106  28.758  34.221  1.00  0.00     0.064 A 
ATOM     54  C   UNL A   1      42.511  29.134  35.520  1.00  0.00     0.173 A 
ATOM     55  C   UNL A   1      42.479  27.452  33.830  1.00  0.00     0.173 A 
ATOM     56  F   UNL A   1      42.231  30.359  35.993  1.00  0.00    -0.203 F 
ATOM     57  C   UNL A   1      43.312  28.311  36.316  1.00  0.00     0.198 A 
ATOM     58  C   UNL A   1      43.235  26.614  34.647  1.00  0.00     0.198 A 
ATOM     59  F   UNL A   1      42.243  26.973  32.605  1.00  0.00    -0.203 F 
ATOM     60  F   UNL A   1      43.792  28.771  37.479  1.00  0.00    -0.200 F 
ATOM     61  C   UNL A   1      43.681  27.055  35.874  1.00  0.00     0.200 A 
ATOM     62  F   UNL A   1      43.606  25.410  34.189  1.00  0.00    -0.200 F 
ATOM     63  F   UNL A   1      44.507  26.290  36.600  1.00  0.00    -0.200 F 
ENDBRANCH  39  53
BRANCH  40  64
ATOM     64  C   UNL A   1      43.453  25.455  26.593  1.00  0.00     0.064 A 
ATOM     65  C   UNL A   1      44.415  25.341  25.574  1.00  0.00     0.173 A 
ATOM     66  C   UNL A   1      42.966  24.248  27.128  1.00  0.00     0.173 A 
ATOM     67  F   UNL A   1      44.951  26.442  25.024  1.00  0.00    -0.203 F 
ATOM     68  C   UNL A   1      44.910  24.100  25.164  1.00  0.00     0.198 A 
ATOM     69  C   UNL A   1      43.455  23.007  26.711  1.00  0.00     0.198 A 
ATOM     70  F   UNL A   1      42.082  24.248  28.136  1.00  0.00    -0.203 F 
ATOM     71  F   UNL A   1      45.891  24.040  24.252  1.00  0.00    -0.200 F 
ATOM     72  C   UNL A   1      44.443  22.935  25.747  1.00  0.00     0.200 A 
ATOM     73  F   UNL A   1      43.017  21.887  27.303  1.00  0.00    -0.200 F 
ATOM     74  F   UNL A   1      44.973  21.751  25.411  1.00  0.00    -0.200 F 
ENDBRANCH  40  64
BRANCH  52  75
ATOM     75  C   UNL A   1      44.995  31.187  28.566  1.00  0.00     0.064 A 
ATOM     76  C   UNL A   1      44.157  31.503  27.483  1.00  0.00     0.173 A 
ATOM     77  C   UNL A   1      46.236  31.837  28.633  1.00  0.00     0.173 A 
ATOM     78  F   UNL A   1      42.923  30.993  27.388  1.00  0.00    -0.203 F 
ATOM     79  C   UNL A   1      44.572  32.389  26.489  1.00  0.00     0.198 A 
ATOM     80  C   UNL A   1      46.629  32.752  27.663  1.00  0.00     0.198 A 
ATOM     81  F   UNL A   1      47.062  31.605  29.667  1.00  0.00    -0.203 F 
ATOM     82  F   UNL A   1      43.771  32.652  25.446  1.00  0.00    -0.200 F 
ATOM     83  C   UNL A   1      45.805  33.017  26.584  1.00  0.00     0.200 A 
ATOM     84  F   UNL A   1      47.802  33.387  27.786  1.00  0.00    -0.200 F 
ATOM     85  F   UNL A   1      46.190  33.890  25.643  1.00  0.00    -0.200 F 
ENDBRANCH  52  75
ENDBRANCH  26  27
ENDBRANCH  18  21
ENDBRANCH  16  17
ENDBRANCH   1  16
TORSDOF 12
ENDMDL
MODEL 2
REMARK VINA RESULT:     -11.5      6.436     10.746
REMARK SMILES CC1=C(CCC(=O)NCCCNC(=O)c2ccc(-c3c4nc(c(-c5c(F)c(F)c(F)c(F)c5F)c5ccc([nH]5)c(-c5c(F)c(F)c(F)c(F)c5F)c5nc(c(-c6c(F)c(F)c(F)c(F)c6F)c6ccc3[nH]6)C=C5)C=C4)cc2)N=N[C@H]1C
REMARK SMILES IDX 10 1 9 2 8 3 6 4 7 5 5 7 4 8 3 9 1 10 2 11 80 12 78 13 79 14
REMARK SMILES IDX 81 15 11 16 12 17 13 18 14 20 15 21 16 22 77 23 17 24 76 25
REMARK SMILES IDX 18 26 19 27 20 28 70 29 21 30 75 31 69 32 71 33 22 34 74 35
REMARK SMILES IDX 68 36 67 37 23 39 55 40 35 41 54 42 36 43 39 44 53 45 72 46
REMARK SMILES IDX 37 47 38 48 52 50 73 51 40 52 24 53 25 54 33 55 26 56 27 57
REMARK SMILES IDX 31 58 34 59 28 60 29 61 32 62 30 63 56 64 57 65 65 66 58 67
REMARK SMILES IDX 59 68 63 69 66 70 60 71 61 72 64 73 62 74 41 75 42 76 50 77
REMARK SMILES IDX 43 78 44 79 48 80 51 81 45 82 46 83 49 84 47 85
REMARK H PARENT 8 6 12 19 71 38 39 49
REMARK Flexibility Score: inf
ROOT
ATOM      1  C   UNL A   1      41.873  38.918  26.765  1.00  0.00     0.042 C 
ENDROOT
BRANCH   1   2
ATOM      2  C   UNL A   1      41.404  40.338  26.475  1.00  0.00     0.117 C 
BRANCH   2   3
ATOM      3  N   UNL A   1      42.540  41.249  26.458  1.00  0.00    -0.356 N 
ATOM      4  C   UNL A   1      43.098  41.911  25.404  1.00  0.00     0.220 C 
ATOM      5  O   UNL A   1      44.209  42.419  25.559  1.00  0.00    -0.275 OA
ATOM      6  H   UNL A   1      42.965  41.409  27.331  1.00  0.00     0.163 HD
BRANCH   4   7
ATOM      7  C   UNL A   1      42.336  42.077  24.101  1.00  0.00     0.106 C 
BRANCH   7   8
ATOM      8  C   UNL A   1      42.666  43.355  23.320  1.00  0.00     0.068 C 
BRANCH   8   9
ATOM      9  C   UNL A   1      42.436  43.240  21.842  1.00  0.00     0.064 C 
ATOM     10  C   UNL A   1      44.795  42.937  20.878  1.00  0.00     0.044 C 
ATOM     11  C   UNL A   1      43.329  43.126  20.854  1.00  0.00    -0.024 C 
ATOM     12  C   UNL A   1      42.547  43.209  19.588  1.00  0.00     0.153 C 
ATOM     13  N   UNL A   1      41.153  43.204  21.362  1.00  0.00    -0.160 NA
ATOM     14  N   UNL A   1      41.150  43.203  20.098  1.00  0.00    -0.181 NA
ATOM     15  C   UNL A   1      42.818  44.505  18.826  1.00  0.00     0.040 C 
ENDBRANCH   8   9
ENDBRANCH   7   8
ENDBRANCH   4   7
ENDBRANCH   2   3
ENDBRANCH   1   2
BRANCH   1  16
ATOM     16  C   UNL A   1      42.967  38.824  27.791  1.00  0.00     0.118 C 
BRANCH  16  17
ATOM     17  N   UNL A   1      44.221  38.259  27.296  1.00  0.00    -0.352 N 
ATOM     18  C   UNL A   1      44.893  37.160  27.808  1.00  0.00     0.251 C 
ATOM     19  H   UNL A   1      44.630  38.705  26.519  1.00  0.00     0.163 HD
ATOM     20  O   UNL A   1      46.051  36.919  27.478  1.00  0.00    -0.269 OA
BRANCH  18  21
ATOM     21  C   UNL A   1      44.197  36.303  28.793  1.00  0.00     0.039 A 
ATOM     22  C   UNL A   1      44.113  36.649  30.141  1.00  0.00     0.014 A 
ATOM     23  C   UNL A   1      43.516  35.186  28.319  1.00  0.00     0.014 A 
ATOM     24  C   UNL A   1      43.259  35.917  30.963  1.00  0.00     0.010 A 
ATOM     25  C   UNL A   1      42.493  34.654  29.051  1.00  0.00     0.010 A 
ATOM     26  C   UNL A   1      42.413  34.943  30.398  1.00  0.00    -0.014 A 
BRANCH  26  27
ATOM     27  C   UNL A   1      41.363  34.295  31.180  1.00  0.00     0.031 A 
ATOM     28  C   UNL A   1      41.760  34.023  32.579  1.00  0.00     0.074 A 
ATOM     29  C   UNL A   1      40.098  34.088  30.744  1.00  0.00     0.049 A 
ATOM     30  N   UNL A   1      42.123  32.880  33.054  1.00  0.00    -0.248 NA
ATOM     31  C   UNL A   1      41.970  35.146  33.504  1.00  0.00     0.031 C 
ATOM     32  C   UNL A   1      39.476  34.563  29.500  1.00  0.00     0.029 A 
ATOM     33  N   UNL A   1      39.054  33.471  31.373  1.00  0.00    -0.354 N 
ATOM     34  C   UNL A   1      42.349  33.090  34.407  1.00  0.00     0.074 A 
ATOM     35  C   UNL A   1      42.462  34.514  34.575  1.00  0.00     0.031 C 
ATOM     36  C   UNL A   1      38.134  34.440  29.579  1.00  0.00     0.029 A 
ATOM     37  C   UNL A   1      37.814  33.697  30.781  1.00  0.00     0.049 A 
ATOM     38  H   UNL A   1      39.169  32.912  32.176  1.00  0.00     0.167 HD
ATOM     39  C   UNL A   1      42.072  32.090  35.287  1.00  0.00     0.037 A 
ATOM     40  C   UNL A   1      36.603  33.293  31.234  1.00  0.00     0.037 A 
ATOM     41  C   UNL A   1      41.885  30.842  34.580  1.00  0.00     0.049 A 
ATOM     42  C   UNL A   1      36.845  32.130  32.114  1.00  0.00     0.074 A 
ATOM     43  C   UNL A   1      42.658  30.003  33.804  1.00  0.00     0.029 A 
ATOM     44  N   UNL A   1      40.576  30.558  34.292  1.00  0.00    -0.354 N 
ATOM     45  N   UNL A   1      37.264  30.973  31.683  1.00  0.00    -0.248 NA
ATOM     46  C   UNL A   1      36.967  32.345  33.550  1.00  0.00     0.031 C 
ATOM     47  C   UNL A   1      41.765  29.413  32.859  1.00  0.00     0.029 A 
ATOM     48  C   UNL A   1      40.469  29.855  33.126  1.00  0.00     0.049 A 
ATOM     49  H   UNL A   1      39.812  30.826  34.852  1.00  0.00     0.167 HD
ATOM     50  C   UNL A   1      38.113  30.532  32.680  1.00  0.00     0.074 A 
ATOM     51  C   UNL A   1      37.738  31.301  33.861  1.00  0.00     0.031 C 
ATOM     52  C   UNL A   1      39.243  29.835  32.357  1.00  0.00     0.037 A 
BRANCH  39  53
ATOM     53  C   UNL A   1      41.423  32.299  36.645  1.00  0.00     0.064 A 
ATOM     54  C   UNL A   1      40.224  33.041  36.702  1.00  0.00     0.173 A 
ATOM     55  C   UNL A   1      42.087  32.133  37.881  1.00  0.00     0.173 A 
ATOM     56  F   UNL A   1      39.516  33.281  35.587  1.00  0.00    -0.203 F 
ATOM     57  C   UNL A   1      39.786  33.654  37.880  1.00  0.00     0.198 A 
ATOM     58  C   UNL A   1      41.619  32.703  39.063  1.00  0.00     0.198 A 
ATOM     59  F   UNL A   1      43.272  31.525  37.985  1.00  0.00    -0.203 F 
ATOM     60  F   UNL A   1      38.723  34.469  37.851  1.00  0.00    -0.200 F 
ATOM     61  C   UNL A   1      40.490  33.492  39.057  1.00  0.00     0.200 A 
ATOM     62  F   UNL A   1      42.332  32.557  40.190  1.00  0.00    -0.200 F 
ATOM     63  F   UNL A   1      40.116  34.135  40.171  1.00  0.00    -0.200 F 
ENDBRANCH  39  53
BRANCH  40  64
ATOM     64  C   UNL A   1      35.276  33.944  31.131  1.00  0.00     0.064 A 
ATOM     65  C   UNL A   1      34.888  34.937  32.048  1.00  0.00     0.173 A 
ATOM     66  C   UNL A   1      34.497  33.835  29.963  1.00  0.00     0.173 A 
ATOM     67  F   UNL A   1      35.589  35.127  33.176  1.00  0.00    -0.203 F 
ATOM     68  C   UNL A   1      33.829  35.810  31.783  1.00  0.00     0.198 A 
ATOM     69  C   UNL A   1      33.433  34.703  29.705  1.00  0.00     0.198 A 
ATOM     70  F   UNL A   1      34.812  32.952  29.005  1.00  0.00    -0.203 F 
ATOM     71  F   UNL A   1      33.549  36.799  32.644  1.00  0.00    -0.200 F 
ATOM     72  C   UNL A   1      33.115  35.705  30.603  1.00  0.00     0.200 A 
ATOM     73  F   UNL A   1      32.767  34.611  28.545  1.00  0.00    -0.200 F 
ATOM     74  F   UNL A   1      32.153  36.591  30.313  1.00  0.00    -0.200 F 
ENDBRANCH  40  64
BRANCH  52  75
ATOM     75  C   UNL A   1      39.256  29.119  31.040  1.00  0.00     0.064 A 
ATOM     76  C   UNL A   1      39.679  29.672  29.820  1.00  0.00     0.173 A 
ATOM     77  C   UNL A   1      38.874  27.770  31.039  1.00  0.00     0.173 A 
ATOM     78  F   UNL A   1      40.140  30.927  29.749  1.00  0.00    -0.203 F 
ATOM     79  C   UNL A   1      39.666  28.918  28.647  1.00  0.00     0.198 A 
ATOM     80  C   UNL A   1      38.903  27.008  29.877  1.00  0.00     0.198 A 
ATOM     81  F   UNL A   1      38.498  27.176  32.185  1.00  0.00    -0.203 F 
ATOM     82  F   UNL A   1      40.042  29.474  27.485  1.00  0.00    -0.200 F 
ATOM     83  C   UNL A   1      39.284  27.586  28.678  1.00  0.00     0.200 A 
ATOM     84  F   UNL A   1      38.574  25.710  29.924  1.00  0.00    -0.200 F 
ATOM     85  F   UNL A   1      39.300  26.853  27.556  1.00  0.00    -0.200 F 
ENDBRANCH  52  75
ENDBRANCH  26  27
ENDBRANCH  18  21
ENDBRANCH  16  17
ENDBRANCH   1  16
TORSDOF 12
ENDMDL
MODEL 3
REMARK VINA RESULT:     -11.5      3.891     10.894
REMARK SMILES CC1=C(CCC(=O)NCCCNC(=O)c2ccc(-c3c4nc(c(-c5c(F)c(F)c(F)c(F)c5F)c5ccc([nH]5)c(-c5c(F)c(F)c(F)c(F)c5F)c5nc(c(-c6c(F)c(F)c(F)c(F)c6F)c6ccc3[nH]6)C=C5)C=C4)cc2)N=N[C@H]1C
REMARK SMILES IDX 10 1 9 2 8 3 6 4 7 5 5 7 4 8 3 9 1 10 2 11 80 12 78 13 79 14
REMARK SMILES IDX 81 15 11 16 12 17 13 18 14 20 15 21 16 22 77 23 17 24 76 25
REMARK SMILES IDX 18 26 19 27 20 28 70 29 21 30 75 31 69 32 71 33 22 34 74 35
REMARK SMILES IDX 68 36 67 37 23 39 55 40 35 41 54 42 36 43 39 44 53 45 72 46
REMARK SMILES IDX 37 47 38 48 52 50 73 51 40 52 24 53 25 54 33 55 26 56 27 57
REMARK SMILES IDX 31 58 34 59 28 60 29 61 32 62 30 63 56 64 57 65 65 66 58 67
REMARK SMILES IDX 59 68 63 69 66 70 60 71 61 72 64 73 62 74 41 75 42 76 50 77
REMARK SMILES IDX 43 78 44 79 48 80 51 81 45 82 46 83 49 84 47 85
REMARK H PARENT 8 6 12 19 71 38 39 49
REMARK Flexibility Score: inf
ROOT
ATOM      1  C   UNL A   1      44.157  22.441  25.598  1.00  0.00     0.042 C 
ENDROOT
BRANCH   1   2
ATOM      2  C   UNL A   1      44.990  23.715  25.564  1.00  0.00     0.117 C 
BRANCH   2   3
ATOM      3  N   UNL A   1      44.211  24.810  25.005  1.00  0.00    -0.356 N 
ATOM      4  C   UNL A   1      44.102  26.099  25.437  1.00  0.00     0.220 C 
ATOM      5  O   UNL A   1      43.190  26.791  24.982  1.00  0.00    -0.275 OA
ATOM      6  H   UNL A   1      43.689  24.589  24.201  1.00  0.00     0.163 HD
BRANCH   4   7
ATOM      7  C   UNL A   1      45.124  26.684  26.396  1.00  0.00     0.106 C 
BRANCH   7   8
ATOM      8  C   UNL A   1      45.901  27.890  25.854  1.00  0.00     0.068 C 
BRANCH   8   9
ATOM      9  C   UNL A   1      46.827  27.557  24.722  1.00  0.00     0.064 C 
ATOM     10  C   UNL A   1      48.194  25.575  25.613  1.00  0.00     0.044 C 
ATOM     11  C   UNL A   1      47.798  26.640  24.667  1.00  0.00    -0.024 C 
ATOM     12  C   UNL A   1      48.489  26.859  23.364  1.00  0.00     0.153 C 
ATOM     13  N   UNL A   1      46.697  28.219  23.530  1.00  0.00    -0.160 NA
ATOM     14  N   UNL A   1      47.616  27.882  22.730  1.00  0.00    -0.181 NA
ATOM     15  C   UNL A   1      49.899  27.418  23.545  1.00  0.00     0.040 C 
ENDBRANCH   8   9
ENDBRANCH   7   8
ENDBRANCH   4   7
ENDBRANCH   2   3
ENDBRANCH   1   2
BRANCH   1  16
ATOM     16  C   UNL A   1      42.752  22.604  25.091  1.00  0.00     0.118 C 
BRANCH  16  17
ATOM     17  N   UNL A   1      41.726  21.972  25.917  1.00  0.00    -0.352 N 
ATOM     18  C   UNL A   1      41.080  22.531  27.008  1.00  0.00     0.251 C 
ATOM     19  H   UNL A   1      41.466  21.054  25.672  1.00  0.00     0.163 HD
ATOM     20  O   UNL A   1      40.419  21.837  27.775  1.00  0.00    -0.269 OA
BRANCH  18  21
ATOM     21  C   UNL A   1      41.236  23.982  27.253  1.00  0.00     0.039 A 
ATOM     22  C   UNL A   1      40.384  24.923  26.677  1.00  0.00     0.014 A 
ATOM     23  C   UNL A   1      42.194  24.387  28.178  1.00  0.00     0.014 A 
ATOM     24  C   UNL A   1      40.448  26.241  27.125  1.00  0.00     0.010 A 
ATOM     25  C   UNL A   1      42.070  25.598  28.797  1.00  0.00     0.010 A 
ATOM     26  C   UNL A   1      41.268  26.564  28.224  1.00  0.00    -0.014 A 
BRANCH  26  27
ATOM     27  C   UNL A   1      41.217  27.880  28.855  1.00  0.00     0.031 A 
ATOM     28  C   UNL A   1      42.245  28.814  28.344  1.00  0.00     0.074 A 
ATOM     29  C   UNL A   1      40.251  28.284  29.713  1.00  0.00     0.049 A 
ATOM     30  N   UNL A   1      43.346  29.126  28.937  1.00  0.00    -0.248 NA
ATOM     31  C   UNL A   1      42.155  29.304  26.960  1.00  0.00     0.031 C 
ATOM     32  C   UNL A   1      39.014  27.581  30.085  1.00  0.00     0.029 A 
ATOM     33  N   UNL A   1      40.122  29.469  30.380  1.00  0.00    -0.354 N 
ATOM     34  C   UNL A   1      43.962  30.063  28.119  1.00  0.00     0.074 A 
ATOM     35  C   UNL A   1      43.313  29.961  26.839  1.00  0.00     0.031 C 
ATOM     36  C   UNL A   1      38.164  28.434  30.693  1.00  0.00     0.029 A 
ATOM     37  C   UNL A   1      38.863  29.680  30.936  1.00  0.00     0.049 A 
ATOM     38  H   UNL A   1      40.858  30.119  30.460  1.00  0.00     0.167 HD
ATOM     39  C   UNL A   1      44.700  31.055  28.687  1.00  0.00     0.037 A 
ATOM     40  C   UNL A   1      38.422  30.794  31.568  1.00  0.00     0.037 A 
ATOM     41  C   UNL A   1      44.969  30.743  30.074  1.00  0.00     0.049 A 
ATOM     42  C   UNL A   1      39.620  31.506  32.061  1.00  0.00     0.074 A 
ATOM     43  C   UNL A   1      45.661  29.772  30.767  1.00  0.00     0.029 A 
ATOM     44  N   UNL A   1      44.077  31.301  30.951  1.00  0.00    -0.354 N 
ATOM     45  N   UNL A   1      40.385  31.057  33.016  1.00  0.00    -0.248 NA
ATOM     46  C   UNL A   1      40.195  32.569  31.246  1.00  0.00     0.031 C 
ATOM     47  C   UNL A   1      44.958  29.597  31.998  1.00  0.00     0.029 A 
ATOM     48  C   UNL A   1      43.903  30.507  32.048  1.00  0.00     0.049 A 
ATOM     49  H   UNL A   1      43.621  32.161  30.810  1.00  0.00     0.167 HD
ATOM     50  C   UNL A   1      41.659  31.425  32.626  1.00  0.00     0.074 A 
ATOM     51  C   UNL A   1      41.461  32.501  31.662  1.00  0.00     0.031 C 
ATOM     52  C   UNL A   1      42.717  30.596  32.873  1.00  0.00     0.037 A 
BRANCH  39  53
ATOM     53  C   UNL A   1      44.697  32.500  28.220  1.00  0.00     0.064 A 
ATOM     54  C   UNL A   1      45.929  33.086  27.857  1.00  0.00     0.173 A 
ATOM     55  C   UNL A   1      43.644  33.413  28.455  1.00  0.00     0.173 A 
ATOM     56  F   UNL A   1      47.007  32.320  27.627  1.00  0.00    -0.203 F 
ATOM     57  C   UNL A   1      46.115  34.471  27.837  1.00  0.00     0.198 A 
ATOM     58  C   UNL A   1      43.821  34.793  28.385  1.00  0.00     0.198 A 
ATOM     59  F   UNL A   1      42.439  33.026  28.884  1.00  0.00    -0.203 F 
ATOM     60  F   UNL A   1      47.339  34.976  27.631  1.00  0.00    -0.200 F 
ATOM     61  C   UNL A   1      45.063  35.323  28.110  1.00  0.00     0.200 A 
ATOM     62  F   UNL A   1      42.795  35.603  28.681  1.00  0.00    -0.200 F 
ATOM     63  F   UNL A   1      45.252  36.648  28.165  1.00  0.00    -0.200 F 
ENDBRANCH  39  53
BRANCH  40  64
ATOM     64  C   UNL A   1      37.069  31.398  31.612  1.00  0.00     0.064 A 
ATOM     65  C   UNL A   1      36.488  31.772  32.837  1.00  0.00     0.173 A 
ATOM     66  C   UNL A   1      36.455  31.903  30.451  1.00  0.00     0.173 A 
ATOM     67  F   UNL A   1      37.024  31.356  33.995  1.00  0.00    -0.203 F 
ATOM     68  C   UNL A   1      35.403  32.651  32.899  1.00  0.00     0.198 A 
ATOM     69  C   UNL A   1      35.365  32.774  30.514  1.00  0.00     0.198 A 
ATOM     70  F   UNL A   1      36.960  31.644  29.236  1.00  0.00    -0.203 F 
ATOM     71  F   UNL A   1      34.936  33.052  34.089  1.00  0.00    -0.200 F 
ATOM     72  C   UNL A   1      34.854  33.166  31.737  1.00  0.00     0.200 A 
ATOM     73  F   UNL A   1      34.860  33.290  29.384  1.00  0.00    -0.200 F 
ATOM     74  F   UNL A   1      33.867  34.070  31.799  1.00  0.00    -0.200 F 
ENDBRANCH  40  64
BRANCH  52  75
ATOM     75  C   UNL A   1      42.570  29.612  33.995  1.00  0.00     0.064 A 
ATOM     76  C   UNL A   1      41.986  28.339  33.887  1.00  0.00     0.173 A 
ATOM     77  C   UNL A   1      43.117  29.968  35.237  1.00  0.00     0.173 A 
ATOM     78  F   UNL A   1      41.518  27.887  32.716  1.00  0.00    -0.203 F 
ATOM     79  C   UNL A   1      41.909  27.488  34.989  1.00  0.00     0.198 A 
ATOM     80  C   UNL A   1      43.076  29.101  36.322  1.00  0.00     0.198 A 
ATOM     81  F   UNL A   1      43.723  31.158  35.389  1.00  0.00    -0.203 F 
ATOM     82  F   UNL A   1      41.319  26.289  34.873  1.00  0.00    -0.200 F 
ATOM     83  C   UNL A   1      42.460  27.868  36.204  1.00  0.00     0.200 A 
ATOM     84  F   UNL A   1      43.649  29.459  37.480  1.00  0.00    -0.200 F 
ATOM     85  F   UNL A   1      42.411  27.038  37.254  1.00  0.00    -0.200 F 
ENDBRANCH  52  75
ENDBRANCH  26  27
ENDBRANCH  18  21
ENDBRANCH  16  17
ENDBRANCH   1  16
TORSDOF 12
ENDMDL
