MODEL 1
REMARK VINA RESULT:     -13.1      0.000      0.000
REMARK SMILES O=C(NCCCNC(=O)[C@@H]1CC[C@@H](CNC(=O)c2cccc(O)c2)O1)c1ccc(-c2c3nc(c(-c4c(F)c(F)c(F)c(F)c4F)c4ccc([nH]4)c(-c4c(F)c(F)c(F)c(F)c4F)c4nc(c(-c5c(F)c(F)c(F)c(F)c5F)c5ccc2[nH]5)C=C4)C=C3)cc1
REMARK SMILES IDX 6 1 5 2 4 3 3 4 1 5 2 6 26 8 27 9 88 10 28 11 87 12 29 13
REMARK SMILES IDX 30 14 31 15 81 16 32 17 86 18 80 19 82 20 33 21 85 22 79 23
REMARK SMILES IDX 78 24 34 26 66 27 46 28 65 29 47 30 50 31 64 32 83 33 48 34
REMARK SMILES IDX 49 35 63 37 84 38 51 39 35 40 36 41 44 42 37 43 38 44 42 45
REMARK SMILES IDX 45 46 39 47 40 48 43 49 41 50 67 51 68 52 76 53 69 54 70 55
REMARK SMILES IDX 74 56 77 57 71 58 72 59 75 60 73 61 52 62 53 63 61 64 54 65
REMARK SMILES IDX 55 66 59 67 62 68 56 69 57 70 60 71 58 72 7 73 8 74 9 76
REMARK SMILES IDX 10 77 11 78 25 79 12 80 13 81 14 82 15 83 16 84 17 86 18 87
REMARK SMILES IDX 19 88 24 89 20 90 22 91 21 92 23 93
REMARK H PARENT 3 7 82 25 50 36 7 75 15 85 23 94
REMARK Flexibility Score: inf
ROOT
ATOM      1  C   UNL A   1      31.686  30.820  26.131  1.00  0.00     0.117 C 
ENDROOT
BRANCH   1   2
ATOM      2  C   UNL A   1      31.428  32.228  26.654  1.00  0.00     0.042 C 
BRANCH   2   3
ATOM      3  C   UNL A   1      32.672  32.941  27.174  1.00  0.00     0.118 C 
BRANCH   3   4
ATOM      4  N   UNL A   1      32.398  34.273  27.698  1.00  0.00    -0.352 N 
ATOM      5  O   UNL A   1      32.525  36.048  29.077  1.00  0.00    -0.269 OA
ATOM      6  C   UNL A   1      33.005  34.978  28.710  1.00  0.00     0.251 C 
ATOM      7  H   UNL A   1      31.657  34.745  27.255  1.00  0.00     0.163 HD
BRANCH   6   8
ATOM      8  C   UNL A   1      34.210  34.449  29.387  1.00  0.00     0.039 A 
ATOM      9  C   UNL A   1      35.483  34.640  28.852  1.00  0.00     0.014 A 
ATOM     10  C   UNL A   1      34.060  33.758  30.594  1.00  0.00     0.014 A 
ATOM     11  C   UNL A   1      36.577  33.993  29.420  1.00  0.00     0.010 A 
ATOM     12  C   UNL A   1      35.174  33.188  31.217  1.00  0.00     0.010 A 
ATOM     13  C   UNL A   1      36.436  33.257  30.608  1.00  0.00    -0.014 A 
BRANCH  13  14
ATOM     14  C   UNL A   1      37.627  32.586  31.194  1.00  0.00     0.031 A 
ATOM     15  C   UNL A   1      38.106  32.926  32.580  1.00  0.00     0.074 A 
ATOM     16  C   UNL A   1      38.250  31.625  30.486  1.00  0.00     0.049 A 
ATOM     17  N   UNL A   1      39.082  32.389  33.271  1.00  0.00    -0.248 NA
ATOM     18  C   UNL A   1      37.408  34.014  33.281  1.00  0.00     0.031 C 
ATOM     19  C   UNL A   1      37.893  31.218  29.124  1.00  0.00     0.029 A 
ATOM     20  N   UNL A   1      39.293  30.797  30.815  1.00  0.00    -0.354 N 
ATOM     21  C   UNL A   1      39.129  33.086  34.472  1.00  0.00     0.074 A 
ATOM     22  C   UNL A   1      38.102  34.103  34.407  1.00  0.00     0.031 C 
ATOM     23  C   UNL A   1      38.661  30.183  28.759  1.00  0.00     0.029 A 
ATOM     24  C   UNL A   1      39.601  29.886  29.836  1.00  0.00     0.049 A 
ATOM     25  H   UNL A   1      39.774  30.851  31.673  1.00  0.00     0.167 HD
ATOM     26  C   UNL A   1      39.947  32.888  35.534  1.00  0.00     0.037 A 
ATOM     27  C   UNL A   1      40.536  28.919  29.805  1.00  0.00     0.037 A 
ATOM     28  C   UNL A   1      40.951  31.857  35.608  1.00  0.00     0.049 A 
ATOM     29  C   UNL A   1      41.427  28.723  30.998  1.00  0.00     0.074 A 
ATOM     30  C   UNL A   1      41.794  31.546  36.662  1.00  0.00     0.029 A 
ATOM     31  N   UNL A   1      41.249  30.970  34.584  1.00  0.00    -0.354 N 
ATOM     32  N   UNL A   1      41.427  29.356  32.145  1.00  0.00    -0.248 NA
ATOM     33  C   UNL A   1      42.450  27.674  30.890  1.00  0.00     0.031 C 
ATOM     34  C   UNL A   1      42.633  30.501  36.259  1.00  0.00     0.029 A 
ATOM     35  C   UNL A   1      42.278  30.126  34.975  1.00  0.00     0.049 A 
ATOM     36  H   UNL A   1      40.797  30.943  33.711  1.00  0.00     0.167 HD
ATOM     37  C   UNL A   1      42.429  28.769  32.905  1.00  0.00     0.074 A 
ATOM     38  C   UNL A   1      43.004  27.716  32.093  1.00  0.00     0.031 C 
ATOM     39  C   UNL A   1      42.836  29.077  34.159  1.00  0.00     0.037 A 
BRANCH  26  40
ATOM     40  C   UNL A   1      39.807  33.818  36.707  1.00  0.00     0.064 A 
ATOM     41  C   UNL A   1      40.470  35.053  36.753  1.00  0.00     0.173 A 
ATOM     42  C   UNL A   1      38.960  33.488  37.775  1.00  0.00     0.173 A 
ATOM     43  F   UNL A   1      41.300  35.412  35.762  1.00  0.00    -0.203 F 
ATOM     44  C   UNL A   1      40.309  35.912  37.837  1.00  0.00     0.198 A 
ATOM     45  C   UNL A   1      38.780  34.362  38.845  1.00  0.00     0.198 A 
ATOM     46  F   UNL A   1      38.295  32.323  37.777  1.00  0.00    -0.203 F 
ATOM     47  F   UNL A   1      40.986  37.068  37.881  1.00  0.00    -0.200 F 
ATOM     48  C   UNL A   1      39.459  35.569  38.878  1.00  0.00     0.200 A 
ATOM     49  F   UNL A   1      37.947  34.035  39.843  1.00  0.00    -0.200 F 
ATOM     50  F   UNL A   1      39.299  36.401  39.917  1.00  0.00    -0.200 F 
ENDBRANCH  26  40
BRANCH  27  51
ATOM     51  C   UNL A   1      40.659  28.050  28.606  1.00  0.00     0.064 A 
ATOM     52  C   UNL A   1      41.453  28.434  27.518  1.00  0.00     0.173 A 
ATOM     53  C   UNL A   1      39.995  26.818  28.529  1.00  0.00     0.173 A 
ATOM     54  F   UNL A   1      42.092  29.613  27.537  1.00  0.00    -0.203 F 
ATOM     55  C   UNL A   1      41.564  27.625  26.388  1.00  0.00     0.198 A 
ATOM     56  C   UNL A   1      40.130  25.996  27.413  1.00  0.00     0.198 A 
ATOM     57  F   UNL A   1      39.227  26.403  29.548  1.00  0.00    -0.203 F 
ATOM     58  F   UNL A   1      42.295  28.035  25.343  1.00  0.00    -0.200 F 
ATOM     59  C   UNL A   1      40.908  26.404  26.340  1.00  0.00     0.200 A 
ATOM     60  F   UNL A   1      39.507  24.810  27.377  1.00  0.00    -0.200 F 
ATOM     61  F   UNL A   1      41.021  25.624  25.256  1.00  0.00    -0.200 F 
ENDBRANCH  27  51
BRANCH  39  62
ATOM     62  C   UNL A   1      43.932  28.236  34.747  1.00  0.00     0.064 A 
ATOM     63  C   UNL A   1      45.281  28.602  34.637  1.00  0.00     0.173 A 
ATOM     64  C   UNL A   1      43.625  27.057  35.442  1.00  0.00     0.173 A 
ATOM     65  F   UNL A   1      45.627  29.712  33.966  1.00  0.00    -0.203 F 
ATOM     66  C   UNL A   1      46.286  27.803  35.174  1.00  0.00     0.198 A 
ATOM     67  C   UNL A   1      44.631  26.275  36.004  1.00  0.00     0.198 A 
ATOM     68  F   UNL A   1      42.350  26.666  35.581  1.00  0.00    -0.203 F 
ATOM     69  F   UNL A   1      47.572  28.143  35.010  1.00  0.00    -0.200 F 
ATOM     70  C   UNL A   1      45.960  26.643  35.862  1.00  0.00     0.200 A 
ATOM     71  F   UNL A   1      44.312  25.161  36.679  1.00  0.00    -0.200 F 
ATOM     72  F   UNL A   1      46.928  25.874  36.380  1.00  0.00    -0.200 F 
ENDBRANCH  39  62
ENDBRANCH  13  14
ENDBRANCH   6   8
ENDBRANCH   3   4
ENDBRANCH   2   3
ENDBRANCH   1   2
BRANCH   1  73
ATOM     73  N   UNL A   1      31.724  29.842  27.202  1.00  0.00    -0.354 N 
ATOM     74  C   UNL A   1      31.863  28.484  27.123  1.00  0.00     0.249 C 
ATOM     75  H   UNL A   1      31.637  30.206  28.112  1.00  0.00     0.163 HD
ATOM     76  O   UNL A   1      31.769  27.836  28.165  1.00  0.00    -0.272 OA
BRANCH  74  77
ATOM     77  C   UNL A   1      32.067  27.831  25.744  1.00  0.00     0.207 C 
ATOM     78  C   UNL A   1      33.346  28.301  25.059  1.00  0.00     0.045 C 
ATOM     79  O   UNL A   1      30.983  28.117  24.840  1.00  0.00    -0.363 OA
ATOM     80  C   UNL A   1      32.969  28.286  23.601  1.00  0.00     0.037 C 
ATOM     81  C   UNL A   1      31.521  28.735  23.657  1.00  0.00     0.138 C 
BRANCH  81  82
ATOM     82  C   UNL A   1      30.737  28.300  22.419  1.00  0.00     0.148 C 
BRANCH  82  83
ATOM     83  N   UNL A   1      29.365  27.939  22.742  1.00  0.00    -0.349 N 
ATOM     84  C   UNL A   1      28.258  28.735  22.891  1.00  0.00     0.251 C 
ATOM     85  H   UNL A   1      29.207  26.976  22.872  1.00  0.00     0.163 HD
ATOM     86  O   UNL A   1      27.202  28.258  23.298  1.00  0.00    -0.269 OA
BRANCH  84  87
ATOM     87  C   UNL A   1      28.337  30.181  22.593  1.00  0.00     0.043 A 
ATOM     88  C   UNL A   1      28.738  31.105  23.566  1.00  0.00     0.014 A 
ATOM     89  C   UNL A   1      28.034  30.610  21.298  1.00  0.00     0.060 A 
ATOM     90  C   UNL A   1      28.766  32.467  23.260  1.00  0.00     0.005 A 
ATOM     91  C   UNL A   1      28.079  31.967  21.003  1.00  0.00     0.116 A 
ATOM     92  C   UNL A   1      28.429  32.902  21.976  1.00  0.00     0.046 A 
BRANCH  91  93
ATOM     93  O   UNL A   1      27.765  32.351  19.735  1.00  0.00    -0.508 OA
ATOM     94  H   UNL A   1      27.534  31.708  19.094  1.00  0.00     0.293 HD
ENDBRANCH  91  93
ENDBRANCH  84  87
ENDBRANCH  82  83
ENDBRANCH  81  82
ENDBRANCH  74  77
ENDBRANCH   1  73
TORSDOF 14
ENDMDL
MODEL 2
REMARK VINA RESULT:     -13.0      2.081      3.842
REMARK SMILES O=C(NCCCNC(=O)[C@@H]1CC[C@@H](CNC(=O)c2cccc(O)c2)O1)c1ccc(-c2c3nc(c(-c4c(F)c(F)c(F)c(F)c4F)c4ccc([nH]4)c(-c4c(F)c(F)c(F)c(F)c4F)c4nc(c(-c5c(F)c(F)c(F)c(F)c5F)c5ccc2[nH]5)C=C4)C=C3)cc1
REMARK SMILES IDX 6 1 5 2 4 3 3 4 1 5 2 6 26 8 27 9 88 10 28 11 87 12 29 13
REMARK SMILES IDX 30 14 31 15 81 16 32 17 86 18 80 19 82 20 33 21 85 22 79 23
REMARK SMILES IDX 78 24 34 26 66 27 46 28 65 29 47 30 50 31 64 32 83 33 48 34
REMARK SMILES IDX 49 35 63 37 84 38 51 39 35 40 36 41 44 42 37 43 38 44 42 45
REMARK SMILES IDX 45 46 39 47 40 48 43 49 41 50 67 51 68 52 76 53 69 54 70 55
REMARK SMILES IDX 74 56 77 57 71 58 72 59 75 60 73 61 52 62 53 63 61 64 54 65
REMARK SMILES IDX 55 66 59 67 62 68 56 69 57 70 60 71 58 72 7 73 8 74 9 76
REMARK SMILES IDX 10 77 11 78 25 79 12 80 13 81 14 82 15 83 16 84 17 86 18 87
REMARK SMILES IDX 19 88 24 89 20 90 22 91 21 92 23 93
REMARK H PARENT 3 7 82 25 50 36 7 75 15 85 23 94
REMARK Flexibility Score: inf
ROOT
ATOM      1  C   UNL A   1      31.654  30.419  25.853  1.00  0.00     0.117 C 
ENDROOT
BRANCH   1   2
ATOM      2  C   UNL A   1      31.398  31.777  26.494  1.00  0.00     0.042 C 
BRANCH   2   3
ATOM      3  C   UNL A   1      32.652  32.470  27.017  1.00  0.00     0.118 C 
BRANCH   3   4
ATOM      4  N   UNL A   1      32.414  33.834  27.469  1.00  0.00    -0.352 N 
ATOM      5  O   UNL A   1      32.585  35.676  28.754  1.00  0.00    -0.269 OA
ATOM      6  C   UNL A   1      33.036  34.575  28.446  1.00  0.00     0.251 C 
ATOM      7  H   UNL A   1      31.689  34.304  26.998  1.00  0.00     0.163 HD
BRANCH   6   8
ATOM      8  C   UNL A   1      34.222  34.048  29.158  1.00  0.00     0.039 A 
ATOM      9  C   UNL A   1      35.510  34.463  28.823  1.00  0.00     0.014 A 
ATOM     10  C   UNL A   1      34.036  33.128  30.195  1.00  0.00     0.014 A 
ATOM     11  C   UNL A   1      36.612  33.832  29.393  1.00  0.00     0.010 A 
ATOM     12  C   UNL A   1      35.143  32.563  30.835  1.00  0.00     0.010 A 
ATOM     13  C   UNL A   1      36.442  32.872  30.405  1.00  0.00    -0.014 A 
BRANCH  13  14
ATOM     14  C   UNL A   1      37.641  32.224  31.000  1.00  0.00     0.031 A 
ATOM     15  C   UNL A   1      38.086  32.550  32.401  1.00  0.00     0.074 A 
ATOM     16  C   UNL A   1      38.303  31.293  30.286  1.00  0.00     0.049 A 
ATOM     17  N   UNL A   1      39.063  32.028  33.100  1.00  0.00    -0.248 NA
ATOM     18  C   UNL A   1      37.345  33.605  33.109  1.00  0.00     0.031 C 
ATOM     19  C   UNL A   1      37.982  30.902  28.911  1.00  0.00     0.029 A 
ATOM     20  N   UNL A   1      39.362  30.488  30.620  1.00  0.00    -0.354 N 
ATOM     21  C   UNL A   1      39.070  32.703  34.314  1.00  0.00     0.074 A 
ATOM     22  C   UNL A   1      38.016  33.693  34.248  1.00  0.00     0.031 C 
ATOM     23  C   UNL A   1      38.785  29.895  28.542  1.00  0.00     0.029 A 
ATOM     24  C   UNL A   1      39.713  29.604  29.630  1.00  0.00     0.049 A 
ATOM     25  H   UNL A   1      39.826  30.539  31.487  1.00  0.00     0.167 HD
ATOM     26  C   UNL A   1      39.873  32.508  35.388  1.00  0.00     0.037 A 
ATOM     27  C   UNL A   1      40.675  28.664  29.599  1.00  0.00     0.037 A 
ATOM     28  C   UNL A   1      40.903  31.504  35.461  1.00  0.00     0.049 A 
ATOM     29  C   UNL A   1      41.550  28.470  30.804  1.00  0.00     0.074 A 
ATOM     30  C   UNL A   1      41.736  31.197  36.525  1.00  0.00     0.029 A 
ATOM     31  N   UNL A   1      41.245  30.644  34.427  1.00  0.00    -0.354 N 
ATOM     32  N   UNL A   1      41.511  29.082  31.962  1.00  0.00    -0.248 NA
ATOM     33  C   UNL A   1      42.603  27.452  30.696  1.00  0.00     0.031 C 
ATOM     34  C   UNL A   1      42.611  30.182  36.119  1.00  0.00     0.029 A 
ATOM     35  C   UNL A   1      42.290  29.822  34.821  1.00  0.00     0.049 A 
ATOM     36  H   UNL A   1      40.810  30.621  33.545  1.00  0.00     0.167 HD
ATOM     37  C   UNL A   1      42.515  28.508  32.730  1.00  0.00     0.074 A 
ATOM     38  C   UNL A   1      43.135  27.487  31.910  1.00  0.00     0.031 C 
ATOM     39  C   UNL A   1      42.892  28.804  33.997  1.00  0.00     0.037 A 
BRANCH  26  40
ATOM     40  C   UNL A   1      39.686  33.411  36.574  1.00  0.00     0.064 A 
ATOM     41  C   UNL A   1      40.341  34.648  36.670  1.00  0.00     0.173 A 
ATOM     42  C   UNL A   1      38.802  33.055  37.603  1.00  0.00     0.173 A 
ATOM     43  F   UNL A   1      41.205  35.032  35.718  1.00  0.00    -0.203 F 
ATOM     44  C   UNL A   1      40.137  35.483  37.767  1.00  0.00     0.198 A 
ATOM     45  C   UNL A   1      38.579  33.905  38.684  1.00  0.00     0.198 A 
ATOM     46  F   UNL A   1      38.143  31.888  37.556  1.00  0.00    -0.203 F 
ATOM     47  F   UNL A   1      40.807  36.640  37.860  1.00  0.00    -0.200 F 
ATOM     48  C   UNL A   1      39.252  35.114  38.769  1.00  0.00     0.200 A 
ATOM     49  F   UNL A   1      37.713  33.553  39.644  1.00  0.00    -0.200 F 
ATOM     50  F   UNL A   1      39.050  35.923  39.818  1.00  0.00    -0.200 F 
ENDBRANCH  26  40
BRANCH  27  51
ATOM     51  C   UNL A   1      40.844  27.821  28.387  1.00  0.00     0.064 A 
ATOM     52  C   UNL A   1      40.199  26.582  28.277  1.00  0.00     0.173 A 
ATOM     53  C   UNL A   1      41.646  28.239  27.315  1.00  0.00     0.173 A 
ATOM     54  F   UNL A   1      39.438  26.131  29.285  1.00  0.00    -0.203 F 
ATOM     55  C   UNL A   1      40.363  25.785  27.146  1.00  0.00     0.198 A 
ATOM     56  C   UNL A   1      41.784  27.455  26.173  1.00  0.00     0.198 A 
ATOM     57  F   UNL A   1      42.280  29.420  27.371  1.00  0.00    -0.203 F 
ATOM     58  F   UNL A   1      39.769  24.586  27.083  1.00  0.00    -0.200 F 
ATOM     59  C   UNL A   1      41.149  26.225  26.092  1.00  0.00     0.200 A 
ATOM     60  F   UNL A   1      42.533  27.892  25.150  1.00  0.00    -0.200 F 
ATOM     61  F   UNL A   1      41.300  25.461  25.002  1.00  0.00    -0.200 F 
ENDBRANCH  27  51
BRANCH  39  62
ATOM     62  C   UNL A   1      44.000  27.983  34.589  1.00  0.00     0.064 A 
ATOM     63  C   UNL A   1      45.340  28.390  34.514  1.00  0.00     0.173 A 
ATOM     64  C   UNL A   1      43.714  26.781  35.255  1.00  0.00     0.173 A 
ATOM     65  F   UNL A   1      45.666  29.523  33.873  1.00  0.00    -0.203 F 
ATOM     66  C   UNL A   1      46.357  27.608  35.055  1.00  0.00     0.198 A 
ATOM     67  C   UNL A   1      44.730  26.016  35.821  1.00  0.00     0.198 A 
ATOM     68  F   UNL A   1      42.448  26.351  35.360  1.00  0.00    -0.203 F 
ATOM     69  F   UNL A   1      47.635  27.989  34.924  1.00  0.00    -0.200 F 
ATOM     70  C   UNL A   1      46.051  26.425  35.713  1.00  0.00     0.200 A 
ATOM     71  F   UNL A   1      44.431  24.880  36.467  1.00  0.00    -0.200 F 
ATOM     72  F   UNL A   1      47.030  25.674  36.234  1.00  0.00    -0.200 F 
ENDBRANCH  39  62
ENDBRANCH  13  14
ENDBRANCH   6   8
ENDBRANCH   3   4
ENDBRANCH   2   3
ENDBRANCH   1   2
BRANCH   1  73
ATOM     73  N   UNL A   1      30.897  30.247  24.626  1.00  0.00    -0.354 N 
ATOM     74  C   UNL A   1      30.745  29.126  23.860  1.00  0.00     0.249 C 
ATOM     75  H   UNL A   1      30.430  31.050  24.301  1.00  0.00     0.163 HD
ATOM     76  O   UNL A   1      30.132  29.236  22.797  1.00  0.00    -0.272 OA
BRANCH  74  77
ATOM     77  C   UNL A   1      31.390  27.808  24.323  1.00  0.00     0.207 C 
ATOM     78  C   UNL A   1      32.687  27.499  23.581  1.00  0.00     0.045 C 
ATOM     79  O   UNL A   1      30.521  26.676  24.125  1.00  0.00    -0.363 OA
ATOM     80  C   UNL A   1      32.679  25.996  23.506  1.00  0.00     0.037 C 
ATOM     81  C   UNL A   1      31.203  25.709  23.308  1.00  0.00     0.138 C 
BRANCH  81  82
ATOM     82  C   UNL A   1      30.833  24.288  23.734  1.00  0.00     0.148 C 
BRANCH  82  83
ATOM     83  N   UNL A   1      30.279  24.248  25.079  1.00  0.00    -0.349 N 
ATOM     84  C   UNL A   1      30.802  23.713  26.230  1.00  0.00     0.251 C 
ATOM     85  H   UNL A   1      29.395  24.670  25.180  1.00  0.00     0.163 HD
ATOM     86  O   UNL A   1      30.124  23.660  27.251  1.00  0.00    -0.269 OA
BRANCH  84  87
ATOM     87  C   UNL A   1      32.177  23.169  26.238  1.00  0.00     0.043 A 
ATOM     88  C   UNL A   1      33.283  23.987  26.501  1.00  0.00     0.014 A 
ATOM     89  C   UNL A   1      32.352  21.802  26.010  1.00  0.00     0.060 A 
ATOM     90  C   UNL A   1      34.570  23.447  26.464  1.00  0.00     0.005 A 
ATOM     91  C   UNL A   1      33.637  21.275  25.990  1.00  0.00     0.116 A 
ATOM     92  C   UNL A   1      34.750  22.087  26.201  1.00  0.00     0.046 A 
BRANCH  91  93
ATOM     93  O   UNL A   1      33.772  19.940  25.751  1.00  0.00    -0.508 OA
ATOM     94  H   UNL A   1      34.620  19.543  25.776  1.00  0.00     0.293 HD
ENDBRANCH  91  93
ENDBRANCH  84  87
ENDBRANCH  82  83
ENDBRANCH  81  82
ENDBRANCH  74  77
ENDBRANCH   1  73
TORSDOF 14
ENDMDL
MODEL 3
REMARK VINA RESULT:     -12.9      0.559      7.454
REMARK SMILES O=C(NCCCNC(=O)[C@@H]1CC[C@@H](CNC(=O)c2cccc(O)c2)O1)c1ccc(-c2c3nc(c(-c4c(F)c(F)c(F)c(F)c4F)c4ccc([nH]4)c(-c4c(F)c(F)c(F)c(F)c4F)c4nc(c(-c5c(F)c(F)c(F)c(F)c5F)c5ccc2[nH]5)C=C4)C=C3)cc1
REMARK SMILES IDX 6 1 5 2 4 3 3 4 1 5 2 6 26 8 27 9 88 10 28 11 87 12 29 13
REMARK SMILES IDX 30 14 31 15 81 16 32 17 86 18 80 19 82 20 33 21 85 22 79 23
REMARK SMILES IDX 78 24 34 26 66 27 46 28 65 29 47 30 50 31 64 32 83 33 48 34
REMARK SMILES IDX 49 35 63 37 84 38 51 39 35 40 36 41 44 42 37 43 38 44 42 45
REMARK SMILES IDX 45 46 39 47 40 48 43 49 41 50 67 51 68 52 76 53 69 54 70 55
REMARK SMILES IDX 74 56 77 57 71 58 72 59 75 60 73 61 52 62 53 63 61 64 54 65
REMARK SMILES IDX 55 66 59 67 62 68 56 69 57 70 60 71 58 72 7 73 8 74 9 76
REMARK SMILES IDX 10 77 11 78 25 79 12 80 13 81 14 82 15 83 16 84 17 86 18 87
REMARK SMILES IDX 19 88 24 89 20 90 22 91 21 92 23 93
REMARK H PARENT 3 7 82 25 50 36 7 75 15 85 23 94
REMARK Flexibility Score: inf
ROOT
ATOM      1  C   UNL A   1      31.621  30.847  26.125  1.00  0.00     0.117 C 
ENDROOT
BRANCH   1   2
ATOM      2  C   UNL A   1      31.401  32.262  26.647  1.00  0.00     0.042 C 
BRANCH   2   3
ATOM      3  C   UNL A   1      32.659  32.932  27.190  1.00  0.00     0.118 C 
BRANCH   3   4
ATOM      4  N   UNL A   1      32.438  34.298  27.645  1.00  0.00    -0.352 N 
ATOM      5  O   UNL A   1      32.587  36.118  28.963  1.00  0.00    -0.269 OA
ATOM      6  C   UNL A   1      33.021  35.006  28.668  1.00  0.00     0.251 C 
ATOM      7  H   UNL A   1      31.758  34.796  27.136  1.00  0.00     0.163 HD
BRANCH   6   8
ATOM      8  C   UNL A   1      34.143  34.433  29.444  1.00  0.00     0.039 A 
ATOM      9  C   UNL A   1      35.461  34.547  29.002  1.00  0.00     0.014 A 
ATOM     10  C   UNL A   1      33.870  33.780  30.650  1.00  0.00     0.014 A 
ATOM     11  C   UNL A   1      36.475  33.860  29.662  1.00  0.00     0.010 A 
ATOM     12  C   UNL A   1      34.904  33.170  31.366  1.00  0.00     0.010 A 
ATOM     13  C   UNL A   1      36.209  33.160  30.851  1.00  0.00    -0.014 A 
BRANCH  13  14
ATOM     14  C   UNL A   1      37.318  32.445  31.537  1.00  0.00     0.031 A 
ATOM     15  C   UNL A   1      38.076  31.343  30.847  1.00  0.00     0.074 A 
ATOM     16  C   UNL A   1      37.676  32.830  32.777  1.00  0.00     0.049 A 
ATOM     17  N   UNL A   1      39.114  30.663  31.270  1.00  0.00    -0.248 NA
ATOM     18  C   UNL A   1      37.607  30.943  29.511  1.00  0.00     0.031 C 
ATOM     19  C   UNL A   1      37.006  33.872  33.560  1.00  0.00     0.029 A 
ATOM     20  N   UNL A   1      38.701  32.414  33.588  1.00  0.00    -0.354 N 
ATOM     21  C   UNL A   1      39.405  29.745  30.269  1.00  0.00     0.074 A 
ATOM     22  C   UNL A   1      38.419  29.935  29.227  1.00  0.00     0.031 C 
ATOM     23  C   UNL A   1      37.672  34.054  34.709  1.00  0.00     0.029 A 
ATOM     24  C   UNL A   1      38.782  33.108  34.770  1.00  0.00     0.049 A 
ATOM     25  H   UNL A   1      39.320  31.689  33.345  1.00  0.00     0.167 HD
ATOM     26  C   UNL A   1      40.409  28.837  30.219  1.00  0.00     0.037 A 
ATOM     27  C   UNL A   1      39.650  32.995  35.791  1.00  0.00     0.037 A 
ATOM     28  C   UNL A   1      41.407  28.668  31.245  1.00  0.00     0.049 A 
ATOM     29  C   UNL A   1      40.753  31.980  35.707  1.00  0.00     0.074 A 
ATOM     30  C   UNL A   1      42.492  27.808  31.262  1.00  0.00     0.029 A 
ATOM     31  N   UNL A   1      41.439  29.374  32.439  1.00  0.00    -0.354 N 
ATOM     32  N   UNL A   1      41.045  31.153  34.733  1.00  0.00    -0.248 NA
ATOM     33  C   UNL A   1      41.648  31.882  36.868  1.00  0.00     0.031 C 
ATOM     34  C   UNL A   1      43.154  27.961  32.485  1.00  0.00     0.029 A 
ATOM     35  C   UNL A   1      42.513  28.952  33.209  1.00  0.00     0.049 A 
ATOM     36  H   UNL A   1      40.795  30.070  32.701  1.00  0.00     0.167 HD
ATOM     37  C   UNL A   1      42.171  30.456  35.150  1.00  0.00     0.074 A 
ATOM     38  C   UNL A   1      42.518  30.969  36.460  1.00  0.00     0.031 C 
ATOM     39  C   UNL A   1      42.851  29.477  34.507  1.00  0.00     0.037 A 
BRANCH  26  40
ATOM     40  C   UNL A   1      40.475  27.934  29.020  1.00  0.00     0.064 A 
ATOM     41  C   UNL A   1      39.726  26.749  28.945  1.00  0.00     0.173 A 
ATOM     42  C   UNL A   1      41.261  28.283  27.911  1.00  0.00     0.173 A 
ATOM     43  F   UNL A   1      38.967  26.363  29.982  1.00  0.00    -0.203 F 
ATOM     44  C   UNL A   1      39.782  25.936  27.815  1.00  0.00     0.198 A 
ATOM     45  C   UNL A   1      41.292  27.482  26.772  1.00  0.00     0.198 A 
ATOM     46  F   UNL A   1      41.989  29.409  27.927  1.00  0.00    -0.203 F 
ATOM     47  F   UNL A   1      39.093  24.787  27.783  1.00  0.00    -0.200 F 
ATOM     48  C   UNL A   1      40.559  26.307  26.728  1.00  0.00     0.200 A 
ATOM     49  F   UNL A   1      42.032  27.849  25.717  1.00  0.00    -0.200 F 
ATOM     50  F   UNL A   1      40.604  25.528  25.638  1.00  0.00    -0.200 F 
ENDBRANCH  26  40
BRANCH  27  51
ATOM     51  C   UNL A   1      39.520  33.888  36.973  1.00  0.00     0.064 A 
ATOM     52  C   UNL A   1      38.802  33.481  38.105  1.00  0.00     0.173 A 
ATOM     53  C   UNL A   1      40.115  35.157  36.996  1.00  0.00     0.173 A 
ATOM     54  F   UNL A   1      38.198  32.284  38.122  1.00  0.00    -0.203 F 
ATOM     55  C   UNL A   1      38.670  34.319  39.211  1.00  0.00     0.198 A 
ATOM     56  C   UNL A   1      40.009  35.981  38.113  1.00  0.00     0.198 A 
ATOM     57  F   UNL A   1      40.818  35.589  35.938  1.00  0.00    -0.203 F 
ATOM     58  F   UNL A   1      37.942  33.924  40.264  1.00  0.00    -0.200 F 
ATOM     59  C   UNL A   1      39.279  35.565  39.217  1.00  0.00     0.200 A 
ATOM     60  F   UNL A   1      40.612  37.177  38.120  1.00  0.00    -0.200 F 
ATOM     61  F   UNL A   1      39.158  36.366  40.284  1.00  0.00    -0.200 F 
ENDBRANCH  27  51
BRANCH  39  62
ATOM     62  C   UNL A   1      44.066  28.925  35.195  1.00  0.00     0.064 A 
ATOM     63  C   UNL A   1      45.341  29.472  34.988  1.00  0.00     0.173 A 
ATOM     64  C   UNL A   1      43.949  27.847  36.085  1.00  0.00     0.173 A 
ATOM     65  F   UNL A   1      45.508  30.493  34.134  1.00  0.00    -0.203 F 
ATOM     66  C   UNL A   1      46.460  28.938  35.623  1.00  0.00     0.198 A 
ATOM     67  C   UNL A   1      45.065  27.335  36.741  1.00  0.00     0.198 A 
ATOM     68  F   UNL A   1      42.750  27.293  36.322  1.00  0.00    -0.203 F 
ATOM     69  F   UNL A   1      47.676  29.440  35.369  1.00  0.00    -0.200 F 
ATOM     70  C   UNL A   1      46.320  27.874  36.502  1.00  0.00     0.200 A 
ATOM     71  F   UNL A   1      44.926  26.315  37.599  1.00  0.00    -0.200 F 
ATOM     72  F   UNL A   1      47.397  27.362  37.113  1.00  0.00    -0.200 F 
ENDBRANCH  39  62
ENDBRANCH  13  14
ENDBRANCH   6   8
ENDBRANCH   3   4
ENDBRANCH   2   3
ENDBRANCH   1   2
BRANCH   1  73
ATOM     73  N   UNL A   1      31.645  29.870  27.198  1.00  0.00    -0.354 N 
ATOM     74  C   UNL A   1      31.774  28.512  27.121  1.00  0.00     0.249 C 
ATOM     75  H   UNL A   1      31.556  30.237  28.107  1.00  0.00     0.163 HD
ATOM     76  O   UNL A   1      31.669  27.866  28.164  1.00  0.00    -0.272 OA
BRANCH  74  77
ATOM     77  C   UNL A   1      31.981  27.855  25.745  1.00  0.00     0.207 C 
ATOM     78  C   UNL A   1      33.281  28.292  25.078  1.00  0.00     0.045 C 
ATOM     79  O   UNL A   1      30.918  28.171  24.826  1.00  0.00    -0.363 OA
ATOM     80  C   UNL A   1      32.925  28.288  23.616  1.00  0.00     0.037 C 
ATOM     81  C   UNL A   1      31.489  28.775  23.652  1.00  0.00     0.138 C 
BRANCH  81  82
ATOM     82  C   UNL A   1      30.712  28.363  22.401  1.00  0.00     0.148 C 
BRANCH  82  83
ATOM     83  N   UNL A   1      29.337  27.998  22.710  1.00  0.00    -0.349 N 
ATOM     84  C   UNL A   1      28.227  28.792  22.854  1.00  0.00     0.251 C 
ATOM     85  H   UNL A   1      29.179  27.034  22.834  1.00  0.00     0.163 HD
ATOM     86  O   UNL A   1      27.169  28.311  23.248  1.00  0.00    -0.269 OA
BRANCH  84  87
ATOM     87  C   UNL A   1      28.308  30.240  22.564  1.00  0.00     0.043 A 
ATOM     88  C   UNL A   1      28.667  31.163  23.555  1.00  0.00     0.014 A 
ATOM     89  C   UNL A   1      28.050  30.672  21.261  1.00  0.00     0.060 A 
ATOM     90  C   UNL A   1      28.696  32.526  23.255  1.00  0.00     0.005 A 
ATOM     91  C   UNL A   1      28.096  32.030  20.974  1.00  0.00     0.116 A 
ATOM     92  C   UNL A   1      28.404  32.964  21.962  1.00  0.00     0.046 A 
BRANCH  91  93
ATOM     93  O   UNL A   1      27.826  32.418  19.696  1.00  0.00    -0.508 OA
ATOM     94  H   UNL A   1      27.014  32.177  19.295  1.00  0.00     0.293 HD
ENDBRANCH  91  93
ENDBRANCH  84  87
ENDBRANCH  82  83
ENDBRANCH  81  82
ENDBRANCH  74  77
ENDBRANCH   1  73
TORSDOF 14
ENDMDL
