MODEL 1
REMARK VINA RESULT:     -13.2      0.000      0.000
REMARK SMILES CN(C)C(=O)[C@@H]1CC=CC[C@H]1C(=O)N1CCC(C(=O)NCCCNC(=O)c2ccc(-c3c4nc(c(-c5c(F)c(F)c(F)c(F)c5F)c5ccc([nH]5)c(-c5c(F)c(F)c(F)c(F)c5F)c5nc(c(-c6c(F)c(F)c(F)c(F)c6F)c6ccc3[nH]6)C=C5)C=C4)cc2)CC1
REMARK SMILES IDX 22 1 21 2 20 3 18 4 19 5 17 7 12 8 13 9 14 10 15 11 91 12
REMARK SMILES IDX 16 13 90 14 11 15 6 16 7 17 8 18 10 19 9 20 4 21 1 22 2 23
REMARK SMILES IDX 3 24 5 25 23 26 24 27 25 28 26 30 27 31 28 32 89 33 29 34
REMARK SMILES IDX 88 35 30 36 31 37 32 38 82 39 33 40 87 41 81 42 83 43 34 44
REMARK SMILES IDX 86 45 80 46 79 47 35 49 67 50 47 51 66 52 48 53 51 54 65 55
REMARK SMILES IDX 84 56 49 57 50 58 64 60 85 61 52 62 36 63 37 64 45 65 38 66
REMARK SMILES IDX 39 67 43 68 46 69 40 70 41 71 44 72 42 73 68 74 69 75 77 76
REMARK SMILES IDX 70 77 71 78 75 79 78 80 72 81 73 82 76 83 74 84 53 85 54 86
REMARK SMILES IDX 62 87 55 88 56 89 60 90 63 91 57 92 58 93 61 94 59 95
REMARK H PARENT 20 6 24 29 83 48 51 59
REMARK Flexibility Score: inf
ROOT
ATOM      1  C   UNL A   1      37.823  19.841  25.004  1.00  0.00     0.042 C 
ENDROOT
BRANCH   1   2
ATOM      2  C   UNL A   1      36.764  20.927  24.890  1.00  0.00     0.117 C 
BRANCH   2   3
ATOM      3  N   UNL A   1      35.651  20.697  25.802  1.00  0.00    -0.356 N 
ATOM      4  C   UNL A   1      34.528  21.428  26.046  1.00  0.00     0.223 C 
ATOM      5  O   UNL A   1      33.754  21.022  26.915  1.00  0.00    -0.275 OA
ATOM      6  H   UNL A   1      35.722  19.871  26.333  1.00  0.00     0.163 HD
BRANCH   4   7
ATOM      7  C   UNL A   1      34.217  22.692  25.259  1.00  0.00     0.082 C 
ATOM      8  C   UNL A   1      32.383  26.238  26.197  1.00  0.00     0.226 C 
ATOM      9  O   UNL A   1      31.429  25.844  26.876  1.00  0.00    -0.275 OA
ATOM     10  N   UNL A   1      33.099  25.346  25.415  1.00  0.00    -0.342 N 
ATOM     11  C   UNL A   1      32.374  24.326  24.672  1.00  0.00     0.120 C 
ATOM     12  C   UNL A   1      34.547  25.240  25.379  1.00  0.00     0.120 C 
ATOM     13  C   UNL A   1      32.707  22.926  25.148  1.00  0.00     0.035 C 
ATOM     14  C   UNL A   1      35.040  23.865  25.805  1.00  0.00     0.035 C 
BRANCH   8  15
ATOM     15  C   UNL A   1      32.547  27.756  25.946  1.00  0.00     0.095 C 
ATOM     16  C   UNL A   1      31.528  28.453  25.033  1.00  0.00     0.095 C 
ATOM     17  C   UNL A   1      31.412  29.989  25.129  1.00  0.00     0.041 C 
ATOM     18  C   UNL A   1      31.978  30.604  26.365  1.00  0.00    -0.030 C 
ATOM     19  C   UNL A   1      32.682  28.416  27.332  1.00  0.00     0.041 C 
ATOM     20  C   UNL A   1      32.549  29.903  27.348  1.00  0.00    -0.030 C 
BRANCH  16  21
ATOM     21  C   UNL A   1      31.669  28.039  23.566  1.00  0.00     0.226 C 
ATOM     22  C   UNL A   1      31.318  26.439  21.765  1.00  0.00     0.146 C 
ATOM     23  N   UNL A   1      30.921  26.986  23.054  1.00  0.00    -0.349 N 
ATOM     24  C   UNL A   1      29.643  26.509  23.568  1.00  0.00     0.146 C 
ATOM     25  O   UNL A   1      32.501  28.632  22.869  1.00  0.00    -0.275 OA
ENDBRANCH  16  21
ENDBRANCH   8  15
ENDBRANCH   4   7
ENDBRANCH   2   3
ENDBRANCH   1   2
BRANCH   1  26
ATOM     26  C   UNL A   1      39.064  20.280  25.764  1.00  0.00     0.118 C 
BRANCH  26  27
ATOM     27  N   UNL A   1      40.068  19.228  25.854  1.00  0.00    -0.352 N 
ATOM     28  C   UNL A   1      41.422  19.316  26.065  1.00  0.00     0.251 C 
ATOM     29  H   UNL A   1      39.722  18.312  25.747  1.00  0.00     0.163 HD
ATOM     30  O   UNL A   1      42.133  18.331  25.915  1.00  0.00    -0.269 OA
BRANCH  28  31
ATOM     31  C   UNL A   1      42.025  20.608  26.452  1.00  0.00     0.039 A 
ATOM     32  C   UNL A   1      42.439  21.489  25.450  1.00  0.00     0.014 A 
ATOM     33  C   UNL A   1      42.182  20.953  27.796  1.00  0.00     0.014 A 
ATOM     34  C   UNL A   1      42.941  22.744  25.797  1.00  0.00     0.010 A 
ATOM     35  C   UNL A   1      42.587  22.238  28.138  1.00  0.00     0.010 A 
ATOM     36  C   UNL A   1      42.977  23.145  27.143  1.00  0.00    -0.014 A 
BRANCH  36  37
ATOM     37  C   UNL A   1      43.419  24.506  27.534  1.00  0.00     0.031 A 
ATOM     38  C   UNL A   1      42.406  25.553  27.901  1.00  0.00     0.074 A 
ATOM     39  C   UNL A   1      44.728  24.819  27.488  1.00  0.00     0.049 A 
ATOM     40  N   UNL A   1      42.587  26.813  28.210  1.00  0.00    -0.248 NA
ATOM     41  C   UNL A   1      40.995  25.136  27.889  1.00  0.00     0.031 C 
ATOM     42  C   UNL A   1      45.803  23.903  27.107  1.00  0.00     0.029 A 
ATOM     43  N   UNL A   1      45.376  25.999  27.759  1.00  0.00    -0.354 N 
ATOM     44  C   UNL A   1      41.318  27.338  28.411  1.00  0.00     0.074 A 
ATOM     45  C   UNL A   1      40.373  26.281  28.125  1.00  0.00     0.031 C 
ATOM     46  C   UNL A   1      46.980  24.541  27.209  1.00  0.00     0.029 A 
ATOM     47  C   UNL A   1      46.739  25.922  27.613  1.00  0.00     0.049 A 
ATOM     48  H   UNL A   1      44.907  26.820  28.031  1.00  0.00     0.167 HD
ATOM     49  C   UNL A   1      40.972  28.583  28.820  1.00  0.00     0.037 A 
ATOM     50  C   UNL A   1      47.686  26.862  27.786  1.00  0.00     0.037 A 
ATOM     51  C   UNL A   1      41.920  29.626  29.113  1.00  0.00     0.049 A 
ATOM     52  C   UNL A   1      47.275  28.250  28.200  1.00  0.00     0.074 A 
ATOM     53  C   UNL A   1      41.681  30.899  29.596  1.00  0.00     0.029 A 
ATOM     54  N   UNL A   1      43.293  29.517  28.937  1.00  0.00    -0.354 N 
ATOM     55  N   UNL A   1      46.080  28.716  28.464  1.00  0.00    -0.248 NA
ATOM     56  C   UNL A   1      48.351  29.241  28.338  1.00  0.00     0.031 C 
ATOM     57  C   UNL A   1      42.900  31.584  29.648  1.00  0.00     0.029 A 
ATOM     58  C   UNL A   1      43.910  30.715  29.264  1.00  0.00     0.049 A 
ATOM     59  H   UNL A   1      43.760  28.709  28.626  1.00  0.00     0.167 HD
ATOM     60  C   UNL A   1      46.259  30.043  28.834  1.00  0.00     0.074 A 
ATOM     61  C   UNL A   1      47.683  30.302  28.768  1.00  0.00     0.031 C 
ATOM     62  C   UNL A   1      45.329  30.960  29.196  1.00  0.00     0.037 A 
BRANCH  49  63
ATOM     63  C   UNL A   1      39.504  28.880  28.953  1.00  0.00     0.064 A 
ATOM     64  C   UNL A   1      38.729  29.296  27.858  1.00  0.00     0.173 A 
ATOM     65  C   UNL A   1      38.861  28.751  30.193  1.00  0.00     0.173 A 
ATOM     66  F   UNL A   1      39.293  29.444  26.648  1.00  0.00    -0.203 F 
ATOM     67  C   UNL A   1      37.385  29.622  28.011  1.00  0.00     0.198 A 
ATOM     68  C   UNL A   1      37.506  29.042  30.335  1.00  0.00     0.198 A 
ATOM     69  F   UNL A   1      39.547  28.349  31.274  1.00  0.00    -0.203 F 
ATOM     70  F   UNL A   1      36.687  30.090  26.966  1.00  0.00    -0.200 F 
ATOM     71  C   UNL A   1      36.772  29.491  29.248  1.00  0.00     0.200 A 
ATOM     72  F   UNL A   1      36.912  28.897  31.527  1.00  0.00    -0.200 F 
ATOM     73  F   UNL A   1      35.480  29.808  29.395  1.00  0.00    -0.200 F 
ENDBRANCH  49  63
BRANCH  50  74
ATOM     74  C   UNL A   1      49.119  26.511  27.612  1.00  0.00     0.064 A 
ATOM     75  C   UNL A   1      49.930  26.255  28.726  1.00  0.00     0.173 A 
ATOM     76  C   UNL A   1      49.706  26.409  26.342  1.00  0.00     0.173 A 
ATOM     77  F   UNL A   1      49.420  26.359  29.963  1.00  0.00    -0.203 F 
ATOM     78  C   UNL A   1      51.275  25.923  28.579  1.00  0.00     0.198 A 
ATOM     79  C   UNL A   1      51.044  26.049  26.195  1.00  0.00     0.198 A 
ATOM     80  F   UNL A   1      48.973  26.640  25.243  1.00  0.00    -0.203 F 
ATOM     81  F   UNL A   1      52.036  25.723  29.663  1.00  0.00    -0.200 F 
ATOM     82  C   UNL A   1      51.829  25.814  27.313  1.00  0.00     0.200 A 
ATOM     83  F   UNL A   1      51.572  25.930  24.968  1.00  0.00    -0.200 F 
ATOM     84  F   UNL A   1      53.121  25.487  27.171  1.00  0.00    -0.200 F 
ENDBRANCH  50  74
BRANCH  62  85
ATOM     85  C   UNL A   1      45.823  32.324  29.589  1.00  0.00     0.064 A 
ATOM     86  C   UNL A   1      45.928  33.370  28.661  1.00  0.00     0.173 A 
ATOM     87  C   UNL A   1      46.158  32.598  30.925  1.00  0.00     0.173 A 
ATOM     88  F   UNL A   1      45.636  33.158  27.368  1.00  0.00    -0.203 F 
ATOM     89  C   UNL A   1      46.374  34.630  29.049  1.00  0.00     0.198 A 
ATOM     90  C   UNL A   1      46.569  33.869  31.317  1.00  0.00     0.198 A 
ATOM     91  F   UNL A   1      46.070  31.636  31.855  1.00  0.00    -0.203 F 
ATOM     92  F   UNL A   1      46.517  35.600  28.135  1.00  0.00    -0.200 F 
ATOM     93  C   UNL A   1      46.686  34.881  30.377  1.00  0.00     0.200 A 
ATOM     94  F   UNL A   1      46.854  34.112  32.604  1.00  0.00    -0.200 F 
ATOM     95  F   UNL A   1      47.106  36.098  30.751  1.00  0.00    -0.200 F 
ENDBRANCH  62  85
ENDBRANCH  36  37
ENDBRANCH  28  31
ENDBRANCH  26  27
ENDBRANCH   1  26
TORSDOF 12
ENDMDL
MODEL 2
REMARK VINA RESULT:     -13.1      0.793      2.115
REMARK SMILES CN(C)C(=O)[C@@H]1CC=CC[C@H]1C(=O)N1CCC(C(=O)NCCCNC(=O)c2ccc(-c3c4nc(c(-c5c(F)c(F)c(F)c(F)c5F)c5ccc([nH]5)c(-c5c(F)c(F)c(F)c(F)c5F)c5nc(c(-c6c(F)c(F)c(F)c(F)c6F)c6ccc3[nH]6)C=C5)C=C4)cc2)CC1
REMARK SMILES IDX 22 1 21 2 20 3 18 4 19 5 17 7 12 8 13 9 14 10 15 11 91 12
REMARK SMILES IDX 16 13 90 14 11 15 6 16 7 17 8 18 10 19 9 20 4 21 1 22 2 23
REMARK SMILES IDX 3 24 5 25 23 26 24 27 25 28 26 30 27 31 28 32 89 33 29 34
REMARK SMILES IDX 88 35 30 36 31 37 32 38 82 39 33 40 87 41 81 42 83 43 34 44
REMARK SMILES IDX 86 45 80 46 79 47 35 49 67 50 47 51 66 52 48 53 51 54 65 55
REMARK SMILES IDX 84 56 49 57 50 58 64 60 85 61 52 62 36 63 37 64 45 65 38 66
REMARK SMILES IDX 39 67 43 68 46 69 40 70 41 71 44 72 42 73 68 74 69 75 77 76
REMARK SMILES IDX 70 77 71 78 75 79 78 80 72 81 73 82 76 83 74 84 53 85 54 86
REMARK SMILES IDX 62 87 55 88 56 89 60 90 63 91 57 92 58 93 61 94 59 95
REMARK H PARENT 20 6 24 29 83 48 51 59
REMARK Flexibility Score: inf
ROOT
ATOM      1  C   UNL A   1      37.903  19.797  24.986  1.00  0.00     0.042 C 
ENDROOT
BRANCH   1   2
ATOM      2  C   UNL A   1      36.829  20.865  24.844  1.00  0.00     0.117 C 
BRANCH   2   3
ATOM      3  N   UNL A   1      35.752  20.683  25.809  1.00  0.00    -0.356 N 
ATOM      4  C   UNL A   1      34.657  21.445  26.081  1.00  0.00     0.223 C 
ATOM      5  O   UNL A   1      33.913  21.079  26.994  1.00  0.00    -0.275 OA
ATOM      6  H   UNL A   1      35.830  19.870  26.359  1.00  0.00     0.163 HD
BRANCH   4   7
ATOM      7  C   UNL A   1      34.338  22.694  25.275  1.00  0.00     0.082 C 
ATOM      8  C   UNL A   1      32.421  26.216  26.137  1.00  0.00     0.226 C 
ATOM      9  O   UNL A   1      31.462  25.811  26.802  1.00  0.00    -0.275 OA
ATOM     10  N   UNL A   1      33.168  25.329  25.378  1.00  0.00    -0.342 N 
ATOM     11  C   UNL A   1      32.476  24.287  24.633  1.00  0.00     0.120 C 
ATOM     12  C   UNL A   1      34.618  25.249  25.371  1.00  0.00     0.120 C 
ATOM     13  C   UNL A   1      32.826  22.899  25.132  1.00  0.00     0.035 C 
ATOM     14  C   UNL A   1      35.128  23.889  25.822  1.00  0.00     0.035 C 
BRANCH   8  15
ATOM     15  C   UNL A   1      32.562  27.733  25.871  1.00  0.00     0.095 C 
ATOM     16  C   UNL A   1      31.540  28.404  24.942  1.00  0.00     0.095 C 
ATOM     17  C   UNL A   1      31.398  29.939  25.021  1.00  0.00     0.041 C 
ATOM     18  C   UNL A   1      31.941  30.576  26.255  1.00  0.00    -0.030 C 
ATOM     19  C   UNL A   1      32.673  28.410  27.252  1.00  0.00     0.041 C 
ATOM     20  C   UNL A   1      32.515  29.895  27.251  1.00  0.00    -0.030 C 
BRANCH  16  21
ATOM     21  C   UNL A   1      31.701  27.977  23.480  1.00  0.00     0.226 C 
ATOM     22  C   UNL A   1      31.402  26.350  21.695  1.00  0.00     0.146 C 
ATOM     23  N   UNL A   1      30.983  26.900  22.976  1.00  0.00    -0.349 N 
ATOM     24  C   UNL A   1      29.713  26.398  23.486  1.00  0.00     0.146 C 
ATOM     25  O   UNL A   1      32.523  28.583  22.782  1.00  0.00    -0.275 OA
ENDBRANCH  16  21
ENDBRANCH   8  15
ENDBRANCH   4   7
ENDBRANCH   2   3
ENDBRANCH   1   2
BRANCH   1  26
ATOM     26  C   UNL A   1      39.125  20.264  25.759  1.00  0.00     0.118 C 
BRANCH  26  27
ATOM     27  N   UNL A   1      40.117  19.210  25.931  1.00  0.00    -0.352 N 
ATOM     28  C   UNL A   1      41.473  19.298  26.126  1.00  0.00     0.251 C 
ATOM     29  H   UNL A   1      39.759  18.293  25.902  1.00  0.00     0.163 HD
ATOM     30  O   UNL A   1      42.170  18.295  26.055  1.00  0.00    -0.269 OA
BRANCH  28  31
ATOM     31  C   UNL A   1      42.095  20.610  26.402  1.00  0.00     0.039 A 
ATOM     32  C   UNL A   1      42.522  21.395  25.328  1.00  0.00     0.014 A 
ATOM     33  C   UNL A   1      42.255  21.067  27.711  1.00  0.00     0.014 A 
ATOM     34  C   UNL A   1      43.042  22.668  25.567  1.00  0.00     0.010 A 
ATOM     35  C   UNL A   1      42.678  22.371  27.942  1.00  0.00     0.010 A 
ATOM     36  C   UNL A   1      43.082  23.183  26.873  1.00  0.00    -0.014 A 
BRANCH  36  37
ATOM     37  C   UNL A   1      43.544  24.567  27.146  1.00  0.00     0.031 A 
ATOM     38  C   UNL A   1      42.578  25.599  27.653  1.00  0.00     0.074 A 
ATOM     39  C   UNL A   1      44.816  24.910  26.868  1.00  0.00     0.049 A 
ATOM     40  N   UNL A   1      42.771  26.872  27.893  1.00  0.00    -0.248 NA
ATOM     41  C   UNL A   1      41.198  25.147  27.894  1.00  0.00     0.031 C 
ATOM     42  C   UNL A   1      45.838  24.010  26.333  1.00  0.00     0.029 A 
ATOM     43  N   UNL A   1      45.465  26.113  26.993  1.00  0.00    -0.354 N 
ATOM     44  C   UNL A   1      41.540  27.372  28.294  1.00  0.00     0.074 A 
ATOM     45  C   UNL A   1      40.592  26.282  28.203  1.00  0.00     0.031 C 
ATOM     46  C   UNL A   1      46.995  24.679  26.215  1.00  0.00     0.029 A 
ATOM     47  C   UNL A   1      46.785  26.066  26.618  1.00  0.00     0.049 A 
ATOM     48  H   UNL A   1      45.025  26.931  27.319  1.00  0.00     0.167 HD
ATOM     49  C   UNL A   1      41.232  28.619  28.724  1.00  0.00     0.037 A 
ATOM     50  C   UNL A   1      47.719  27.035  26.600  1.00  0.00     0.037 A 
ATOM     51  C   UNL A   1      42.184  29.694  28.821  1.00  0.00     0.049 A 
ATOM     52  C   UNL A   1      47.344  28.423  27.041  1.00  0.00     0.074 A 
ATOM     53  C   UNL A   1      41.993  30.976  29.304  1.00  0.00     0.029 A 
ATOM     54  N   UNL A   1      43.509  29.614  28.416  1.00  0.00    -0.354 N 
ATOM     55  N   UNL A   1      46.197  28.868  27.494  1.00  0.00    -0.248 NA
ATOM     56  C   UNL A   1      48.397  29.446  26.967  1.00  0.00     0.031 C 
ATOM     57  C   UNL A   1      43.181  31.692  29.128  1.00  0.00     0.029 A 
ATOM     58  C   UNL A   1      44.137  30.837  28.600  1.00  0.00     0.049 A 
ATOM     59  H   UNL A   1      43.940  28.808  28.051  1.00  0.00     0.167 HD
ATOM     60  C   UNL A   1      46.398  30.210  27.792  1.00  0.00     0.074 A 
ATOM     61  C   UNL A   1      47.781  30.503  27.476  1.00  0.00     0.031 C 
ATOM     62  C   UNL A   1      45.516  31.115  28.283  1.00  0.00     0.037 A 
BRANCH  49  63
ATOM     63  C   UNL A   1      39.799  28.884  29.098  1.00  0.00     0.064 A 
ATOM     64  C   UNL A   1      39.327  28.695  30.407  1.00  0.00     0.173 A 
ATOM     65  C   UNL A   1      38.884  29.332  28.134  1.00  0.00     0.173 A 
ATOM     66  F   UNL A   1      40.156  28.260  31.369  1.00  0.00    -0.203 F 
ATOM     67  C   UNL A   1      37.985  28.890  30.722  1.00  0.00     0.198 A 
ATOM     68  C   UNL A   1      37.550  29.564  28.462  1.00  0.00     0.198 A 
ATOM     69  F   UNL A   1      39.279  29.541  26.869  1.00  0.00    -0.203 F 
ATOM     70  F   UNL A   1      37.545  28.628  31.961  1.00  0.00    -0.200 F 
ATOM     71  C   UNL A   1      37.098  29.329  29.751  1.00  0.00     0.200 A 
ATOM     72  F   UNL A   1      36.698  30.006  27.526  1.00  0.00    -0.200 F 
ATOM     73  F   UNL A   1      35.807  29.514  30.054  1.00  0.00    -0.200 F 
ENDBRANCH  49  63
BRANCH  50  74
ATOM     74  C   UNL A   1      49.111  26.713  26.193  1.00  0.00     0.064 A 
ATOM     75  C   UNL A   1      49.519  26.876  24.861  1.00  0.00     0.173 A 
ATOM     76  C   UNL A   1      50.063  26.253  27.114  1.00  0.00     0.173 A 
ATOM     77  F   UNL A   1      48.640  27.295  23.939  1.00  0.00    -0.203 F 
ATOM     78  C   UNL A   1      50.821  26.579  24.464  1.00  0.00     0.198 A 
ATOM     79  C   UNL A   1      51.373  25.983  26.721  1.00  0.00     0.198 A 
ATOM     80  F   UNL A   1      49.726  26.083  28.401  1.00  0.00    -0.203 F 
ATOM     81  F   UNL A   1      51.172  26.706  23.177  1.00  0.00    -0.200 F 
ATOM     82  C   UNL A   1      51.748  26.140  25.396  1.00  0.00     0.200 A 
ATOM     83  F   UNL A   1      52.271  25.573  27.628  1.00  0.00    -0.200 F 
ATOM     84  F   UNL A   1      53.003  25.862  25.015  1.00  0.00    -0.200 F 
ENDBRANCH  50  74
BRANCH  62  85
ATOM     85  C   UNL A   1      46.028  32.502  28.550  1.00  0.00     0.064 A 
ATOM     86  C   UNL A   1      46.626  32.849  29.770  1.00  0.00     0.173 A 
ATOM     87  C   UNL A   1      45.955  33.489  27.553  1.00  0.00     0.173 A 
ATOM     88  F   UNL A   1      46.707  31.949  30.763  1.00  0.00    -0.203 F 
ATOM     89  C   UNL A   1      47.107  34.136  29.993  1.00  0.00     0.198 A 
ATOM     90  C   UNL A   1      46.470  34.764  27.766  1.00  0.00     0.198 A 
ATOM     91  F   UNL A   1      45.399  33.209  26.365  1.00  0.00    -0.203 F 
ATOM     92  F   UNL A   1      47.627  34.459  31.185  1.00  0.00    -0.200 F 
ATOM     93  C   UNL A   1      47.037  35.090  28.988  1.00  0.00     0.200 A 
ATOM     94  F   UNL A   1      46.415  35.679  26.787  1.00  0.00    -0.200 F 
ATOM     95  F   UNL A   1      47.510  36.326  29.200  1.00  0.00    -0.200 F 
ENDBRANCH  62  85
ENDBRANCH  36  37
ENDBRANCH  28  31
ENDBRANCH  26  27
ENDBRANCH   1  26
TORSDOF 12
ENDMDL
MODEL 3
REMARK VINA RESULT:     -13.0      5.188     10.685
REMARK SMILES CN(C)C(=O)[C@@H]1CC=CC[C@H]1C(=O)N1CCC(C(=O)NCCCNC(=O)c2ccc(-c3c4nc(c(-c5c(F)c(F)c(F)c(F)c5F)c5ccc([nH]5)c(-c5c(F)c(F)c(F)c(F)c5F)c5nc(c(-c6c(F)c(F)c(F)c(F)c6F)c6ccc3[nH]6)C=C5)C=C4)cc2)CC1
REMARK SMILES IDX 22 1 21 2 20 3 18 4 19 5 17 7 12 8 13 9 14 10 15 11 91 12
REMARK SMILES IDX 16 13 90 14 11 15 6 16 7 17 8 18 10 19 9 20 4 21 1 22 2 23
REMARK SMILES IDX 3 24 5 25 23 26 24 27 25 28 26 30 27 31 28 32 89 33 29 34
REMARK SMILES IDX 88 35 30 36 31 37 32 38 82 39 33 40 87 41 81 42 83 43 34 44
REMARK SMILES IDX 86 45 80 46 79 47 35 49 67 50 47 51 66 52 48 53 51 54 65 55
REMARK SMILES IDX 84 56 49 57 50 58 64 60 85 61 52 62 36 63 37 64 45 65 38 66
REMARK SMILES IDX 39 67 43 68 46 69 40 70 41 71 44 72 42 73 68 74 69 75 77 76
REMARK SMILES IDX 70 77 71 78 75 79 78 80 72 81 73 82 76 83 74 84 53 85 54 86
REMARK SMILES IDX 62 87 55 88 56 89 60 90 63 91 57 92 58 93 61 94 59 95
REMARK H PARENT 20 6 24 29 83 48 51 59
REMARK Flexibility Score: inf
ROOT
ATOM      1  C   UNL A   1      31.448  31.871  26.724  1.00  0.00     0.042 C 
ENDROOT
BRANCH   1   2
ATOM      2  C   UNL A   1      31.691  30.416  26.351  1.00  0.00     0.117 C 
BRANCH   2   3
ATOM      3  N   UNL A   1      31.966  30.259  24.928  1.00  0.00    -0.356 N 
ATOM      4  C   UNL A   1      32.288  29.157  24.196  1.00  0.00     0.223 C 
ATOM      5  O   UNL A   1      32.515  29.311  22.994  1.00  0.00    -0.275 OA
ATOM      6  H   UNL A   1      31.909  31.092  24.407  1.00  0.00     0.163 HD
BRANCH   4   7
ATOM      7  C   UNL A   1      32.342  27.773  24.824  1.00  0.00     0.082 C 
ATOM      8  C   UNL A   1      34.519  24.386  24.045  1.00  0.00     0.226 C 
ATOM      9  O   UNL A   1      34.483  24.356  22.810  1.00  0.00    -0.275 OA
ATOM     10  N   UNL A   1      33.647  25.202  24.748  1.00  0.00    -0.342 N 
ATOM     11  C   UNL A   1      32.263  25.295  24.308  1.00  0.00     0.120 C 
ATOM     12  C   UNL A   1      34.028  26.106  25.820  1.00  0.00     0.120 C 
ATOM     13  C   UNL A   1      31.906  26.690  23.833  1.00  0.00     0.035 C 
ATOM     14  C   UNL A   1      33.701  27.557  25.501  1.00  0.00     0.035 C 
BRANCH   8  15
ATOM     15  C   UNL A   1      35.273  23.267  24.801  1.00  0.00     0.095 C 
ATOM     16  C   UNL A   1      34.736  21.832  24.696  1.00  0.00     0.095 C 
ATOM     17  C   UNL A   1      35.694  20.679  25.056  1.00  0.00     0.041 C 
ATOM     18  C   UNL A   1      37.146  21.023  25.064  1.00  0.00    -0.030 C 
ATOM     19  C   UNL A   1      36.757  23.397  24.405  1.00  0.00     0.041 C 
ATOM     20  C   UNL A   1      37.622  22.238  24.778  1.00  0.00    -0.030 C 
BRANCH  16  21
ATOM     21  C   UNL A   1      33.406  21.645  25.431  1.00  0.00     0.226 C 
ATOM     22  C   UNL A   1      30.994  21.940  25.572  1.00  0.00     0.146 C 
ATOM     23  N   UNL A   1      32.199  21.821  24.765  1.00  0.00    -0.349 N 
ATOM     24  C   UNL A   1      31.980  21.682  23.331  1.00  0.00     0.146 C 
ATOM     25  O   UNL A   1      33.439  21.384  26.639  1.00  0.00    -0.275 OA
ENDBRANCH  16  21
ENDBRANCH   8  15
ENDBRANCH   4   7
ENDBRANCH   2   3
ENDBRANCH   1   2
BRANCH   1  26
ATOM     26  C   UNL A   1      32.693  32.586  27.224  1.00  0.00     0.118 C 
BRANCH  26  27
ATOM     27  N   UNL A   1      32.443  33.982  27.554  1.00  0.00    -0.352 N 
ATOM     28  C   UNL A   1      32.999  34.771  28.531  1.00  0.00     0.251 C 
ATOM     29  H   UNL A   1      31.770  34.429  26.991  1.00  0.00     0.163 HD
ATOM     30  O   UNL A   1      32.520  35.870  28.781  1.00  0.00    -0.269 OA
BRANCH  28  31
ATOM     31  C   UNL A   1      34.166  34.284  29.296  1.00  0.00     0.039 A 
ATOM     32  C   UNL A   1      33.953  33.647  30.521  1.00  0.00     0.014 A 
ATOM     33  C   UNL A   1      35.464  34.453  28.810  1.00  0.00     0.014 A 
ATOM     34  C   UNL A   1      35.038  33.114  31.220  1.00  0.00     0.010 A 
ATOM     35  C   UNL A   1      36.530  33.836  29.455  1.00  0.00     0.010 A 
ATOM     36  C   UNL A   1      36.329  33.166  30.670  1.00  0.00    -0.014 A 
BRANCH  36  37
ATOM     37  C   UNL A   1      37.485  32.527  31.347  1.00  0.00     0.031 A 
ATOM     38  C   UNL A   1      38.205  31.383  30.693  1.00  0.00     0.074 A 
ATOM     39  C   UNL A   1      37.839  32.933  32.582  1.00  0.00     0.049 A 
ATOM     40  N   UNL A   1      39.195  30.655  31.148  1.00  0.00    -0.248 NA
ATOM     41  C   UNL A   1      37.729  30.980  29.360  1.00  0.00     0.031 C 
ATOM     42  C   UNL A   1      37.192  34.004  33.338  1.00  0.00     0.029 A 
ATOM     43  N   UNL A   1      38.830  32.485  33.420  1.00  0.00    -0.354 N 
ATOM     44  C   UNL A   1      39.445  29.704  30.168  1.00  0.00     0.074 A 
ATOM     45  C   UNL A   1      38.462  29.904  29.125  1.00  0.00     0.031 C 
ATOM     46  C   UNL A   1      37.827  34.160  34.510  1.00  0.00     0.029 A 
ATOM     47  C   UNL A   1      38.893  33.168  34.609  1.00  0.00     0.049 A 
ATOM     48  H   UNL A   1      39.435  31.744  33.190  1.00  0.00     0.167 HD
ATOM     49  C   UNL A   1      40.420  28.764  30.129  1.00  0.00     0.037 A 
ATOM     50  C   UNL A   1      39.718  33.010  35.660  1.00  0.00     0.037 A 
ATOM     51  C   UNL A   1      41.400  28.579  31.167  1.00  0.00     0.049 A 
ATOM     52  C   UNL A   1      40.766  31.932  35.614  1.00  0.00     0.074 A 
ATOM     53  C   UNL A   1      42.469  27.703  31.199  1.00  0.00     0.029 A 
ATOM     54  N   UNL A   1      41.422  29.280  32.366  1.00  0.00    -0.354 N 
ATOM     55  N   UNL A   1      41.047  31.089  34.650  1.00  0.00    -0.248 NA
ATOM     56  C   UNL A   1      41.614  31.785  36.805  1.00  0.00     0.031 C 
ATOM     57  C   UNL A   1      43.098  27.823  32.444  1.00  0.00     0.029 A 
ATOM     58  C   UNL A   1      42.463  28.825  33.162  1.00  0.00     0.049 A 
ATOM     59  H   UNL A   1      40.792  29.993  32.615  1.00  0.00     0.167 HD
ATOM     60  C   UNL A   1      42.123  30.335  35.101  1.00  0.00     0.074 A 
ATOM     61  C   UNL A   1      42.450  30.830  36.423  1.00  0.00     0.031 C 
ATOM     62  C   UNL A   1      42.780  29.327  34.476  1.00  0.00     0.037 A 
BRANCH  49  63
ATOM     63  C   UNL A   1      40.454  27.856  28.932  1.00  0.00     0.064 A 
ATOM     64  C   UNL A   1      41.222  28.155  27.794  1.00  0.00     0.173 A 
ATOM     65  C   UNL A   1      39.706  26.669  28.918  1.00  0.00     0.173 A 
ATOM     66  F   UNL A   1      41.951  29.281  27.748  1.00  0.00    -0.203 F 
ATOM     67  C   UNL A   1      41.196  27.331  26.672  1.00  0.00     0.198 A 
ATOM     68  C   UNL A   1      39.713  25.827  27.808  1.00  0.00     0.198 A 
ATOM     69  F   UNL A   1      38.961  26.325  29.979  1.00  0.00    -0.203 F 
ATOM     70  F   UNL A   1      41.877  27.680  25.571  1.00  0.00    -0.200 F 
ATOM     71  C   UNL A   1      40.446  26.165  26.681  1.00  0.00     0.200 A 
ATOM     72  F   UNL A   1      39.002  24.691  27.826  1.00  0.00    -0.200 F 
ATOM     73  F   UNL A   1      40.419  25.375  25.600  1.00  0.00    -0.200 F 
ENDBRANCH  49  63
BRANCH  50  74
ATOM     74  C   UNL A   1      39.614  33.924  36.827  1.00  0.00     0.064 A 
ATOM     75  C   UNL A   1      38.840  33.571  37.942  1.00  0.00     0.173 A 
ATOM     76  C   UNL A   1      40.288  35.153  36.864  1.00  0.00     0.173 A 
ATOM     77  F   UNL A   1      38.161  32.414  37.945  1.00  0.00    -0.203 F 
ATOM     78  C   UNL A   1      38.734  34.418  39.043  1.00  0.00     0.198 A 
ATOM     79  C   UNL A   1      40.203  35.986  37.978  1.00  0.00     0.198 A 
ATOM     80  F   UNL A   1      41.044  35.537  35.825  1.00  0.00    -0.203 F 
ATOM     81  F   UNL A   1      37.955  34.073  40.077  1.00  0.00    -0.200 F 
ATOM     82  C   UNL A   1      39.421  35.621  39.063  1.00  0.00     0.200 A 
ATOM     83  F   UNL A   1      40.882  37.143  38.000  1.00  0.00    -0.200 F 
ATOM     84  F   UNL A   1      39.325  36.432  40.126  1.00  0.00    -0.200 F 
ENDBRANCH  50  74
BRANCH  62  85
ATOM     85  C   UNL A   1      43.947  28.715  35.196  1.00  0.00     0.064 A 
ATOM     86  C   UNL A   1      43.796  27.610  36.046  1.00  0.00     0.173 A 
ATOM     87  C   UNL A   1      45.244  29.218  35.001  1.00  0.00     0.173 A 
ATOM     88  F   UNL A   1      42.577  27.100  36.282  1.00  0.00    -0.203 F 
ATOM     89  C   UNL A   1      44.893  27.048  36.694  1.00  0.00     0.198 A 
ATOM     90  C   UNL A   1      46.343  28.631  35.621  1.00  0.00     0.198 A 
ATOM     91  F   UNL A   1      45.446  30.269  34.193  1.00  0.00    -0.203 F 
ATOM     92  F   UNL A   1      44.718  26.026  37.543  1.00  0.00    -0.200 F 
ATOM     93  C   UNL A   1      46.166  27.552  36.474  1.00  0.00     0.200 A 
ATOM     94  F   UNL A   1      47.574  29.110  35.393  1.00  0.00    -0.200 F 
ATOM     95  F   UNL A   1      47.223  27.004  37.090  1.00  0.00    -0.200 F 
ENDBRANCH  62  85
ENDBRANCH  36  37
ENDBRANCH  28  31
ENDBRANCH  26  27
ENDBRANCH   1  26
TORSDOF 12
ENDMDL
