MODEL 1
REMARK VINA RESULT:     -10.8      0.000      0.000
REMARK SMILES CCCC#C[C@](C)(O)C[NH2+][C@H](C)C(=O)NCCCNC(=O)c1ccc(-c2c3nc(c(-c4c(F)c(F)c(F)c(F)c4F)c4ccc([nH]4)c(-c4c(F)c(F)c(F)c(F)c4F)c4nc(c(-c5c(F)c(F)c(F)c(F)c5F)c5ccc2[nH]5)C=C4)C=C3)cc1
REMARK SMILES IDX 13 1 14 2 15 3 11 5 12 6 10 7 9 10 6 11 7 12 5 13 4 14 3 15
REMARK SMILES IDX 2 16 1 17 8 18 16 20 17 21 18 22 19 23 20 24 21 26 22 27
REMARK SMILES IDX 23 28 84 29 24 30 83 31 25 32 26 33 27 34 77 35 28 36 82 37
REMARK SMILES IDX 76 38 78 39 29 40 81 41 75 42 74 43 30 45 62 46 42 47 61 48
REMARK SMILES IDX 43 49 46 50 60 51 79 52 44 53 45 54 59 56 80 57 47 58 31 59
REMARK SMILES IDX 32 60 40 61 33 62 34 63 38 64 41 65 35 66 36 67 39 68 37 69
REMARK SMILES IDX 63 70 64 71 72 72 65 73 66 74 70 75 73 76 67 77 68 78 71 79
REMARK SMILES IDX 69 80 48 81 49 82 57 83 50 84 51 85 55 86 58 87 52 88 53 89
REMARK SMILES IDX 56 90 54 91
REMARK H PARENT 15 4 10 8 10 9 8 19 19 25 78 44 46 55
REMARK Flexibility Score: inf
ROOT
ATOM      1  C   UNL A   1      33.066  29.040  26.196  1.00  0.00     0.277 C 
ATOM      2  O   UNL A   1      34.273  28.792  26.273  1.00  0.00    -0.268 OA
ATOM      3  N   UNL A   1      32.700  30.351  26.024  1.00  0.00    -0.351 N 
ATOM      4  H   UNL A   1      33.445  30.996  26.046  1.00  0.00     0.163 HD
ENDROOT
BRANCH   1   5
ATOM      5  C   UNL A   1      32.010  27.918  26.360  1.00  0.00     0.269 C 
ATOM      6  C   UNL A   1      31.473  27.956  27.796  1.00  0.00     0.086 C 
BRANCH   5   7
ATOM      7  N   UNL A   1      31.074  27.981  25.224  1.00  0.00    -0.333 N 
ATOM      8  H   UNL A   1      30.160  27.680  25.564  1.00  0.00     0.347 HD
ATOM      9  H   UNL A   1      31.117  28.947  24.900  1.00  0.00     0.347 HD
BRANCH   7  10
ATOM     10  C   UNL A   1      31.396  27.172  24.050  1.00  0.00     0.310 C 
BRANCH  10  11
ATOM     11  C   UNL A   1      31.350  27.975  22.719  1.00  0.00     0.171 C 
ATOM     12  C   UNL A   1      32.516  28.949  22.527  1.00  0.00     0.063 C 
BRANCH  11  13
ATOM     13  C   UNL A   1      30.086  28.729  22.691  1.00  0.00    -0.063 C 
ATOM     14  C   UNL A   1      28.944  29.357  22.723  1.00  0.00    -0.100 C 
BRANCH  14  15
ATOM     15  C   UNL A   1      27.613  30.090  22.761  1.00  0.00     0.089 C 
BRANCH  15  16
ATOM     16  C   UNL A   1      27.681  31.311  23.678  1.00  0.00     0.010 C 
ATOM     17  C   UNL A   1      28.795  32.281  23.303  1.00  0.00     0.005 C 
ENDBRANCH  15  16
ENDBRANCH  14  15
ENDBRANCH  11  13
BRANCH  11  18
ATOM     18  O   UNL A   1      31.366  27.041  21.634  1.00  0.00    -0.372 OA
ATOM     19  H   UNL A   1      31.505  27.517  20.800  1.00  0.00     0.212 HD
ENDBRANCH  11  18
ENDBRANCH  10  11
ENDBRANCH   7  10
ENDBRANCH   5   7
ENDBRANCH   1   5
BRANCH   3  20
ATOM     20  C   UNL A   1      31.388  30.935  25.815  1.00  0.00     0.118 C 
BRANCH  20  21
ATOM     21  C   UNL A   1      31.184  32.254  26.543  1.00  0.00     0.042 C 
BRANCH  21  22
ATOM     22  C   UNL A   1      32.448  32.795  27.188  1.00  0.00     0.118 C 
BRANCH  22  23
ATOM     23  N   UNL A   1      32.319  34.192  27.582  1.00  0.00    -0.352 N 
ATOM     24  C   UNL A   1      32.974  34.909  28.548  1.00  0.00     0.251 C 
ATOM     25  H   UNL A   1      31.652  34.705  27.071  1.00  0.00     0.163 HD
ATOM     26  O   UNL A   1      32.574  36.036  28.839  1.00  0.00    -0.269 OA
BRANCH  24  27
ATOM     27  C   UNL A   1      34.141  34.343  29.258  1.00  0.00     0.039 A 
ATOM     28  C   UNL A   1      33.928  33.649  30.453  1.00  0.00     0.014 A 
ATOM     29  C   UNL A   1      35.442  34.515  28.779  1.00  0.00     0.014 A 
ATOM     30  C   UNL A   1      35.009  33.081  31.131  1.00  0.00     0.010 A 
ATOM     31  C   UNL A   1      36.506  33.870  29.402  1.00  0.00     0.010 A 
ATOM     32  C   UNL A   1      36.303  33.158  30.592  1.00  0.00    -0.014 A 
BRANCH  32  33
ATOM     33  C   UNL A   1      37.454  32.507  31.266  1.00  0.00     0.031 A 
ATOM     34  C   UNL A   1      38.204  31.396  30.585  1.00  0.00     0.074 A 
ATOM     35  C   UNL A   1      37.788  32.881  32.516  1.00  0.00     0.049 A 
ATOM     36  N   UNL A   1      39.208  30.681  31.028  1.00  0.00    -0.248 NA
ATOM     37  C   UNL A   1      37.747  31.016  29.240  1.00  0.00     0.031 C 
ATOM     38  C   UNL A   1      37.101  33.905  33.305  1.00  0.00     0.029 A 
ATOM     39  N   UNL A   1      38.788  32.439  33.345  1.00  0.00    -0.354 N 
ATOM     40  C   UNL A   1      39.490  29.763  30.024  1.00  0.00     0.074 A 
ATOM     41  C   UNL A   1      38.514  29.970  28.976  1.00  0.00     0.031 C 
ATOM     42  C   UNL A   1      37.720  34.038  34.488  1.00  0.00     0.029 A 
ATOM     43  C   UNL A   1      38.824  33.086  34.556  1.00  0.00     0.049 A 
ATOM     44  H   UNL A   1      39.421  31.727  33.095  1.00  0.00     0.167 HD
ATOM     45  C   UNL A   1      40.488  28.849  29.970  1.00  0.00     0.037 A 
ATOM     46  C   UNL A   1      39.656  32.928  35.603  1.00  0.00     0.037 A 
ATOM     47  C   UNL A   1      41.473  28.664  31.003  1.00  0.00     0.049 A 
ATOM     48  C   UNL A   1      40.763  31.914  35.512  1.00  0.00     0.074 A 
ATOM     49  C   UNL A   1      42.558  27.806  31.020  1.00  0.00     0.029 A 
ATOM     50  N   UNL A   1      41.488  29.351  32.209  1.00  0.00    -0.354 N 
ATOM     51  N   UNL A   1      41.063  31.100  34.529  1.00  0.00    -0.248 NA
ATOM     52  C   UNL A   1      41.653  31.805  36.676  1.00  0.00     0.031 C 
ATOM     53  C   UNL A   1      43.207  27.944  32.252  1.00  0.00     0.029 A 
ATOM     54  C   UNL A   1      42.554  28.922  32.984  1.00  0.00     0.049 A 
ATOM     55  H   UNL A   1      40.837  30.039  32.474  1.00  0.00     0.167 HD
ATOM     56  C   UNL A   1      42.189  30.402  34.942  1.00  0.00     0.074 A 
ATOM     57  C   UNL A   1      42.529  30.903  36.258  1.00  0.00     0.031 C 
ATOM     58  C   UNL A   1      42.879  29.433  34.292  1.00  0.00     0.037 A 
BRANCH  45  59
ATOM     59  C   UNL A   1      40.565  27.984  28.744  1.00  0.00     0.064 A 
ATOM     60  C   UNL A   1      39.887  26.757  28.667  1.00  0.00     0.173 A 
ATOM     61  C   UNL A   1      41.307  28.393  27.627  1.00  0.00     0.173 A 
ATOM     62  F   UNL A   1      39.173  26.312  29.712  1.00  0.00    -0.203 F 
ATOM     63  C   UNL A   1      39.978  25.956  27.530  1.00  0.00     0.198 A 
ATOM     64  C   UNL A   1      41.370  27.605  26.479  1.00  0.00     0.198 A 
ATOM     65  F   UNL A   1      41.971  29.559  27.645  1.00  0.00    -0.203 F 
ATOM     66  F   UNL A   1      39.368  24.764  27.502  1.00  0.00    -0.200 F 
ATOM     67  C   UNL A   1      40.714  26.384  26.435  1.00  0.00     0.200 A 
ATOM     68  F   UNL A   1      42.072  28.025  25.418  1.00  0.00    -0.200 F 
ATOM     69  F   UNL A   1      40.798  25.615  25.342  1.00  0.00    -0.200 F 
ENDBRANCH  45  59
BRANCH  46  70
ATOM     70  C   UNL A   1      39.499  33.782  36.807  1.00  0.00     0.064 A 
ATOM     71  C   UNL A   1      38.766  33.332  37.914  1.00  0.00     0.173 A 
ATOM     72  C   UNL A   1      40.080  35.056  36.882  1.00  0.00     0.173 A 
ATOM     73  F   UNL A   1      38.177  32.128  37.881  1.00  0.00    -0.203 F 
ATOM     74  C   UNL A   1      38.604  34.131  39.043  1.00  0.00     0.198 A 
ATOM     75  C   UNL A   1      39.939  35.844  38.023  1.00  0.00     0.198 A 
ATOM     76  F   UNL A   1      40.796  35.530  35.853  1.00  0.00    -0.203 F 
ATOM     77  F   UNL A   1      37.863  33.693  40.071  1.00  0.00    -0.200 F 
ATOM     78  C   UNL A   1      39.195  35.384  39.099  1.00  0.00     0.200 A 
ATOM     79  F   UNL A   1      40.524  37.047  38.080  1.00  0.00    -0.200 F 
ATOM     80  F   UNL A   1      39.043  36.150  40.189  1.00  0.00    -0.200 F 
ENDBRANCH  46  70
BRANCH  58  81
ATOM     81  C   UNL A   1      44.087  28.873  34.985  1.00  0.00     0.064 A 
ATOM     82  C   UNL A   1      44.012  27.722  35.783  1.00  0.00     0.173 A 
ATOM     83  C   UNL A   1      45.340  29.487  34.834  1.00  0.00     0.173 A 
ATOM     84  F   UNL A   1      42.834  27.109  35.973  1.00  0.00    -0.203 F 
ATOM     85  C   UNL A   1      45.139  27.227  36.433  1.00  0.00     0.198 A 
ATOM     86  C   UNL A   1      46.471  28.971  35.459  1.00  0.00     0.198 A 
ATOM     87  F   UNL A   1      45.467  30.586  34.075  1.00  0.00    -0.203 F 
ATOM     88  F   UNL A   1      45.032  26.161  37.237  1.00  0.00    -0.200 F 
ATOM     89  C   UNL A   1      46.368  27.847  36.265  1.00  0.00     0.200 A 
ATOM     90  F   UNL A   1      47.660  29.564  35.286  1.00  0.00    -0.200 F 
ATOM     91  F   UNL A   1      47.452  27.369  36.891  1.00  0.00    -0.200 F 
ENDBRANCH  58  81
ENDBRANCH  32  33
ENDBRANCH  24  27
ENDBRANCH  22  23
ENDBRANCH  21  22
ENDBRANCH  20  21
ENDBRANCH   3  20
TORSDOF 17
ENDMDL
MODEL 2
REMARK VINA RESULT:     -10.7      0.751      7.567
REMARK SMILES CCCC#C[C@](C)(O)C[NH2+][C@H](C)C(=O)NCCCNC(=O)c1ccc(-c2c3nc(c(-c4c(F)c(F)c(F)c(F)c4F)c4ccc([nH]4)c(-c4c(F)c(F)c(F)c(F)c4F)c4nc(c(-c5c(F)c(F)c(F)c(F)c5F)c5ccc2[nH]5)C=C4)C=C3)cc1
REMARK SMILES IDX 13 1 14 2 15 3 11 5 12 6 10 7 9 10 6 11 7 12 5 13 4 14 3 15
REMARK SMILES IDX 2 16 1 17 8 18 16 20 17 21 18 22 19 23 20 24 21 26 22 27
REMARK SMILES IDX 23 28 84 29 24 30 83 31 25 32 26 33 27 34 77 35 28 36 82 37
REMARK SMILES IDX 76 38 78 39 29 40 81 41 75 42 74 43 30 45 62 46 42 47 61 48
REMARK SMILES IDX 43 49 46 50 60 51 79 52 44 53 45 54 59 56 80 57 47 58 31 59
REMARK SMILES IDX 32 60 40 61 33 62 34 63 38 64 41 65 35 66 36 67 39 68 37 69
REMARK SMILES IDX 63 70 64 71 72 72 65 73 66 74 70 75 73 76 67 77 68 78 71 79
REMARK SMILES IDX 69 80 48 81 49 82 57 83 50 84 51 85 55 86 58 87 52 88 53 89
REMARK SMILES IDX 56 90 54 91
REMARK H PARENT 15 4 10 8 10 9 8 19 19 25 78 44 46 55
REMARK Flexibility Score: inf
ROOT
ATOM      1  C   UNL A   1      31.674  28.428  27.061  1.00  0.00     0.277 C 
ATOM      2  O   UNL A   1      31.476  27.741  28.067  1.00  0.00    -0.268 OA
ATOM      3  N   UNL A   1      31.416  29.771  27.151  1.00  0.00    -0.351 N 
ATOM      4  H   UNL A   1      31.023  30.062  28.007  1.00  0.00     0.163 HD
ENDROOT
BRANCH   1   5
ATOM      5  C   UNL A   1      32.128  27.777  25.730  1.00  0.00     0.269 C 
ATOM      6  C   UNL A   1      33.219  26.744  26.035  1.00  0.00     0.086 C 
BRANCH   5   7
ATOM      7  N   UNL A   1      30.931  27.376  24.968  1.00  0.00    -0.333 N 
ATOM      8  H   UNL A   1      30.393  26.739  25.556  1.00  0.00     0.347 HD
ATOM      9  H   UNL A   1      30.461  28.251  24.737  1.00  0.00     0.347 HD
BRANCH   7  10
ATOM     10  C   UNL A   1      31.151  26.713  23.685  1.00  0.00     0.310 C 
BRANCH  10  11
ATOM     11  C   UNL A   1      31.227  27.701  22.486  1.00  0.00     0.171 C 
ATOM     12  C   UNL A   1      32.442  28.633  22.512  1.00  0.00     0.063 C 
BRANCH  11  13
ATOM     13  C   UNL A   1      30.000  28.514  22.494  1.00  0.00    -0.063 C 
ATOM     14  C   UNL A   1      28.906  29.220  22.572  1.00  0.00    -0.100 C 
BRANCH  14  15
ATOM     15  C   UNL A   1      27.632  30.044  22.663  1.00  0.00     0.089 C 
BRANCH  15  16
ATOM     16  C   UNL A   1      27.790  31.199  23.652  1.00  0.00     0.010 C 
ATOM     17  C   UNL A   1      28.443  32.430  23.036  1.00  0.00     0.005 C 
ENDBRANCH  15  16
ENDBRANCH  14  15
ENDBRANCH  11  13
BRANCH  11  18
ATOM     18  O   UNL A   1      31.278  26.936  21.278  1.00  0.00    -0.372 OA
ATOM     19  H   UNL A   1      31.329  25.992  21.495  1.00  0.00     0.212 HD
ENDBRANCH  11  18
ENDBRANCH  10  11
ENDBRANCH   7  10
ENDBRANCH   5   7
ENDBRANCH   1   5
BRANCH   3  20
ATOM     20  C   UNL A   1      31.630  30.832  26.183  1.00  0.00     0.118 C 
BRANCH  20  21
ATOM     21  C   UNL A   1      31.430  32.227  26.751  1.00  0.00     0.042 C 
BRANCH  21  22
ATOM     22  C   UNL A   1      32.727  32.982  26.983  1.00  0.00     0.118 C 
BRANCH  22  23
ATOM     23  N   UNL A   1      32.513  34.279  27.612  1.00  0.00    -0.352 N 
ATOM     24  C   UNL A   1      33.099  34.842  28.715  1.00  0.00     0.251 C 
ATOM     25  H   UNL A   1      31.835  34.844  27.173  1.00  0.00     0.163 HD
ATOM     26  O   UNL A   1      32.631  35.880  29.184  1.00  0.00    -0.269 OA
BRANCH  24  27
ATOM     27  C   UNL A   1      34.271  34.213  29.359  1.00  0.00     0.039 A 
ATOM     28  C   UNL A   1      34.056  33.266  30.365  1.00  0.00     0.014 A 
ATOM     29  C   UNL A   1      35.576  34.569  29.009  1.00  0.00     0.014 A 
ATOM     30  C   UNL A   1      35.145  32.637  30.973  1.00  0.00     0.010 A 
ATOM     31  C   UNL A   1      36.656  33.875  29.546  1.00  0.00     0.010 A 
ATOM     32  C   UNL A   1      36.453  32.911  30.543  1.00  0.00    -0.014 A 
BRANCH  32  33
ATOM     33  C   UNL A   1      37.618  32.207  31.134  1.00  0.00     0.031 A 
ATOM     34  C   UNL A   1      38.106  32.570  32.510  1.00  0.00     0.074 A 
ATOM     35  C   UNL A   1      38.271  31.279  30.409  1.00  0.00     0.049 A 
ATOM     36  N   UNL A   1      39.128  32.096  33.178  1.00  0.00    -0.248 NA
ATOM     37  C   UNL A   1      37.366  33.625  33.218  1.00  0.00     0.031 C 
ATOM     38  C   UNL A   1      37.931  30.881  29.042  1.00  0.00     0.029 A 
ATOM     39  N   UNL A   1      39.361  30.505  30.718  1.00  0.00    -0.354 N 
ATOM     40  C   UNL A   1      39.159  32.804  34.372  1.00  0.00     0.074 A 
ATOM     41  C   UNL A   1      38.093  33.780  34.313  1.00  0.00     0.031 C 
ATOM     42  C   UNL A   1      38.771  29.914  28.643  1.00  0.00     0.029 A 
ATOM     43  C   UNL A   1      39.729  29.648  29.711  1.00  0.00     0.049 A 
ATOM     44  H   UNL A   1      39.832  30.557  31.581  1.00  0.00     0.167 HD
ATOM     45  C   UNL A   1      39.985  32.638  35.434  1.00  0.00     0.037 A 
ATOM     46  C   UNL A   1      40.729  28.747  29.657  1.00  0.00     0.037 A 
ATOM     47  C   UNL A   1      41.028  31.648  35.499  1.00  0.00     0.049 A 
ATOM     48  C   UNL A   1      41.625  28.574  30.853  1.00  0.00     0.074 A 
ATOM     49  C   UNL A   1      41.881  31.359  36.550  1.00  0.00     0.029 A 
ATOM     50  N   UNL A   1      41.361  30.785  34.465  1.00  0.00    -0.354 N 
ATOM     51  N   UNL A   1      41.601  29.201  32.003  1.00  0.00    -0.248 NA
ATOM     52  C   UNL A   1      42.681  27.559  30.743  1.00  0.00     0.031 C 
ATOM     53  C   UNL A   1      42.757  30.349  36.138  1.00  0.00     0.029 A 
ATOM     54  C   UNL A   1      42.419  29.975  34.847  1.00  0.00     0.049 A 
ATOM     55  H   UNL A   1      40.912  30.753  33.590  1.00  0.00     0.167 HD
ATOM     56  C   UNL A   1      42.618  28.641  32.765  1.00  0.00     0.074 A 
ATOM     57  C   UNL A   1      43.227  27.610  31.949  1.00  0.00     0.031 C 
ATOM     58  C   UNL A   1      43.013  28.952  34.023  1.00  0.00     0.037 A 
BRANCH  45  59
ATOM     59  C   UNL A   1      39.784  33.546  36.613  1.00  0.00     0.064 A 
ATOM     60  C   UNL A   1      40.474  34.764  36.728  1.00  0.00     0.173 A 
ATOM     61  C   UNL A   1      38.879  33.209  37.629  1.00  0.00     0.173 A 
ATOM     62  F   UNL A   1      41.361  35.130  35.790  1.00  0.00    -0.203 F 
ATOM     63  C   UNL A   1      40.291  35.591  37.834  1.00  0.00     0.198 A 
ATOM     64  C   UNL A   1      38.674  34.053  38.717  1.00  0.00     0.198 A 
ATOM     65  F   UNL A   1      38.190  32.059  37.567  1.00  0.00    -0.203 F 
ATOM     66  F   UNL A   1      41.002  36.720  37.949  1.00  0.00    -0.200 F 
ATOM     67  C   UNL A   1      39.386  35.238  38.824  1.00  0.00     0.200 A 
ATOM     68  F   UNL A   1      37.791  33.717  39.668  1.00  0.00    -0.200 F 
ATOM     69  F   UNL A   1      39.208  36.036  39.885  1.00  0.00    -0.200 F 
ENDBRANCH  45  59
BRANCH  46  70
ATOM     70  C   UNL A   1      40.906  27.910  28.443  1.00  0.00     0.064 A 
ATOM     71  C   UNL A   1      40.286  26.657  28.341  1.00  0.00     0.173 A 
ATOM     72  C   UNL A   1      41.687  28.343  27.363  1.00  0.00     0.173 A 
ATOM     73  F   UNL A   1      39.544  26.193  29.357  1.00  0.00    -0.203 F 
ATOM     74  C   UNL A   1      40.456  25.859  27.211  1.00  0.00     0.198 A 
ATOM     75  C   UNL A   1      41.835  27.556  26.222  1.00  0.00     0.198 A 
ATOM     76  F   UNL A   1      42.296  29.536  27.409  1.00  0.00    -0.203 F 
ATOM     77  F   UNL A   1      39.887  24.647  27.157  1.00  0.00    -0.200 F 
ATOM     78  C   UNL A   1      41.227  26.312  26.150  1.00  0.00     0.200 A 
ATOM     79  F   UNL A   1      42.567  28.003  25.193  1.00  0.00    -0.200 F 
ATOM     80  F   UNL A   1      41.385  25.547  25.061  1.00  0.00    -0.200 F 
ENDBRANCH  46  70
BRANCH  58  81
ATOM     81  C   UNL A   1      44.139  28.147  34.604  1.00  0.00     0.064 A 
ATOM     82  C   UNL A   1      43.909  26.942  35.283  1.00  0.00     0.173 A 
ATOM     83  C   UNL A   1      45.466  28.579  34.462  1.00  0.00     0.173 A 
ATOM     84  F   UNL A   1      42.657  26.495  35.460  1.00  0.00    -0.203 F 
ATOM     85  C   UNL A   1      44.964  26.217  35.830  1.00  0.00     0.198 A 
ATOM     86  C   UNL A   1      46.521  27.835  34.982  1.00  0.00     0.198 A 
ATOM     87  F   UNL A   1      45.740  29.722  33.813  1.00  0.00    -0.203 F 
ATOM     88  F   UNL A   1      44.717  25.099  36.526  1.00  0.00    -0.200 F 
ATOM     89  C   UNL A   1      46.269  26.661  35.674  1.00  0.00     0.200 A 
ATOM     90  F   UNL A   1      47.782  28.259  34.819  1.00  0.00    -0.200 F 
ATOM     91  F   UNL A   1      47.283  25.961  36.200  1.00  0.00    -0.200 F 
ENDBRANCH  58  81
ENDBRANCH  32  33
ENDBRANCH  24  27
ENDBRANCH  22  23
ENDBRANCH  21  22
ENDBRANCH  20  21
ENDBRANCH   3  20
TORSDOF 17
ENDMDL
MODEL 3
REMARK VINA RESULT:     -10.7      0.905      7.597
REMARK SMILES CCCC#C[C@](C)(O)C[NH2+][C@H](C)C(=O)NCCCNC(=O)c1ccc(-c2c3nc(c(-c4c(F)c(F)c(F)c(F)c4F)c4ccc([nH]4)c(-c4c(F)c(F)c(F)c(F)c4F)c4nc(c(-c5c(F)c(F)c(F)c(F)c5F)c5ccc2[nH]5)C=C4)C=C3)cc1
REMARK SMILES IDX 13 1 14 2 15 3 11 5 12 6 10 7 9 10 6 11 7 12 5 13 4 14 3 15
REMARK SMILES IDX 2 16 1 17 8 18 16 20 17 21 18 22 19 23 20 24 21 26 22 27
REMARK SMILES IDX 23 28 84 29 24 30 83 31 25 32 26 33 27 34 77 35 28 36 82 37
REMARK SMILES IDX 76 38 78 39 29 40 81 41 75 42 74 43 30 45 62 46 42 47 61 48
REMARK SMILES IDX 43 49 46 50 60 51 79 52 44 53 45 54 59 56 80 57 47 58 31 59
REMARK SMILES IDX 32 60 40 61 33 62 34 63 38 64 41 65 35 66 36 67 39 68 37 69
REMARK SMILES IDX 63 70 64 71 72 72 65 73 66 74 70 75 73 76 67 77 68 78 71 79
REMARK SMILES IDX 69 80 48 81 49 82 57 83 50 84 51 85 55 86 58 87 52 88 53 89
REMARK SMILES IDX 56 90 54 91
REMARK H PARENT 15 4 10 8 10 9 8 19 19 25 78 44 46 55
REMARK Flexibility Score: inf
ROOT
ATOM      1  C   UNL A   1      31.796  28.337  27.149  1.00  0.00     0.277 C 
ATOM      2  O   UNL A   1      31.652  27.638  28.157  1.00  0.00    -0.268 OA
ATOM      3  N   UNL A   1      31.475  29.666  27.251  1.00  0.00    -0.351 N 
ATOM      4  H   UNL A   1      31.086  29.934  28.116  1.00  0.00     0.163 HD
ENDROOT
BRANCH   1   5
ATOM      5  C   UNL A   1      32.254  27.714  25.807  1.00  0.00     0.269 C 
ATOM      6  C   UNL A   1      33.483  26.835  26.066  1.00  0.00     0.086 C 
BRANCH   5   7
ATOM      7  N   UNL A   1      31.077  27.146  25.124  1.00  0.00    -0.333 N 
ATOM      8  H   UNL A   1      30.731  26.378  25.699  1.00  0.00     0.347 HD
ATOM      9  H   UNL A   1      30.433  27.929  25.016  1.00  0.00     0.347 HD
BRANCH   7  10
ATOM     10  C   UNL A   1      31.277  26.628  23.772  1.00  0.00     0.310 C 
BRANCH  10  11
ATOM     11  C   UNL A   1      31.181  27.725  22.673  1.00  0.00     0.171 C 
ATOM     12  C   UNL A   1      32.342  28.724  22.674  1.00  0.00     0.063 C 
BRANCH  11  13
ATOM     13  C   UNL A   1      29.920  28.456  22.876  1.00  0.00    -0.063 C 
ATOM     14  C   UNL A   1      28.781  29.080  22.991  1.00  0.00    -0.100 C 
BRANCH  14  15
ATOM     15  C   UNL A   1      27.452  29.806  23.125  1.00  0.00     0.089 C 
BRANCH  15  16
ATOM     16  C   UNL A   1      27.652  31.320  23.171  1.00  0.00     0.010 C 
ATOM     17  C   UNL A   1      28.937  31.734  23.876  1.00  0.00     0.005 C 
ENDBRANCH  15  16
ENDBRANCH  14  15
ENDBRANCH  11  13
BRANCH  11  18
ATOM     18  O   UNL A   1      31.151  27.078  21.398  1.00  0.00    -0.372 OA
ATOM     19  H   UNL A   1      32.026  26.707  21.202  1.00  0.00     0.212 HD
ENDBRANCH  11  18
ENDBRANCH  10  11
ENDBRANCH   7  10
ENDBRANCH   5   7
ENDBRANCH   1   5
BRANCH   3  20
ATOM     20  C   UNL A   1      31.617  30.739  26.283  1.00  0.00     0.118 C 
BRANCH  20  21
ATOM     21  C   UNL A   1      31.422  32.125  26.876  1.00  0.00     0.042 C 
BRANCH  21  22
ATOM     22  C   UNL A   1      32.678  32.978  26.859  1.00  0.00     0.118 C 
BRANCH  22  23
ATOM     23  N   UNL A   1      32.529  34.207  27.626  1.00  0.00    -0.352 N 
ATOM     24  C   UNL A   1      33.157  34.625  28.770  1.00  0.00     0.251 C 
ATOM     25  H   UNL A   1      31.868  34.842  27.265  1.00  0.00     0.163 HD
ATOM     26  O   UNL A   1      32.741  35.624  29.357  1.00  0.00    -0.269 OA
BRANCH  24  27
ATOM     27  C   UNL A   1      34.314  33.885  29.318  1.00  0.00     0.039 A 
ATOM     28  C   UNL A   1      35.603  34.339  29.021  1.00  0.00     0.014 A 
ATOM     29  C   UNL A   1      34.145  32.733  30.090  1.00  0.00     0.014 A 
ATOM     30  C   UNL A   1      36.713  33.674  29.547  1.00  0.00     0.010 A 
ATOM     31  C   UNL A   1      35.245  32.129  30.691  1.00  0.00     0.010 A 
ATOM     32  C   UNL A   1      36.541  32.585  30.415  1.00  0.00    -0.014 A 
BRANCH  32  33
ATOM     33  C   UNL A   1      37.707  31.905  31.032  1.00  0.00     0.031 A 
ATOM     34  C   UNL A   1      38.147  32.266  32.425  1.00  0.00     0.074 A 
ATOM     35  C   UNL A   1      38.405  31.003  30.316  1.00  0.00     0.049 A 
ATOM     36  N   UNL A   1      39.162  31.812  33.117  1.00  0.00    -0.248 NA
ATOM     37  C   UNL A   1      37.359  33.293  33.122  1.00  0.00     0.031 C 
ATOM     38  C   UNL A   1      38.115  30.612  28.936  1.00  0.00     0.029 A 
ATOM     39  N   UNL A   1      39.506  30.254  30.648  1.00  0.00    -0.354 N 
ATOM     40  C   UNL A   1      39.141  32.508  34.318  1.00  0.00     0.074 A 
ATOM     41  C   UNL A   1      38.051  33.456  34.239  1.00  0.00     0.031 C 
ATOM     42  C   UNL A   1      38.991  29.671  28.552  1.00  0.00     0.029 A 
ATOM     43  C   UNL A   1      39.925  29.419  29.643  1.00  0.00     0.049 A 
ATOM     44  H   UNL A   1      39.951  30.310  31.525  1.00  0.00     0.167 HD
ATOM     45  C   UNL A   1      39.940  32.352  35.401  1.00  0.00     0.037 A 
ATOM     46  C   UNL A   1      40.950  28.545  29.608  1.00  0.00     0.037 A 
ATOM     47  C   UNL A   1      41.007  31.389  35.486  1.00  0.00     0.049 A 
ATOM     48  C   UNL A   1      41.816  28.382  30.828  1.00  0.00     0.074 A 
ATOM     49  C   UNL A   1      41.837  31.112  36.557  1.00  0.00     0.029 A 
ATOM     50  N   UNL A   1      41.391  30.546  34.453  1.00  0.00    -0.354 N 
ATOM     51  N   UNL A   1      41.743  28.996  31.983  1.00  0.00    -0.248 NA
ATOM     52  C   UNL A   1      42.901  27.397  30.737  1.00  0.00     0.031 C 
ATOM     53  C   UNL A   1      42.751  30.130  36.160  1.00  0.00     0.029 A 
ATOM     54  C   UNL A   1      42.460  29.760  34.857  1.00  0.00     0.049 A 
ATOM     55  H   UNL A   1      40.969  30.512  33.565  1.00  0.00     0.167 HD
ATOM     56  C   UNL A   1      42.752  28.455  32.768  1.00  0.00     0.074 A 
ATOM     57  C   UNL A   1      43.411  27.449  31.959  1.00  0.00     0.031 C 
ATOM     58  C   UNL A   1      43.103  28.763  34.040  1.00  0.00     0.037 A 
BRANCH  45  59
ATOM     59  C   UNL A   1      39.683  33.242  36.583  1.00  0.00     0.064 A 
ATOM     60  C   UNL A   1      38.767  32.886  37.586  1.00  0.00     0.173 A 
ATOM     61  C   UNL A   1      40.372  34.455  36.727  1.00  0.00     0.173 A 
ATOM     62  F   UNL A   1      38.072  31.742  37.492  1.00  0.00    -0.203 F 
ATOM     63  C   UNL A   1      38.526  33.727  38.670  1.00  0.00     0.198 A 
ATOM     64  C   UNL A   1      40.152  35.278  37.829  1.00  0.00     0.198 A 
ATOM     65  F   UNL A   1      41.262  34.842  35.800  1.00  0.00    -0.203 F 
ATOM     66  F   UNL A   1      37.607  33.391  39.585  1.00  0.00    -0.200 F 
ATOM     67  C   UNL A   1      39.224  34.919  38.794  1.00  0.00     0.200 A 
ATOM     68  F   UNL A   1      40.835  36.425  37.953  1.00  0.00    -0.200 F 
ATOM     69  F   UNL A   1      38.993  35.725  39.839  1.00  0.00    -0.200 F 
ENDBRANCH  45  59
BRANCH  46  70
ATOM     70  C   UNL A   1      41.183  27.726  28.392  1.00  0.00     0.064 A 
ATOM     71  C   UNL A   1      40.515  26.507  28.210  1.00  0.00     0.173 A 
ATOM     72  C   UNL A   1      42.067  28.143  27.387  1.00  0.00     0.173 A 
ATOM     73  F   UNL A   1      39.673  26.059  29.153  1.00  0.00    -0.203 F 
ATOM     74  C   UNL A   1      40.736  25.726  27.078  1.00  0.00     0.198 A 
ATOM     75  C   UNL A   1      42.268  27.373  26.243  1.00  0.00     0.198 A 
ATOM     76  F   UNL A   1      42.726  29.304  27.511  1.00  0.00    -0.203 F 
ATOM     77  F   UNL A   1      40.116  24.545  26.949  1.00  0.00    -0.200 F 
ATOM     78  C   UNL A   1      41.609  26.163  26.092  1.00  0.00     0.200 A 
ATOM     79  F   UNL A   1      43.100  27.806  25.285  1.00  0.00    -0.200 F 
ATOM     80  F   UNL A   1      41.818  25.414  25.000  1.00  0.00    -0.200 F 
ENDBRANCH  46  70
BRANCH  58  81
ATOM     81  C   UNL A   1      44.234  27.981  34.644  1.00  0.00     0.064 A 
ATOM     82  C   UNL A   1      45.560  28.432  34.575  1.00  0.00     0.173 A 
ATOM     83  C   UNL A   1      43.984  26.775  35.315  1.00  0.00     0.173 A 
ATOM     84  F   UNL A   1      45.854  29.571  33.930  1.00  0.00    -0.203 F 
ATOM     85  C   UNL A   1      46.599  27.686  35.126  1.00  0.00     0.198 A 
ATOM     86  C   UNL A   1      45.020  26.048  35.893  1.00  0.00     0.198 A 
ATOM     87  F   UNL A   1      42.731  26.304  35.416  1.00  0.00    -0.203 F 
ATOM     88  F   UNL A   1      47.864  28.107  34.998  1.00  0.00    -0.200 F 
ATOM     89  C   UNL A   1      46.327  26.498  35.789  1.00  0.00     0.200 A 
ATOM     90  F   UNL A   1      44.755  24.907  36.544  1.00  0.00    -0.200 F 
ATOM     91  F   UNL A   1      47.328  25.782  36.319  1.00  0.00    -0.200 F 
ENDBRANCH  58  81
ENDBRANCH  32  33
ENDBRANCH  24  27
ENDBRANCH  22  23
ENDBRANCH  21  22
ENDBRANCH  20  21
ENDBRANCH   3  20
TORSDOF 17
ENDMDL
