MODEL 1
REMARK VINA RESULT:     -14.4      0.000      0.000
REMARK SMILES CC1(C)S[C@@H]2[C@H]([NH2+]Cn3nnc4ccccc43)C(=O)N2[C@@H]1C(=O)NCCCNC(=O)c1ccc(-c2c3nc(c(-c4c(F)c(F)c(F)c(F)c4F)c4ccc([nH]4)c(-c4c(F)c(F)c(F)c(F)c4F)c4nc(c(-c5c(F)c(F)c(F)c(F)c5F)c5ccc2[nH]5)C=C4)C=C3)cc1
REMARK SMILES IDX 25 1 24 2 22 3 23 4 21 6 1 7 2 8 3 9 4 10 5 11 20 12 6 13
REMARK SMILES IDX 18 14 19 15 7 16 8 19 9 20 10 21 17 22 11 23 12 24 16 25
REMARK SMILES IDX 13 26 15 27 14 28 26 29 27 30 28 31 29 32 30 34 31 35 32 36
REMARK SMILES IDX 93 37 33 38 92 39 34 40 35 41 36 42 86 43 37 44 91 45 85 46
REMARK SMILES IDX 87 47 38 48 90 49 84 50 83 51 39 53 71 54 51 55 70 56 52 57
REMARK SMILES IDX 55 58 69 59 88 60 53 61 54 62 68 64 89 65 56 66 40 67 41 68
REMARK SMILES IDX 49 69 42 70 43 71 47 72 50 73 44 74 45 75 48 76 46 77 72 78
REMARK SMILES IDX 73 79 81 80 74 81 75 82 79 83 82 84 76 85 77 86 80 87 78 88
REMARK SMILES IDX 57 89 58 90 66 91 59 92 60 93 64 94 67 95 61 96 62 97 65 98
REMARK SMILES IDX 63 99
REMARK H PARENT 24 5 7 17 7 18 28 33 87 52 55 63
REMARK Flexibility Score: inf
ROOT
ATOM      1  C   UNL A   1      31.638  28.379  27.255  1.00  0.00     0.117 C 
ENDROOT
BRANCH   1   2
ATOM      2  N   UNL A   1      31.021  27.069  27.076  1.00  0.00    -0.354 N 
ATOM      3  C   UNL A   1      31.293  26.044  26.210  1.00  0.00     0.244 C 
ATOM      4  O   UNL A   1      30.885  24.924  26.550  1.00  0.00    -0.273 OA
ATOM      5  H   UNL A   1      30.274  26.888  27.691  1.00  0.00     0.163 HD
BRANCH   3   6
ATOM      6  C   UNL A   1      32.171  26.153  24.937  1.00  0.00     0.191 C 
ATOM      7  C   UNL A   1      29.964  27.028  23.814  1.00  0.00     0.026 C 
ATOM      8  C   UNL A   1      31.467  26.768  23.678  1.00  0.00     0.042 C 
ATOM      9  C   UNL A   1      32.161  28.048  23.187  1.00  0.00     0.026 C 
ATOM     10  S   UNL A   1      31.724  25.571  22.252  1.00  0.00    -0.121 SA
ATOM     11  C   UNL A   1      33.053  24.701  23.094  1.00  0.00     0.213 C 
ATOM     12  N   UNL A   1      32.702  24.898  24.484  1.00  0.00    -0.306 N 
ATOM     13  C   UNL A   1      33.169  23.181  23.440  1.00  0.00     0.307 C 
ATOM     14  C   UNL A   1      33.383  23.831  24.932  1.00  0.00     0.285 C 
ATOM     15  O   UNL A   1      33.784  23.535  26.023  1.00  0.00    -0.268 OA
BRANCH  13  16
ATOM     16  N   UNL A   1      31.962  22.311  23.430  1.00  0.00    -0.315 N 
ATOM     17  H   UNL A   1      31.241  22.774  22.876  1.00  0.00     0.348 HD
ATOM     18  H   UNL A   1      31.695  22.179  24.406  1.00  0.00     0.348 HD
BRANCH  16  19
ATOM     19  C   UNL A   1      32.175  20.982  22.878  1.00  0.00     0.415 C 
BRANCH  19  20
ATOM     20  N   UNL A   1      32.321  20.016  23.958  1.00  0.00    -0.194 N 
ATOM     21  N   UNL A   1      32.103  20.385  25.231  1.00  0.00    -0.061 NA
ATOM     22  C   UNL A   1      32.801  18.731  23.865  1.00  0.00     0.095 A 
ATOM     23  N   UNL A   1      32.427  19.348  25.990  1.00  0.00    -0.130 NA
ATOM     24  C   UNL A   1      32.811  18.311  25.185  1.00  0.00     0.113 A 
ATOM     25  C   UNL A   1      33.237  17.914  22.813  1.00  0.00     0.030 A 
ATOM     26  C   UNL A   1      33.197  16.997  25.486  1.00  0.00     0.032 A 
ATOM     27  C   UNL A   1      33.683  16.629  23.145  1.00  0.00     0.002 A 
ATOM     28  C   UNL A   1      33.649  16.168  24.459  1.00  0.00     0.002 A 
ENDBRANCH  19  20
ENDBRANCH  16  19
ENDBRANCH  13  16
ENDBRANCH   3   6
ENDBRANCH   1   2
BRANCH   1  29
ATOM     29  C   UNL A   1      33.169  28.412  27.108  1.00  0.00     0.042 C 
BRANCH  29  30
ATOM     30  C   UNL A   1      33.789  29.652  26.461  1.00  0.00     0.118 C 
BRANCH  30  31
ATOM     31  N   UNL A   1      33.741  30.853  27.276  1.00  0.00    -0.352 N 
ATOM     32  C   UNL A   1      34.676  31.620  27.920  1.00  0.00     0.251 C 
ATOM     33  H   UNL A   1      32.825  31.194  27.393  1.00  0.00     0.163 HD
ATOM     34  O   UNL A   1      34.369  32.809  28.059  1.00  0.00    -0.269 OA
BRANCH  32  35
ATOM     35  C   UNL A   1      35.931  31.139  28.572  1.00  0.00     0.039 A 
ATOM     36  C   UNL A   1      37.032  31.918  28.917  1.00  0.00     0.014 A 
ATOM     37  C   UNL A   1      36.052  29.734  28.677  1.00  0.00     0.014 A 
ATOM     38  C   UNL A   1      38.255  31.296  29.217  1.00  0.00     0.010 A 
ATOM     39  C   UNL A   1      37.276  29.115  28.936  1.00  0.00     0.010 A 
ATOM     40  C   UNL A   1      38.405  29.900  29.124  1.00  0.00    -0.014 A 
BRANCH  40  41
ATOM     41  C   UNL A   1      39.748  29.307  29.276  1.00  0.00     0.031 A 
ATOM     42  C   UNL A   1      40.142  29.036  30.683  1.00  0.00     0.074 A 
ATOM     43  C   UNL A   1      40.560  28.894  28.274  1.00  0.00     0.049 A 
ATOM     44  N   UNL A   1      41.185  29.457  31.322  1.00  0.00    -0.248 NA
ATOM     45  C   UNL A   1      39.211  28.248  31.503  1.00  0.00     0.031 C 
ATOM     46  C   UNL A   1      40.273  28.820  26.845  1.00  0.00     0.029 A 
ATOM     47  N   UNL A   1      41.819  28.351  28.343  1.00  0.00    -0.354 N 
ATOM     48  C   UNL A   1      41.116  28.889  32.590  1.00  0.00     0.074 A 
ATOM     49  C   UNL A   1      39.829  28.247  32.683  1.00  0.00     0.031 C 
ATOM     50  C   UNL A   1      41.211  28.077  26.219  1.00  0.00     0.029 A 
ATOM     51  C   UNL A   1      42.226  27.699  27.182  1.00  0.00     0.049 A 
ATOM     52  H   UNL A   1      42.386  28.417  29.145  1.00  0.00     0.167 HD
ATOM     53  C   UNL A   1      42.195  28.835  33.416  1.00  0.00     0.037 A 
ATOM     54  C   UNL A   1      43.273  26.848  27.032  1.00  0.00     0.037 A 
ATOM     55  C   UNL A   1      43.207  29.785  33.042  1.00  0.00     0.049 A 
ATOM     56  C   UNL A   1      44.217  27.095  28.149  1.00  0.00     0.074 A 
ATOM     57  C   UNL A   1      43.236  31.162  32.914  1.00  0.00     0.029 A 
ATOM     58  N   UNL A   1      44.342  29.337  32.413  1.00  0.00    -0.354 N 
ATOM     59  N   UNL A   1      44.953  28.164  28.263  1.00  0.00    -0.248 NA
ATOM     60  C   UNL A   1      44.014  26.337  29.374  1.00  0.00     0.031 C 
ATOM     61  C   UNL A   1      44.085  31.410  31.798  1.00  0.00     0.029 A 
ATOM     62  C   UNL A   1      44.553  30.175  31.350  1.00  0.00     0.049 A 
ATOM     63  H   UNL A   1      44.894  28.565  32.675  1.00  0.00     0.167 HD
ATOM     64  C   UNL A   1      44.929  28.454  29.618  1.00  0.00     0.074 A 
ATOM     65  C   UNL A   1      44.409  27.251  30.261  1.00  0.00     0.031 C 
ATOM     66  C   UNL A   1      45.058  29.733  30.074  1.00  0.00     0.037 A 
BRANCH  53  67
ATOM     67  C   UNL A   1      42.463  27.709  34.377  1.00  0.00     0.064 A 
ATOM     68  C   UNL A   1      43.045  26.518  33.903  1.00  0.00     0.173 A 
ATOM     69  C   UNL A   1      41.897  27.644  35.668  1.00  0.00     0.173 A 
ATOM     70  F   UNL A   1      43.591  26.462  32.679  1.00  0.00    -0.203 F 
ATOM     71  C   UNL A   1      42.994  25.331  34.638  1.00  0.00     0.198 A 
ATOM     72  C   UNL A   1      41.899  26.473  36.422  1.00  0.00     0.198 A 
ATOM     73  F   UNL A   1      41.225  28.671  36.202  1.00  0.00    -0.203 F 
ATOM     74  F   UNL A   1      43.445  24.193  34.095  1.00  0.00    -0.200 F 
ATOM     75  C   UNL A   1      42.416  25.308  35.894  1.00  0.00     0.200 A 
ATOM     76  F   UNL A   1      41.318  26.466  37.630  1.00  0.00    -0.200 F 
ATOM     77  F   UNL A   1      42.310  24.159  36.574  1.00  0.00    -0.200 F 
ENDBRANCH  53  67
BRANCH  54  78
ATOM     78  C   UNL A   1      43.350  25.630  26.179  1.00  0.00     0.064 A 
ATOM     79  C   UNL A   1      44.471  25.371  25.370  1.00  0.00     0.173 A 
ATOM     80  C   UNL A   1      42.448  24.557  26.342  1.00  0.00     0.173 A 
ATOM     81  F   UNL A   1      45.411  26.310  25.196  1.00  0.00    -0.203 F 
ATOM     82  C   UNL A   1      44.683  24.116  24.782  1.00  0.00     0.198 A 
ATOM     83  C   UNL A   1      42.653  23.314  25.745  1.00  0.00     0.198 A 
ATOM     84  F   UNL A   1      41.392  24.660  27.161  1.00  0.00    -0.203 F 
ATOM     85  F   UNL A   1      45.797  23.890  24.070  1.00  0.00    -0.200 F 
ATOM     86  C   UNL A   1      43.778  23.087  24.977  1.00  0.00     0.200 A 
ATOM     87  F   UNL A   1      41.785  22.318  25.972  1.00  0.00    -0.200 F 
ATOM     88  F   UNL A   1      44.007  21.871  24.461  1.00  0.00    -0.200 F 
ENDBRANCH  54  78
BRANCH  66  89
ATOM     89  C   UNL A   1      45.477  30.808  29.113  1.00  0.00     0.064 A 
ATOM     90  C   UNL A   1      46.816  31.151  28.861  1.00  0.00     0.173 A 
ATOM     91  C   UNL A   1      44.499  31.363  28.276  1.00  0.00     0.173 A 
ATOM     92  F   UNL A   1      47.816  30.594  29.556  1.00  0.00    -0.203 F 
ATOM     93  C   UNL A   1      47.153  32.028  27.830  1.00  0.00     0.198 A 
ATOM     94  C   UNL A   1      44.841  32.209  27.226  1.00  0.00     0.198 A 
ATOM     95  F   UNL A   1      43.207  31.032  28.437  1.00  0.00    -0.203 F 
ATOM     96  F   UNL A   1      48.439  32.338  27.603  1.00  0.00    -0.200 F 
ATOM     97  C   UNL A   1      46.168  32.544  27.005  1.00  0.00     0.200 A 
ATOM     98  F   UNL A   1      43.890  32.668  26.400  1.00  0.00    -0.200 F 
ATOM     99  F   UNL A   1      46.498  33.339  25.978  1.00  0.00    -0.200 F 
ENDBRANCH  66  89
ENDBRANCH  40  41
ENDBRANCH  32  35
ENDBRANCH  30  31
ENDBRANCH  29  30
ENDBRANCH   1  29
TORSDOF 13
ENDMDL
MODEL 2
REMARK VINA RESULT:     -14.1      3.214      9.063
REMARK SMILES CC1(C)S[C@@H]2[C@H]([NH2+]Cn3nnc4ccccc43)C(=O)N2[C@@H]1C(=O)NCCCNC(=O)c1ccc(-c2c3nc(c(-c4c(F)c(F)c(F)c(F)c4F)c4ccc([nH]4)c(-c4c(F)c(F)c(F)c(F)c4F)c4nc(c(-c5c(F)c(F)c(F)c(F)c5F)c5ccc2[nH]5)C=C4)C=C3)cc1
REMARK SMILES IDX 25 1 24 2 22 3 23 4 21 6 1 7 2 8 3 9 4 10 5 11 20 12 6 13
REMARK SMILES IDX 18 14 19 15 7 16 8 19 9 20 10 21 17 22 11 23 12 24 16 25
REMARK SMILES IDX 13 26 15 27 14 28 26 29 27 30 28 31 29 32 30 34 31 35 32 36
REMARK SMILES IDX 93 37 33 38 92 39 34 40 35 41 36 42 86 43 37 44 91 45 85 46
REMARK SMILES IDX 87 47 38 48 90 49 84 50 83 51 39 53 71 54 51 55 70 56 52 57
REMARK SMILES IDX 55 58 69 59 88 60 53 61 54 62 68 64 89 65 56 66 40 67 41 68
REMARK SMILES IDX 49 69 42 70 43 71 47 72 50 73 44 74 45 75 48 76 46 77 72 78
REMARK SMILES IDX 73 79 81 80 74 81 75 82 79 83 82 84 76 85 77 86 80 87 78 88
REMARK SMILES IDX 57 89 58 90 66 91 59 92 60 93 64 94 67 95 61 96 62 97 65 98
REMARK SMILES IDX 63 99
REMARK H PARENT 24 5 7 17 7 18 28 33 87 52 55 63
REMARK Flexibility Score: inf
ROOT
ATOM      1  C   UNL A   1      37.531  23.580  25.742  1.00  0.00     0.117 C 
ENDROOT
BRANCH   1   2
ATOM      2  N   UNL A   1      36.591  23.717  24.635  1.00  0.00    -0.354 N 
ATOM      3  C   UNL A   1      35.231  23.876  24.609  1.00  0.00     0.244 C 
ATOM      4  O   UNL A   1      34.762  24.362  23.569  1.00  0.00    -0.273 OA
ATOM      5  H   UNL A   1      37.009  23.690  23.745  1.00  0.00     0.163 HD
BRANCH   3   6
ATOM      6  C   UNL A   1      34.274  23.631  25.804  1.00  0.00     0.191 C 
ATOM      7  C   UNL A   1      33.859  21.308  24.650  1.00  0.00     0.026 C 
ATOM      8  C   UNL A   1      33.612  22.211  25.862  1.00  0.00     0.042 C 
ATOM      9  C   UNL A   1      33.975  21.447  27.145  1.00  0.00     0.026 C 
ATOM     10  S   UNL A   1      31.757  22.465  26.030  1.00  0.00    -0.121 SA
ATOM     11  C   UNL A   1      31.939  24.183  26.528  1.00  0.00     0.213 C 
ATOM     12  N   UNL A   1      33.176  24.553  25.872  1.00  0.00    -0.306 N 
ATOM     13  C   UNL A   1      31.326  25.466  25.880  1.00  0.00     0.307 C 
ATOM     14  C   UNL A   1      32.917  25.870  25.862  1.00  0.00     0.285 C 
ATOM     15  O   UNL A   1      33.629  26.826  25.733  1.00  0.00    -0.268 OA
BRANCH  13  16
ATOM     16  N   UNL A   1      30.794  25.427  24.490  1.00  0.00    -0.315 N 
ATOM     17  H   UNL A   1      30.553  24.461  24.269  1.00  0.00     0.348 HD
ATOM     18  H   UNL A   1      31.528  25.805  23.890  1.00  0.00     0.348 HD
BRANCH  16  19
ATOM     19  C   UNL A   1      29.615  26.252  24.268  1.00  0.00     0.415 C 
BRANCH  19  20
ATOM     20  N   UNL A   1      29.965  27.401  23.445  1.00  0.00    -0.194 N 
ATOM     21  N   UNL A   1      31.247  27.642  23.126  1.00  0.00    -0.061 NA
ATOM     22  C   UNL A   1      29.128  28.408  23.025  1.00  0.00     0.095 A 
ATOM     23  N   UNL A   1      31.271  28.802  22.486  1.00  0.00    -0.130 NA
ATOM     24  C   UNL A   1      29.991  29.270  22.368  1.00  0.00     0.113 A 
ATOM     25  C   UNL A   1      27.758  28.672  23.156  1.00  0.00     0.030 A 
ATOM     26  C   UNL A   1      29.477  30.414  21.742  1.00  0.00     0.032 A 
ATOM     27  C   UNL A   1      27.278  29.855  22.580  1.00  0.00     0.002 A 
ATOM     28  C   UNL A   1      28.119  30.707  21.869  1.00  0.00     0.002 A 
ENDBRANCH  19  20
ENDBRANCH  16  19
ENDBRANCH  13  16
ENDBRANCH   3   6
ENDBRANCH   1   2
BRANCH   1  29
ATOM     29  C   UNL A   1      38.181  22.194  25.888  1.00  0.00     0.042 C 
BRANCH  29  30
ATOM     30  C   UNL A   1      39.524  22.117  26.617  1.00  0.00     0.118 C 
BRANCH  30  31
ATOM     31  N   UNL A   1      40.690  22.167  25.752  1.00  0.00    -0.352 N 
ATOM     32  C   UNL A   1      41.889  22.828  25.788  1.00  0.00     0.251 C 
ATOM     33  H   UNL A   1      40.597  21.593  24.959  1.00  0.00     0.163 HD
ATOM     34  O   UNL A   1      42.819  22.256  25.208  1.00  0.00    -0.269 OA
BRANCH  32  35
ATOM     35  C   UNL A   1      42.138  24.199  26.326  1.00  0.00     0.039 A 
ATOM     36  C   UNL A   1      43.015  24.537  27.353  1.00  0.00     0.014 A 
ATOM     37  C   UNL A   1      41.259  25.200  25.847  1.00  0.00     0.014 A 
ATOM     38  C   UNL A   1      42.909  25.794  27.971  1.00  0.00     0.010 A 
ATOM     39  C   UNL A   1      41.126  26.433  26.486  1.00  0.00     0.010 A 
ATOM     40  C   UNL A   1      41.896  26.701  27.609  1.00  0.00    -0.014 A 
BRANCH  40  41
ATOM     41  C   UNL A   1      41.714  27.932  28.402  1.00  0.00     0.031 A 
ATOM     42  C   UNL A   1      42.785  28.946  28.214  1.00  0.00     0.074 A 
ATOM     43  C   UNL A   1      40.634  28.248  29.155  1.00  0.00     0.049 A 
ATOM     44  N   UNL A   1      43.540  29.494  29.110  1.00  0.00    -0.248 NA
ATOM     45  C   UNL A   1      43.099  29.346  26.835  1.00  0.00     0.031 C 
ATOM     46  C   UNL A   1      39.368  27.531  29.272  1.00  0.00     0.029 A 
ATOM     47  N   UNL A   1      40.406  29.361  29.925  1.00  0.00    -0.354 N 
ATOM     48  C   UNL A   1      44.344  30.405  28.432  1.00  0.00     0.074 A 
ATOM     49  C   UNL A   1      44.109  30.193  27.026  1.00  0.00     0.031 C 
ATOM     50  C   UNL A   1      38.443  28.312  29.869  1.00  0.00     0.029 A 
ATOM     51  C   UNL A   1      39.071  29.556  30.270  1.00  0.00     0.049 A 
ATOM     52  H   UNL A   1      41.125  29.971  30.209  1.00  0.00     0.167 HD
ATOM     53  C   UNL A   1      45.017  31.394  29.079  1.00  0.00     0.037 A 
ATOM     54  C   UNL A   1      38.500  30.679  30.776  1.00  0.00     0.037 A 
ATOM     55  C   UNL A   1      45.169  31.113  30.480  1.00  0.00     0.049 A 
ATOM     56  C   UNL A   1      39.579  31.502  31.374  1.00  0.00     0.074 A 
ATOM     57  C   UNL A   1      45.758  30.090  31.201  1.00  0.00     0.029 A 
ATOM     58  N   UNL A   1      44.389  31.792  31.384  1.00  0.00    -0.354 N 
ATOM     59  N   UNL A   1      40.214  31.193  32.470  1.00  0.00    -0.248 NA
ATOM     60  C   UNL A   1      40.251  32.456  30.505  1.00  0.00     0.031 C 
ATOM     61  C   UNL A   1      44.915  29.904  32.333  1.00  0.00     0.029 A 
ATOM     62  C   UNL A   1      43.898  30.854  32.254  1.00  0.00     0.049 A 
ATOM     63  H   UNL A   1      44.218  32.761  31.402  1.00  0.00     0.167 HD
ATOM     64  C   UNL A   1      41.529  31.552  32.217  1.00  0.00     0.074 A 
ATOM     65  C   UNL A   1      41.475  32.400  31.029  1.00  0.00     0.031 C 
ATOM     66  C   UNL A   1      42.570  30.903  32.813  1.00  0.00     0.037 A 
BRANCH  53  67
ATOM     67  C   UNL A   1      45.271  32.758  28.498  1.00  0.00     0.064 A 
ATOM     68  C   UNL A   1      44.179  33.586  28.173  1.00  0.00     0.173 A 
ATOM     69  C   UNL A   1      46.518  33.155  27.974  1.00  0.00     0.173 A 
ATOM     70  F   UNL A   1      42.942  33.288  28.600  1.00  0.00    -0.203 F 
ATOM     71  C   UNL A   1      44.317  34.685  27.322  1.00  0.00     0.198 A 
ATOM     72  C   UNL A   1      46.662  34.285  27.172  1.00  0.00     0.198 A 
ATOM     73  F   UNL A   1      47.621  32.411  28.120  1.00  0.00    -0.203 F 
ATOM     74  F   UNL A   1      43.230  35.368  26.937  1.00  0.00    -0.200 F 
ATOM     75  C   UNL A   1      45.556  35.030  26.818  1.00  0.00     0.200 A 
ATOM     76  F   UNL A   1      47.870  34.594  26.678  1.00  0.00    -0.200 F 
ATOM     77  F   UNL A   1      45.681  36.045  25.953  1.00  0.00    -0.200 F 
ENDBRANCH  53  67
BRANCH  54  78
ATOM     78  C   UNL A   1      37.146  31.228  30.489  1.00  0.00     0.064 A 
ATOM     79  C   UNL A   1      36.248  31.542  31.525  1.00  0.00     0.173 A 
ATOM     80  C   UNL A   1      36.801  31.710  29.209  1.00  0.00     0.173 A 
ATOM     81  F   UNL A   1      36.513  31.172  32.786  1.00  0.00    -0.203 F 
ATOM     82  C   UNL A   1      35.094  32.305  31.296  1.00  0.00     0.198 A 
ATOM     83  C   UNL A   1      35.646  32.458  28.980  1.00  0.00     0.198 A 
ATOM     84  F   UNL A   1      37.625  31.549  28.164  1.00  0.00    -0.203 F 
ATOM     85  F   UNL A   1      34.297  32.637  32.322  1.00  0.00    -0.200 F 
ATOM     86  C   UNL A   1      34.799  32.769  30.026  1.00  0.00     0.200 A 
ATOM     87  F   UNL A   1      35.393  32.928  27.751  1.00  0.00    -0.200 F 
ATOM     88  F   UNL A   1      33.727  33.545  29.816  1.00  0.00    -0.200 F 
ENDBRANCH  54  78
BRANCH  66  89
ATOM     89  C   UNL A   1      42.285  29.955  33.941  1.00  0.00     0.064 A 
ATOM     90  C   UNL A   1      41.816  28.642  33.758  1.00  0.00     0.173 A 
ATOM     91  C   UNL A   1      42.695  30.321  35.231  1.00  0.00     0.173 A 
ATOM     92  F   UNL A   1      41.493  28.186  32.542  1.00  0.00    -0.203 F 
ATOM     93  C   UNL A   1      41.743  27.749  34.826  1.00  0.00     0.198 A 
ATOM     94  C   UNL A   1      42.653  29.416  36.287  1.00  0.00     0.198 A 
ATOM     95  F   UNL A   1      43.198  31.545  35.455  1.00  0.00    -0.203 F 
ATOM     96  F   UNL A   1      41.297  26.499  34.629  1.00  0.00    -0.200 F 
ATOM     97  C   UNL A   1      42.174  28.132  36.085  1.00  0.00     0.200 A 
ATOM     98  F   UNL A   1      43.117  29.775  37.492  1.00  0.00    -0.200 F 
ATOM     99  F   UNL A   1      42.158  27.254  37.098  1.00  0.00    -0.200 F 
ENDBRANCH  66  89
ENDBRANCH  40  41
ENDBRANCH  32  35
ENDBRANCH  30  31
ENDBRANCH  29  30
ENDBRANCH   1  29
TORSDOF 13
ENDMDL
MODEL 3
REMARK VINA RESULT:     -14.1      2.968      8.883
REMARK SMILES CC1(C)S[C@@H]2[C@H]([NH2+]Cn3nnc4ccccc43)C(=O)N2[C@@H]1C(=O)NCCCNC(=O)c1ccc(-c2c3nc(c(-c4c(F)c(F)c(F)c(F)c4F)c4ccc([nH]4)c(-c4c(F)c(F)c(F)c(F)c4F)c4nc(c(-c5c(F)c(F)c(F)c(F)c5F)c5ccc2[nH]5)C=C4)C=C3)cc1
REMARK SMILES IDX 25 1 24 2 22 3 23 4 21 6 1 7 2 8 3 9 4 10 5 11 20 12 6 13
REMARK SMILES IDX 18 14 19 15 7 16 8 19 9 20 10 21 17 22 11 23 12 24 16 25
REMARK SMILES IDX 13 26 15 27 14 28 26 29 27 30 28 31 29 32 30 34 31 35 32 36
REMARK SMILES IDX 93 37 33 38 92 39 34 40 35 41 36 42 86 43 37 44 91 45 85 46
REMARK SMILES IDX 87 47 38 48 90 49 84 50 83 51 39 53 71 54 51 55 70 56 52 57
REMARK SMILES IDX 55 58 69 59 88 60 53 61 54 62 68 64 89 65 56 66 40 67 41 68
REMARK SMILES IDX 49 69 42 70 43 71 47 72 50 73 44 74 45 75 48 76 46 77 72 78
REMARK SMILES IDX 73 79 81 80 74 81 75 82 79 83 82 84 76 85 77 86 80 87 78 88
REMARK SMILES IDX 57 89 58 90 66 91 59 92 60 93 64 94 67 95 61 96 62 97 65 98
REMARK SMILES IDX 63 99
REMARK H PARENT 24 5 7 17 7 18 28 33 87 52 55 63
REMARK Flexibility Score: inf
ROOT
ATOM      1  C   UNL A   1      35.717  23.835  25.716  1.00  0.00     0.117 C 
ENDROOT
BRANCH   1   2
ATOM      2  N   UNL A   1      35.164  23.141  26.875  1.00  0.00    -0.354 N 
ATOM      3  C   UNL A   1      34.092  22.302  27.007  1.00  0.00     0.244 C 
ATOM      4  O   UNL A   1      34.103  21.559  28.000  1.00  0.00    -0.273 OA
ATOM      5  H   UNL A   1      35.651  23.307  27.714  1.00  0.00     0.163 HD
BRANCH   3   6
ATOM      6  C   UNL A   1      32.961  22.116  25.962  1.00  0.00     0.191 C 
ATOM      7  C   UNL A   1      34.782  20.780  24.623  1.00  0.00     0.026 C 
ATOM      8  C   UNL A   1      33.319  21.220  24.727  1.00  0.00     0.042 C 
ATOM      9  C   UNL A   1      32.410  19.986  24.616  1.00  0.00     0.026 C 
ATOM     10  S   UNL A   1      32.895  22.201  23.182  1.00  0.00    -0.121 SA
ATOM     11  C   UNL A   1      31.868  23.367  24.085  1.00  0.00     0.213 C 
ATOM     12  N   UNL A   1      32.479  23.345  25.398  1.00  0.00    -0.306 N 
ATOM     13  C   UNL A   1      31.984  24.923  24.165  1.00  0.00     0.307 C 
ATOM     14  C   UNL A   1      32.021  24.553  25.764  1.00  0.00     0.285 C 
ATOM     15  O   UNL A   1      31.889  25.069  26.839  1.00  0.00    -0.268 OA
BRANCH  13  16
ATOM     16  N   UNL A   1      33.246  25.607  23.771  1.00  0.00    -0.315 N 
ATOM     17  H   UNL A   1      33.798  24.956  23.211  1.00  0.00     0.348 HD
ATOM     18  H   UNL A   1      33.708  25.881  24.638  1.00  0.00     0.348 HD
BRANCH  16  19
ATOM     19  C   UNL A   1      33.061  26.826  22.999  1.00  0.00     0.415 C 
BRANCH  19  20
ATOM     20  N   UNL A   1      32.379  27.825  23.810  1.00  0.00    -0.194 N 
ATOM     21  N   UNL A   1      31.240  28.389  23.376  1.00  0.00    -0.061 NA
ATOM     22  C   UNL A   1      32.831  28.400  24.975  1.00  0.00     0.095 A 
ATOM     23  N   UNL A   1      30.923  29.333  24.250  1.00  0.00    -0.130 NA
ATOM     24  C   UNL A   1      31.846  29.332  25.259  1.00  0.00     0.113 A 
ATOM     25  C   UNL A   1      33.965  28.234  25.782  1.00  0.00     0.030 A 
ATOM     26  C   UNL A   1      31.937  30.092  26.434  1.00  0.00     0.032 A 
ATOM     27  C   UNL A   1      34.067  29.052  26.914  1.00  0.00     0.002 A 
ATOM     28  C   UNL A   1      33.062  29.957  27.247  1.00  0.00     0.002 A 
ENDBRANCH  19  20
ENDBRANCH  16  19
ENDBRANCH  13  16
ENDBRANCH   3   6
ENDBRANCH   1   2
BRANCH   1  29
ATOM     29  C   UNL A   1      37.203  23.560  25.431  1.00  0.00     0.042 C 
BRANCH  29  30
ATOM     30  C   UNL A   1      37.882  22.450  26.235  1.00  0.00     0.118 C 
BRANCH  30  31
ATOM     31  N   UNL A   1      39.197  22.065  25.754  1.00  0.00    -0.352 N 
ATOM     32  C   UNL A   1      40.484  22.359  26.123  1.00  0.00     0.251 C 
ATOM     33  H   UNL A   1      39.154  21.452  24.985  1.00  0.00     0.163 HD
ATOM     34  O   UNL A   1      41.315  21.482  25.861  1.00  0.00    -0.269 OA
BRANCH  32  35
ATOM     35  C   UNL A   1      40.982  23.657  26.668  1.00  0.00     0.039 A 
ATOM     36  C   UNL A   1      41.779  23.825  27.797  1.00  0.00     0.014 A 
ATOM     37  C   UNL A   1      40.434  24.812  26.063  1.00  0.00     0.014 A 
ATOM     38  C   UNL A   1      41.900  25.099  28.378  1.00  0.00     0.010 A 
ATOM     39  C   UNL A   1      40.520  26.070  26.661  1.00  0.00     0.010 A 
ATOM     40  C   UNL A   1      41.186  26.202  27.871  1.00  0.00    -0.014 A 
BRANCH  40  41
ATOM     41  C   UNL A   1      41.204  27.475  28.615  1.00  0.00     0.031 A 
ATOM     42  C   UNL A   1      42.341  28.369  28.270  1.00  0.00     0.074 A 
ATOM     43  C   UNL A   1      40.244  27.928  29.456  1.00  0.00     0.049 A 
ATOM     44  N   UNL A   1      43.233  28.876  29.058  1.00  0.00    -0.248 NA
ATOM     45  C   UNL A   1      42.545  28.680  26.849  1.00  0.00     0.031 C 
ATOM     46  C   UNL A   1      38.934  27.344  29.735  1.00  0.00     0.029 A 
ATOM     47  N   UNL A   1      40.203  29.088  30.187  1.00  0.00    -0.354 N 
ATOM     48  C   UNL A   1      44.045  29.675  28.257  1.00  0.00     0.074 A 
ATOM     49  C   UNL A   1      43.646  29.430  26.894  1.00  0.00     0.031 C 
ATOM     50  C   UNL A   1      38.155  28.238  30.381  1.00  0.00     0.029 A 
ATOM     51  C   UNL A   1      38.936  29.428  30.654  1.00  0.00     0.049 A 
ATOM     52  H   UNL A   1      41.002  29.634  30.367  1.00  0.00     0.167 HD
ATOM     53  C   UNL A   1      44.873  30.617  28.783  1.00  0.00     0.037 A 
ATOM     54  C   UNL A   1      38.529  30.622  31.156  1.00  0.00     0.037 A 
ATOM     55  C   UNL A   1      45.142  30.380  30.175  1.00  0.00     0.049 A 
ATOM     56  C   UNL A   1      39.738  31.357  31.601  1.00  0.00     0.074 A 
ATOM     57  C   UNL A   1      45.704  29.334  30.883  1.00  0.00     0.029 A 
ATOM     58  N   UNL A   1      44.529  31.169  31.116  1.00  0.00    -0.354 N 
ATOM     59  N   UNL A   1      40.452  31.032  32.642  1.00  0.00    -0.248 NA
ATOM     60  C   UNL A   1      40.402  32.204  30.622  1.00  0.00     0.031 C 
ATOM     61  C   UNL A   1      44.970  29.278  32.102  1.00  0.00     0.029 A 
ATOM     62  C   UNL A   1      44.044  30.321  32.077  1.00  0.00     0.049 A 
ATOM     63  H   UNL A   1      44.452  32.150  31.102  1.00  0.00     0.167 HD
ATOM     64  C   UNL A   1      41.761  31.248  32.241  1.00  0.00     0.074 A 
ATOM     65  C   UNL A   1      41.664  32.048  31.024  1.00  0.00     0.031 C 
ATOM     66  C   UNL A   1      42.793  30.524  32.763  1.00  0.00     0.037 A 
BRANCH  53  67
ATOM     67  C   UNL A   1      45.192  31.925  28.112  1.00  0.00     0.064 A 
ATOM     68  C   UNL A   1      44.155  32.843  27.857  1.00  0.00     0.173 A 
ATOM     69  C   UNL A   1      46.409  32.174  27.445  1.00  0.00     0.173 A 
ATOM     70  F   UNL A   1      42.948  32.688  28.421  1.00  0.00    -0.203 F 
ATOM     71  C   UNL A   1      44.307  33.888  26.942  1.00  0.00     0.198 A 
ATOM     72  C   UNL A   1      46.575  33.251  26.576  1.00  0.00     0.198 A 
ATOM     73  F   UNL A   1      47.445  31.330  27.517  1.00  0.00    -0.203 F 
ATOM     74  F   UNL A   1      43.255  34.660  26.635  1.00  0.00    -0.200 F 
ATOM     75  C   UNL A   1      45.513  34.088  26.299  1.00  0.00     0.200 A 
ATOM     76  F   UNL A   1      47.747  33.417  25.948  1.00  0.00    -0.200 F 
ATOM     77  F   UNL A   1      45.643  35.049  25.375  1.00  0.00    -0.200 F 
ENDBRANCH  53  67
BRANCH  54  78
ATOM     78  C   UNL A   1      37.211  31.290  30.979  1.00  0.00     0.064 A 
ATOM     79  C   UNL A   1      36.373  31.561  32.076  1.00  0.00     0.173 A 
ATOM     80  C   UNL A   1      36.861  31.921  29.767  1.00  0.00     0.173 A 
ATOM     81  F   UNL A   1      36.651  31.049  33.283  1.00  0.00    -0.203 F 
ATOM     82  C   UNL A   1      35.272  32.423  31.969  1.00  0.00     0.198 A 
ATOM     83  C   UNL A   1      35.757  32.767  29.658  1.00  0.00     0.198 A 
ATOM     84  F   UNL A   1      37.635  31.808  28.679  1.00  0.00    -0.203 F 
ATOM     85  F   UNL A   1      34.536  32.706  33.053  1.00  0.00    -0.200 F 
ATOM     86  C   UNL A   1      34.970  33.030  30.762  1.00  0.00     0.200 A 
ATOM     87  F   UNL A   1      35.499  33.375  28.492  1.00  0.00    -0.200 F 
ATOM     88  F   UNL A   1      33.952  33.897  30.672  1.00  0.00    -0.200 F 
ENDBRANCH  54  78
BRANCH  66  89
ATOM     89  C   UNL A   1      42.539  29.655  33.960  1.00  0.00     0.064 A 
ATOM     90  C   UNL A   1      41.933  28.388  33.891  1.00  0.00     0.173 A 
ATOM     91  C   UNL A   1      43.112  30.032  35.183  1.00  0.00     0.173 A 
ATOM     92  F   UNL A   1      41.444  27.917  32.738  1.00  0.00    -0.203 F 
ATOM     93  C   UNL A   1      41.887  27.551  35.005  1.00  0.00     0.198 A 
ATOM     94  C   UNL A   1      43.096  29.180  36.282  1.00  0.00     0.198 A 
ATOM     95  F   UNL A   1      43.748  31.209  35.294  1.00  0.00    -0.203 F 
ATOM     96  F   UNL A   1      41.308  26.344  34.918  1.00  0.00    -0.200 F 
ATOM     97  C   UNL A   1      42.480  27.941  36.195  1.00  0.00     0.200 A 
ATOM     98  F   UNL A   1      43.713  29.540  37.416  1.00  0.00    -0.200 F 
ATOM     99  F   UNL A   1      42.487  27.111  37.247  1.00  0.00    -0.200 F 
ENDBRANCH  66  89
ENDBRANCH  40  41
ENDBRANCH  32  35
ENDBRANCH  30  31
ENDBRANCH  29  30
ENDBRANCH   1  29
TORSDOF 13
ENDMDL
