MODEL 1
REMARK VINA RESULT:     -11.0      0.000      0.000
REMARK SMILES CCN(CCC(=O)NCCCNC(=O)c1ccc(-c2c3nc(c(-c4c(F)c(F)c(F)c(F)c4F)c4ccc([nH]4)c(-c4c(F)c(F)c(F)c(F)c4F)c4nc(c(-c5c(F)c(F)c(F)c(F)c5F)c5ccc2[nH]5)C=C4)C=C3)cc1)C(=O)c1cc(Cl)ccc1F
REMARK SMILES IDX 9 1 8 2 6 3 7 4 5 6 4 7 3 8 2 9 1 10 78 11 79 12 80 13 81 14
REMARK SMILES IDX 86 15 82 16 85 17 87 18 83 19 84 20 10 21 11 22 12 23 13 24
REMARK SMILES IDX 14 26 15 27 16 28 77 29 17 30 76 31 18 32 19 33 20 34 70 35
REMARK SMILES IDX 21 36 75 37 69 38 71 39 22 40 74 41 68 42 67 43 23 45 55 46
REMARK SMILES IDX 35 47 54 48 36 49 39 50 53 51 72 52 37 53 38 54 52 56 73 57
REMARK SMILES IDX 40 58 24 59 25 60 33 61 26 62 27 63 31 64 34 65 28 66 29 67
REMARK SMILES IDX 32 68 30 69 56 70 57 71 65 72 58 73 59 74 63 75 66 76 60 77
REMARK SMILES IDX 61 78 64 79 62 80 41 81 42 82 50 83 43 84 44 85 48 86 51 87
REMARK SMILES IDX 45 88 46 89 49 90 47 91
REMARK H PARENT 8 5 12 25 71 44 39 55
REMARK Flexibility Score: inf
ROOT
ATOM      1  C   UNL A   1      31.087  30.722  25.222  1.00  0.00     0.117 C 
ENDROOT
BRANCH   1   2
ATOM      2  N   UNL A   1      30.078  30.584  24.184  1.00  0.00    -0.356 N 
ATOM      3  C   UNL A   1      30.042  29.774  23.090  1.00  0.00     0.221 C 
ATOM      4  O   UNL A   1      29.013  29.760  22.412  1.00  0.00    -0.275 OA
ATOM      5  H   UNL A   1      29.293  31.170  24.290  1.00  0.00     0.163 HD
BRANCH   3   6
ATOM      6  C   UNL A   1      31.228  28.919  22.718  1.00  0.00     0.121 C 
BRANCH   6   7
ATOM      7  C   UNL A   1      30.837  27.487  22.378  1.00  0.00     0.129 C 
BRANCH   7   8
ATOM      8  N   UNL A   1      31.618  26.431  23.035  1.00  0.00    -0.338 N 
BRANCH   8   9
ATOM      9  C   UNL A   1      31.279  25.071  22.555  1.00  0.00     0.116 C 
ATOM     10  C   UNL A   1      30.689  24.037  23.502  1.00  0.00     0.027 C 
ENDBRANCH   8   9
BRANCH   8  11
ATOM     11  C   UNL A   1      32.692  26.650  23.921  1.00  0.00     0.256 C 
ATOM     12  O   UNL A   1      33.800  26.141  23.732  1.00  0.00    -0.269 OA
BRANCH  11  13
ATOM     13  C   UNL A   1      32.539  27.285  25.270  1.00  0.00     0.077 A 
ATOM     14  C   UNL A   1      33.634  28.086  25.673  1.00  0.00     0.037 A 
ATOM     15  C   UNL A   1      31.447  27.232  26.133  1.00  0.00     0.136 A 
ATOM     16  C   UNL A   1      33.655  28.726  26.914  1.00  0.00     0.042 A 
ATOM     17  C   UNL A   1      31.489  27.828  27.401  1.00  0.00     0.041 A 
ATOM     18  F   UNL A   1      30.277  26.697  25.778  1.00  0.00    -0.206 F 
ATOM     19  Cl  UNL A   1      35.001  29.703  27.350  1.00  0.00    -0.084 Cl
ATOM     20  C   UNL A   1      32.596  28.573  27.798  1.00  0.00     0.023 A 
ENDBRANCH  11  13
ENDBRANCH   8  11
ENDBRANCH   7   8
ENDBRANCH   6   7
ENDBRANCH   3   6
ENDBRANCH   1   2
BRANCH   1  21
ATOM     21  C   UNL A   1      31.000  32.050  25.971  1.00  0.00     0.042 C 
BRANCH  21  22
ATOM     22  C   UNL A   1      32.194  32.342  26.876  1.00  0.00     0.118 C 
BRANCH  22  23
ATOM     23  N   UNL A   1      32.240  33.734  27.287  1.00  0.00    -0.352 N 
ATOM     24  C   UNL A   1      33.020  34.387  28.210  1.00  0.00     0.251 C 
ATOM     25  H   UNL A   1      31.596  34.315  26.820  1.00  0.00     0.163 HD
ATOM     26  O   UNL A   1      32.691  35.524  28.543  1.00  0.00    -0.269 OA
BRANCH  24  27
ATOM     27  C   UNL A   1      34.226  33.778  28.833  1.00  0.00     0.039 A 
ATOM     28  C   UNL A   1      34.028  32.714  29.725  1.00  0.00     0.014 A 
ATOM     29  C   UNL A   1      35.517  34.288  28.670  1.00  0.00     0.014 A 
ATOM     30  C   UNL A   1      35.107  32.145  30.411  1.00  0.00     0.010 A 
ATOM     31  C   UNL A   1      36.607  33.682  29.314  1.00  0.00     0.010 A 
ATOM     32  C   UNL A   1      36.414  32.607  30.196  1.00  0.00    -0.014 A 
BRANCH  32  33
ATOM     33  C   UNL A   1      37.569  31.958  30.878  1.00  0.00     0.031 A 
ATOM     34  C   UNL A   1      38.387  30.897  30.192  1.00  0.00     0.074 A 
ATOM     35  C   UNL A   1      37.880  32.314  32.140  1.00  0.00     0.049 A 
ATOM     36  N   UNL A   1      39.412  30.217  30.648  1.00  0.00    -0.248 NA
ATOM     37  C   UNL A   1      38.004  30.549  28.816  1.00  0.00     0.031 C 
ATOM     38  C   UNL A   1      37.163  33.311  32.935  1.00  0.00     0.029 A 
ATOM     39  N   UNL A   1      38.875  31.871  32.979  1.00  0.00    -0.354 N 
ATOM     40  C   UNL A   1      39.789  29.359  29.624  1.00  0.00     0.074 A 
ATOM     41  C   UNL A   1      38.864  29.580  28.532  1.00  0.00     0.031 C 
ATOM     42  C   UNL A   1      37.747  33.414  34.139  1.00  0.00     0.029 A 
ATOM     43  C   UNL A   1      38.854  32.465  34.217  1.00  0.00     0.049 A 
ATOM     44  H   UNL A   1      39.539  31.193  32.718  1.00  0.00     0.167 HD
ATOM     45  C   UNL A   1      40.819  28.478  29.591  1.00  0.00     0.037 A 
ATOM     46  C   UNL A   1      39.626  32.261  35.302  1.00  0.00     0.037 A 
ATOM     47  C   UNL A   1      41.757  28.266  30.664  1.00  0.00     0.049 A 
ATOM     48  C   UNL A   1      40.736  31.248  35.251  1.00  0.00     0.074 A 
ATOM     49  C   UNL A   1      42.876  27.447  30.683  1.00  0.00     0.029 A 
ATOM     50  N   UNL A   1      41.683  28.864  31.912  1.00  0.00    -0.354 N 
ATOM     51  N   UNL A   1      41.120  30.491  34.254  1.00  0.00    -0.248 NA
ATOM     52  C   UNL A   1      41.519  31.061  36.482  1.00  0.00     0.031 C 
ATOM     53  C   UNL A   1      43.450  27.514  31.957  1.00  0.00     0.029 A 
ATOM     54  C   UNL A   1      42.714  28.406  32.719  1.00  0.00     0.049 A 
ATOM     55  H   UNL A   1      40.999  29.518  32.185  1.00  0.00     0.167 HD
ATOM     56  C   UNL A   1      42.193  29.749  34.729  1.00  0.00     0.074 A 
ATOM     57  C   UNL A   1      42.415  30.161  36.099  1.00  0.00     0.031 C 
ATOM     58  C   UNL A   1      42.924  28.808  34.086  1.00  0.00     0.037 A 
BRANCH  45  59
ATOM     59  C   UNL A   1      40.999  27.662  28.345  1.00  0.00     0.064 A 
ATOM     60  C   UNL A   1      41.838  28.087  27.305  1.00  0.00     0.173 A 
ATOM     61  C   UNL A   1      40.381  26.409  28.220  1.00  0.00     0.173 A 
ATOM     62  F   UNL A   1      42.449  29.279  27.374  1.00  0.00    -0.203 F 
ATOM     63  C   UNL A   1      42.039  27.294  26.178  1.00  0.00     0.198 A 
ATOM     64  C   UNL A   1      40.601  25.608  27.103  1.00  0.00     0.198 A 
ATOM     65  F   UNL A   1      39.577  25.952  29.193  1.00  0.00    -0.203 F 
ATOM     66  F   UNL A   1      42.822  27.731  25.182  1.00  0.00    -0.200 F 
ATOM     67  C   UNL A   1      41.426  26.053  26.081  1.00  0.00     0.200 A 
ATOM     68  F   UNL A   1      40.021  24.403  27.017  1.00  0.00    -0.200 F 
ATOM     69  F   UNL A   1      41.630  25.286  25.001  1.00  0.00    -0.200 F 
ENDBRANCH  45  59
BRANCH  46  70
ATOM     70  C   UNL A   1      39.370  33.036  36.542  1.00  0.00     0.064 A 
ATOM     71  C   UNL A   1      40.046  34.237  36.793  1.00  0.00     0.173 A 
ATOM     72  C   UNL A   1      38.451  32.587  37.502  1.00  0.00     0.173 A 
ATOM     73  F   UNL A   1      40.954  34.691  35.917  1.00  0.00    -0.203 F 
ATOM     74  C   UNL A   1      39.819  34.957  37.965  1.00  0.00     0.198 A 
ATOM     75  C   UNL A   1      38.207  33.321  38.660  1.00  0.00     0.198 A 
ATOM     76  F   UNL A   1      37.783  31.441  37.307  1.00  0.00    -0.203 F 
ATOM     77  F   UNL A   1      40.506  36.083  38.201  1.00  0.00    -0.200 F 
ATOM     78  C   UNL A   1      38.895  34.501  38.894  1.00  0.00     0.200 A 
ATOM     79  F   UNL A   1      37.306  32.883  39.550  1.00  0.00    -0.200 F 
ATOM     80  F   UNL A   1      38.674  35.197  40.018  1.00  0.00    -0.200 F 
ENDBRANCH  46  70
BRANCH  58  81
ATOM     81  C   UNL A   1      44.038  28.159  34.853  1.00  0.00     0.064 A 
ATOM     82  C   UNL A   1      45.319  28.729  34.904  1.00  0.00     0.173 A 
ATOM     83  C   UNL A   1      43.818  26.973  35.568  1.00  0.00     0.173 A 
ATOM     84  F   UNL A   1      45.584  29.853  34.221  1.00  0.00    -0.203 F 
ATOM     85  C   UNL A   1      46.344  28.123  35.626  1.00  0.00     0.198 A 
ATOM     86  C   UNL A   1      44.839  26.383  36.310  1.00  0.00     0.198 A 
ATOM     87  F   UNL A   1      42.611  26.388  35.555  1.00  0.00    -0.203 F 
ATOM     88  F   UNL A   1      47.571  28.662  35.624  1.00  0.00    -0.200 F 
ATOM     89  C   UNL A   1      46.102  26.956  36.333  1.00  0.00     0.200 A 
ATOM     90  F   UNL A   1      44.602  25.259  37.001  1.00  0.00    -0.200 F 
ATOM     91  F   UNL A   1      47.090  26.376  37.030  1.00  0.00    -0.200 F 
ENDBRANCH  58  81
ENDBRANCH  32  33
ENDBRANCH  24  27
ENDBRANCH  22  23
ENDBRANCH  21  22
ENDBRANCH   1  21
TORSDOF 15
ENDMDL
MODEL 2
REMARK VINA RESULT:     -11.0      0.721      7.490
REMARK SMILES CCN(CCC(=O)NCCCNC(=O)c1ccc(-c2c3nc(c(-c4c(F)c(F)c(F)c(F)c4F)c4ccc([nH]4)c(-c4c(F)c(F)c(F)c(F)c4F)c4nc(c(-c5c(F)c(F)c(F)c(F)c5F)c5ccc2[nH]5)C=C4)C=C3)cc1)C(=O)c1cc(Cl)ccc1F
REMARK SMILES IDX 9 1 8 2 6 3 7 4 5 6 4 7 3 8 2 9 1 10 78 11 79 12 80 13 81 14
REMARK SMILES IDX 86 15 82 16 85 17 87 18 83 19 84 20 10 21 11 22 12 23 13 24
REMARK SMILES IDX 14 26 15 27 16 28 77 29 17 30 76 31 18 32 19 33 20 34 70 35
REMARK SMILES IDX 21 36 75 37 69 38 71 39 22 40 74 41 68 42 67 43 23 45 55 46
REMARK SMILES IDX 35 47 54 48 36 49 39 50 53 51 72 52 37 53 38 54 52 56 73 57
REMARK SMILES IDX 40 58 24 59 25 60 33 61 26 62 27 63 31 64 34 65 28 66 29 67
REMARK SMILES IDX 32 68 30 69 56 70 57 71 65 72 58 73 59 74 63 75 66 76 60 77
REMARK SMILES IDX 61 78 64 79 62 80 41 81 42 82 50 83 43 84 44 85 48 86 51 87
REMARK SMILES IDX 45 88 46 89 49 90 47 91
REMARK H PARENT 8 5 12 25 71 44 39 55
REMARK Flexibility Score: inf
ROOT
ATOM      1  C   UNL A   1      31.146  30.454  25.106  1.00  0.00     0.117 C 
ENDROOT
BRANCH   1   2
ATOM      2  N   UNL A   1      30.284  30.356  23.939  1.00  0.00    -0.356 N 
ATOM      3  C   UNL A   1      30.376  29.557  22.840  1.00  0.00     0.221 C 
ATOM      4  O   UNL A   1      29.449  29.579  22.028  1.00  0.00    -0.275 OA
ATOM      5  H   UNL A   1      29.510  30.963  23.945  1.00  0.00     0.163 HD
BRANCH   3   6
ATOM      6  C   UNL A   1      31.576  28.670  22.623  1.00  0.00     0.121 C 
BRANCH   6   7
ATOM      7  C   UNL A   1      31.232  27.187  22.692  1.00  0.00     0.129 C 
BRANCH   7   8
ATOM      8  N   UNL A   1      32.334  26.285  23.054  1.00  0.00    -0.338 N 
BRANCH   8   9
ATOM      9  C   UNL A   1      33.204  25.938  21.906  1.00  0.00     0.116 C 
ATOM     10  C   UNL A   1      32.604  25.586  20.554  1.00  0.00     0.027 C 
ENDBRANCH   8   9
BRANCH   8  11
ATOM     11  C   UNL A   1      32.658  25.888  24.367  1.00  0.00     0.256 C 
ATOM     12  O   UNL A   1      32.872  24.706  24.649  1.00  0.00    -0.269 OA
BRANCH  11  13
ATOM     13  C   UNL A   1      32.526  26.782  25.562  1.00  0.00     0.077 A 
ATOM     14  C   UNL A   1      33.655  27.595  25.818  1.00  0.00     0.037 A 
ATOM     15  C   UNL A   1      31.427  26.950  26.400  1.00  0.00     0.136 A 
ATOM     16  C   UNL A   1      33.698  28.466  26.910  1.00  0.00     0.042 A 
ATOM     17  C   UNL A   1      31.488  27.782  27.527  1.00  0.00     0.041 A 
ATOM     18  F   UNL A   1      30.234  26.410  26.137  1.00  0.00    -0.206 F 
ATOM     19  Cl  UNL A   1      35.087  29.446  27.169  1.00  0.00    -0.084 Cl
ATOM     20  C   UNL A   1      32.627  28.538  27.789  1.00  0.00     0.023 A 
ENDBRANCH  11  13
ENDBRANCH   8  11
ENDBRANCH   7   8
ENDBRANCH   6   7
ENDBRANCH   3   6
ENDBRANCH   1   2
BRANCH   1  21
ATOM     21  C   UNL A   1      30.990  31.774  25.858  1.00  0.00     0.042 C 
BRANCH  21  22
ATOM     22  C   UNL A   1      32.109  32.068  26.854  1.00  0.00     0.118 C 
BRANCH  22  23
ATOM     23  N   UNL A   1      32.194  33.481  27.178  1.00  0.00    -0.352 N 
ATOM     24  C   UNL A   1      33.027  34.174  28.021  1.00  0.00     0.251 C 
ATOM     25  H   UNL A   1      31.537  34.044  26.708  1.00  0.00     0.163 HD
ATOM     26  O   UNL A   1      32.732  35.335  28.300  1.00  0.00    -0.269 OA
BRANCH  24  27
ATOM     27  C   UNL A   1      34.254  33.583  28.621  1.00  0.00     0.039 A 
ATOM     28  C   UNL A   1      34.100  32.436  29.412  1.00  0.00     0.014 A 
ATOM     29  C   UNL A   1      35.516  34.179  28.537  1.00  0.00     0.014 A 
ATOM     30  C   UNL A   1      35.196  31.871  30.075  1.00  0.00     0.010 A 
ATOM     31  C   UNL A   1      36.626  33.582  29.154  1.00  0.00     0.010 A 
ATOM     32  C   UNL A   1      36.478  32.425  29.935  1.00  0.00    -0.014 A 
BRANCH  32  33
ATOM     33  C   UNL A   1      37.654  31.785  30.589  1.00  0.00     0.031 A 
ATOM     34  C   UNL A   1      38.097  32.190  31.970  1.00  0.00     0.074 A 
ATOM     35  C   UNL A   1      38.347  30.837  29.928  1.00  0.00     0.049 A 
ATOM     36  N   UNL A   1      39.110  31.749  32.677  1.00  0.00    -0.248 NA
ATOM     37  C   UNL A   1      37.305  33.228  32.644  1.00  0.00     0.031 C 
ATOM     38  C   UNL A   1      38.045  30.360  28.579  1.00  0.00     0.029 A 
ATOM     39  N   UNL A   1      39.453  30.109  30.299  1.00  0.00    -0.354 N 
ATOM     40  C   UNL A   1      39.082  32.458  33.871  1.00  0.00     0.074 A 
ATOM     41  C   UNL A   1      37.970  33.382  33.781  1.00  0.00     0.031 C 
ATOM     42  C   UNL A   1      38.933  29.413  28.240  1.00  0.00     0.029 A 
ATOM     43  C   UNL A   1      39.891  29.242  29.330  1.00  0.00     0.049 A 
ATOM     44  H   UNL A   1      39.889  30.202  31.177  1.00  0.00     0.167 HD
ATOM     45  C   UNL A   1      39.898  32.341  34.947  1.00  0.00     0.037 A 
ATOM     46  C   UNL A   1      40.951  28.412  29.308  1.00  0.00     0.037 A 
ATOM     47  C   UNL A   1      40.993  31.410  35.054  1.00  0.00     0.049 A 
ATOM     48  C   UNL A   1      41.863  28.331  30.500  1.00  0.00     0.074 A 
ATOM     49  C   UNL A   1      41.822  31.174  36.140  1.00  0.00     0.029 A 
ATOM     50  N   UNL A   1      41.422  30.571  34.038  1.00  0.00    -0.354 N 
ATOM     51  N   UNL A   1      41.786  28.961  31.645  1.00  0.00    -0.248 NA
ATOM     52  C   UNL A   1      43.016  27.423  30.392  1.00  0.00     0.031 C 
ATOM     53  C   UNL A   1      42.781  30.227  35.765  1.00  0.00     0.029 A 
ATOM     54  C   UNL A   1      42.525  29.842  34.459  1.00  0.00     0.049 A 
ATOM     55  H   UNL A   1      41.006  30.502  33.148  1.00  0.00     0.167 HD
ATOM     56  C   UNL A   1      42.865  28.519  32.398  1.00  0.00     0.074 A 
ATOM     57  C   UNL A   1      43.573  27.551  31.588  1.00  0.00     0.031 C 
ATOM     58  C   UNL A   1      43.236  28.889  33.648  1.00  0.00     0.037 A 
BRANCH  45  59
ATOM     59  C   UNL A   1      39.643  33.245  36.116  1.00  0.00     0.064 A 
ATOM     60  C   UNL A   1      40.270  34.494  36.228  1.00  0.00     0.173 A 
ATOM     61  C   UNL A   1      38.707  32.889  37.099  1.00  0.00     0.173 A 
ATOM     62  F   UNL A   1      41.175  34.879  35.317  1.00  0.00    -0.203 F 
ATOM     63  C   UNL A   1      39.982  35.347  37.291  1.00  0.00     0.198 A 
ATOM     64  C   UNL A   1      38.404  33.753  38.148  1.00  0.00     0.198 A 
ATOM     65  F   UNL A   1      38.070  31.709  37.031  1.00  0.00    -0.203 F 
ATOM     66  F   UNL A   1      40.615  36.524  37.395  1.00  0.00    -0.200 F 
ATOM     67  C   UNL A   1      39.044  34.979  38.246  1.00  0.00     0.200 A 
ATOM     68  F   UNL A   1      37.488  33.404  39.061  1.00  0.00    -0.200 F 
ATOM     69  F   UNL A   1      38.760  35.806  39.261  1.00  0.00    -0.200 F 
ENDBRANCH  45  59
BRANCH  46  70
ATOM     70  C   UNL A   1      41.213  27.585  28.102  1.00  0.00     0.064 A 
ATOM     71  C   UNL A   1      40.639  26.315  27.961  1.00  0.00     0.173 A 
ATOM     72  C   UNL A   1      42.046  28.047  27.072  1.00  0.00     0.173 A 
ATOM     73  F   UNL A   1      39.858  25.821  28.933  1.00  0.00    -0.203 F 
ATOM     74  C   UNL A   1      40.897  25.532  26.838  1.00  0.00     0.198 A 
ATOM     75  C   UNL A   1      42.282  27.274  25.939  1.00  0.00     0.198 A 
ATOM     76  F   UNL A   1      42.621  29.255  27.165  1.00  0.00    -0.203 F 
ATOM     77  F   UNL A   1      40.368  24.304  26.743  1.00  0.00    -0.200 F 
ATOM     78  C   UNL A   1      41.713  26.015  25.825  1.00  0.00     0.200 A 
ATOM     79  F   UNL A   1      43.063  27.747  24.959  1.00  0.00    -0.200 F 
ATOM     80  F   UNL A   1      41.956  25.262  24.743  1.00  0.00    -0.200 F 
ENDBRANCH  46  70
BRANCH  58  81
ATOM     81  C   UNL A   1      44.461  28.241  34.222  1.00  0.00     0.064 A 
ATOM     82  C   UNL A   1      44.392  27.008  34.885  1.00  0.00     0.173 A 
ATOM     83  C   UNL A   1      45.720  28.844  34.083  1.00  0.00     0.173 A 
ATOM     84  F   UNL A   1      43.209  26.400  35.059  1.00  0.00    -0.203 F 
ATOM     85  C   UNL A   1      45.537  26.410  35.407  1.00  0.00     0.198 A 
ATOM     86  C   UNL A   1      46.867  28.231  34.584  1.00  0.00     0.198 A 
ATOM     87  F   UNL A   1      45.841  30.022  33.454  1.00  0.00    -0.203 F 
ATOM     88  F   UNL A   1      45.441  25.252  36.075  1.00  0.00    -0.200 F 
ATOM     89  C   UNL A   1      46.773  27.019  35.250  1.00  0.00     0.200 A 
ATOM     90  F   UNL A   1      48.062  28.816  34.425  1.00  0.00    -0.200 F 
ATOM     91  F   UNL A   1      47.874  26.441  35.751  1.00  0.00    -0.200 F 
ENDBRANCH  58  81
ENDBRANCH  32  33
ENDBRANCH  24  27
ENDBRANCH  22  23
ENDBRANCH  21  22
ENDBRANCH   1  21
TORSDOF 15
ENDMDL
MODEL 3
REMARK VINA RESULT:     -10.9      1.350      2.597
REMARK SMILES CCN(CCC(=O)NCCCNC(=O)c1ccc(-c2c3nc(c(-c4c(F)c(F)c(F)c(F)c4F)c4ccc([nH]4)c(-c4c(F)c(F)c(F)c(F)c4F)c4nc(c(-c5c(F)c(F)c(F)c(F)c5F)c5ccc2[nH]5)C=C4)C=C3)cc1)C(=O)c1cc(Cl)ccc1F
REMARK SMILES IDX 9 1 8 2 6 3 7 4 5 6 4 7 3 8 2 9 1 10 78 11 79 12 80 13 81 14
REMARK SMILES IDX 86 15 82 16 85 17 87 18 83 19 84 20 10 21 11 22 12 23 13 24
REMARK SMILES IDX 14 26 15 27 16 28 77 29 17 30 76 31 18 32 19 33 20 34 70 35
REMARK SMILES IDX 21 36 75 37 69 38 71 39 22 40 74 41 68 42 67 43 23 45 55 46
REMARK SMILES IDX 35 47 54 48 36 49 39 50 53 51 72 52 37 53 38 54 52 56 73 57
REMARK SMILES IDX 40 58 24 59 25 60 33 61 26 62 27 63 31 64 34 65 28 66 29 67
REMARK SMILES IDX 32 68 30 69 56 70 57 71 65 72 58 73 59 74 63 75 66 76 60 77
REMARK SMILES IDX 61 78 64 79 62 80 41 81 42 82 50 83 43 84 44 85 48 86 51 87
REMARK SMILES IDX 45 88 46 89 49 90 47 91
REMARK H PARENT 8 5 12 25 71 44 39 55
REMARK Flexibility Score: inf
ROOT
ATOM      1  C   UNL A   1      31.091  30.448  25.324  1.00  0.00     0.117 C 
ENDROOT
BRANCH   1   2
ATOM      2  N   UNL A   1      30.369  30.451  24.062  1.00  0.00    -0.356 N 
ATOM      3  C   UNL A   1      29.975  29.416  23.269  1.00  0.00     0.221 C 
ATOM      4  O   UNL A   1      29.269  29.670  22.292  1.00  0.00    -0.275 OA
ATOM      5  H   UNL A   1      30.126  31.344  23.727  1.00  0.00     0.163 HD
BRANCH   3   6
ATOM      6  C   UNL A   1      30.389  27.999  23.579  1.00  0.00     0.121 C 
BRANCH   6   7
ATOM      7  C   UNL A   1      31.038  27.302  22.390  1.00  0.00     0.129 C 
BRANCH   7   8
ATOM      8  N   UNL A   1      32.405  26.807  22.599  1.00  0.00    -0.338 N 
BRANCH   8   9
ATOM      9  C   UNL A   1      33.159  27.586  23.608  1.00  0.00     0.116 C 
ATOM     10  C   UNL A   1      33.886  28.863  23.220  1.00  0.00     0.027 C 
ENDBRANCH   8   9
BRANCH   8  11
ATOM     11  C   UNL A   1      32.935  25.629  22.034  1.00  0.00     0.256 C 
ATOM     12  O   UNL A   1      33.201  25.552  20.832  1.00  0.00    -0.269 OA
BRANCH  11  13
ATOM     13  C   UNL A   1      32.986  24.314  22.751  1.00  0.00     0.077 A 
ATOM     14  C   UNL A   1      34.284  23.897  23.128  1.00  0.00     0.037 A 
ATOM     15  C   UNL A   1      31.926  23.497  23.137  1.00  0.00     0.136 A 
ATOM     16  C   UNL A   1      34.502  22.682  23.782  1.00  0.00     0.042 A 
ATOM     17  C   UNL A   1      32.147  22.253  23.743  1.00  0.00     0.041 A 
ATOM     18  F   UNL A   1      30.651  23.880  23.037  1.00  0.00    -0.206 F 
ATOM     19  Cl  UNL A   1      36.098  22.228  24.235  1.00  0.00    -0.084 Cl
ATOM     20  C   UNL A   1      33.437  21.839  24.064  1.00  0.00     0.023 A 
ENDBRANCH  11  13
ENDBRANCH   8  11
ENDBRANCH   7   8
ENDBRANCH   6   7
ENDBRANCH   3   6
ENDBRANCH   1   2
BRANCH   1  21
ATOM     21  C   UNL A   1      31.013  31.783  26.063  1.00  0.00     0.042 C 
BRANCH  21  22
ATOM     22  C   UNL A   1      32.258  32.126  26.877  1.00  0.00     0.118 C 
BRANCH  22  23
ATOM     23  N   UNL A   1      32.297  33.528  27.250  1.00  0.00    -0.352 N 
ATOM     24  C   UNL A   1      33.077  34.211  28.150  1.00  0.00     0.251 C 
ATOM     25  H   UNL A   1      31.648  34.093  26.770  1.00  0.00     0.163 HD
ATOM     26  O   UNL A   1      32.744  35.355  28.453  1.00  0.00    -0.269 OA
BRANCH  24  27
ATOM     27  C   UNL A   1      34.290  33.627  28.784  1.00  0.00     0.039 A 
ATOM     28  C   UNL A   1      34.112  32.518  29.623  1.00  0.00     0.014 A 
ATOM     29  C   UNL A   1      35.562  34.197  28.682  1.00  0.00     0.014 A 
ATOM     30  C   UNL A   1      35.195  31.965  30.318  1.00  0.00     0.010 A 
ATOM     31  C   UNL A   1      36.659  33.610  29.333  1.00  0.00     0.010 A 
ATOM     32  C   UNL A   1      36.486  32.491  30.162  1.00  0.00    -0.014 A 
BRANCH  32  33
ATOM     33  C   UNL A   1      37.648  31.861  30.852  1.00  0.00     0.031 A 
ATOM     34  C   UNL A   1      38.490  30.817  30.170  1.00  0.00     0.074 A 
ATOM     35  C   UNL A   1      37.943  32.221  32.117  1.00  0.00     0.049 A 
ATOM     36  N   UNL A   1      39.524  30.155  30.632  1.00  0.00    -0.248 NA
ATOM     37  C   UNL A   1      38.123  30.464  28.791  1.00  0.00     0.031 C 
ATOM     38  C   UNL A   1      37.204  33.204  32.908  1.00  0.00     0.029 A 
ATOM     39  N   UNL A   1      38.940  31.795  32.962  1.00  0.00    -0.354 N 
ATOM     40  C   UNL A   1      39.924  29.305  29.610  1.00  0.00     0.074 A 
ATOM     41  C   UNL A   1      39.002  29.512  28.511  1.00  0.00     0.031 C 
ATOM     42  C   UNL A   1      37.777  33.315  34.116  1.00  0.00     0.029 A 
ATOM     43  C   UNL A   1      38.900  32.386  34.201  1.00  0.00     0.049 A 
ATOM     44  H   UNL A   1      39.618  31.129  32.704  1.00  0.00     0.167 HD
ATOM     45  C   UNL A   1      40.970  28.443  29.583  1.00  0.00     0.037 A 
ATOM     46  C   UNL A   1      39.668  32.194  35.290  1.00  0.00     0.037 A 
ATOM     47  C   UNL A   1      41.904  28.246  30.662  1.00  0.00     0.049 A 
ATOM     48  C   UNL A   1      40.797  31.202  35.246  1.00  0.00     0.074 A 
ATOM     49  C   UNL A   1      43.037  27.447  30.687  1.00  0.00     0.029 A 
ATOM     50  N   UNL A   1      41.811  28.841  31.910  1.00  0.00    -0.354 N 
ATOM     51  N   UNL A   1      41.201  30.453  34.251  1.00  0.00    -0.248 NA
ATOM     52  C   UNL A   1      41.574  31.026  36.482  1.00  0.00     0.031 C 
ATOM     53  C   UNL A   1      43.601  27.523  31.966  1.00  0.00     0.029 A 
ATOM     54  C   UNL A   1      42.844  28.400  32.724  1.00  0.00     0.049 A 
ATOM     55  H   UNL A   1      41.113  29.482  32.179  1.00  0.00     0.167 HD
ATOM     56  C   UNL A   1      42.284  29.730  34.732  1.00  0.00     0.074 A 
ATOM     57  C   UNL A   1      42.488  30.144  36.104  1.00  0.00     0.031 C 
ATOM     58  C   UNL A   1      43.037  28.803  34.092  1.00  0.00     0.037 A 
BRANCH  45  59
ATOM     59  C   UNL A   1      41.173  27.633  28.336  1.00  0.00     0.064 A 
ATOM     60  C   UNL A   1      42.038  28.058  27.318  1.00  0.00     0.173 A 
ATOM     61  C   UNL A   1      40.551  26.383  28.191  1.00  0.00     0.173 A 
ATOM     62  F   UNL A   1      42.654  29.247  27.407  1.00  0.00    -0.203 F 
ATOM     63  C   UNL A   1      42.260  27.270  26.191  1.00  0.00     0.198 A 
ATOM     64  C   UNL A   1      40.793  25.588  27.075  1.00  0.00     0.198 A 
ATOM     65  F   UNL A   1      39.723  25.926  29.143  1.00  0.00    -0.203 F 
ATOM     66  F   UNL A   1      43.067  27.708  25.216  1.00  0.00    -0.200 F 
ATOM     67  C   UNL A   1      41.643  26.033  26.074  1.00  0.00     0.200 A 
ATOM     68  F   UNL A   1      40.208  24.386  26.969  1.00  0.00    -0.200 F 
ATOM     69  F   UNL A   1      41.866  25.270  24.995  1.00  0.00    -0.200 F 
ENDBRANCH  45  59
BRANCH  46  70
ATOM     70  C   UNL A   1      39.389  32.962  36.530  1.00  0.00     0.064 A 
ATOM     71  C   UNL A   1      38.462  32.498  37.472  1.00  0.00     0.173 A 
ATOM     72  C   UNL A   1      40.039  34.177  36.794  1.00  0.00     0.173 A 
ATOM     73  F   UNL A   1      37.796  31.355  37.249  1.00  0.00    -0.203 F 
ATOM     74  C   UNL A   1      38.188  33.225  38.628  1.00  0.00     0.198 A 
ATOM     75  C   UNL A   1      39.783  34.890  37.961  1.00  0.00     0.198 A 
ATOM     76  F   UNL A   1      40.932  34.664  35.919  1.00  0.00    -0.203 F 
ATOM     77  F   UNL A   1      37.268  32.780  39.496  1.00  0.00    -0.200 F 
ATOM     78  C   UNL A   1      38.853  34.418  38.875  1.00  0.00     0.200 A 
ATOM     79  F   UNL A   1      40.435  36.036  38.201  1.00  0.00    -0.200 F 
ATOM     80  F   UNL A   1      38.592  35.114  39.990  1.00  0.00    -0.200 F 
ENDBRANCH  46  70
BRANCH  58  81
ATOM     81  C   UNL A   1      44.157  28.173  34.867  1.00  0.00     0.064 A 
ATOM     82  C   UNL A   1      43.978  26.968  35.561  1.00  0.00     0.173 A 
ATOM     83  C   UNL A   1      45.429  28.763  34.892  1.00  0.00     0.173 A 
ATOM     84  F   UNL A   1      42.774  26.374  35.582  1.00  0.00    -0.203 F 
ATOM     85  C   UNL A   1      45.026  26.386  36.270  1.00  0.00     0.198 A 
ATOM     86  C   UNL A   1      46.483  28.166  35.581  1.00  0.00     0.198 A 
ATOM     87  F   UNL A   1      45.655  29.914  34.242  1.00  0.00    -0.203 F 
ATOM     88  F   UNL A   1      44.819  25.257  36.961  1.00  0.00    -0.200 F 
ATOM     89  C   UNL A   1      46.278  26.982  36.274  1.00  0.00     0.200 A 
ATOM     90  F   UNL A   1      47.695  28.737  35.578  1.00  0.00    -0.200 F 
ATOM     91  F   UNL A   1      47.287  26.419  36.954  1.00  0.00    -0.200 F 
ENDBRANCH  58  81
ENDBRANCH  32  33
ENDBRANCH  24  27
ENDBRANCH  22  23
ENDBRANCH  21  22
ENDBRANCH   1  21
TORSDOF 15
ENDMDL
