MODEL 1
REMARK VINA RESULT:     -12.2      0.000      0.000
REMARK SMILES Cc1csc([C@H](C)Nc2cc(C)c(N)c(C(=O)NCCCNC(=O)c3ccc(-c4c5nc(c(-c6c(F)c(F)c(F)c(F)c6F)c6ccc([nH]6)c(-c6c(F)c(F)c(F)c(F)c6F)c6nc(c(-c7c(F)c(F)c(F)c(F)c7F)c7ccc4[nH]7)C=C6)C=C5)cc3)c2)n1
REMARK SMILES IDX 19 1 18 2 16 3 17 4 15 6 9 7 10 8 88 9 11 10 12 11 13 12
REMARK SMILES IDX 8 13 6 15 7 16 5 17 1 18 2 19 3 20 89 21 4 22 14 23 20 26
REMARK SMILES IDX 21 27 22 28 23 29 24 31 25 32 26 33 87 34 27 35 86 36 28 37
REMARK SMILES IDX 29 38 30 39 80 40 31 41 85 42 79 43 81 44 32 45 84 46 78 47
REMARK SMILES IDX 77 48 33 50 65 51 45 52 64 53 46 54 49 55 63 56 82 57 47 58
REMARK SMILES IDX 48 59 62 61 83 62 50 63 34 64 35 65 43 66 36 67 37 68 41 69
REMARK SMILES IDX 44 70 38 71 39 72 42 73 40 74 66 75 67 76 75 77 68 78 69 79
REMARK SMILES IDX 73 80 76 81 70 82 71 83 74 84 72 85 51 86 52 87 60 88 53 89
REMARK SMILES IDX 54 90 58 91 61 92 55 93 56 94 59 95 57 96
REMARK H PARENT 18 5 8 14 14 24 14 25 22 30 81 49 49 60
REMARK Flexibility Score: inf
ROOT
ATOM      1  C   UNL A   1      37.198  21.011  24.572  1.00  0.00     0.118 C 
ENDROOT
BRANCH   1   2
ATOM      2  N   UNL A   1      36.349  21.260  25.722  1.00  0.00    -0.352 N 
ATOM      3  C   UNL A   1      34.987  21.311  25.903  1.00  0.00     0.253 C 
ATOM      4  O   UNL A   1      34.613  21.555  27.056  1.00  0.00    -0.269 OA
ATOM      5  H   UNL A   1      36.857  21.428  26.550  1.00  0.00     0.163 HD
BRANCH   3   6
ATOM      6  C   UNL A   1      33.971  21.069  24.824  1.00  0.00     0.065 A 
ATOM      7  C   UNL A   1      32.371  21.919  23.174  1.00  0.00     0.036 A 
ATOM      8  C   UNL A   1      32.111  20.615  22.768  1.00  0.00     0.031 A 
ATOM      9  C   UNL A   1      33.287  22.122  24.206  1.00  0.00     0.041 A 
ATOM     10  C   UNL A   1      32.724  19.520  23.405  1.00  0.00    -0.025 A 
ATOM     11  C   UNL A   1      32.385  18.130  22.934  1.00  0.00     0.046 C 
ATOM     12  C   UNL A   1      33.649  19.737  24.452  1.00  0.00     0.047 A 
BRANCH   7  13
ATOM     13  N   UNL A   1      31.928  23.035  22.478  1.00  0.00    -0.376 N 
ATOM     14  H   UNL A   1      31.251  22.918  21.773  1.00  0.00     0.161 HD
BRANCH  13  15
ATOM     15  C   UNL A   1      32.436  24.386  22.760  1.00  0.00     0.135 C 
ATOM     16  C   UNL A   1      32.950  24.919  21.413  1.00  0.00     0.039 C 
BRANCH  15  17
ATOM     17  C   UNL A   1      31.391  25.307  23.391  1.00  0.00     0.115 A 
ATOM     18  C   UNL A   1      29.287  28.223  23.082  1.00  0.00     0.067 C 
ATOM     19  C   UNL A   1      29.967  27.008  23.598  1.00  0.00     0.049 A 
ATOM     20  C   UNL A   1      29.737  26.383  24.807  1.00  0.00     0.090 A 
ATOM     21  N   UNL A   1      30.931  26.401  22.809  1.00  0.00    -0.244 NA
ATOM     22  S   UNL A   1      30.681  24.962  24.925  1.00  0.00    -0.125 S 
ENDBRANCH  15  17
ENDBRANCH  13  15
ENDBRANCH   7  13
BRANCH  12  23
ATOM     23  N   UNL A   1      34.350  18.646  24.982  1.00  0.00    -0.398 N 
ATOM     24  H   UNL A   1      35.221  18.786  25.419  1.00  0.00     0.156 HD
ATOM     25  H   UNL A   1      33.972  17.739  24.918  1.00  0.00     0.156 HD
ENDBRANCH  12  23
ENDBRANCH   3   6
ENDBRANCH   1   2
BRANCH   1  26
ATOM     26  C   UNL A   1      38.131  19.823  24.824  1.00  0.00     0.042 C 
BRANCH  26  27
ATOM     27  C   UNL A   1      39.063  20.025  26.018  1.00  0.00     0.118 C 
BRANCH  27  28
ATOM     28  N   UNL A   1      40.205  19.125  25.975  1.00  0.00    -0.352 N 
ATOM     29  C   UNL A   1      41.549  19.397  26.016  1.00  0.00     0.251 C 
ATOM     30  H   UNL A   1      39.977  18.170  25.906  1.00  0.00     0.163 HD
ATOM     31  O   UNL A   1      42.353  18.510  25.745  1.00  0.00    -0.269 OA
BRANCH  29  32
ATOM     32  C   UNL A   1      42.043  20.744  26.379  1.00  0.00     0.039 A 
ATOM     33  C   UNL A   1      42.253  21.675  25.356  1.00  0.00     0.014 A 
ATOM     34  C   UNL A   1      42.365  21.075  27.698  1.00  0.00     0.014 A 
ATOM     35  C   UNL A   1      42.743  22.949  25.659  1.00  0.00     0.010 A 
ATOM     36  C   UNL A   1      42.795  22.364  28.008  1.00  0.00     0.010 A 
ATOM     37  C   UNL A   1      42.996  23.311  26.992  1.00  0.00    -0.014 A 
BRANCH  37  38
ATOM     38  C   UNL A   1      43.475  24.673  27.338  1.00  0.00     0.031 A 
ATOM     39  C   UNL A   1      42.526  25.685  27.918  1.00  0.00     0.074 A 
ATOM     40  C   UNL A   1      44.749  25.016  27.072  1.00  0.00     0.049 A 
ATOM     41  N   UNL A   1      42.736  26.944  28.211  1.00  0.00    -0.248 NA
ATOM     42  C   UNL A   1      41.153  25.228  28.179  1.00  0.00     0.031 C 
ATOM     43  C   UNL A   1      45.752  24.136  26.472  1.00  0.00     0.029 A 
ATOM     44  N   UNL A   1      45.415  26.201  27.258  1.00  0.00    -0.354 N 
ATOM     45  C   UNL A   1      41.521  27.432  28.672  1.00  0.00     0.074 A 
ATOM     46  C   UNL A   1      40.566  26.348  28.579  1.00  0.00     0.031 C 
ATOM     47  C   UNL A   1      46.909  24.806  26.354  1.00  0.00     0.029 A 
ATOM     48  C   UNL A   1      46.722  26.170  26.835  1.00  0.00     0.049 A 
ATOM     49  H   UNL A   1      44.995  26.998  27.656  1.00  0.00     0.167 HD
ATOM     50  C   UNL A   1      41.232  28.668  29.147  1.00  0.00     0.037 A 
ATOM     51  C   UNL A   1      47.659  27.137  26.830  1.00  0.00     0.037 A 
ATOM     52  C   UNL A   1      42.191  29.736  29.265  1.00  0.00     0.049 A 
ATOM     53  C   UNL A   1      47.314  28.498  27.369  1.00  0.00     0.074 A 
ATOM     54  C   UNL A   1      42.011  31.005  29.788  1.00  0.00     0.029 A 
ATOM     55  N   UNL A   1      43.512  29.657  28.851  1.00  0.00    -0.354 N 
ATOM     56  N   UNL A   1      46.178  28.931  27.859  1.00  0.00    -0.248 NA
ATOM     57  C   UNL A   1      48.386  29.503  27.363  1.00  0.00     0.031 C 
ATOM     58  C   UNL A   1      43.214  31.706  29.656  1.00  0.00     0.029 A 
ATOM     59  C   UNL A   1      44.155  30.861  29.092  1.00  0.00     0.049 A 
ATOM     60  H   UNL A   1      43.931  28.864  28.446  1.00  0.00     0.167 HD
ATOM     61  C   UNL A   1      46.403  30.245  28.242  1.00  0.00     0.074 A 
ATOM     62  C   UNL A   1      47.790  30.536  27.941  1.00  0.00     0.031 C 
ATOM     63  C   UNL A   1      45.539  31.131  28.794  1.00  0.00     0.037 A 
BRANCH  50  64
ATOM     64  C   UNL A   1      39.818  28.934  29.579  1.00  0.00     0.064 A 
ATOM     65  C   UNL A   1      38.856  29.424  28.682  1.00  0.00     0.173 A 
ATOM     66  C   UNL A   1      39.411  28.659  30.892  1.00  0.00     0.173 A 
ATOM     67  F   UNL A   1      39.196  29.712  27.417  1.00  0.00    -0.203 F 
ATOM     68  C   UNL A   1      37.546  29.657  29.094  1.00  0.00     0.198 A 
ATOM     69  C   UNL A   1      38.093  28.866  31.293  1.00  0.00     0.198 A 
ATOM     70  F   UNL A   1      40.289  28.182  31.787  1.00  0.00    -0.203 F 
ATOM     71  F   UNL A   1      36.656  30.170  28.233  1.00  0.00    -0.200 F 
ATOM     72  C   UNL A   1      37.164  29.372  30.396  1.00  0.00     0.200 A 
ATOM     73  F   UNL A   1      37.722  28.578  32.548  1.00  0.00    -0.200 F 
ATOM     74  F   UNL A   1      35.901  29.590  30.788  1.00  0.00    -0.200 F 
ENDBRANCH  50  64
BRANCH  51  75
ATOM     75  C   UNL A   1      49.022  26.841  26.319  1.00  0.00     0.064 A 
ATOM     76  C   UNL A   1      50.006  26.315  27.166  1.00  0.00     0.173 A 
ATOM     77  C   UNL A   1      49.364  27.067  24.979  1.00  0.00     0.173 A 
ATOM     78  F   UNL A   1      49.730  26.101  28.460  1.00  0.00    -0.203 F 
ATOM     79  C   UNL A   1      51.290  26.043  26.695  1.00  0.00     0.198 A 
ATOM     80  C   UNL A   1      50.639  26.770  24.502  1.00  0.00     0.198 A 
ATOM     81  F   UNL A   1      48.455  27.563  24.126  1.00  0.00    -0.203 F 
ATOM     82  F   UNL A   1      52.224  25.578  27.535  1.00  0.00    -0.200 F 
ATOM     83  C   UNL A   1      51.602  26.264  25.362  1.00  0.00     0.200 A 
ATOM     84  F   UNL A   1      50.935  26.971  23.211  1.00  0.00    -0.200 F 
ATOM     85  F   UNL A   1      52.835  25.995  24.909  1.00  0.00    -0.200 F 
ENDBRANCH  51  75
BRANCH  63  86
ATOM     86  C   UNL A   1      46.075  32.488  29.141  1.00  0.00     0.064 A 
ATOM     87  C   UNL A   1      46.683  32.743  30.379  1.00  0.00     0.173 A 
ATOM     88  C   UNL A   1      46.016  33.533  28.207  1.00  0.00     0.173 A 
ATOM     89  F   UNL A   1      46.748  31.781  31.311  1.00  0.00    -0.203 F 
ATOM     90  C   UNL A   1      47.194  34.004  30.676  1.00  0.00     0.198 A 
ATOM     91  C   UNL A   1      46.553  34.783  28.498  1.00  0.00     0.198 A 
ATOM     92  F   UNL A   1      45.450  33.337  27.007  1.00  0.00    -0.203 F 
ATOM     93  F   UNL A   1      47.733  34.239  31.880  1.00  0.00    -0.200 F 
ATOM     94  C   UNL A   1      47.135  35.020  29.733  1.00  0.00     0.200 A 
ATOM     95  F   UNL A   1      46.505  35.760  27.582  1.00  0.00    -0.200 F 
ATOM     96  F   UNL A   1      47.634  36.230  30.019  1.00  0.00    -0.200 F 
ENDBRANCH  63  86
ENDBRANCH  37  38
ENDBRANCH  29  32
ENDBRANCH  27  28
ENDBRANCH  26  27
ENDBRANCH   1  26
TORSDOF 14
ENDMDL
MODEL 2
REMARK VINA RESULT:     -12.2      5.372     10.958
REMARK SMILES Cc1csc([C@H](C)Nc2cc(C)c(N)c(C(=O)NCCCNC(=O)c3ccc(-c4c5nc(c(-c6c(F)c(F)c(F)c(F)c6F)c6ccc([nH]6)c(-c6c(F)c(F)c(F)c(F)c6F)c6nc(c(-c7c(F)c(F)c(F)c(F)c7F)c7ccc4[nH]7)C=C6)C=C5)cc3)c2)n1
REMARK SMILES IDX 19 1 18 2 16 3 17 4 15 6 9 7 10 8 88 9 11 10 12 11 13 12
REMARK SMILES IDX 8 13 6 15 7 16 5 17 1 18 2 19 3 20 89 21 4 22 14 23 20 26
REMARK SMILES IDX 21 27 22 28 23 29 24 31 25 32 26 33 87 34 27 35 86 36 28 37
REMARK SMILES IDX 29 38 30 39 80 40 31 41 85 42 79 43 81 44 32 45 84 46 78 47
REMARK SMILES IDX 77 48 33 50 65 51 45 52 64 53 46 54 49 55 63 56 82 57 47 58
REMARK SMILES IDX 48 59 62 61 83 62 50 63 34 64 35 65 43 66 36 67 37 68 41 69
REMARK SMILES IDX 44 70 38 71 39 72 42 73 40 74 66 75 67 76 75 77 68 78 69 79
REMARK SMILES IDX 73 80 76 81 70 82 71 83 74 84 72 85 51 86 52 87 60 88 53 89
REMARK SMILES IDX 54 90 58 91 61 92 55 93 56 94 59 95 57 96
REMARK H PARENT 18 5 8 14 14 24 14 25 22 30 81 49 49 60
REMARK Flexibility Score: inf
ROOT
ATOM      1  C   UNL A   1      31.654  30.372  26.646  1.00  0.00     0.118 C 
ENDROOT
BRANCH   1   2
ATOM      2  N   UNL A   1      32.487  30.088  25.492  1.00  0.00    -0.352 N 
ATOM      3  C   UNL A   1      32.342  29.276  24.393  1.00  0.00     0.253 C 
ATOM      4  O   UNL A   1      33.284  29.289  23.593  1.00  0.00    -0.269 OA
ATOM      5  H   UNL A   1      33.339  30.583  25.498  1.00  0.00     0.163 HD
BRANCH   3   6
ATOM      6  C   UNL A   1      31.135  28.428  24.110  1.00  0.00     0.065 A 
ATOM      7  C   UNL A   1      30.029  26.241  24.072  1.00  0.00     0.036 A 
ATOM      8  C   UNL A   1      28.859  26.851  23.633  1.00  0.00     0.031 A 
ATOM      9  C   UNL A   1      31.152  27.040  24.290  1.00  0.00     0.041 A 
ATOM     10  C   UNL A   1      28.813  28.233  23.373  1.00  0.00    -0.025 A 
ATOM     11  C   UNL A   1      27.523  28.832  22.878  1.00  0.00     0.046 C 
ATOM     12  C   UNL A   1      29.959  29.032  23.595  1.00  0.00     0.047 A 
BRANCH   7  13
ATOM     13  N   UNL A   1      30.084  24.922  24.501  1.00  0.00    -0.376 N 
ATOM     14  H   UNL A   1      29.422  24.281  24.153  1.00  0.00     0.161 HD
BRANCH  13  15
ATOM     15  C   UNL A   1      31.098  24.451  25.457  1.00  0.00     0.135 C 
ATOM     16  C   UNL A   1      30.307  23.910  26.658  1.00  0.00     0.039 C 
BRANCH  15  17
ATOM     17  C   UNL A   1      32.048  23.409  24.867  1.00  0.00     0.115 A 
ATOM     18  C   UNL A   1      32.616  19.982  23.887  1.00  0.00     0.067 C 
ATOM     19  C   UNL A   1      32.789  21.433  24.152  1.00  0.00     0.049 A 
ATOM     20  C   UNL A   1      33.892  22.203  23.844  1.00  0.00     0.090 A 
ATOM     21  N   UNL A   1      31.753  22.125  24.758  1.00  0.00    -0.244 NA
ATOM     22  S   UNL A   1      33.598  23.840  24.243  1.00  0.00    -0.125 S 
ENDBRANCH  15  17
ENDBRANCH  13  15
ENDBRANCH   7  13
BRANCH  12  23
ATOM     23  N   UNL A   1      29.857  30.424  23.462  1.00  0.00    -0.398 N 
ATOM     24  H   UNL A   1      29.023  30.883  23.712  1.00  0.00     0.156 HD
ATOM     25  H   UNL A   1      30.620  30.943  23.120  1.00  0.00     0.156 HD
ENDBRANCH  12  23
ENDBRANCH   3   6
ENDBRANCH   1   2
BRANCH   1  26
ATOM     26  C   UNL A   1      31.433  31.879  26.807  1.00  0.00     0.042 C 
BRANCH  26  27
ATOM     27  C   UNL A   1      32.732  32.679  26.884  1.00  0.00     0.118 C 
BRANCH  27  28
ATOM     28  N   UNL A   1      32.525  33.996  27.467  1.00  0.00    -0.352 N 
ATOM     29  C   UNL A   1      33.108  34.581  28.562  1.00  0.00     0.251 C 
ATOM     30  H   UNL A   1      31.863  34.555  27.001  1.00  0.00     0.163 HD
ATOM     31  O   UNL A   1      32.634  35.617  29.017  1.00  0.00    -0.269 OA
BRANCH  29  32
ATOM     32  C   UNL A   1      34.298  33.979  29.205  1.00  0.00     0.039 A 
ATOM     33  C   UNL A   1      34.103  32.960  30.144  1.00  0.00     0.014 A 
ATOM     34  C   UNL A   1      35.588  34.451  28.946  1.00  0.00     0.014 A 
ATOM     35  C   UNL A   1      35.202  32.386  30.790  1.00  0.00     0.010 A 
ATOM     36  C   UNL A   1      36.687  33.836  29.544  1.00  0.00     0.010 A 
ATOM     37  C   UNL A   1      36.505  32.804  30.477  1.00  0.00    -0.014 A 
BRANCH  37  38
ATOM     38  C   UNL A   1      37.687  32.176  31.120  1.00  0.00     0.031 A 
ATOM     39  C   UNL A   1      38.472  31.118  30.394  1.00  0.00     0.074 A 
ATOM     40  C   UNL A   1      38.015  32.515  32.381  1.00  0.00     0.049 A 
ATOM     41  N   UNL A   1      39.482  30.400  30.817  1.00  0.00    -0.248 NA
ATOM     42  C   UNL A   1      38.048  30.809  29.020  1.00  0.00     0.031 C 
ATOM     43  C   UNL A   1      37.306  33.496  33.202  1.00  0.00     0.029 A 
ATOM     44  N   UNL A   1      39.020  32.061  33.197  1.00  0.00    -0.354 N 
ATOM     45  C   UNL A   1      39.801  29.545  29.771  1.00  0.00     0.074 A 
ATOM     46  C   UNL A   1      38.851  29.801  28.710  1.00  0.00     0.031 C 
ATOM     47  C   UNL A   1      37.907  33.582  34.400  1.00  0.00     0.029 A 
ATOM     48  C   UNL A   1      39.019  32.638  34.444  1.00  0.00     0.049 A 
ATOM     49  H   UNL A   1      39.679  31.385  32.917  1.00  0.00     0.167 HD
ATOM     50  C   UNL A   1      40.807  28.640  29.697  1.00  0.00     0.037 A 
ATOM     51  C   UNL A   1      39.821  32.424  35.504  1.00  0.00     0.037 A 
ATOM     52  C   UNL A   1      41.768  28.408  30.744  1.00  0.00     0.049 A 
ATOM     53  C   UNL A   1      40.935  31.420  35.392  1.00  0.00     0.074 A 
ATOM     54  C   UNL A   1      42.860  27.557  30.742  1.00  0.00     0.029 A 
ATOM     55  N   UNL A   1      41.751  29.033  31.982  1.00  0.00    -0.354 N 
ATOM     56  N   UNL A   1      41.264  30.660  34.377  1.00  0.00    -0.248 NA
ATOM     57  C   UNL A   1      41.794  31.250  36.573  1.00  0.00     0.031 C 
ATOM     58  C   UNL A   1      43.480  27.639  31.992  1.00  0.00     0.029 A 
ATOM     59  C   UNL A   1      42.802  28.573  32.758  1.00  0.00     0.049 A 
ATOM     60  H   UNL A   1      41.089  29.703  32.267  1.00  0.00     0.167 HD
ATOM     61  C   UNL A   1      42.381  29.942  34.784  1.00  0.00     0.074 A 
ATOM     62  C   UNL A   1      42.681  30.368  36.135  1.00  0.00     0.031 C 
ATOM     63  C   UNL A   1      43.093  29.015  34.098  1.00  0.00     0.037 A 
BRANCH  50  64
ATOM     64  C   UNL A   1      40.923  27.831  28.436  1.00  0.00     0.064 A 
ATOM     65  C   UNL A   1      41.693  28.273  27.349  1.00  0.00     0.173 A 
ATOM     66  C   UNL A   1      40.287  26.586  28.328  1.00  0.00     0.173 A 
ATOM     67  F   UNL A   1      42.313  29.461  27.398  1.00  0.00    -0.203 F 
ATOM     68  C   UNL A   1      41.798  27.509  26.189  1.00  0.00     0.198 A 
ATOM     69  C   UNL A   1      40.419  25.811  27.177  1.00  0.00     0.198 A 
ATOM     70  F   UNL A   1      39.546  26.114  29.340  1.00  0.00    -0.203 F 
ATOM     71  F   UNL A   1      42.501  27.972  25.146  1.00  0.00    -0.200 F 
ATOM     72  C   UNL A   1      41.168  26.278  26.106  1.00  0.00     0.200 A 
ATOM     73  F   UNL A   1      39.819  24.616  27.103  1.00  0.00    -0.200 F 
ATOM     74  F   UNL A   1      41.276  25.541  24.992  1.00  0.00    -0.200 F 
ENDBRANCH  50  64
BRANCH  51  75
ATOM     75  C   UNL A   1      39.613  33.198  36.755  1.00  0.00     0.064 A 
ATOM     76  C   UNL A   1      38.709  32.756  37.730  1.00  0.00     0.173 A 
ATOM     77  C   UNL A   1      40.317  34.385  37.004  1.00  0.00     0.173 A 
ATOM     78  F   UNL A   1      37.999  31.638  37.526  1.00  0.00    -0.203 F 
ATOM     79  C   UNL A   1      38.503  33.482  38.902  1.00  0.00     0.198 A 
ATOM     80  C   UNL A   1      40.131  35.096  38.188  1.00  0.00     0.198 A 
ATOM     81  F   UNL A   1      41.198  34.846  36.105  1.00  0.00    -0.203 F 
ATOM     82  F   UNL A   1      37.604  33.059  39.800  1.00  0.00    -0.200 F 
ATOM     83  C   UNL A   1      39.219  34.647  39.132  1.00  0.00     0.200 A 
ATOM     84  F   UNL A   1      40.834  36.213  38.414  1.00  0.00    -0.200 F 
ATOM     85  F   UNL A   1      39.026  35.341  40.262  1.00  0.00    -0.200 F 
ENDBRANCH  51  75
BRANCH  63  86
ATOM     86  C   UNL A   1      44.287  28.422  34.785  1.00  0.00     0.064 A 
ATOM     87  C   UNL A   1      44.194  27.234  35.525  1.00  0.00     0.173 A 
ATOM     88  C   UNL A   1      45.547  29.026  34.664  1.00  0.00     0.173 A 
ATOM     89  F   UNL A   1      43.008  26.628  35.684  1.00  0.00    -0.203 F 
ATOM     90  C   UNL A   1      45.317  26.686  36.140  1.00  0.00     0.198 A 
ATOM     91  C   UNL A   1      46.672  28.460  35.255  1.00  0.00     0.198 A 
ATOM     92  F   UNL A   1      45.689  30.159  33.961  1.00  0.00    -0.203 F 
ATOM     93  F   UNL A   1      45.199  25.574  36.878  1.00  0.00    -0.200 F 
ATOM     94  C   UNL A   1      46.556  27.295  35.998  1.00  0.00     0.200 A 
ATOM     95  F   UNL A   1      47.870  29.043  35.108  1.00  0.00    -0.200 F 
ATOM     96  F   UNL A   1      47.637  26.762  36.583  1.00  0.00    -0.200 F 
ENDBRANCH  63  86
ENDBRANCH  37  38
ENDBRANCH  29  32
ENDBRANCH  27  28
ENDBRANCH  26  27
ENDBRANCH   1  26
TORSDOF 14
ENDMDL
MODEL 3
REMARK VINA RESULT:     -12.1      5.482     10.993
REMARK SMILES Cc1csc([C@H](C)Nc2cc(C)c(N)c(C(=O)NCCCNC(=O)c3ccc(-c4c5nc(c(-c6c(F)c(F)c(F)c(F)c6F)c6ccc([nH]6)c(-c6c(F)c(F)c(F)c(F)c6F)c6nc(c(-c7c(F)c(F)c(F)c(F)c7F)c7ccc4[nH]7)C=C6)C=C5)cc3)c2)n1
REMARK SMILES IDX 19 1 18 2 16 3 17 4 15 6 9 7 10 8 88 9 11 10 12 11 13 12
REMARK SMILES IDX 8 13 6 15 7 16 5 17 1 18 2 19 3 20 89 21 4 22 14 23 20 26
REMARK SMILES IDX 21 27 22 28 23 29 24 31 25 32 26 33 87 34 27 35 86 36 28 37
REMARK SMILES IDX 29 38 30 39 80 40 31 41 85 42 79 43 81 44 32 45 84 46 78 47
REMARK SMILES IDX 77 48 33 50 65 51 45 52 64 53 46 54 49 55 63 56 82 57 47 58
REMARK SMILES IDX 48 59 62 61 83 62 50 63 34 64 35 65 43 66 36 67 37 68 41 69
REMARK SMILES IDX 44 70 38 71 39 72 42 73 40 74 66 75 67 76 75 77 68 78 69 79
REMARK SMILES IDX 73 80 76 81 70 82 71 83 74 84 72 85 51 86 52 87 60 88 53 89
REMARK SMILES IDX 54 90 58 91 61 92 55 93 56 94 59 95 57 96
REMARK H PARENT 18 5 8 14 14 24 14 25 22 30 81 49 49 60
REMARK Flexibility Score: inf
ROOT
ATOM      1  C   UNL A   1      31.720  30.465  26.706  1.00  0.00     0.118 C 
ENDROOT
BRANCH   1   2
ATOM      2  N   UNL A   1      32.529  30.154  25.542  1.00  0.00    -0.352 N 
ATOM      3  C   UNL A   1      32.368  29.306  24.473  1.00  0.00     0.253 C 
ATOM      4  O   UNL A   1      33.291  29.305  23.650  1.00  0.00    -0.269 OA
ATOM      5  H   UNL A   1      33.375  30.660  25.512  1.00  0.00     0.163 HD
BRANCH   3   6
ATOM      6  C   UNL A   1      31.167  28.434  24.246  1.00  0.00     0.065 A 
ATOM      7  C   UNL A   1      30.010  26.289  24.506  1.00  0.00     0.036 A 
ATOM      8  C   UNL A   1      28.896  26.823  23.869  1.00  0.00     0.031 A 
ATOM      9  C   UNL A   1      31.132  27.101  24.671  1.00  0.00     0.041 A 
ATOM     10  C   UNL A   1      28.907  28.137  23.365  1.00  0.00    -0.025 A 
ATOM     11  C   UNL A   1      27.677  28.652  22.665  1.00  0.00     0.046 C 
ATOM     12  C   UNL A   1      30.051  28.950  23.535  1.00  0.00     0.047 A 
BRANCH   7  13
ATOM     13  N   UNL A   1      29.997  25.068  25.165  1.00  0.00    -0.376 N 
ATOM     14  H   UNL A   1      29.470  24.980  25.992  1.00  0.00     0.161 HD
BRANCH  13  15
ATOM     15  C   UNL A   1      30.742  23.902  24.669  1.00  0.00     0.135 C 
ATOM     16  C   UNL A   1      30.918  24.141  23.161  1.00  0.00     0.039 C 
BRANCH  15  17
ATOM     17  C   UNL A   1      32.076  23.685  25.385  1.00  0.00     0.115 A 
ATOM     18  C   UNL A   1      35.661  24.100  25.382  1.00  0.00     0.067 C 
ATOM     19  C   UNL A   1      34.271  23.739  25.761  1.00  0.00     0.049 A 
ATOM     20  C   UNL A   1      33.863  23.151  26.940  1.00  0.00     0.090 A 
ATOM     21  N   UNL A   1      33.247  24.016  24.869  1.00  0.00    -0.244 NA
ATOM     22  S   UNL A   1      32.158  23.019  26.974  1.00  0.00    -0.125 S 
ENDBRANCH  15  17
ENDBRANCH  13  15
ENDBRANCH   7  13
BRANCH  12  23
ATOM     23  N   UNL A   1      29.997  30.296  23.149  1.00  0.00    -0.398 N 
ATOM     24  H   UNL A   1      30.734  30.689  22.626  1.00  0.00     0.156 HD
ATOM     25  H   UNL A   1      29.222  30.850  23.399  1.00  0.00     0.156 HD
ENDBRANCH  12  23
ENDBRANCH   3   6
ENDBRANCH   1   2
BRANCH   1  26
ATOM     26  C   UNL A   1      31.469  31.972  26.815  1.00  0.00     0.042 C 
BRANCH  26  27
ATOM     27  C   UNL A   1      32.751  32.796  26.908  1.00  0.00     0.118 C 
BRANCH  27  28
ATOM     28  N   UNL A   1      32.521  34.093  27.525  1.00  0.00    -0.352 N 
ATOM     29  C   UNL A   1      33.085  34.655  28.642  1.00  0.00     0.251 C 
ATOM     30  H   UNL A   1      31.855  34.656  27.069  1.00  0.00     0.163 HD
ATOM     31  O   UNL A   1      32.592  35.671  29.122  1.00  0.00    -0.269 OA
BRANCH  29  32
ATOM     32  C   UNL A   1      34.277  34.051  29.279  1.00  0.00     0.039 A 
ATOM     33  C   UNL A   1      34.085  33.074  30.262  1.00  0.00     0.014 A 
ATOM     34  C   UNL A   1      35.570  34.484  28.972  1.00  0.00     0.014 A 
ATOM     35  C   UNL A   1      35.187  32.501  30.903  1.00  0.00     0.010 A 
ATOM     36  C   UNL A   1      36.670  33.869  29.566  1.00  0.00     0.010 A 
ATOM     37  C   UNL A   1      36.490  32.877  30.543  1.00  0.00    -0.014 A 
BRANCH  37  38
ATOM     38  C   UNL A   1      37.674  32.249  31.181  1.00  0.00     0.031 A 
ATOM     39  C   UNL A   1      38.445  31.178  30.459  1.00  0.00     0.074 A 
ATOM     40  C   UNL A   1      38.017  32.599  32.435  1.00  0.00     0.049 A 
ATOM     41  N   UNL A   1      39.454  30.458  30.880  1.00  0.00    -0.248 NA
ATOM     42  C   UNL A   1      38.006  30.857  29.093  1.00  0.00     0.031 C 
ATOM     43  C   UNL A   1      37.322  33.593  33.253  1.00  0.00     0.029 A 
ATOM     44  N   UNL A   1      39.026  32.147  33.247  1.00  0.00    -0.354 N 
ATOM     45  C   UNL A   1      39.758  29.589  29.840  1.00  0.00     0.074 A 
ATOM     46  C   UNL A   1      38.799  29.840  28.786  1.00  0.00     0.031 C 
ATOM     47  C   UNL A   1      37.935  33.688  34.443  1.00  0.00     0.029 A 
ATOM     48  C   UNL A   1      39.041  32.738  34.487  1.00  0.00     0.049 A 
ATOM     49  H   UNL A   1      39.678  31.463  32.967  1.00  0.00     0.167 HD
ATOM     50  C   UNL A   1      40.757  28.677  29.766  1.00  0.00     0.037 A 
ATOM     51  C   UNL A   1      39.852  32.529  35.542  1.00  0.00     0.037 A 
ATOM     52  C   UNL A   1      41.727  28.450  30.806  1.00  0.00     0.049 A 
ATOM     53  C   UNL A   1      40.958  31.516  35.430  1.00  0.00     0.074 A 
ATOM     54  C   UNL A   1      42.812  27.591  30.802  1.00  0.00     0.029 A 
ATOM     55  N   UNL A   1      41.725  29.088  32.037  1.00  0.00    -0.354 N 
ATOM     56  N   UNL A   1      41.273  30.743  34.420  1.00  0.00    -0.248 NA
ATOM     57  C   UNL A   1      41.828  31.354  36.604  1.00  0.00     0.031 C 
ATOM     58  C   UNL A   1      43.445  27.683  32.046  1.00  0.00     0.029 A 
ATOM     59  C   UNL A   1      42.781  28.630  32.808  1.00  0.00     0.049 A 
ATOM     60  H   UNL A   1      41.071  29.766  32.321  1.00  0.00     0.167 HD
ATOM     61  C   UNL A   1      42.388  30.023  34.823  1.00  0.00     0.074 A 
ATOM     62  C   UNL A   1      42.704  30.461  36.167  1.00  0.00     0.031 C 
ATOM     63  C   UNL A   1      43.087  29.084  34.141  1.00  0.00     0.037 A 
BRANCH  50  64
ATOM     64  C   UNL A   1      40.855  27.854  28.513  1.00  0.00     0.064 A 
ATOM     65  C   UNL A   1      41.655  28.257  27.432  1.00  0.00     0.173 A 
ATOM     66  C   UNL A   1      40.172  26.634  28.407  1.00  0.00     0.173 A 
ATOM     67  F   UNL A   1      42.320  29.420  27.479  1.00  0.00    -0.203 F 
ATOM     68  C   UNL A   1      41.743  27.480  26.278  1.00  0.00     0.198 A 
ATOM     69  C   UNL A   1      40.287  25.846  27.263  1.00  0.00     0.198 A 
ATOM     70  F   UNL A   1      39.401  26.200  29.414  1.00  0.00    -0.203 F 
ATOM     71  F   UNL A   1      42.475  27.907  25.240  1.00  0.00    -0.200 F 
ATOM     72  C   UNL A   1      41.065  26.273  26.198  1.00  0.00     0.200 A 
ATOM     73  F   UNL A   1      39.641  24.674  27.192  1.00  0.00    -0.200 F 
ATOM     74  F   UNL A   1      41.157  25.524  25.091  1.00  0.00    -0.200 F 
ENDBRANCH  50  64
BRANCH  51  75
ATOM     75  C   UNL A   1      39.661  33.318  36.786  1.00  0.00     0.064 A 
ATOM     76  C   UNL A   1      40.362  34.514  36.991  1.00  0.00     0.173 A 
ATOM     77  C   UNL A   1      38.773  32.900  37.787  1.00  0.00     0.173 A 
ATOM     78  F   UNL A   1      41.237  34.943  36.071  1.00  0.00    -0.203 F 
ATOM     79  C   UNL A   1      40.194  35.254  38.160  1.00  0.00     0.198 A 
ATOM     80  C   UNL A   1      38.586  33.654  38.943  1.00  0.00     0.198 A 
ATOM     81  F   UNL A   1      38.074  31.765  37.635  1.00  0.00    -0.203 F 
ATOM     82  F   UNL A   1      40.905  36.373  38.349  1.00  0.00    -0.200 F 
ATOM     83  C   UNL A   1      39.301  34.827  39.131  1.00  0.00     0.200 A 
ATOM     84  F   UNL A   1      37.712  33.247  39.873  1.00  0.00    -0.200 F 
ATOM     85  F   UNL A   1      39.135  35.543  40.252  1.00  0.00    -0.200 F 
ENDBRANCH  51  75
BRANCH  63  86
ATOM     86  C   UNL A   1      44.284  28.490  34.822  1.00  0.00     0.064 A 
ATOM     87  C   UNL A   1      45.549  29.091  34.742  1.00  0.00     0.173 A 
ATOM     88  C   UNL A   1      44.154  27.330  35.600  1.00  0.00     0.173 A 
ATOM     89  F   UNL A   1      45.727  30.192  33.997  1.00  0.00    -0.203 F 
ATOM     90  C   UNL A   1      46.646  28.537  35.397  1.00  0.00     0.198 A 
ATOM     91  C   UNL A   1      45.247  26.795  36.276  1.00  0.00     0.198 A 
ATOM     92  F   UNL A   1      42.964  26.721  35.713  1.00  0.00    -0.203 F 
ATOM     93  F   UNL A   1      47.854  29.103  35.272  1.00  0.00    -0.200 F 
ATOM     94  C   UNL A   1      46.492  27.395  36.170  1.00  0.00     0.200 A 
ATOM     95  F   UNL A   1      45.094  25.698  37.031  1.00  0.00    -0.200 F 
ATOM     96  F   UNL A   1      47.547  26.868  36.806  1.00  0.00    -0.200 F 
ENDBRANCH  63  86
ENDBRANCH  37  38
ENDBRANCH  29  32
ENDBRANCH  27  28
ENDBRANCH  26  27
ENDBRANCH   1  26
TORSDOF 14
ENDMDL
