MODEL 1
REMARK VINA RESULT:     -11.8      0.000      0.000
REMARK SMILES CC[NH2+][C@@]1(C(=O)NCCCNC(=O)c2ccc(-c3c4nc(c(-c5c(F)c(F)c(F)c(F)c5F)c5ccc([nH]5)c(-c5c(F)c(F)c(F)c(F)c5F)c5nc(c(-c6c(F)c(F)c(F)c(F)c6F)c6ccc3[nH]6)C=C5)C=C4)cc2)CC[C@@H]([NH+]2CC[NH+](C(C)C)CC2)C1
REMARK SMILES IDX 9 1 8 2 7 3 5 4 6 5 4 7 77 8 89 9 78 10 79 11 3 12 2 15 1 16
REMARK SMILES IDX 80 17 81 18 88 19 82 21 87 22 83 23 84 25 85 26 86 27 10 28
REMARK SMILES IDX 11 29 12 30 13 32 14 33 15 34 76 35 16 36 75 37 17 38 18 39
REMARK SMILES IDX 19 40 69 41 20 42 74 43 68 44 70 45 21 46 73 47 67 48 66 49
REMARK SMILES IDX 22 51 54 52 34 53 53 54 35 55 38 56 52 57 71 58 36 59 37 60
REMARK SMILES IDX 51 62 72 63 39 64 23 65 24 66 32 67 25 68 26 69 30 70 33 71
REMARK SMILES IDX 27 72 28 73 31 74 29 75 55 76 56 77 64 78 57 79 58 80 62 81
REMARK SMILES IDX 65 82 59 83 60 84 63 85 61 86 40 87 41 88 49 89 42 90 43 91
REMARK SMILES IDX 47 92 50 93 44 94 45 95 48 96 46 97
REMARK H PARENT 7 6 3 13 3 14 80 20 83 24 11 31 70 50 38 61
REMARK Flexibility Score: inf
ROOT
ATOM      1  C   UNL A   1      31.403  32.323  26.502  1.00  0.00     0.042 C 
ENDROOT
BRANCH   1   2
ATOM      2  C   UNL A   1      31.352  30.800  26.440  1.00  0.00     0.118 C 
BRANCH   2   3
ATOM      3  N   UNL A   1      31.233  30.317  25.083  1.00  0.00    -0.351 N 
ATOM      4  C   UNL A   1      31.861  29.333  24.391  1.00  0.00     0.281 C 
ATOM      5  O   UNL A   1      31.533  29.255  23.196  1.00  0.00    -0.268 OA
ATOM      6  H   UNL A   1      30.558  30.800  24.552  1.00  0.00     0.163 HD
BRANCH   4   7
ATOM      7  C   UNL A   1      32.991  28.388  24.968  1.00  0.00     0.181 C 
ATOM      8  C   UNL A   1      33.711  27.561  23.894  1.00  0.00     0.085 C 
ATOM      9  C   UNL A   1      32.367  27.388  25.956  1.00  0.00     0.144 C 
ATOM     10  C   UNL A   1      33.459  26.082  24.198  1.00  0.00     0.072 C 
ATOM     11  C   UNL A   1      32.384  26.005  25.295  1.00  0.00     0.191 C 
BRANCH   7  12
ATOM     12  N   UNL A   1      33.970  29.329  25.594  1.00  0.00    -0.334 N 
ATOM     13  H   UNL A   1      34.735  29.449  24.930  1.00  0.00     0.347 HD
ATOM     14  H   UNL A   1      33.413  30.158  25.801  1.00  0.00     0.347 HD
BRANCH  12  15
ATOM     15  C   UNL A   1      34.567  28.978  26.875  1.00  0.00     0.257 C 
ATOM     16  C   UNL A   1      34.940  30.243  27.634  1.00  0.00     0.071 C 
ENDBRANCH  12  15
ENDBRANCH   7  12
BRANCH  11  17
ATOM     17  N   UNL A   1      32.353  24.793  26.133  1.00  0.00    -0.323 N 
ATOM     18  C   UNL A   1      31.227  23.874  25.941  1.00  0.00     0.324 C 
ATOM     19  C   UNL A   1      33.598  24.000  26.126  1.00  0.00     0.324 C 
ATOM     20  H   UNL A   1      32.227  25.237  27.044  1.00  0.00     0.348 HD
ATOM     21  C   UNL A   1      31.325  23.038  24.657  1.00  0.00     0.324 C 
ATOM     22  C   UNL A   1      33.762  22.952  24.984  1.00  0.00     0.324 C 
ATOM     23  N   UNL A   1      32.552  22.242  24.521  1.00  0.00    -0.324 N 
ATOM     24  H   UNL A   1      32.643  22.144  23.510  1.00  0.00     0.348 HD
BRANCH  23  25
ATOM     25  C   UNL A   1      32.483  20.839  24.955  1.00  0.00     0.178 C 
ATOM     26  C   UNL A   1      32.528  19.807  23.826  1.00  0.00     0.075 C 
ATOM     27  C   UNL A   1      33.551  20.508  26.009  1.00  0.00     0.075 C 
ENDBRANCH  23  25
ENDBRANCH  11  17
ENDBRANCH   4   7
ENDBRANCH   2   3
ENDBRANCH   1   2
BRANCH   1  28
ATOM     28  C   UNL A   1      32.698  32.861  27.085  1.00  0.00     0.118 C 
BRANCH  28  29
ATOM     29  N   UNL A   1      32.529  34.203  27.626  1.00  0.00    -0.352 N 
ATOM     30  C   UNL A   1      33.090  34.805  28.722  1.00  0.00     0.251 C 
ATOM     31  H   UNL A   1      31.908  34.774  27.119  1.00  0.00     0.163 HD
ATOM     32  O   UNL A   1      32.613  35.857  29.137  1.00  0.00    -0.269 OA
BRANCH  30  33
ATOM     33  C   UNL A   1      34.253  34.206  29.408  1.00  0.00     0.039 A 
ATOM     34  C   UNL A   1      34.026  33.366  30.501  1.00  0.00     0.014 A 
ATOM     35  C   UNL A   1      35.561  34.507  29.021  1.00  0.00     0.014 A 
ATOM     36  C   UNL A   1      35.107  32.796  31.175  1.00  0.00     0.010 A 
ATOM     37  C   UNL A   1      36.632  33.860  29.626  1.00  0.00     0.010 A 
ATOM     38  C   UNL A   1      36.417  33.014  30.722  1.00  0.00    -0.014 A 
BRANCH  38  39
ATOM     39  C   UNL A   1      37.573  32.367  31.387  1.00  0.00     0.031 A 
ATOM     40  C   UNL A   1      38.282  31.217  30.730  1.00  0.00     0.074 A 
ATOM     41  C   UNL A   1      37.932  32.776  32.618  1.00  0.00     0.049 A 
ATOM     42  N   UNL A   1      39.285  30.502  31.173  1.00  0.00    -0.248 NA
ATOM     43  C   UNL A   1      37.775  30.788  29.419  1.00  0.00     0.031 C 
ATOM     44  C   UNL A   1      37.263  33.829  33.385  1.00  0.00     0.029 A 
ATOM     45  N   UNL A   1      38.939  32.349  33.444  1.00  0.00    -0.354 N 
ATOM     46  C   UNL A   1      39.509  29.529  30.209  1.00  0.00     0.074 A 
ATOM     47  C   UNL A   1      38.501  29.706  29.187  1.00  0.00     0.031 C 
ATOM     48  C   UNL A   1      37.893  33.983  34.559  1.00  0.00     0.029 A 
ATOM     49  C   UNL A   1      38.985  33.019  34.643  1.00  0.00     0.049 A 
ATOM     50  H   UNL A   1      39.568  31.631  33.203  1.00  0.00     0.167 HD
ATOM     51  C   UNL A   1      40.484  28.588  30.168  1.00  0.00     0.037 A 
ATOM     52  C   UNL A   1      39.813  32.868  35.691  1.00  0.00     0.037 A 
ATOM     53  C   UNL A   1      41.498  28.442  31.179  1.00  0.00     0.049 A 
ATOM     54  C   UNL A   1      40.912  31.846  35.610  1.00  0.00     0.074 A 
ATOM     55  C   UNL A   1      42.589  27.591  31.194  1.00  0.00     0.029 A 
ATOM     56  N   UNL A   1      41.538  29.163  32.366  1.00  0.00    -0.354 N 
ATOM     57  N   UNL A   1      41.180  30.997  34.647  1.00  0.00    -0.248 NA
ATOM     58  C   UNL A   1      41.828  31.769  36.753  1.00  0.00     0.031 C 
ATOM     59  C   UNL A   1      43.253  27.755  32.414  1.00  0.00     0.029 A 
ATOM     60  C   UNL A   1      42.614  28.750  33.136  1.00  0.00     0.049 A 
ATOM     61  H   UNL A   1      40.896  29.863  32.623  1.00  0.00     0.167 HD
ATOM     62  C   UNL A   1      42.301  30.293  35.060  1.00  0.00     0.074 A 
ATOM     63  C   UNL A   1      42.678  30.835  36.351  1.00  0.00     0.031 C 
ATOM     64  C   UNL A   1      42.959  29.287  34.430  1.00  0.00     0.037 A 
BRANCH  51  65
ATOM     65  C   UNL A   1      40.487  27.644  28.999  1.00  0.00     0.064 A 
ATOM     66  C   UNL A   1      41.281  27.870  27.862  1.00  0.00     0.173 A 
ATOM     67  C   UNL A   1      39.683  26.494  29.013  1.00  0.00     0.173 A 
ATOM     68  F   UNL A   1      42.062  28.958  27.789  1.00  0.00    -0.203 F 
ATOM     69  C   UNL A   1      41.234  27.008  26.768  1.00  0.00     0.198 A 
ATOM     70  C   UNL A   1      39.666  25.615  27.932  1.00  0.00     0.198 A 
ATOM     71  F   UNL A   1      38.908  26.223  30.073  1.00  0.00    -0.203 F 
ATOM     72  F   UNL A   1      41.948  27.285  25.669  1.00  0.00    -0.200 F 
ATOM     73  C   UNL A   1      40.430  25.880  26.807  1.00  0.00     0.200 A 
ATOM     74  F   UNL A   1      38.898  24.517  27.976  1.00  0.00    -0.200 F 
ATOM     75  F   UNL A   1      40.384  25.053  25.753  1.00  0.00    -0.200 F 
ENDBRANCH  51  65
BRANCH  52  76
ATOM     76  C   UNL A   1      39.641  33.735  36.885  1.00  0.00     0.064 A 
ATOM     77  C   UNL A   1      40.252  34.993  36.959  1.00  0.00     0.173 A 
ATOM     78  C   UNL A   1      38.820  33.342  37.954  1.00  0.00     0.173 A 
ATOM     79  F   UNL A   1      41.057  35.405  35.969  1.00  0.00    -0.203 F 
ATOM     80  C   UNL A   1      40.055  35.825  38.060  1.00  0.00     0.198 A 
ATOM     81  C   UNL A   1      38.602  34.186  39.040  1.00  0.00     0.198 A 
ATOM     82  F   UNL A   1      38.203  32.152  37.926  1.00  0.00    -0.203 F 
ATOM     83  F   UNL A   1      40.674  37.011  38.118  1.00  0.00    -0.200 F 
ATOM     84  C   UNL A   1      39.223  35.424  39.095  1.00  0.00     0.200 A 
ATOM     85  F   UNL A   1      37.782  33.804  40.029  1.00  0.00    -0.200 F 
ATOM     86  F   UNL A   1      39.020  36.232  40.144  1.00  0.00    -0.200 F 
ENDBRANCH  52  76
BRANCH  64  87
ATOM     87  C   UNL A   1      44.155  28.711  35.131  1.00  0.00     0.064 A 
ATOM     88  C   UNL A   1      45.439  29.249  34.956  1.00  0.00     0.173 A 
ATOM     89  C   UNL A   1      44.012  27.625  36.009  1.00  0.00     0.173 A 
ATOM     90  F   UNL A   1      45.631  30.279  34.116  1.00  0.00    -0.203 F 
ATOM     91  C   UNL A   1      46.540  28.701  35.609  1.00  0.00     0.198 A 
ATOM     92  C   UNL A   1      45.110  27.102  36.685  1.00  0.00     0.198 A 
ATOM     93  F   UNL A   1      42.806  27.077  36.218  1.00  0.00    -0.203 F 
ATOM     94  F   UNL A   1      47.765  29.196  35.382  1.00  0.00    -0.200 F 
ATOM     95  C   UNL A   1      46.374  27.633  36.478  1.00  0.00     0.200 A 
ATOM     96  F   UNL A   1      44.946  26.080  37.536  1.00  0.00    -0.200 F 
ATOM     97  F   UNL A   1      47.434  27.111  37.108  1.00  0.00    -0.200 F 
ENDBRANCH  64  87
ENDBRANCH  38  39
ENDBRANCH  30  33
ENDBRANCH  28  29
ENDBRANCH   1  28
TORSDOF 14
ENDMDL
MODEL 2
REMARK VINA RESULT:     -11.7      5.716     11.268
REMARK SMILES CC[NH2+][C@@]1(C(=O)NCCCNC(=O)c2ccc(-c3c4nc(c(-c5c(F)c(F)c(F)c(F)c5F)c5ccc([nH]5)c(-c5c(F)c(F)c(F)c(F)c5F)c5nc(c(-c6c(F)c(F)c(F)c(F)c6F)c6ccc3[nH]6)C=C5)C=C4)cc2)CC[C@@H]([NH+]2CC[NH+](C(C)C)CC2)C1
REMARK SMILES IDX 9 1 8 2 7 3 5 4 6 5 4 7 77 8 89 9 78 10 79 11 3 12 2 15 1 16
REMARK SMILES IDX 80 17 81 18 88 19 82 21 87 22 83 23 84 25 85 26 86 27 10 28
REMARK SMILES IDX 11 29 12 30 13 32 14 33 15 34 76 35 16 36 75 37 17 38 18 39
REMARK SMILES IDX 19 40 69 41 20 42 74 43 68 44 70 45 21 46 73 47 67 48 66 49
REMARK SMILES IDX 22 51 54 52 34 53 53 54 35 55 38 56 52 57 71 58 36 59 37 60
REMARK SMILES IDX 51 62 72 63 39 64 23 65 24 66 32 67 25 68 26 69 30 70 33 71
REMARK SMILES IDX 27 72 28 73 31 74 29 75 55 76 56 77 64 78 57 79 58 80 62 81
REMARK SMILES IDX 65 82 59 83 60 84 63 85 61 86 40 87 41 88 49 89 42 90 43 91
REMARK SMILES IDX 47 92 50 93 44 94 45 95 48 96 46 97
REMARK H PARENT 7 6 3 13 3 14 80 20 83 24 11 31 70 50 38 61
REMARK Flexibility Score: inf
ROOT
ATOM      1  C   UNL A   1      38.210  19.553  24.996  1.00  0.00     0.042 C 
ENDROOT
BRANCH   1   2
ATOM      2  C   UNL A   1      37.376  20.704  24.443  1.00  0.00     0.118 C 
BRANCH   2   3
ATOM      3  N   UNL A   1      37.413  21.863  25.306  1.00  0.00    -0.351 N 
ATOM      4  C   UNL A   1      36.484  22.786  25.658  1.00  0.00     0.281 C 
ATOM      5  O   UNL A   1      36.913  23.696  26.385  1.00  0.00    -0.268 OA
ATOM      6  H   UNL A   1      38.292  22.012  25.724  1.00  0.00     0.163 HD
BRANCH   4   7
ATOM      7  C   UNL A   1      34.985  22.815  25.150  1.00  0.00     0.181 C 
ATOM      8  C   UNL A   1      34.855  22.952  23.626  1.00  0.00     0.085 C 
ATOM      9  C   UNL A   1      34.258  24.021  25.769  1.00  0.00     0.144 C 
ATOM     10  C   UNL A   1      34.119  24.263  23.338  1.00  0.00     0.072 C 
ATOM     11  C   UNL A   1      34.026  25.049  24.656  1.00  0.00     0.191 C 
BRANCH   7  12
ATOM     12  N   UNL A   1      34.432  21.491  25.567  1.00  0.00    -0.334 N 
ATOM     13  H   UNL A   1      35.224  20.905  25.830  1.00  0.00     0.347 HD
ATOM     14  H   UNL A   1      33.772  21.725  26.309  1.00  0.00     0.347 HD
BRANCH  12  15
ATOM     15  C   UNL A   1      33.634  20.728  24.617  1.00  0.00     0.257 C 
ATOM     16  C   UNL A   1      32.164  20.797  25.006  1.00  0.00     0.071 C 
ENDBRANCH  12  15
ENDBRANCH   7  12
BRANCH  11  17
ATOM     17  N   UNL A   1      32.937  26.033  24.786  1.00  0.00    -0.323 N 
ATOM     18  C   UNL A   1      32.735  26.640  26.106  1.00  0.00     0.324 C 
ATOM     19  C   UNL A   1      32.954  27.117  23.783  1.00  0.00     0.324 C 
ATOM     20  H   UNL A   1      32.145  25.413  24.616  1.00  0.00     0.348 HD
ATOM     21  C   UNL A   1      33.792  27.692  26.470  1.00  0.00     0.324 C 
ATOM     22  C   UNL A   1      33.836  28.361  24.102  1.00  0.00     0.324 C 
ATOM     23  N   UNL A   1      33.930  28.797  25.511  1.00  0.00    -0.324 N 
ATOM     24  H   UNL A   1      34.893  29.100  25.657  1.00  0.00     0.348 HD
BRANCH  23  25
ATOM     25  C   UNL A   1      33.180  30.027  25.805  1.00  0.00     0.178 C 
ATOM     26  C   UNL A   1      31.685  29.968  25.486  1.00  0.00     0.075 C 
ATOM     27  C   UNL A   1      33.388  30.496  27.253  1.00  0.00     0.075 C 
ENDBRANCH  23  25
ENDBRANCH  11  17
ENDBRANCH   4   7
ENDBRANCH   2   3
ENDBRANCH   1   2
BRANCH   1  28
ATOM     28  C   UNL A   1      39.216  19.986  26.049  1.00  0.00     0.118 C 
BRANCH  28  29
ATOM     29  N   UNL A   1      40.359  19.085  26.105  1.00  0.00    -0.352 N 
ATOM     30  C   UNL A   1      41.704  19.344  26.129  1.00  0.00     0.251 C 
ATOM     31  H   UNL A   1      40.126  18.129  26.130  1.00  0.00     0.163 HD
ATOM     32  O   UNL A   1      42.495  18.428  25.920  1.00  0.00    -0.269 OA
BRANCH  30  33
ATOM     33  C   UNL A   1      42.213  20.704  26.399  1.00  0.00     0.039 A 
ATOM     34  C   UNL A   1      42.562  21.516  25.315  1.00  0.00     0.014 A 
ATOM     35  C   UNL A   1      42.401  21.166  27.703  1.00  0.00     0.014 A 
ATOM     36  C   UNL A   1      43.056  22.801  25.542  1.00  0.00     0.010 A 
ATOM     37  C   UNL A   1      42.796  22.480  27.927  1.00  0.00     0.010 A 
ATOM     38  C   UNL A   1      43.147  23.303  26.849  1.00  0.00    -0.014 A 
BRANCH  38  39
ATOM     39  C   UNL A   1      43.611  24.687  27.104  1.00  0.00     0.031 A 
ATOM     40  C   UNL A   1      42.652  25.731  27.602  1.00  0.00     0.074 A 
ATOM     41  C   UNL A   1      44.884  25.014  26.817  1.00  0.00     0.049 A 
ATOM     42  N   UNL A   1      42.863  27.000  27.846  1.00  0.00    -0.248 NA
ATOM     43  C   UNL A   1      41.262  25.304  27.818  1.00  0.00     0.031 C 
ATOM     44  C   UNL A   1      45.882  24.102  26.253  1.00  0.00     0.029 A 
ATOM     45  N   UNL A   1      45.555  26.203  26.947  1.00  0.00    -0.354 N 
ATOM     46  C   UNL A   1      41.632  27.522  28.219  1.00  0.00     0.074 A 
ATOM     47  C   UNL A   1      40.667  26.450  28.110  1.00  0.00     0.031 C 
ATOM     48  C   UNL A   1      47.043  24.757  26.110  1.00  0.00     0.029 A 
ATOM     49  C   UNL A   1      46.864  26.141  26.536  1.00  0.00     0.049 A 
ATOM     50  H   UNL A   1      45.139  27.022  27.301  1.00  0.00     0.167 HD
ATOM     51  C   UNL A   1      41.338  28.777  28.638  1.00  0.00     0.037 A 
ATOM     52  C   UNL A   1      47.811  27.095  26.504  1.00  0.00     0.037 A 
ATOM     53  C   UNL A   1      42.315  29.827  28.767  1.00  0.00     0.049 A 
ATOM     54  C   UNL A   1      47.475  28.470  27.010  1.00  0.00     0.074 A 
ATOM     55  C   UNL A   1      42.150  31.104  29.272  1.00  0.00     0.029 A 
ATOM     56  N   UNL A   1      43.643  29.721  28.375  1.00  0.00    -0.354 N 
ATOM     57  N   UNL A   1      46.332  28.929  27.458  1.00  0.00    -0.248 NA
ATOM     58  C   UNL A   1      48.563  29.455  27.016  1.00  0.00     0.031 C 
ATOM     59  C   UNL A   1      43.362  31.788  29.132  1.00  0.00     0.029 A 
ATOM     60  C   UNL A   1      44.300  30.922  28.594  1.00  0.00     0.049 A 
ATOM     61  H   UNL A   1      44.057  28.911  27.998  1.00  0.00     0.167 HD
ATOM     62  C   UNL A   1      46.562  30.250  27.812  1.00  0.00     0.074 A 
ATOM     63  C   UNL A   1      47.964  30.511  27.549  1.00  0.00     0.031 C 
ATOM     64  C   UNL A   1      45.692  31.167  28.306  1.00  0.00     0.037 A 
BRANCH  51  65
ATOM     65  C   UNL A   1      39.904  29.078  28.972  1.00  0.00     0.064 A 
ATOM     66  C   UNL A   1      39.419  29.019  30.290  1.00  0.00     0.173 A 
ATOM     67  C   UNL A   1      38.998  29.430  27.960  1.00  0.00     0.173 A 
ATOM     68  F   UNL A   1      40.238  28.678  31.296  1.00  0.00    -0.203 F 
ATOM     69  C   UNL A   1      38.076  29.255  30.573  1.00  0.00     0.198 A 
ATOM     70  C   UNL A   1      37.663  29.701  28.253  1.00  0.00     0.198 A 
ATOM     71  F   UNL A   1      39.404  29.508  26.685  1.00  0.00    -0.203 F 
ATOM     72  F   UNL A   1      37.625  29.123  31.828  1.00  0.00    -0.200 F 
ATOM     73  C   UNL A   1      37.201  29.600  29.556  1.00  0.00     0.200 A 
ATOM     74  F   UNL A   1      36.821  30.048  27.269  1.00  0.00    -0.200 F 
ATOM     75  F   UNL A   1      35.908  29.824  29.829  1.00  0.00    -0.200 F 
ENDBRANCH  51  65
BRANCH  52  76
ATOM     76  C   UNL A   1      49.168  26.758  26.003  1.00  0.00     0.064 A 
ATOM     77  C   UNL A   1      49.520  26.978  24.665  1.00  0.00     0.173 A 
ATOM     78  C   UNL A   1      50.155  26.259  26.866  1.00  0.00     0.173 A 
ATOM     79  F   UNL A   1      48.605  27.441  23.800  1.00  0.00    -0.203 F 
ATOM     80  C   UNL A   1      50.806  26.703  24.205  1.00  0.00     0.198 A 
ATOM     81  C   UNL A   1      51.448  26.011  26.411  1.00  0.00     0.198 A 
ATOM     82  F   UNL A   1      49.872  26.043  28.158  1.00  0.00    -0.203 F 
ATOM     83  F   UNL A   1      51.108  26.895  22.915  1.00  0.00    -0.200 F 
ATOM     84  C   UNL A   1      51.772  26.229  25.081  1.00  0.00     0.200 A 
ATOM     85  F   UNL A   1      52.384  25.571  27.265  1.00  0.00    -0.200 F 
ATOM     86  F   UNL A   1      53.013  25.982  24.642  1.00  0.00    -0.200 F 
ENDBRANCH  52  76
BRANCH  64  87
ATOM     87  C   UNL A   1      46.237  32.536  28.596  1.00  0.00     0.064 A 
ATOM     88  C   UNL A   1      46.791  32.856  29.844  1.00  0.00     0.173 A 
ATOM     89  C   UNL A   1      46.229  33.530  27.606  1.00  0.00     0.173 A 
ATOM     90  F   UNL A   1      46.808  31.945  30.829  1.00  0.00    -0.203 F 
ATOM     91  C   UNL A   1      47.287  34.131  30.101  1.00  0.00     0.198 A 
ATOM     92  C   UNL A   1      46.757  34.793  27.856  1.00  0.00     0.198 A 
ATOM     93  F   UNL A   1      45.718  33.274  26.392  1.00  0.00    -0.203 F 
ATOM     94  F   UNL A   1      47.760  34.431  31.319  1.00  0.00    -0.200 F 
ATOM     95  C   UNL A   1      47.277  35.096  29.105  1.00  0.00     0.200 A 
ATOM     96  F   UNL A   1      46.761  35.720  26.888  1.00  0.00    -0.200 F 
ATOM     97  F   UNL A   1      47.760  36.321  29.353  1.00  0.00    -0.200 F 
ENDBRANCH  64  87
ENDBRANCH  38  39
ENDBRANCH  30  33
ENDBRANCH  28  29
ENDBRANCH   1  28
TORSDOF 14
ENDMDL
MODEL 3
REMARK VINA RESULT:     -11.7      1.020      1.965
REMARK SMILES CC[NH2+][C@@]1(C(=O)NCCCNC(=O)c2ccc(-c3c4nc(c(-c5c(F)c(F)c(F)c(F)c5F)c5ccc([nH]5)c(-c5c(F)c(F)c(F)c(F)c5F)c5nc(c(-c6c(F)c(F)c(F)c(F)c6F)c6ccc3[nH]6)C=C5)C=C4)cc2)CC[C@@H]([NH+]2CC[NH+](C(C)C)CC2)C1
REMARK SMILES IDX 9 1 8 2 7 3 5 4 6 5 4 7 77 8 89 9 78 10 79 11 3 12 2 15 1 16
REMARK SMILES IDX 80 17 81 18 88 19 82 21 87 22 83 23 84 25 85 26 86 27 10 28
REMARK SMILES IDX 11 29 12 30 13 32 14 33 15 34 76 35 16 36 75 37 17 38 18 39
REMARK SMILES IDX 19 40 69 41 20 42 74 43 68 44 70 45 21 46 73 47 67 48 66 49
REMARK SMILES IDX 22 51 54 52 34 53 53 54 35 55 38 56 52 57 71 58 36 59 37 60
REMARK SMILES IDX 51 62 72 63 39 64 23 65 24 66 32 67 25 68 26 69 30 70 33 71
REMARK SMILES IDX 27 72 28 73 31 74 29 75 55 76 56 77 64 78 57 79 58 80 62 81
REMARK SMILES IDX 65 82 59 83 60 84 63 85 61 86 40 87 41 88 49 89 42 90 43 91
REMARK SMILES IDX 47 92 50 93 44 94 45 95 48 96 46 97
REMARK H PARENT 7 6 3 13 3 14 80 20 83 24 11 31 70 50 38 61
REMARK Flexibility Score: inf
ROOT
ATOM      1  C   UNL A   1      31.299  32.400  26.364  1.00  0.00     0.042 C 
ENDROOT
BRANCH   1   2
ATOM      2  C   UNL A   1      31.264  30.921  25.995  1.00  0.00     0.118 C 
BRANCH   2   3
ATOM      3  N   UNL A   1      32.568  30.307  26.093  1.00  0.00    -0.351 N 
ATOM      4  C   UNL A   1      33.103  29.179  25.562  1.00  0.00     0.281 C 
ATOM      5  O   UNL A   1      34.262  28.935  25.934  1.00  0.00    -0.268 OA
ATOM      6  H   UNL A   1      33.196  30.809  26.660  1.00  0.00     0.163 HD
BRANCH   4   7
ATOM      7  C   UNL A   1      32.343  28.164  24.615  1.00  0.00     0.181 C 
ATOM      8  C   UNL A   1      31.107  27.525  25.264  1.00  0.00     0.085 C 
ATOM      9  C   UNL A   1      33.290  27.014  24.231  1.00  0.00     0.144 C 
ATOM     10  C   UNL A   1      31.346  26.014  25.331  1.00  0.00     0.072 C 
ATOM     11  C   UNL A   1      32.817  25.754  24.965  1.00  0.00     0.191 C 
BRANCH   7  12
ATOM     12  N   UNL A   1      31.904  29.002  23.458  1.00  0.00    -0.334 N 
ATOM     13  H   UNL A   1      31.632  29.911  23.833  1.00  0.00     0.347 HD
ATOM     14  H   UNL A   1      32.708  28.991  22.830  1.00  0.00     0.347 HD
BRANCH  12  15
ATOM     15  C   UNL A   1      30.803  28.536  22.626  1.00  0.00     0.257 C 
ATOM     16  C   UNL A   1      29.897  29.706  22.268  1.00  0.00     0.071 C 
ENDBRANCH  12  15
ENDBRANCH   7  12
BRANCH  11  17
ATOM     17  N   UNL A   1      33.161  24.425  24.430  1.00  0.00    -0.323 N 
ATOM     18  C   UNL A   1      34.523  24.239  23.921  1.00  0.00     0.324 C 
ATOM     19  C   UNL A   1      32.849  23.294  25.327  1.00  0.00     0.324 C 
ATOM     20  H   UNL A   1      32.535  24.414  23.625  1.00  0.00     0.348 HD
ATOM     21  C   UNL A   1      35.583  24.120  25.025  1.00  0.00     0.324 C 
ATOM     22  C   UNL A   1      33.926  22.915  26.388  1.00  0.00     0.324 C 
ATOM     23  N   UNL A   1      35.347  23.053  26.007  1.00  0.00    -0.324 N 
ATOM     24  H   UNL A   1      35.836  23.397  26.833  1.00  0.00     0.348 HD
BRANCH  23  25
ATOM     25  C   UNL A   1      36.026  21.771  25.768  1.00  0.00     0.178 C 
ATOM     26  C   UNL A   1      35.204  20.733  25.001  1.00  0.00     0.075 C 
ATOM     27  C   UNL A   1      37.392  21.959  25.092  1.00  0.00     0.075 C 
ENDBRANCH  23  25
ENDBRANCH  11  17
ENDBRANCH   4   7
ENDBRANCH   2   3
ENDBRANCH   1   2
BRANCH   1  28
ATOM     28  C   UNL A   1      32.482  32.776  27.241  1.00  0.00     0.118 C 
BRANCH  28  29
ATOM     29  N   UNL A   1      32.443  34.180  27.626  1.00  0.00    -0.352 N 
ATOM     30  C   UNL A   1      33.108  34.858  28.614  1.00  0.00     0.251 C 
ATOM     31  H   UNL A   1      31.836  34.736  27.086  1.00  0.00     0.163 HD
ATOM     32  O   UNL A   1      32.734  35.985  28.924  1.00  0.00    -0.269 OA
BRANCH  30  33
ATOM     33  C   UNL A   1      34.263  34.252  29.308  1.00  0.00     0.039 A 
ATOM     34  C   UNL A   1      34.028  33.478  30.448  1.00  0.00     0.014 A 
ATOM     35  C   UNL A   1      35.573  34.483  28.881  1.00  0.00     0.014 A 
ATOM     36  C   UNL A   1      35.101  32.903  31.130  1.00  0.00     0.010 A 
ATOM     37  C   UNL A   1      36.632  33.828  29.499  1.00  0.00     0.010 A 
ATOM     38  C   UNL A   1      36.408  33.048  30.641  1.00  0.00    -0.014 A 
BRANCH  38  39
ATOM     39  C   UNL A   1      37.554  32.394  31.318  1.00  0.00     0.031 A 
ATOM     40  C   UNL A   1      38.260  31.238  30.668  1.00  0.00     0.074 A 
ATOM     41  C   UNL A   1      37.905  32.801  32.551  1.00  0.00     0.049 A 
ATOM     42  N   UNL A   1      39.254  30.516  31.120  1.00  0.00    -0.248 NA
ATOM     43  C   UNL A   1      37.762  30.811  29.352  1.00  0.00     0.031 C 
ATOM     44  C   UNL A   1      37.237  33.860  33.311  1.00  0.00     0.029 A 
ATOM     45  N   UNL A   1      38.901  32.367  33.387  1.00  0.00    -0.354 N 
ATOM     46  C   UNL A   1      39.479  29.541  30.158  1.00  0.00     0.074 A 
ATOM     47  C   UNL A   1      38.482  29.724  29.128  1.00  0.00     0.031 C 
ATOM     48  C   UNL A   1      37.858  34.011  34.490  1.00  0.00     0.029 A 
ATOM     49  C   UNL A   1      38.942  33.038  34.585  1.00  0.00     0.049 A 
ATOM     50  H   UNL A   1      39.527  31.645  33.152  1.00  0.00     0.167 HD
ATOM     51  C   UNL A   1      40.448  28.593  30.127  1.00  0.00     0.037 A 
ATOM     52  C   UNL A   1      39.759  32.882  35.641  1.00  0.00     0.037 A 
ATOM     53  C   UNL A   1      41.452  28.440  31.147  1.00  0.00     0.049 A 
ATOM     54  C   UNL A   1      40.851  31.852  35.570  1.00  0.00     0.074 A 
ATOM     55  C   UNL A   1      42.536  27.581  31.172  1.00  0.00     0.029 A 
ATOM     56  N   UNL A   1      41.486  29.161  32.334  1.00  0.00    -0.354 N 
ATOM     57  N   UNL A   1      41.122  31.000  34.610  1.00  0.00    -0.248 NA
ATOM     58  C   UNL A   1      41.757  31.770  36.721  1.00  0.00     0.031 C 
ATOM     59  C   UNL A   1      43.191  27.741  32.398  1.00  0.00     0.029 A 
ATOM     60  C   UNL A   1      42.553  28.741  33.114  1.00  0.00     0.049 A 
ATOM     61  H   UNL A   1      40.847  29.867  32.584  1.00  0.00     0.167 HD
ATOM     62  C   UNL A   1      42.234  30.288  35.033  1.00  0.00     0.074 A 
ATOM     63  C   UNL A   1      42.604  30.828  36.327  1.00  0.00     0.031 C 
ATOM     64  C   UNL A   1      42.890  29.277  34.410  1.00  0.00     0.037 A 
BRANCH  51  65
ATOM     65  C   UNL A   1      40.454  27.647  28.959  1.00  0.00     0.064 A 
ATOM     66  C   UNL A   1      39.676  26.477  28.945  1.00  0.00     0.173 A 
ATOM     67  C   UNL A   1      41.251  27.912  27.834  1.00  0.00     0.173 A 
ATOM     68  F   UNL A   1      38.903  26.168  29.996  1.00  0.00    -0.203 F 
ATOM     69  C   UNL A   1      39.732  25.589  27.873  1.00  0.00     0.198 A 
ATOM     70  C   UNL A   1      41.276  27.039  26.749  1.00  0.00     0.198 A 
ATOM     71  F   UNL A   1      42.011  29.016  27.789  1.00  0.00    -0.203 F 
ATOM     72  F   UNL A   1      39.033  24.446  27.916  1.00  0.00    -0.200 F 
ATOM     73  C   UNL A   1      40.528  25.873  26.775  1.00  0.00     0.200 A 
ATOM     74  F   UNL A   1      42.036  27.323  25.682  1.00  0.00    -0.200 F 
ATOM     75  F   UNL A   1      40.583  25.016  25.746  1.00  0.00    -0.200 F 
ENDBRANCH  51  65
BRANCH  52  76
ATOM     76  C   UNL A   1      39.583  33.751  36.832  1.00  0.00     0.064 A 
ATOM     77  C   UNL A   1      40.166  35.023  36.892  1.00  0.00     0.173 A 
ATOM     78  C   UNL A   1      38.785  33.346  37.913  1.00  0.00     0.173 A 
ATOM     79  F   UNL A   1      40.949  35.448  35.889  1.00  0.00    -0.203 F 
ATOM     80  C   UNL A   1      39.965  35.856  37.991  1.00  0.00     0.198 A 
ATOM     81  C   UNL A   1      38.562  34.191  38.998  1.00  0.00     0.198 A 
ATOM     82  F   UNL A   1      38.195  32.142  37.899  1.00  0.00    -0.203 F 
ATOM     83  F   UNL A   1      40.557  37.057  38.035  1.00  0.00    -0.200 F 
ATOM     84  C   UNL A   1      39.155  35.442  39.039  1.00  0.00     0.200 A 
ATOM     85  F   UNL A   1      37.763  33.795  39.999  1.00  0.00    -0.200 F 
ATOM     86  F   UNL A   1      38.948  36.251  40.086  1.00  0.00    -0.200 F 
ENDBRANCH  52  76
BRANCH  64  87
ATOM     87  C   UNL A   1      44.076  28.693  35.123  1.00  0.00     0.064 A 
ATOM     88  C   UNL A   1      45.359  29.244  34.987  1.00  0.00     0.173 A 
ATOM     89  C   UNL A   1      43.923  27.586  35.971  1.00  0.00     0.173 A 
ATOM     90  F   UNL A   1      45.560  30.294  34.175  1.00  0.00    -0.203 F 
ATOM     91  C   UNL A   1      46.450  28.689  35.649  1.00  0.00     0.198 A 
ATOM     92  C   UNL A   1      45.010  27.055  36.658  1.00  0.00     0.198 A 
ATOM     93  F   UNL A   1      42.716  27.025  36.142  1.00  0.00    -0.203 F 
ATOM     94  F   UNL A   1      47.676  29.197  35.460  1.00  0.00    -0.200 F 
ATOM     95  C   UNL A   1      46.274  27.599  36.490  1.00  0.00     0.200 A 
ATOM     96  F   UNL A   1      44.836  26.012  37.481  1.00  0.00    -0.200 F 
ATOM     97  F   UNL A   1      47.325  27.070  37.129  1.00  0.00    -0.200 F 
ENDBRANCH  64  87
ENDBRANCH  38  39
ENDBRANCH  30  33
ENDBRANCH  28  29
ENDBRANCH   1  28
TORSDOF 14
ENDMDL
