MODEL 1
REMARK VINA RESULT:     -12.1      0.000      0.000
REMARK SMILES O=C(NCCCNC(=O)[C@H]1C[C@@H]2CCCC[C@H]2N1C(=O)CN1CSCC1=O)c1ccc(-c2c3nc(c(-c4c(F)c(F)c(F)c(F)c4F)c4ccc([nH]4)c(-c4c(F)c(F)c(F)c(F)c4F)c4nc(c(-c5c(F)c(F)c(F)c(F)c5F)c5ccc2[nH]5)C=C4)C=C3)cc1
REMARK SMILES IDX 5 1 4 2 3 3 1 4 2 5 28 7 29 8 90 9 30 10 89 11 31 12 32 13
REMARK SMILES IDX 33 14 83 15 34 16 88 17 82 18 84 19 35 20 87 21 81 22 80 23
REMARK SMILES IDX 36 25 68 26 48 27 67 28 49 29 52 30 66 31 85 32 50 33 51 34
REMARK SMILES IDX 65 36 86 37 53 38 37 39 38 40 46 41 39 42 40 43 44 44 47 45
REMARK SMILES IDX 41 46 42 47 45 48 43 49 69 50 70 51 78 52 71 53 72 54 76 55
REMARK SMILES IDX 79 56 73 57 74 58 77 59 75 60 54 61 55 62 63 63 56 64 57 65
REMARK SMILES IDX 61 66 64 67 58 68 59 69 62 70 60 71 6 72 7 73 8 74 9 76
REMARK SMILES IDX 10 77 11 78 18 79 12 80 17 81 13 82 16 83 14 84 15 85 19 86
REMARK SMILES IDX 20 87 21 88 22 89 23 90 26 91 24 92 25 93 27 94
REMARK H PARENT 3 6 84 24 52 35 7 75
REMARK Flexibility Score: inf
ROOT
ATOM      1  C   UNL A   1      35.844  23.312  24.113  1.00  0.00     0.042 C 
ENDROOT
BRANCH   1   2
ATOM      2  C   UNL A   1      36.755  23.729  25.250  1.00  0.00     0.118 C 
BRANCH   2   3
ATOM      3  N   UNL A   1      37.749  22.717  25.582  1.00  0.00    -0.352 N 
ATOM      4  O   UNL A   1      39.735  21.878  26.239  1.00  0.00    -0.269 OA
ATOM      5  C   UNL A   1      38.966  22.837  26.205  1.00  0.00     0.251 C 
ATOM      6  H   UNL A   1      37.509  21.799  25.318  1.00  0.00     0.163 HD
BRANCH   5   7
ATOM      7  C   UNL A   1      39.364  24.120  26.818  1.00  0.00     0.039 A 
ATOM      8  C   UNL A   1      39.063  24.392  28.153  1.00  0.00     0.014 A 
ATOM      9  C   UNL A   1      40.079  25.051  26.059  1.00  0.00     0.014 A 
ATOM     10  C   UNL A   1      39.332  25.645  28.683  1.00  0.00     0.010 A 
ATOM     11  C   UNL A   1      40.456  26.269  26.630  1.00  0.00     0.010 A 
ATOM     12  C   UNL A   1      40.072  26.578  27.944  1.00  0.00    -0.014 A 
BRANCH  12  13
ATOM     13  C   UNL A   1      40.557  27.802  28.623  1.00  0.00     0.031 A 
ATOM     14  C   UNL A   1      41.970  27.924  29.108  1.00  0.00     0.074 A 
ATOM     15  C   UNL A   1      39.679  28.810  28.795  1.00  0.00     0.049 A 
ATOM     16  N   UNL A   1      42.532  28.916  29.751  1.00  0.00    -0.248 NA
ATOM     17  C   UNL A   1      42.871  26.790  28.851  1.00  0.00     0.031 C 
ATOM     18  C   UNL A   1      38.274  28.782  28.375  1.00  0.00     0.029 A 
ATOM     19  N   UNL A   1      39.827  30.050  29.361  1.00  0.00    -0.354 N 
ATOM     20  C   UNL A   1      43.839  28.521  29.995  1.00  0.00     0.074 A 
ATOM     21  C   UNL A   1      43.990  27.191  29.442  1.00  0.00     0.031 C 
ATOM     22  C   UNL A   1      37.700  29.956  28.669  1.00  0.00     0.029 A 
ATOM     23  C   UNL A   1      38.668  30.787  29.371  1.00  0.00     0.049 A 
ATOM     24  H   UNL A   1      40.680  30.379  29.725  1.00  0.00     0.167 HD
ATOM     25  C   UNL A   1      44.816  29.213  30.627  1.00  0.00     0.037 A 
ATOM     26  C   UNL A   1      38.399  31.983  29.921  1.00  0.00     0.037 A 
ATOM     27  C   UNL A   1      44.656  30.549  31.145  1.00  0.00     0.049 A 
ATOM     28  C   UNL A   1      39.498  32.706  30.644  1.00  0.00     0.074 A 
ATOM     29  C   UNL A   1      45.610  31.369  31.721  1.00  0.00     0.029 A 
ATOM     30  N   UNL A   1      43.460  31.253  31.164  1.00  0.00    -0.354 N 
ATOM     31  N   UNL A   1      40.750  32.350  30.806  1.00  0.00    -0.248 NA
ATOM     32  C   UNL A   1      39.150  33.987  31.268  1.00  0.00     0.031 C 
ATOM     33  C   UNL A   1      44.979  32.543  32.144  1.00  0.00     0.029 A 
ATOM     34  C   UNL A   1      43.643  32.477  31.786  1.00  0.00     0.049 A 
ATOM     35  H   UNL A   1      42.608  30.930  30.789  1.00  0.00     0.167 HD
ATOM     36  C   UNL A   1      41.338  33.363  31.547  1.00  0.00     0.074 A 
ATOM     37  C   UNL A   1      40.315  34.365  31.772  1.00  0.00     0.031 C 
ATOM     38  C   UNL A   1      42.608  33.453  32.008  1.00  0.00     0.037 A 
BRANCH  25  39
ATOM     39  C   UNL A   1      46.149  28.553  30.822  1.00  0.00     0.064 A 
ATOM     40  C   UNL A   1      46.427  27.764  31.946  1.00  0.00     0.173 A 
ATOM     41  C   UNL A   1      47.122  28.624  29.811  1.00  0.00     0.173 A 
ATOM     42  F   UNL A   1      45.533  27.668  32.942  1.00  0.00    -0.203 F 
ATOM     43  C   UNL A   1      47.632  27.072  32.054  1.00  0.00     0.198 A 
ATOM     44  C   UNL A   1      48.315  27.912  29.912  1.00  0.00     0.198 A 
ATOM     45  F   UNL A   1      46.903  29.360  28.712  1.00  0.00    -0.203 F 
ATOM     46  F   UNL A   1      47.884  26.335  33.145  1.00  0.00    -0.200 F 
ATOM     47  C   UNL A   1      48.569  27.138  31.033  1.00  0.00     0.200 A 
ATOM     48  F   UNL A   1      49.212  27.967  28.918  1.00  0.00    -0.200 F 
ATOM     49  F   UNL A   1      49.717  26.451  31.128  1.00  0.00    -0.200 F 
ENDBRANCH  25  39
BRANCH  26  50
ATOM     50  C   UNL A   1      37.022  32.536  29.860  1.00  0.00     0.064 A 
ATOM     51  C   UNL A   1      36.575  33.254  28.745  1.00  0.00     0.173 A 
ATOM     52  C   UNL A   1      36.125  32.366  30.929  1.00  0.00     0.173 A 
ATOM     53  F   UNL A   1      37.400  33.458  27.707  1.00  0.00    -0.203 F 
ATOM     54  C   UNL A   1      35.295  33.803  28.707  1.00  0.00     0.198 A 
ATOM     55  C   UNL A   1      34.834  32.884  30.875  1.00  0.00     0.198 A 
ATOM     56  F   UNL A   1      36.501  31.682  32.019  1.00  0.00    -0.203 F 
ATOM     57  F   UNL A   1      34.912  34.532  27.651  1.00  0.00    -0.200 F 
ATOM     58  C   UNL A   1      34.424  33.612  29.770  1.00  0.00     0.200 A 
ATOM     59  F   UNL A   1      33.991  32.679  31.896  1.00  0.00    -0.200 F 
ATOM     60  F   UNL A   1      33.192  34.139  29.733  1.00  0.00    -0.200 F 
ENDBRANCH  26  50
BRANCH  38  61
ATOM     61  C   UNL A   1      42.956  34.675  32.803  1.00  0.00     0.064 A 
ATOM     62  C   UNL A   1      42.848  34.689  34.202  1.00  0.00     0.173 A 
ATOM     63  C   UNL A   1      43.433  35.830  32.167  1.00  0.00     0.173 A 
ATOM     64  F   UNL A   1      42.376  33.615  34.852  1.00  0.00    -0.203 F 
ATOM     65  C   UNL A   1      43.187  35.824  34.933  1.00  0.00     0.198 A 
ATOM     66  C   UNL A   1      43.800  36.952  32.904  1.00  0.00     0.198 A 
ATOM     67  F   UNL A   1      43.557  35.865  30.832  1.00  0.00    -0.203 F 
ATOM     68  F   UNL A   1      43.032  35.830  36.264  1.00  0.00    -0.200 F 
ATOM     69  C   UNL A   1      43.670  36.949  34.285  1.00  0.00     0.200 A 
ATOM     70  F   UNL A   1      44.279  38.036  32.277  1.00  0.00    -0.200 F 
ATOM     71  F   UNL A   1      44.005  38.039  34.991  1.00  0.00    -0.200 F 
ENDBRANCH  38  61
ENDBRANCH  12  13
ENDBRANCH   5   7
ENDBRANCH   2   3
ENDBRANCH   1   2
BRANCH   1  72
ATOM     72  C   UNL A   1      34.433  23.850  24.218  1.00  0.00     0.117 C 
BRANCH  72  73
ATOM     73  N   UNL A   1      34.148  24.972  23.340  1.00  0.00    -0.354 N 
ATOM     74  C   UNL A   1      33.589  26.189  23.636  1.00  0.00     0.242 C 
ATOM     75  H   UNL A   1      34.393  24.840  22.395  1.00  0.00     0.163 HD
ATOM     76  O   UNL A   1      33.685  27.083  22.795  1.00  0.00    -0.273 OA
BRANCH  74  77
ATOM     77  C   UNL A   1      32.889  26.368  24.999  1.00  0.00     0.175 C 
ATOM     78  C   UNL A   1      33.852  26.890  26.079  1.00  0.00     0.041 C 
ATOM     79  N   UNL A   1      31.778  27.343  24.983  1.00  0.00    -0.326 N 
ATOM     80  C   UNL A   1      33.572  28.371  26.077  1.00  0.00     0.014 C 
ATOM     81  C   UNL A   1      32.052  28.432  25.913  1.00  0.00     0.089 C 
ATOM     82  C   UNL A   1      34.034  29.142  27.298  1.00  0.00     0.006 C 
ATOM     83  C   UNL A   1      31.738  29.882  25.558  1.00  0.00     0.025 C 
ATOM     84  C   UNL A   1      33.619  30.606  27.148  1.00  0.00     0.000 C 
ATOM     85  C   UNL A   1      32.145  30.772  26.748  1.00  0.00     0.002 C 
BRANCH  79  86
ATOM     86  C   UNL A   1      30.587  26.942  24.407  1.00  0.00     0.243 C 
ATOM     87  O   UNL A   1      29.833  26.161  25.002  1.00  0.00    -0.273 OA
BRANCH  86  88
ATOM     88  C   UNL A   1      30.222  27.377  22.978  1.00  0.00     0.220 C 
BRANCH  88  89
ATOM     89  N   UNL A   1      29.518  28.650  22.878  1.00  0.00    -0.323 N 
ATOM     90  C   UNL A   1      30.078  29.726  22.105  1.00  0.00     0.190 C 
ATOM     91  C   UNL A   1      28.139  28.705  23.042  1.00  0.00     0.233 C 
ATOM     92  S   UNL A   1      29.002  31.137  22.371  1.00  0.00    -0.130 SA
ATOM     93  C   UNL A   1      27.589  30.092  22.792  1.00  0.00     0.171 C 
ATOM     94  O   UNL A   1      27.437  27.761  23.380  1.00  0.00    -0.274 OA
ENDBRANCH  88  89
ENDBRANCH  86  88
ENDBRANCH  79  86
ENDBRANCH  74  77
ENDBRANCH  72  73
ENDBRANCH   1  72
TORSDOF 13
ENDMDL
MODEL 2
REMARK VINA RESULT:     -12.0      1.028      7.417
REMARK SMILES O=C(NCCCNC(=O)[C@H]1C[C@@H]2CCCC[C@H]2N1C(=O)CN1CSCC1=O)c1ccc(-c2c3nc(c(-c4c(F)c(F)c(F)c(F)c4F)c4ccc([nH]4)c(-c4c(F)c(F)c(F)c(F)c4F)c4nc(c(-c5c(F)c(F)c(F)c(F)c5F)c5ccc2[nH]5)C=C4)C=C3)cc1
REMARK SMILES IDX 5 1 4 2 3 3 1 4 2 5 28 7 29 8 90 9 30 10 89 11 31 12 32 13
REMARK SMILES IDX 33 14 83 15 34 16 88 17 82 18 84 19 35 20 87 21 81 22 80 23
REMARK SMILES IDX 36 25 68 26 48 27 67 28 49 29 52 30 66 31 85 32 50 33 51 34
REMARK SMILES IDX 65 36 86 37 53 38 37 39 38 40 46 41 39 42 40 43 44 44 47 45
REMARK SMILES IDX 41 46 42 47 45 48 43 49 69 50 70 51 78 52 71 53 72 54 76 55
REMARK SMILES IDX 79 56 73 57 74 58 77 59 75 60 54 61 55 62 63 63 56 64 57 65
REMARK SMILES IDX 61 66 64 67 58 68 59 69 62 70 60 71 6 72 7 73 8 74 9 76
REMARK SMILES IDX 10 77 11 78 18 79 12 80 17 81 13 82 16 83 14 84 15 85 19 86
REMARK SMILES IDX 20 87 21 88 22 89 23 90 26 91 24 92 25 93 27 94
REMARK H PARENT 3 6 84 24 52 35 7 75
REMARK Flexibility Score: inf
ROOT
ATOM      1  C   UNL A   1      36.027  23.535  24.421  1.00  0.00     0.042 C 
ENDROOT
BRANCH   1   2
ATOM      2  C   UNL A   1      36.522  23.541  25.854  1.00  0.00     0.118 C 
BRANCH   2   3
ATOM      3  N   UNL A   1      37.634  22.626  26.075  1.00  0.00    -0.352 N 
ATOM      4  O   UNL A   1      39.757  21.977  26.460  1.00  0.00    -0.269 OA
ATOM      5  C   UNL A   1      38.915  22.871  26.501  1.00  0.00     0.251 C 
ATOM      6  H   UNL A   1      37.434  21.680  25.890  1.00  0.00     0.163 HD
BRANCH   5   7
ATOM      7  C   UNL A   1      39.291  24.212  26.992  1.00  0.00     0.039 A 
ATOM      8  C   UNL A   1      39.046  24.579  28.315  1.00  0.00     0.014 A 
ATOM      9  C   UNL A   1      39.931  25.105  26.126  1.00  0.00     0.014 A 
ATOM     10  C   UNL A   1      39.291  25.879  28.732  1.00  0.00     0.010 A 
ATOM     11  C   UNL A   1      40.287  26.377  26.581  1.00  0.00     0.010 A 
ATOM     12  C   UNL A   1      39.957  26.776  27.885  1.00  0.00    -0.014 A 
BRANCH  12  13
ATOM     13  C   UNL A   1      40.425  28.067  28.441  1.00  0.00     0.031 A 
ATOM     14  C   UNL A   1      39.465  29.161  28.800  1.00  0.00     0.074 A 
ATOM     15  C   UNL A   1      41.752  28.229  28.613  1.00  0.00     0.049 A 
ATOM     16  N   UNL A   1      39.724  30.358  29.263  1.00  0.00    -0.248 NA
ATOM     17  C   UNL A   1      38.032  28.890  28.611  1.00  0.00     0.031 C 
ATOM     18  C   UNL A   1      42.770  27.230  28.277  1.00  0.00     0.029 A 
ATOM     19  N   UNL A   1      42.476  29.281  29.111  1.00  0.00    -0.354 N 
ATOM     20  C   UNL A   1      38.496  30.989  29.398  1.00  0.00     0.074 A 
ATOM     21  C   UNL A   1      37.486  30.049  28.959  1.00  0.00     0.031 C 
ATOM     22  C   UNL A   1      43.980  27.702  28.604  1.00  0.00     0.029 A 
ATOM     23  C   UNL A   1      43.832  29.065  29.095  1.00  0.00     0.049 A 
ATOM     24  H   UNL A   1      42.064  30.109  29.447  1.00  0.00     0.167 HD
ATOM     25  C   UNL A   1      38.246  32.241  29.848  1.00  0.00     0.037 A 
ATOM     26  C   UNL A   1      44.850  29.888  29.401  1.00  0.00     0.037 A 
ATOM     27  C   UNL A   1      39.263  33.153  30.309  1.00  0.00     0.049 A 
ATOM     28  C   UNL A   1      44.535  31.281  29.863  1.00  0.00     0.074 A 
ATOM     29  C   UNL A   1      39.104  34.409  30.868  1.00  0.00     0.029 A 
ATOM     30  N   UNL A   1      40.629  32.912  30.251  1.00  0.00    -0.354 N 
ATOM     31  N   UNL A   1      43.365  31.840  30.053  1.00  0.00    -0.248 NA
ATOM     32  C   UNL A   1      45.677  32.158  30.143  1.00  0.00     0.031 C 
ATOM     33  C   UNL A   1      40.373  34.953  31.089  1.00  0.00     0.029 A 
ATOM     34  C   UNL A   1      41.323  34.016  30.718  1.00  0.00     0.049 A 
ATOM     35  H   UNL A   1      41.042  32.079  29.926  1.00  0.00     0.167 HD
ATOM     36  C   UNL A   1      43.629  33.133  30.478  1.00  0.00     0.074 A 
ATOM     37  C   UNL A   1      45.070  33.264  30.550  1.00  0.00     0.031 C 
ATOM     38  C   UNL A   1      42.757  34.127  30.771  1.00  0.00     0.037 A 
BRANCH  25  39
ATOM     39  C   UNL A   1      36.828  32.729  29.855  1.00  0.00     0.064 A 
ATOM     40  C   UNL A   1      36.044  32.712  31.017  1.00  0.00     0.173 A 
ATOM     41  C   UNL A   1      36.285  33.326  28.705  1.00  0.00     0.173 A 
ATOM     42  F   UNL A   1      36.514  32.148  32.140  1.00  0.00    -0.203 F 
ATOM     43  C   UNL A   1      34.767  33.270  31.027  1.00  0.00     0.198 A 
ATOM     44  C   UNL A   1      35.018  33.904  28.726  1.00  0.00     0.198 A 
ATOM     45  F   UNL A   1      36.997  33.375  27.570  1.00  0.00    -0.203 F 
ATOM     46  F   UNL A   1      34.028  33.229  32.145  1.00  0.00    -0.200 F 
ATOM     47  C   UNL A   1      34.261  33.876  29.885  1.00  0.00     0.200 A 
ATOM     48  F   UNL A   1      34.538  34.500  27.626  1.00  0.00    -0.200 F 
ATOM     49  F   UNL A   1      33.042  34.434  29.905  1.00  0.00    -0.200 F 
ENDBRANCH  25  39
BRANCH  26  50
ATOM     50  C   UNL A   1      46.253  29.433  29.220  1.00  0.00     0.064 A 
ATOM     51  C   UNL A   1      46.962  28.832  30.266  1.00  0.00     0.173 A 
ATOM     52  C   UNL A   1      46.917  29.603  27.994  1.00  0.00     0.173 A 
ATOM     53  F   UNL A   1      46.378  28.664  31.461  1.00  0.00    -0.203 F 
ATOM     54  C   UNL A   1      48.290  28.441  30.103  1.00  0.00     0.198 A 
ATOM     55  C   UNL A   1      48.231  29.178  27.821  1.00  0.00     0.198 A 
ATOM     56  F   UNL A   1      46.280  30.168  26.957  1.00  0.00    -0.203 F 
ATOM     57  F   UNL A   1      48.964  27.918  31.137  1.00  0.00    -0.200 F 
ATOM     58  C   UNL A   1      48.921  28.609  28.879  1.00  0.00     0.200 A 
ATOM     59  F   UNL A   1      48.829  29.325  26.630  1.00  0.00    -0.200 F 
ATOM     60  F   UNL A   1      50.197  28.231  28.722  1.00  0.00    -0.200 F 
ENDBRANCH  26  50
BRANCH  38  61
ATOM     61  C   UNL A   1      43.344  35.440  31.195  1.00  0.00     0.064 A 
ATOM     62  C   UNL A   1      43.622  36.449  30.260  1.00  0.00     0.173 A 
ATOM     63  C   UNL A   1      43.598  35.706  32.548  1.00  0.00     0.173 A 
ATOM     64  F   UNL A   1      43.415  36.232  28.953  1.00  0.00    -0.203 F 
ATOM     65  C   UNL A   1      44.153  37.670  30.664  1.00  0.00     0.198 A 
ATOM     66  C   UNL A   1      44.100  36.939  32.951  1.00  0.00     0.198 A 
ATOM     67  F   UNL A   1      43.346  34.775  33.480  1.00  0.00    -0.203 F 
ATOM     68  F   UNL A   1      44.454  38.602  29.749  1.00  0.00    -0.200 F 
ATOM     69  C   UNL A   1      44.383  37.917  32.009  1.00  0.00     0.200 A 
ATOM     70  F   UNL A   1      44.310  37.182  34.253  1.00  0.00    -0.200 F 
ATOM     71  F   UNL A   1      44.886  39.098  32.397  1.00  0.00    -0.200 F 
ENDBRANCH  38  61
ENDBRANCH  12  13
ENDBRANCH   5   7
ENDBRANCH   2   3
ENDBRANCH   1   2
BRANCH   1  72
ATOM     72  C   UNL A   1      34.532  23.726  24.279  1.00  0.00     0.117 C 
BRANCH  72  73
ATOM     73  N   UNL A   1      34.144  24.818  23.404  1.00  0.00    -0.354 N 
ATOM     74  C   UNL A   1      33.579  26.027  23.720  1.00  0.00     0.242 C 
ATOM     75  H   UNL A   1      34.311  24.669  22.445  1.00  0.00     0.163 HD
ATOM     76  O   UNL A   1      33.579  26.903  22.854  1.00  0.00    -0.273 OA
BRANCH  74  77
ATOM     77  C   UNL A   1      32.993  26.223  25.133  1.00  0.00     0.175 C 
ATOM     78  C   UNL A   1      34.027  26.804  26.113  1.00  0.00     0.041 C 
ATOM     79  N   UNL A   1      31.854  27.162  25.189  1.00  0.00    -0.326 N 
ATOM     80  C   UNL A   1      33.699  28.275  26.097  1.00  0.00     0.014 C 
ATOM     81  C   UNL A   1      32.170  28.284  26.065  1.00  0.00     0.089 C 
ATOM     82  C   UNL A   1      34.239  29.093  27.254  1.00  0.00     0.006 C 
ATOM     83  C   UNL A   1      31.778  29.714  25.702  1.00  0.00     0.025 C 
ATOM     84  C   UNL A   1      33.764  30.539  27.104  1.00  0.00     0.000 C 
ATOM     85  C   UNL A   1      32.257  30.649  26.830  1.00  0.00     0.002 C 
BRANCH  79  86
ATOM     86  C   UNL A   1      30.631  26.708  24.729  1.00  0.00     0.243 C 
ATOM     87  O   UNL A   1      29.921  25.985  25.439  1.00  0.00    -0.273 OA
BRANCH  86  88
ATOM     88  C   UNL A   1      30.175  27.009  23.292  1.00  0.00     0.220 C 
BRANCH  88  89
ATOM     89  N   UNL A   1      29.532  28.305  23.103  1.00  0.00    -0.323 N 
ATOM     90  C   UNL A   1      30.184  29.328  22.332  1.00  0.00     0.190 C 
ATOM     91  C   UNL A   1      28.149  28.420  23.176  1.00  0.00     0.233 C 
ATOM     92  S   UNL A   1      29.153  30.789  22.480  1.00  0.00    -0.130 SA
ATOM     93  C   UNL A   1      27.674  29.817  22.845  1.00  0.00     0.171 C 
ATOM     94  O   UNL A   1      27.389  27.517  23.500  1.00  0.00    -0.274 OA
ENDBRANCH  88  89
ENDBRANCH  86  88
ENDBRANCH  79  86
ENDBRANCH  74  77
ENDBRANCH  72  73
ENDBRANCH   1  72
TORSDOF 13
ENDMDL
MODEL 3
REMARK VINA RESULT:     -11.9      3.724      7.592
REMARK SMILES O=C(NCCCNC(=O)[C@H]1C[C@@H]2CCCC[C@H]2N1C(=O)CN1CSCC1=O)c1ccc(-c2c3nc(c(-c4c(F)c(F)c(F)c(F)c4F)c4ccc([nH]4)c(-c4c(F)c(F)c(F)c(F)c4F)c4nc(c(-c5c(F)c(F)c(F)c(F)c5F)c5ccc2[nH]5)C=C4)C=C3)cc1
REMARK SMILES IDX 5 1 4 2 3 3 1 4 2 5 28 7 29 8 90 9 30 10 89 11 31 12 32 13
REMARK SMILES IDX 33 14 83 15 34 16 88 17 82 18 84 19 35 20 87 21 81 22 80 23
REMARK SMILES IDX 36 25 68 26 48 27 67 28 49 29 52 30 66 31 85 32 50 33 51 34
REMARK SMILES IDX 65 36 86 37 53 38 37 39 38 40 46 41 39 42 40 43 44 44 47 45
REMARK SMILES IDX 41 46 42 47 45 48 43 49 69 50 70 51 78 52 71 53 72 54 76 55
REMARK SMILES IDX 79 56 73 57 74 58 77 59 75 60 54 61 55 62 63 63 56 64 57 65
REMARK SMILES IDX 61 66 64 67 58 68 59 69 62 70 60 71 6 72 7 73 8 74 9 76
REMARK SMILES IDX 10 77 11 78 18 79 12 80 17 81 13 82 16 83 14 84 15 85 19 86
REMARK SMILES IDX 20 87 21 88 22 89 23 90 26 91 24 92 25 93 27 94
REMARK H PARENT 3 6 84 24 52 35 7 75
REMARK Flexibility Score: inf
ROOT
ATOM      1  C   UNL A   1      31.524  32.076  26.661  1.00  0.00     0.042 C 
ENDROOT
BRANCH   1   2
ATOM      2  C   UNL A   1      32.779  32.813  27.088  1.00  0.00     0.118 C 
BRANCH   2   3
ATOM      3  N   UNL A   1      32.504  34.138  27.626  1.00  0.00    -0.352 N 
ATOM      4  O   UNL A   1      32.554  35.845  29.097  1.00  0.00    -0.269 OA
ATOM      5  C   UNL A   1      33.047  34.789  28.706  1.00  0.00     0.251 C 
ATOM      6  H   UNL A   1      31.821  34.650  27.136  1.00  0.00     0.163 HD
BRANCH   5   7
ATOM      7  C   UNL A   1      34.209  34.215  29.412  1.00  0.00     0.039 A 
ATOM      8  C   UNL A   1      34.028  33.343  30.486  1.00  0.00     0.014 A 
ATOM      9  C   UNL A   1      35.501  34.525  28.973  1.00  0.00     0.014 A 
ATOM     10  C   UNL A   1      35.122  32.907  31.218  1.00  0.00     0.010 A 
ATOM     11  C   UNL A   1      36.606  33.989  29.638  1.00  0.00     0.010 A 
ATOM     12  C   UNL A   1      36.423  33.186  30.774  1.00  0.00    -0.014 A 
BRANCH  12  13
ATOM     13  C   UNL A   1      37.562  32.502  31.430  1.00  0.00     0.031 A 
ATOM     14  C   UNL A   1      38.267  31.351  30.777  1.00  0.00     0.074 A 
ATOM     15  C   UNL A   1      37.946  32.949  32.641  1.00  0.00     0.049 A 
ATOM     16  N   UNL A   1      39.255  30.628  31.240  1.00  0.00    -0.248 NA
ATOM     17  C   UNL A   1      37.805  30.947  29.440  1.00  0.00     0.031 C 
ATOM     18  C   UNL A   1      37.312  34.053  33.369  1.00  0.00     0.029 A 
ATOM     19  N   UNL A   1      38.954  32.543  33.476  1.00  0.00    -0.354 N 
ATOM     20  C   UNL A   1      39.518  29.674  30.268  1.00  0.00     0.074 A 
ATOM     21  C   UNL A   1      38.579  29.898  29.189  1.00  0.00     0.031 C 
ATOM     22  C   UNL A   1      37.962  34.254  34.523  1.00  0.00     0.029 A 
ATOM     23  C   UNL A   1      39.003  33.245  34.655  1.00  0.00     0.049 A 
ATOM     24  H   UNL A   1      39.582  31.818  33.252  1.00  0.00     0.167 HD
ATOM     25  C   UNL A   1      40.461  28.702  30.286  1.00  0.00     0.037 A 
ATOM     26  C   UNL A   1      39.772  33.071  35.744  1.00  0.00     0.037 A 
ATOM     27  C   UNL A   1      41.407  28.513  31.357  1.00  0.00     0.049 A 
ATOM     28  C   UNL A   1      40.781  31.960  35.741  1.00  0.00     0.074 A 
ATOM     29  C   UNL A   1      42.457  27.614  31.428  1.00  0.00     0.029 A 
ATOM     30  N   UNL A   1      41.407  29.223  32.549  1.00  0.00    -0.354 N 
ATOM     31  N   UNL A   1      41.067  31.109  34.785  1.00  0.00    -0.248 NA
ATOM     32  C   UNL A   1      41.568  31.778  36.966  1.00  0.00     0.031 C 
ATOM     33  C   UNL A   1      43.053  27.738  32.686  1.00  0.00     0.029 A 
ATOM     34  C   UNL A   1      42.409  28.749  33.380  1.00  0.00     0.049 A 
ATOM     35  H   UNL A   1      40.788  29.956  32.770  1.00  0.00     0.167 HD
ATOM     36  C   UNL A   1      42.066  30.294  35.291  1.00  0.00     0.074 A 
ATOM     37  C   UNL A   1      42.362  30.773  36.626  1.00  0.00     0.031 C 
ATOM     38  C   UNL A   1      42.678  29.235  34.708  1.00  0.00     0.037 A 
BRANCH  25  39
ATOM     39  C   UNL A   1      40.522  27.744  29.133  1.00  0.00     0.064 A 
ATOM     40  C   UNL A   1      39.699  26.612  29.066  1.00  0.00     0.173 A 
ATOM     41  C   UNL A   1      41.341  28.028  28.027  1.00  0.00     0.173 A 
ATOM     42  F   UNL A   1      38.903  26.294  30.098  1.00  0.00    -0.203 F 
ATOM     43  C   UNL A   1      39.695  25.796  27.936  1.00  0.00     0.198 A 
ATOM     44  C   UNL A   1      41.317  27.223  26.891  1.00  0.00     0.198 A 
ATOM     45  F   UNL A   1      42.142  29.103  28.038  1.00  0.00    -0.203 F 
ATOM     46  F   UNL A   1      38.911  24.709  27.899  1.00  0.00    -0.200 F 
ATOM     47  C   UNL A   1      40.495  26.109  26.846  1.00  0.00     0.200 A 
ATOM     48  F   UNL A   1      42.080  27.536  25.835  1.00  0.00    -0.200 F 
ATOM     49  F   UNL A   1      40.471  25.336  25.751  1.00  0.00    -0.200 F 
ENDBRANCH  25  39
BRANCH  26  50
ATOM     50  C   UNL A   1      39.571  33.928  36.940  1.00  0.00     0.064 A 
ATOM     51  C   UNL A   1      38.781  33.502  38.015  1.00  0.00     0.173 A 
ATOM     52  C   UNL A   1      40.159  35.200  37.027  1.00  0.00     0.173 A 
ATOM     53  F   UNL A   1      38.183  32.303  37.972  1.00  0.00    -0.203 F 
ATOM     54  C   UNL A   1      38.565  34.325  39.119  1.00  0.00     0.198 A 
ATOM     55  C   UNL A   1      39.973  36.006  38.146  1.00  0.00     0.198 A 
ATOM     56  F   UNL A   1      40.931  35.654  36.027  1.00  0.00    -0.203 F 
ATOM     57  F   UNL A   1      37.760  33.916  40.109  1.00  0.00    -0.200 F 
ATOM     58  C   UNL A   1      39.166  35.573  39.186  1.00  0.00     0.200 A 
ATOM     59  F   UNL A   1      40.572  37.203  38.214  1.00  0.00    -0.200 F 
ATOM     60  F   UNL A   1      38.959  36.364  40.249  1.00  0.00    -0.200 F 
ENDBRANCH  26  50
BRANCH  38  61
ATOM     61  C   UNL A   1      43.725  28.528  35.515  1.00  0.00     0.064 A 
ATOM     62  C   UNL A   1      43.384  27.499  36.408  1.00  0.00     0.173 A 
ATOM     63  C   UNL A   1      45.081  28.855  35.372  1.00  0.00     0.173 A 
ATOM     64  F   UNL A   1      42.099  27.167  36.594  1.00  0.00    -0.203 F 
ATOM     65  C   UNL A   1      44.364  26.839  37.142  1.00  0.00     0.198 A 
ATOM     66  C   UNL A   1      46.060  28.171  36.085  1.00  0.00     0.198 A 
ATOM     67  F   UNL A   1      45.456  29.829  34.529  1.00  0.00    -0.203 F 
ATOM     68  F   UNL A   1      44.013  25.892  38.023  1.00  0.00    -0.200 F 
ATOM     69  C   UNL A   1      45.700  27.169  36.974  1.00  0.00     0.200 A 
ATOM     70  F   UNL A   1      47.352  28.482  35.912  1.00  0.00    -0.200 F 
ATOM     71  F   UNL A   1      46.644  26.524  37.675  1.00  0.00    -0.200 F 
ENDBRANCH  38  61
ENDBRANCH  12  13
ENDBRANCH   5   7
ENDBRANCH   2   3
ENDBRANCH   1   2
BRANCH   1  72
ATOM     72  C   UNL A   1      31.778  30.702  26.082  1.00  0.00     0.117 C 
BRANCH  72  73
ATOM     73  N   UNL A   1      31.403  29.601  26.952  1.00  0.00    -0.354 N 
ATOM     74  C   UNL A   1      31.652  28.259  26.815  1.00  0.00     0.242 C 
ATOM     75  H   UNL A   1      30.897  29.855  27.758  1.00  0.00     0.163 HD
ATOM     76  O   UNL A   1      31.475  27.540  27.799  1.00  0.00    -0.273 OA
BRANCH  74  77
ATOM     77  C   UNL A   1      32.148  27.735  25.451  1.00  0.00     0.175 C 
ATOM     78  C   UNL A   1      33.627  27.312  25.497  1.00  0.00     0.041 C 
ATOM     79  N   UNL A   1      31.429  26.537  24.968  1.00  0.00    -0.326 N 
ATOM     80  C   UNL A   1      33.532  25.821  25.700  1.00  0.00     0.014 C 
ATOM     81  C   UNL A   1      32.359  25.427  24.800  1.00  0.00     0.089 C 
ATOM     82  C   UNL A   1      34.778  25.021  25.376  1.00  0.00     0.006 C 
ATOM     83  C   UNL A   1      31.987  24.006  25.214  1.00  0.00     0.025 C 
ATOM     84  C   UNL A   1      34.484  23.535  25.584  1.00  0.00     0.000 C 
ATOM     85  C   UNL A   1      33.182  23.083  24.906  1.00  0.00     0.002 C 
BRANCH  79  86
ATOM     86  C   UNL A   1      30.160  26.722  24.452  1.00  0.00     0.243 C 
ATOM     87  O   UNL A   1      29.172  26.246  25.025  1.00  0.00    -0.273 OA
BRANCH  86  88
ATOM     88  C   UNL A   1      29.959  27.436  23.105  1.00  0.00     0.220 C 
BRANCH  88  89
ATOM     89  N   UNL A   1      29.394  28.778  23.192  1.00  0.00    -0.323 N 
ATOM     90  C   UNL A   1      30.176  29.917  22.793  1.00  0.00     0.190 C 
ATOM     91  C   UNL A   1      28.018  28.965  23.137  1.00  0.00     0.233 C 
ATOM     92  S   UNL A   1      29.189  31.359  23.203  1.00  0.00    -0.130 SA
ATOM     93  C   UNL A   1      27.641  30.430  23.132  1.00  0.00     0.171 C 
ATOM     94  O   UNL A   1      27.190  28.064  23.126  1.00  0.00    -0.274 OA
ENDBRANCH  88  89
ENDBRANCH  86  88
ENDBRANCH  79  86
ENDBRANCH  74  77
ENDBRANCH  72  73
ENDBRANCH   1  72
TORSDOF 13
ENDMDL
