MODEL 1
REMARK VINA RESULT:     -10.6      0.000      0.000
REMARK SMILES C[NH2+][C@@]1(C(=O)NCCCNC(=O)c2ccc(-c3c4nc(c(-c5c(F)c(F)c(F)c(F)c5F)c5ccc([nH]5)c(-c5c(F)c(F)c(F)c(F)c5F)c5nc(c(-c6c(F)c(F)c(F)c(F)c6F)c6ccc3[nH]6)C=C5)C=C4)cc2)CC[C@H](Sc2ccc(C)c(C)c2)C1
REMARK SMILES IDX 8 1 7 2 6 3 4 4 5 5 3 7 76 8 88 9 77 10 78 11 2 12 1 13
REMARK SMILES IDX 79 16 80 17 81 18 87 19 82 20 85 21 83 22 86 23 84 24 9 25
REMARK SMILES IDX 10 26 11 27 12 29 13 30 14 31 75 32 15 33 74 34 16 35 17 36
REMARK SMILES IDX 18 37 68 38 19 39 73 40 67 41 69 42 20 43 72 44 66 45 65 46
REMARK SMILES IDX 21 48 53 49 33 50 52 51 34 52 37 53 51 54 70 55 35 56 36 57
REMARK SMILES IDX 50 59 71 60 38 61 22 62 23 63 31 64 24 65 25 66 29 67 32 68
REMARK SMILES IDX 26 69 27 70 30 71 28 72 54 73 55 74 63 75 56 76 57 77 61 78
REMARK SMILES IDX 64 79 58 80 59 81 62 82 60 83 39 84 40 85 48 86 41 87 42 88
REMARK SMILES IDX 46 89 49 90 43 91 44 92 47 93 45 94
REMARK H PARENT 6 6 2 14 2 15 10 28 69 47 37 58
REMARK Flexibility Score: inf
ROOT
ATOM      1  C   UNL A   1      41.143  20.137  26.413  1.00  0.00     0.042 C 
ENDROOT
BRANCH   1   2
ATOM      2  C   UNL A   1      42.609  20.402  26.122  1.00  0.00     0.118 C 
BRANCH   2   3
ATOM      3  N   UNL A   1      42.796  21.567  25.291  1.00  0.00    -0.351 N 
ATOM      4  C   UNL A   1      43.720  22.565  25.318  1.00  0.00     0.281 C 
ATOM      5  O   UNL A   1      43.403  23.546  24.632  1.00  0.00    -0.268 OA
ATOM      6  H   UNL A   1      42.131  21.656  24.572  1.00  0.00     0.163 HD
BRANCH   4   7
ATOM      7  C   UNL A   1      45.061  22.513  26.169  1.00  0.00     0.176 C 
ATOM      8  C   UNL A   1      44.933  22.905  27.655  1.00  0.00     0.080 C 
ATOM      9  C   UNL A   1      46.085  23.505  25.569  1.00  0.00     0.094 C 
ATOM     10  C   UNL A   1      45.642  24.242  27.873  1.00  0.00     0.022 C 
ATOM     11  C   UNL A   1      46.595  24.417  26.701  1.00  0.00     0.058 C 
BRANCH   7  12
ATOM     12  N   UNL A   1      45.635  21.136  26.069  1.00  0.00    -0.336 N 
ATOM     13  C   UNL A   1      46.186  20.785  24.759  1.00  0.00     0.331 C 
ATOM     14  H   UNL A   1      46.382  21.054  26.758  1.00  0.00     0.346 HD
ATOM     15  H   UNL A   1      44.859  20.493  26.230  1.00  0.00     0.346 HD
ENDBRANCH   7  12
BRANCH  11  16
ATOM     16  S   UNL A   1      46.988  26.082  25.992  1.00  0.00    -0.122 SA
BRANCH  16  17
ATOM     17  C   UNL A   1      45.501  27.065  25.915  1.00  0.00     0.008 A 
ATOM     18  C   UNL A   1      44.326  26.657  25.296  1.00  0.00     0.015 A 
ATOM     19  C   UNL A   1      45.474  28.256  26.660  1.00  0.00     0.018 A 
ATOM     20  C   UNL A   1      43.171  27.448  25.368  1.00  0.00     0.005 A 
ATOM     21  C   UNL A   1      44.322  29.064  26.745  1.00  0.00    -0.047 A 
ATOM     22  C   UNL A   1      43.151  28.652  26.090  1.00  0.00    -0.048 A 
ATOM     23  C   UNL A   1      44.371  30.311  27.583  1.00  0.00     0.044 C 
ATOM     24  C   UNL A   1      41.848  29.403  26.179  1.00  0.00     0.044 C 
ENDBRANCH  16  17
ENDBRANCH  11  16
ENDBRANCH   4   7
ENDBRANCH   2   3
ENDBRANCH   1   2
BRANCH   1  25
ATOM     25  C   UNL A   1      40.430  21.318  27.047  1.00  0.00     0.118 C 
BRANCH  25  26
ATOM     26  N   UNL A   1      39.354  21.842  26.211  1.00  0.00    -0.352 N 
ATOM     27  C   UNL A   1      38.737  23.065  26.125  1.00  0.00     0.251 C 
ATOM     28  H   UNL A   1      38.999  21.180  25.575  1.00  0.00     0.163 HD
ATOM     29  O   UNL A   1      37.739  23.163  25.411  1.00  0.00    -0.269 OA
BRANCH  27  30
ATOM     30  C   UNL A   1      39.197  24.256  26.881  1.00  0.00     0.039 A 
ATOM     31  C   UNL A   1      39.989  25.205  26.215  1.00  0.00     0.014 A 
ATOM     32  C   UNL A   1      38.917  24.449  28.231  1.00  0.00     0.014 A 
ATOM     33  C   UNL A   1      40.395  26.377  26.861  1.00  0.00     0.010 A 
ATOM     34  C   UNL A   1      39.235  25.654  28.852  1.00  0.00     0.010 A 
ATOM     35  C   UNL A   1      39.986  26.623  28.176  1.00  0.00    -0.014 A 
BRANCH  35  36
ATOM     36  C   UNL A   1      40.412  27.833  28.916  1.00  0.00     0.031 A 
ATOM     37  C   UNL A   1      41.801  27.884  29.485  1.00  0.00     0.074 A 
ATOM     38  C   UNL A   1      39.539  28.831  29.148  1.00  0.00     0.049 A 
ATOM     39  N   UNL A   1      42.352  28.788  30.253  1.00  0.00    -0.248 NA
ATOM     40  C   UNL A   1      42.678  26.743  29.174  1.00  0.00     0.031 C 
ATOM     41  C   UNL A   1      38.155  28.870  28.680  1.00  0.00     0.029 A 
ATOM     42  N   UNL A   1      39.683  29.996  29.859  1.00  0.00    -0.354 N 
ATOM     43  C   UNL A   1      43.629  28.317  30.524  1.00  0.00     0.074 A 
ATOM     44  C   UNL A   1      43.752  27.022  29.894  1.00  0.00     0.031 C 
ATOM     45  C   UNL A   1      37.576  30.002  29.111  1.00  0.00     0.029 A 
ATOM     46  C   UNL A   1      38.540  30.755  29.909  1.00  0.00     0.049 A 
ATOM     47  H   UNL A   1      40.527  30.263  30.291  1.00  0.00     0.167 HD
ATOM     48  C   UNL A   1      44.621  28.926  31.214  1.00  0.00     0.037 A 
ATOM     49  C   UNL A   1      38.302  31.921  30.538  1.00  0.00     0.037 A 
ATOM     50  C   UNL A   1      44.497  30.220  31.825  1.00  0.00     0.049 A 
ATOM     51  C   UNL A   1      39.417  32.570  31.316  1.00  0.00     0.074 A 
ATOM     52  C   UNL A   1      45.453  30.952  32.505  1.00  0.00     0.029 A 
ATOM     53  N   UNL A   1      43.331  30.975  31.831  1.00  0.00    -0.354 N 
ATOM     54  N   UNL A   1      40.646  32.155  31.503  1.00  0.00    -0.248 NA
ATOM     55  C   UNL A   1      39.112  33.853  31.963  1.00  0.00     0.031 C 
ATOM     56  C   UNL A   1      44.854  32.133  32.958  1.00  0.00     0.029 A 
ATOM     57  C   UNL A   1      43.539  32.157  32.522  1.00  0.00     0.049 A 
ATOM     58  H   UNL A   1      42.483  30.709  31.408  1.00  0.00     0.167 HD
ATOM     59  C   UNL A   1      41.271  33.138  32.259  1.00  0.00     0.074 A 
ATOM     60  C   UNL A   1      40.287  34.176  32.487  1.00  0.00     0.031 C 
ATOM     61  C   UNL A   1      42.545  33.180  32.722  1.00  0.00     0.037 A 
BRANCH  48  62
ATOM     62  C   UNL A   1      45.922  28.188  31.336  1.00  0.00     0.064 A 
ATOM     63  C   UNL A   1      46.986  28.427  30.451  1.00  0.00     0.173 A 
ATOM     64  C   UNL A   1      46.106  27.226  32.340  1.00  0.00     0.173 A 
ATOM     65  F   UNL A   1      46.853  29.323  29.462  1.00  0.00    -0.203 F 
ATOM     66  C   UNL A   1      48.172  27.703  30.545  1.00  0.00     0.198 A 
ATOM     67  C   UNL A   1      47.305  26.527  32.450  1.00  0.00     0.198 A 
ATOM     68  F   UNL A   1      45.121  26.960  33.211  1.00  0.00    -0.203 F 
ATOM     69  F   UNL A   1      49.149  27.905  29.651  1.00  0.00    -0.200 F 
ATOM     70  C   UNL A   1      48.332  26.758  31.547  1.00  0.00     0.200 A 
ATOM     71  F   UNL A   1      47.463  25.619  33.422  1.00  0.00    -0.200 F 
ATOM     72  F   UNL A   1      49.472  26.060  31.634  1.00  0.00    -0.200 F 
ENDBRANCH  48  62
BRANCH  49  73
ATOM     73  C   UNL A   1      36.967  32.568  30.437  1.00  0.00     0.064 A 
ATOM     74  C   UNL A   1      36.648  33.383  29.341  1.00  0.00     0.173 A 
ATOM     75  C   UNL A   1      35.992  32.400  31.429  1.00  0.00     0.173 A 
ATOM     76  F   UNL A   1      37.556  33.591  28.375  1.00  0.00    -0.203 F 
ATOM     77  C   UNL A   1      35.415  34.025  29.254  1.00  0.00     0.198 A 
ATOM     78  C   UNL A   1      34.749  33.022  31.330  1.00  0.00     0.198 A 
ATOM     79  F   UNL A   1      36.245  31.628  32.496  1.00  0.00    -0.203 F 
ATOM     80  F   UNL A   1      35.155  34.836  28.220  1.00  0.00    -0.200 F 
ATOM     81  C   UNL A   1      34.464  33.840  30.248  1.00  0.00     0.200 A 
ATOM     82  F   UNL A   1      33.829  32.833  32.285  1.00  0.00    -0.200 F 
ATOM     83  F   UNL A   1      33.278  34.459  30.165  1.00  0.00    -0.200 F 
ENDBRANCH  49  73
BRANCH  61  84
ATOM     84  C   UNL A   1      42.957  34.401  33.488  1.00  0.00     0.064 A 
ATOM     85  C   UNL A   1      43.360  35.577  32.839  1.00  0.00     0.173 A 
ATOM     86  C   UNL A   1      42.893  34.411  34.891  1.00  0.00     0.173 A 
ATOM     87  F   UNL A   1      43.451  35.612  31.502  1.00  0.00    -0.203 F 
ATOM     88  C   UNL A   1      43.704  36.713  33.568  1.00  0.00     0.198 A 
ATOM     89  C   UNL A   1      43.209  35.557  35.613  1.00  0.00     0.198 A 
ATOM     90  F   UNL A   1      42.507  33.313  35.558  1.00  0.00    -0.203 F 
ATOM     91  F   UNL A   1      44.126  37.812  32.930  1.00  0.00    -0.200 F 
ATOM     92  C   UNL A   1      43.620  36.704  34.952  1.00  0.00     0.200 A 
ATOM     93  F   UNL A   1      43.114  35.551  36.951  1.00  0.00    -0.200 F 
ATOM     94  F   UNL A   1      43.940  37.802  35.651  1.00  0.00    -0.200 F 
ENDBRANCH  61  84
ENDBRANCH  35  36
ENDBRANCH  27  30
ENDBRANCH  25  26
ENDBRANCH   1  25
TORSDOF 13
ENDMDL
MODEL 2
REMARK VINA RESULT:     -10.3      0.440      2.073
REMARK SMILES C[NH2+][C@@]1(C(=O)NCCCNC(=O)c2ccc(-c3c4nc(c(-c5c(F)c(F)c(F)c(F)c5F)c5ccc([nH]5)c(-c5c(F)c(F)c(F)c(F)c5F)c5nc(c(-c6c(F)c(F)c(F)c(F)c6F)c6ccc3[nH]6)C=C5)C=C4)cc2)CC[C@H](Sc2ccc(C)c(C)c2)C1
REMARK SMILES IDX 8 1 7 2 6 3 4 4 5 5 3 7 76 8 88 9 77 10 78 11 2 12 1 13
REMARK SMILES IDX 79 16 80 17 81 18 87 19 82 20 85 21 83 22 86 23 84 24 9 25
REMARK SMILES IDX 10 26 11 27 12 29 13 30 14 31 75 32 15 33 74 34 16 35 17 36
REMARK SMILES IDX 18 37 68 38 19 39 73 40 67 41 69 42 20 43 72 44 66 45 65 46
REMARK SMILES IDX 21 48 53 49 33 50 52 51 34 52 37 53 51 54 70 55 35 56 36 57
REMARK SMILES IDX 50 59 71 60 38 61 22 62 23 63 31 64 24 65 25 66 29 67 32 68
REMARK SMILES IDX 26 69 27 70 30 71 28 72 54 73 55 74 63 75 56 76 57 77 61 78
REMARK SMILES IDX 64 79 58 80 59 81 62 82 60 83 39 84 40 85 48 86 41 87 42 88
REMARK SMILES IDX 46 89 49 90 43 91 44 92 47 93 45 94
REMARK H PARENT 6 6 2 14 2 15 10 28 69 47 37 58
REMARK Flexibility Score: inf
ROOT
ATOM      1  C   UNL A   1      41.154  20.055  26.447  1.00  0.00     0.042 C 
ENDROOT
BRANCH   1   2
ATOM      2  C   UNL A   1      42.579  20.363  26.024  1.00  0.00     0.118 C 
BRANCH   2   3
ATOM      3  N   UNL A   1      42.683  21.634  25.350  1.00  0.00    -0.351 N 
ATOM      4  C   UNL A   1      43.588  22.646  25.449  1.00  0.00     0.281 C 
ATOM      5  O   UNL A   1      43.203  23.702  24.928  1.00  0.00    -0.268 OA
ATOM      6  H   UNL A   1      41.966  21.801  24.697  1.00  0.00     0.163 HD
BRANCH   4   7
ATOM      7  C   UNL A   1      44.988  22.517  26.189  1.00  0.00     0.176 C 
ATOM      8  C   UNL A   1      44.996  22.886  27.687  1.00  0.00     0.080 C 
ATOM      9  C   UNL A   1      46.007  23.472  25.525  1.00  0.00     0.094 C 
ATOM     10  C   UNL A   1      45.782  24.186  27.867  1.00  0.00     0.022 C 
ATOM     11  C   UNL A   1      46.646  24.339  26.626  1.00  0.00     0.058 C 
BRANCH   7  12
ATOM     12  N   UNL A   1      45.487  21.117  26.023  1.00  0.00    -0.336 N 
ATOM     13  C   UNL A   1      46.293  20.882  24.825  1.00  0.00     0.331 C 
ATOM     14  H   UNL A   1      46.056  20.886  26.837  1.00  0.00     0.346 HD
ATOM     15  H   UNL A   1      44.658  20.531  25.925  1.00  0.00     0.346 HD
ENDBRANCH   7  12
BRANCH  11  16
ATOM     16  S   UNL A   1      47.060  25.997  25.912  1.00  0.00    -0.122 SA
BRANCH  16  17
ATOM     17  C   UNL A   1      45.597  27.019  25.890  1.00  0.00     0.008 A 
ATOM     18  C   UNL A   1      44.415  26.676  25.246  1.00  0.00     0.015 A 
ATOM     19  C   UNL A   1      45.597  28.166  26.701  1.00  0.00     0.018 A 
ATOM     20  C   UNL A   1      43.279  27.490  25.361  1.00  0.00     0.005 A 
ATOM     21  C   UNL A   1      44.464  28.996  26.830  1.00  0.00    -0.047 A 
ATOM     22  C   UNL A   1      43.286  28.651  26.150  1.00  0.00    -0.048 A 
ATOM     23  C   UNL A   1      44.541  30.192  27.737  1.00  0.00     0.044 C 
ATOM     24  C   UNL A   1      42.002  29.427  26.280  1.00  0.00     0.044 C 
ENDBRANCH  16  17
ENDBRANCH  11  16
ENDBRANCH   4   7
ENDBRANCH   2   3
ENDBRANCH   1   2
BRANCH   1  25
ATOM     25  C   UNL A   1      40.425  21.254  27.029  1.00  0.00     0.118 C 
BRANCH  25  26
ATOM     26  N   UNL A   1      39.356  21.739  26.161  1.00  0.00    -0.352 N 
ATOM     27  C   UNL A   1      38.736  22.955  26.020  1.00  0.00     0.251 C 
ATOM     28  H   UNL A   1      39.009  21.050  25.550  1.00  0.00     0.163 HD
ATOM     29  O   UNL A   1      37.745  23.020  25.292  1.00  0.00    -0.269 OA
BRANCH  27  30
ATOM     30  C   UNL A   1      39.185  24.178  26.730  1.00  0.00     0.039 A 
ATOM     31  C   UNL A   1      38.784  24.360  28.063  1.00  0.00     0.014 A 
ATOM     32  C   UNL A   1      39.945  25.171  26.120  1.00  0.00     0.014 A 
ATOM     33  C   UNL A   1      39.231  25.462  28.799  1.00  0.00     0.010 A 
ATOM     34  C   UNL A   1      40.472  26.218  26.871  1.00  0.00     0.010 A 
ATOM     35  C   UNL A   1      40.111  26.379  28.214  1.00  0.00    -0.014 A 
BRANCH  35  36
ATOM     36  C   UNL A   1      40.591  27.578  28.939  1.00  0.00     0.031 A 
ATOM     37  C   UNL A   1      41.994  27.587  29.476  1.00  0.00     0.074 A 
ATOM     38  C   UNL A   1      39.755  28.602  29.188  1.00  0.00     0.049 A 
ATOM     39  N   UNL A   1      42.590  28.474  30.228  1.00  0.00    -0.248 NA
ATOM     40  C   UNL A   1      42.827  26.418  29.148  1.00  0.00     0.031 C 
ATOM     41  C   UNL A   1      38.363  28.683  28.752  1.00  0.00     0.029 A 
ATOM     42  N   UNL A   1      39.952  29.764  29.892  1.00  0.00    -0.354 N 
ATOM     43  C   UNL A   1      43.857  27.966  30.471  1.00  0.00     0.074 A 
ATOM     44  C   UNL A   1      43.926  26.666  29.843  1.00  0.00     0.031 C 
ATOM     45  C   UNL A   1      37.828  29.833  29.193  1.00  0.00     0.029 A 
ATOM     46  C   UNL A   1      38.833  30.558  29.966  1.00  0.00     0.049 A 
ATOM     47  H   UNL A   1      40.813  30.005  30.304  1.00  0.00     0.167 HD
ATOM     48  C   UNL A   1      44.884  28.545  31.137  1.00  0.00     0.037 A 
ATOM     49  C   UNL A   1      38.646  31.732  30.597  1.00  0.00     0.037 A 
ATOM     50  C   UNL A   1      44.814  29.844  31.745  1.00  0.00     0.049 A 
ATOM     51  C   UNL A   1      39.799  32.349  31.347  1.00  0.00     0.074 A 
ATOM     52  C   UNL A   1      45.808  30.547  32.401  1.00  0.00     0.029 A 
ATOM     53  N   UNL A   1      43.673  30.634  31.777  1.00  0.00    -0.354 N 
ATOM     54  N   UNL A   1      41.019  31.896  31.506  1.00  0.00    -0.248 NA
ATOM     55  C   UNL A   1      39.549  33.642  31.997  1.00  0.00     0.031 C 
ATOM     56  C   UNL A   1      45.256  31.748  32.864  1.00  0.00     0.029 A 
ATOM     57  C   UNL A   1      43.933  31.811  32.458  1.00  0.00     0.049 A 
ATOM     58  H   UNL A   1      42.808  30.394  31.373  1.00  0.00     0.167 HD
ATOM     59  C   UNL A   1      41.691  32.862  32.245  1.00  0.00     0.074 A 
ATOM     60  C   UNL A   1      40.745  33.929  32.492  1.00  0.00     0.031 C 
ATOM     61  C   UNL A   1      42.976  32.865  32.678  1.00  0.00     0.037 A 
BRANCH  48  62
ATOM     62  C   UNL A   1      46.164  27.767  31.230  1.00  0.00     0.064 A 
ATOM     63  C   UNL A   1      46.349  26.776  32.207  1.00  0.00     0.173 A 
ATOM     64  C   UNL A   1      47.219  28.017  30.340  1.00  0.00     0.173 A 
ATOM     65  F   UNL A   1      45.377  26.511  33.093  1.00  0.00    -0.203 F 
ATOM     66  C   UNL A   1      47.557  26.091  32.314  1.00  0.00     0.198 A 
ATOM     67  C   UNL A   1      48.414  27.309  30.430  1.00  0.00     0.198 A 
ATOM     68  F   UNL A   1      47.093  28.953  29.388  1.00  0.00    -0.203 F 
ATOM     69  F   UNL A   1      47.732  25.194  33.293  1.00  0.00    -0.200 F 
ATOM     70  C   UNL A   1      48.586  26.355  31.422  1.00  0.00     0.200 A 
ATOM     71  F   UNL A   1      49.406  27.558  29.565  1.00  0.00    -0.200 F 
ATOM     72  F   UNL A   1      49.749  25.698  31.528  1.00  0.00    -0.200 F 
ENDBRANCH  48  62
BRANCH  49  73
ATOM     73  C   UNL A   1      37.331  32.420  30.524  1.00  0.00     0.064 A 
ATOM     74  C   UNL A   1      36.371  32.240  31.531  1.00  0.00     0.173 A 
ATOM     75  C   UNL A   1      36.998  33.257  29.450  1.00  0.00     0.173 A 
ATOM     76  F   UNL A   1      36.635  31.432  32.569  1.00  0.00    -0.203 F 
ATOM     77  C   UNL A   1      35.121  32.850  31.453  1.00  0.00     0.198 A 
ATOM     78  C   UNL A   1      35.757  33.887  29.385  1.00  0.00     0.198 A 
ATOM     79  F   UNL A   1      37.881  33.466  28.462  1.00  0.00    -0.203 F 
ATOM     80  F   UNL A   1      34.206  32.621  32.405  1.00  0.00    -0.200 F 
ATOM     81  C   UNL A   1      34.816  33.676  30.381  1.00  0.00     0.200 A 
ATOM     82  F   UNL A   1      35.469  34.693  28.354  1.00  0.00    -0.200 F 
ATOM     83  F   UNL A   1      33.613  34.262  30.306  1.00  0.00    -0.200 F 
ENDBRANCH  49  73
BRANCH  61  84
ATOM     84  C   UNL A   1      43.443  34.075  33.431  1.00  0.00     0.064 A 
ATOM     85  C   UNL A   1      43.383  34.140  34.830  1.00  0.00     0.173 A 
ATOM     86  C   UNL A   1      44.010  35.160  32.743  1.00  0.00     0.173 A 
ATOM     87  F   UNL A   1      42.835  33.135  35.529  1.00  0.00    -0.203 F 
ATOM     88  C   UNL A   1      43.855  35.258  35.514  1.00  0.00     0.198 A 
ATOM     89  C   UNL A   1      44.507  36.262  33.432  1.00  0.00     0.198 A 
ATOM     90  F   UNL A   1      44.096  35.142  31.405  1.00  0.00    -0.203 F 
ATOM     91  F   UNL A   1      43.749  35.317  36.848  1.00  0.00    -0.200 F 
ATOM     92  C   UNL A   1      44.424  36.312  34.816  1.00  0.00     0.200 A 
ATOM     93  F   UNL A   1      45.070  37.274  32.757  1.00  0.00    -0.200 F 
ATOM     94  F   UNL A   1      44.889  37.381  35.476  1.00  0.00    -0.200 F 
ENDBRANCH  61  84
ENDBRANCH  35  36
ENDBRANCH  27  30
ENDBRANCH  25  26
ENDBRANCH   1  25
TORSDOF 13
ENDMDL
MODEL 3
REMARK VINA RESULT:     -10.3      4.693      9.482
REMARK SMILES C[NH2+][C@@]1(C(=O)NCCCNC(=O)c2ccc(-c3c4nc(c(-c5c(F)c(F)c(F)c(F)c5F)c5ccc([nH]5)c(-c5c(F)c(F)c(F)c(F)c5F)c5nc(c(-c6c(F)c(F)c(F)c(F)c6F)c6ccc3[nH]6)C=C5)C=C4)cc2)CC[C@H](Sc2ccc(C)c(C)c2)C1
REMARK SMILES IDX 8 1 7 2 6 3 4 4 5 5 3 7 76 8 88 9 77 10 78 11 2 12 1 13
REMARK SMILES IDX 79 16 80 17 81 18 87 19 82 20 85 21 83 22 86 23 84 24 9 25
REMARK SMILES IDX 10 26 11 27 12 29 13 30 14 31 75 32 15 33 74 34 16 35 17 36
REMARK SMILES IDX 18 37 68 38 19 39 73 40 67 41 69 42 20 43 72 44 66 45 65 46
REMARK SMILES IDX 21 48 53 49 33 50 52 51 34 52 37 53 51 54 70 55 35 56 36 57
REMARK SMILES IDX 50 59 71 60 38 61 22 62 23 63 31 64 24 65 25 66 29 67 32 68
REMARK SMILES IDX 26 69 27 70 30 71 28 72 54 73 55 74 63 75 56 76 57 77 61 78
REMARK SMILES IDX 64 79 58 80 59 81 62 82 60 83 39 84 40 85 48 86 41 87 42 88
REMARK SMILES IDX 46 89 49 90 43 91 44 92 47 93 45 94
REMARK H PARENT 6 6 2 14 2 15 10 28 69 47 37 58
REMARK Flexibility Score: inf
ROOT
ATOM      1  C   UNL A   1      31.207  32.328  26.534  1.00  0.00     0.042 C 
ENDROOT
BRANCH   1   2
ATOM      2  C   UNL A   1      31.345  30.976  25.858  1.00  0.00     0.118 C 
BRANCH   2   3
ATOM      3  N   UNL A   1      31.436  29.898  26.813  1.00  0.00    -0.351 N 
ATOM      4  C   UNL A   1      32.148  28.739  26.813  1.00  0.00     0.281 C 
ATOM      5  O   UNL A   1      31.761  27.924  27.661  1.00  0.00    -0.268 OA
ATOM      6  H   UNL A   1      30.878  30.025  27.614  1.00  0.00     0.163 HD
BRANCH   4   7
ATOM      7  C   UNL A   1      33.337  28.426  25.805  1.00  0.00     0.176 C 
ATOM      8  C   UNL A   1      32.977  28.462  24.306  1.00  0.00     0.080 C 
ATOM      9  C   UNL A   1      33.865  26.997  26.067  1.00  0.00     0.094 C 
ATOM     10  C   UNL A   1      33.032  27.036  23.754  1.00  0.00     0.022 C 
ATOM     11  C   UNL A   1      33.876  26.233  24.730  1.00  0.00     0.058 C 
BRANCH   7  12
ATOM     12  N   UNL A   1      34.449  29.389  26.070  1.00  0.00    -0.336 N 
ATOM     13  C   UNL A   1      34.992  29.355  27.429  1.00  0.00     0.331 C 
ATOM     14  H   UNL A   1      35.209  29.180  25.422  1.00  0.00     0.346 HD
ATOM     15  H   UNL A   1      34.054  30.321  25.947  1.00  0.00     0.346 HD
ENDBRANCH   7  12
BRANCH  11  16
ATOM     16  S   UNL A   1      33.553  24.440  25.066  1.00  0.00    -0.122 SA
BRANCH  16  17
ATOM     17  C   UNL A   1      35.101  23.555  25.125  1.00  0.00     0.008 A 
ATOM     18  C   UNL A   1      36.317  24.131  25.473  1.00  0.00     0.015 A 
ATOM     19  C   UNL A   1      35.056  22.161  24.959  1.00  0.00     0.018 A 
ATOM     20  C   UNL A   1      37.470  23.342  25.592  1.00  0.00     0.005 A 
ATOM     21  C   UNL A   1      36.205  21.352  25.075  1.00  0.00    -0.047 A 
ATOM     22  C   UNL A   1      37.431  21.952  25.400  1.00  0.00    -0.048 A 
ATOM     23  C   UNL A   1      36.065  19.865  24.905  1.00  0.00     0.044 C 
ATOM     24  C   UNL A   1      38.699  21.170  25.621  1.00  0.00     0.044 C 
ENDBRANCH  16  17
ENDBRANCH  11  16
ENDBRANCH   4   7
ENDBRANCH   2   3
ENDBRANCH   1   2
BRANCH   1  25
ATOM     25  C   UNL A   1      32.512  32.853  27.106  1.00  0.00     0.118 C 
BRANCH  25  26
ATOM     26  N   UNL A   1      32.388  34.204  27.645  1.00  0.00    -0.352 N 
ATOM     27  C   UNL A   1      33.043  34.884  28.641  1.00  0.00     0.251 C 
ATOM     28  H   UNL A   1      31.692  34.738  27.200  1.00  0.00     0.163 HD
ATOM     29  O   UNL A   1      32.606  35.987  28.975  1.00  0.00    -0.269 OA
BRANCH  27  30
ATOM     30  C   UNL A   1      34.223  34.335  29.354  1.00  0.00     0.039 A 
ATOM     31  C   UNL A   1      34.006  33.547  30.496  1.00  0.00     0.014 A 
ATOM     32  C   UNL A   1      35.532  34.605  28.968  1.00  0.00     0.014 A 
ATOM     33  C   UNL A   1      35.079  32.952  31.167  1.00  0.00     0.010 A 
ATOM     34  C   UNL A   1      36.597  33.941  29.570  1.00  0.00     0.010 A 
ATOM     35  C   UNL A   1      36.381  33.118  30.682  1.00  0.00    -0.014 A 
BRANCH  35  36
ATOM     36  C   UNL A   1      37.554  32.534  31.371  1.00  0.00     0.031 A 
ATOM     37  C   UNL A   1      38.266  31.374  30.735  1.00  0.00     0.074 A 
ATOM     38  C   UNL A   1      37.919  32.979  32.588  1.00  0.00     0.049 A 
ATOM     39  N   UNL A   1      39.242  30.641  31.203  1.00  0.00    -0.248 NA
ATOM     40  C   UNL A   1      37.789  30.965  29.404  1.00  0.00     0.031 C 
ATOM     41  C   UNL A   1      37.276  34.069  33.318  1.00  0.00     0.029 A 
ATOM     42  N   UNL A   1      38.910  32.549  33.435  1.00  0.00    -0.354 N 
ATOM     43  C   UNL A   1      39.484  29.680  30.231  1.00  0.00     0.074 A 
ATOM     44  C   UNL A   1      38.515  29.882  29.178  1.00  0.00     0.031 C 
ATOM     45  C   UNL A   1      37.888  34.228  34.503  1.00  0.00     0.029 A 
ATOM     46  C   UNL A   1      38.949  33.233  34.626  1.00  0.00     0.049 A 
ATOM     47  H   UNL A   1      39.533  31.821  33.210  1.00  0.00     0.167 HD
ATOM     48  C   UNL A   1      40.449  28.731  30.207  1.00  0.00     0.037 A 
ATOM     49  C   UNL A   1      39.749  33.062  35.695  1.00  0.00     0.037 A 
ATOM     50  C   UNL A   1      41.419  28.547  31.251  1.00  0.00     0.049 A 
ATOM     51  C   UNL A   1      40.804  31.987  35.652  1.00  0.00     0.074 A 
ATOM     52  C   UNL A   1      42.470  27.650  31.307  1.00  0.00     0.029 A 
ATOM     53  N   UNL A   1      41.448  29.277  32.432  1.00  0.00    -0.354 N 
ATOM     54  N   UNL A   1      41.077  31.133  34.696  1.00  0.00    -0.248 NA
ATOM     55  C   UNL A   1      41.666  31.859  36.835  1.00  0.00     0.031 C 
ATOM     56  C   UNL A   1      43.111  27.810  32.541  1.00  0.00     0.029 A 
ATOM     57  C   UNL A   1      42.488  28.837  33.233  1.00  0.00     0.049 A 
ATOM     58  H   UNL A   1      40.822  30.000  32.664  1.00  0.00     0.167 HD
ATOM     59  C   UNL A   1      42.160  30.388  35.146  1.00  0.00     0.074 A 
ATOM     60  C   UNL A   1      42.501  30.900  36.457  1.00  0.00     0.031 C 
ATOM     61  C   UNL A   1      42.815  29.374  34.529  1.00  0.00     0.037 A 
BRANCH  48  62
ATOM     62  C   UNL A   1      40.491  27.830  29.009  1.00  0.00     0.064 A 
ATOM     63  C   UNL A   1      41.265  28.146  27.880  1.00  0.00     0.173 A 
ATOM     64  C   UNL A   1      39.747  26.641  28.982  1.00  0.00     0.173 A 
ATOM     65  F   UNL A   1      41.980  29.280  27.849  1.00  0.00    -0.203 F 
ATOM     66  C   UNL A   1      41.261  27.325  26.755  1.00  0.00     0.198 A 
ATOM     67  C   UNL A   1      39.770  25.807  27.868  1.00  0.00     0.198 A 
ATOM     68  F   UNL A   1      38.992  26.292  30.034  1.00  0.00    -0.203 F 
ATOM     69  F   UNL A   1      41.958  27.680  25.668  1.00  0.00    -0.200 F 
ATOM     70  C   UNL A   1      40.518  26.154  26.752  1.00  0.00     0.200 A 
ATOM     71  F   UNL A   1      39.058  24.672  27.867  1.00  0.00    -0.200 F 
ATOM     72  F   UNL A   1      40.512  25.367  25.668  1.00  0.00    -0.200 F 
ENDBRANCH  48  62
BRANCH  49  73
ATOM     73  C   UNL A   1      39.610  33.945  36.883  1.00  0.00     0.064 A 
ATOM     74  C   UNL A   1      38.839  33.547  37.985  1.00  0.00     0.173 A 
ATOM     75  C   UNL A   1      40.228  35.202  36.940  1.00  0.00     0.173 A 
ATOM     76  F   UNL A   1      38.212  32.361  37.969  1.00  0.00    -0.203 F 
ATOM     77  C   UNL A   1      38.671  34.383  39.087  1.00  0.00     0.198 A 
ATOM     78  C   UNL A   1      40.080  36.027  38.053  1.00  0.00     0.198 A 
ATOM     79  F   UNL A   1      40.978  35.629  35.914  1.00  0.00    -0.203 F 
ATOM     80  F   UNL A   1      37.890  33.997  40.105  1.00  0.00    -0.200 F 
ATOM     81  C   UNL A   1      39.295  35.621  39.122  1.00  0.00     0.200 A 
ATOM     82  F   UNL A   1      40.692  37.218  38.088  1.00  0.00    -0.200 F 
ATOM     83  F   UNL A   1      39.132  36.426  40.182  1.00  0.00    -0.200 F 
ENDBRANCH  49  73
BRANCH  61  84
ATOM     84  C   UNL A   1      43.987  28.776  35.247  1.00  0.00     0.064 A 
ATOM     85  C   UNL A   1      43.838  27.697  36.130  1.00  0.00     0.173 A 
ATOM     86  C   UNL A   1      45.284  29.256  35.005  1.00  0.00     0.173 A 
ATOM     87  F   UNL A   1      42.617  27.215  36.405  1.00  0.00    -0.203 F 
ATOM     88  C   UNL A   1      44.943  27.133  36.761  1.00  0.00     0.198 A 
ATOM     89  C   UNL A   1      46.389  28.669  35.615  1.00  0.00     0.198 A 
ATOM     90  F   UNL A   1      45.480  30.282  34.164  1.00  0.00    -0.203 F 
ATOM     91  F   UNL A   1      44.774  26.129  37.632  1.00  0.00    -0.200 F 
ATOM     92  C   UNL A   1      46.217  27.613  36.496  1.00  0.00     0.200 A 
ATOM     93  F   UNL A   1      47.620  29.126  35.346  1.00  0.00    -0.200 F 
ATOM     94  F   UNL A   1      47.281  27.059  37.094  1.00  0.00    -0.200 F 
ENDBRANCH  61  84
ENDBRANCH  35  36
ENDBRANCH  27  30
ENDBRANCH  25  26
ENDBRANCH   1  25
TORSDOF 13
ENDMDL
