MODEL 1
REMARK VINA RESULT:     -12.4      0.000      0.000
REMARK SMILES COc1ccc(OC)c(/C=N/[NH+]=C2/NC(=O)[C@@H](CC(=O)NCCCNC(=O)c3ccc(-c4c5nc(c(-c6c(F)c(F)c(F)c(F)c6F)c6ccc([nH]6)c(-c6c(F)c(F)c(F)c(F)c6F)c6nc(c(-c7c(F)c(F)c(F)c(F)c7F)c7ccc4[nH]7)C=C6)C=C5)cc3)S2)c1
REMARK SMILES IDX 22 1 21 2 19 3 20 4 18 6 17 7 12 8 13 9 14 11 91 12 15 13
REMARK SMILES IDX 16 15 11 16 10 17 9 18 3 19 4 20 92 21 5 22 6 23 2 24 1 25
REMARK SMILES IDX 7 26 8 27 23 28 24 29 25 30 26 31 27 33 28 34 29 35 90 36
REMARK SMILES IDX 30 37 89 38 31 39 32 40 33 41 83 42 34 43 88 44 82 45 84 46
REMARK SMILES IDX 35 47 87 48 81 49 80 50 36 52 68 53 48 54 67 55 49 56 52 57
REMARK SMILES IDX 66 58 85 59 50 60 51 61 65 63 86 64 53 65 37 66 38 67 46 68
REMARK SMILES IDX 39 69 40 70 44 71 47 72 41 73 42 74 45 75 43 76 69 77 70 78
REMARK SMILES IDX 78 79 71 80 72 81 76 82 79 83 73 84 74 85 77 86 75 87 54 88
REMARK SMILES IDX 55 89 63 90 56 91 57 92 61 93 64 94 58 95 59 96 62 97 60 98
REMARK H PARENT 21 5 12 10 14 14 25 32 84 51 52 62
REMARK Flexibility Score: inf
ROOT
ATOM      1  C   UNL A   1      33.178  28.447  22.675  1.00  0.00     0.117 C 
ENDROOT
BRANCH   1   2
ATOM      2  N   UNL A   1      32.020  29.071  22.050  1.00  0.00    -0.356 N 
ATOM      3  C   UNL A   1      30.697  29.067  22.371  1.00  0.00     0.221 C 
ATOM      4  O   UNL A   1      29.931  29.699  21.641  1.00  0.00    -0.275 OA
ATOM      5  H   UNL A   1      32.234  29.594  21.244  1.00  0.00     0.163 HD
BRANCH   3   6
ATOM      6  C   UNL A   1      30.179  28.332  23.585  1.00  0.00     0.127 C 
BRANCH   6   7
ATOM      7  C   UNL A   1      30.095  26.807  23.494  1.00  0.00     0.183 C 
ATOM      8  N   UNL A   1      30.749  24.631  26.599  1.00  0.00    -0.142 N 
ATOM      9  C   UNL A   1      30.436  25.245  25.514  1.00  0.00     0.337 C 
ATOM     10  H   UNL A   1      30.063  24.439  27.278  1.00  0.00     0.343 HD
ATOM     11  N   UNL A   1      29.144  25.580  25.301  1.00  0.00    -0.202 N 
ATOM     12  S   UNL A   1      31.446  25.824  24.236  1.00  0.00    -0.020 SA
ATOM     13  C   UNL A   1      28.846  26.344  24.218  1.00  0.00     0.322 C 
ATOM     14  H   UNL A   1      28.436  25.276  25.914  1.00  0.00     0.316 HD
ATOM     15  O   UNL A   1      27.703  26.664  23.917  1.00  0.00    -0.246 OA
BRANCH   8  16
ATOM     16  N   UNL A   1      32.073  24.237  26.803  1.00  0.00    -0.093 NA
ATOM     17  C   UNL A   1      32.335  23.054  26.349  1.00  0.00     0.170 C 
BRANCH  17  18
ATOM     18  C   UNL A   1      33.686  22.566  26.027  1.00  0.00     0.042 A 
ATOM     19  C   UNL A   1      36.059  23.116  26.064  1.00  0.00     0.119 A 
ATOM     20  C   UNL A   1      36.343  21.834  25.601  1.00  0.00     0.050 A 
ATOM     21  C   UNL A   1      34.730  23.483  26.276  1.00  0.00     0.060 A 
ATOM     22  C   UNL A   1      35.313  20.916  25.383  1.00  0.00     0.051 A 
ATOM     23  C   UNL A   1      33.974  21.260  25.604  1.00  0.00     0.128 A 
BRANCH  19  24
ATOM     24  O   UNL A   1      37.149  23.922  26.230  1.00  0.00    -0.497 OA
ATOM     25  C   UNL A   1      38.430  23.313  26.124  1.00  0.00     0.278 C 
ENDBRANCH  19  24
BRANCH  23  26
ATOM     26  O   UNL A   1      33.118  20.234  25.326  1.00  0.00    -0.496 OA
ATOM     27  C   UNL A   1      32.536  20.157  24.033  1.00  0.00     0.278 C 
ENDBRANCH  23  26
ENDBRANCH  17  18
ENDBRANCH   8  16
ENDBRANCH   6   7
ENDBRANCH   3   6
ENDBRANCH   1   2
BRANCH   1  28
ATOM     28  C   UNL A   1      33.807  29.335  23.752  1.00  0.00     0.042 C 
BRANCH  28  29
ATOM     29  C   UNL A   1      33.238  29.170  25.167  1.00  0.00     0.118 C 
BRANCH  29  30
ATOM     30  N   UNL A   1      32.746  30.422  25.713  1.00  0.00    -0.352 N 
ATOM     31  C   UNL A   1      33.142  31.118  26.831  1.00  0.00     0.251 C 
ATOM     32  H   UNL A   1      32.014  30.838  25.201  1.00  0.00     0.163 HD
ATOM     33  O   UNL A   1      32.427  32.029  27.243  1.00  0.00    -0.269 OA
BRANCH  31  34
ATOM     34  C   UNL A   1      34.397  30.800  27.564  1.00  0.00     0.039 A 
ATOM     35  C   UNL A   1      35.365  31.804  27.695  1.00  0.00     0.014 A 
ATOM     36  C   UNL A   1      34.691  29.514  28.019  1.00  0.00     0.014 A 
ATOM     37  C   UNL A   1      36.591  31.538  28.322  1.00  0.00     0.010 A 
ATOM     38  C   UNL A   1      35.903  29.264  28.686  1.00  0.00     0.010 A 
ATOM     39  C   UNL A   1      36.865  30.272  28.863  1.00  0.00    -0.014 A 
BRANCH  39  40
ATOM     40  C   UNL A   1      38.120  29.997  29.635  1.00  0.00     0.031 A 
ATOM     41  C   UNL A   1      39.127  28.978  29.162  1.00  0.00     0.074 A 
ATOM     42  C   UNL A   1      38.349  30.619  30.810  1.00  0.00     0.049 A 
ATOM     43  N   UNL A   1      40.208  28.539  29.764  1.00  0.00    -0.248 NA
ATOM     44  C   UNL A   1      38.899  28.384  27.838  1.00  0.00     0.031 C 
ATOM     45  C   UNL A   1      37.503  31.654  31.399  1.00  0.00     0.029 A 
ATOM     46  N   UNL A   1      39.349  30.445  31.743  1.00  0.00    -0.354 N 
ATOM     47  C   UNL A   1      40.796  27.636  28.887  1.00  0.00     0.074 A 
ATOM     48  C   UNL A   1      39.915  27.538  27.741  1.00  0.00     0.031 C 
ATOM     49  C   UNL A   1      37.988  31.991  32.603  1.00  0.00     0.029 A 
ATOM     50  C   UNL A   1      39.150  31.163  32.899  1.00  0.00     0.049 A 
ATOM     51  H   UNL A   1      40.130  29.864  31.596  1.00  0.00     0.167 HD
ATOM     52  C   UNL A   1      41.978  26.982  29.003  1.00  0.00     0.037 A 
ATOM     53  C   UNL A   1      39.790  31.139  34.084  1.00  0.00     0.037 A 
ATOM     54  C   UNL A   1      42.871  27.082  30.130  1.00  0.00     0.049 A 
ATOM     55  C   UNL A   1      41.016  30.290  34.255  1.00  0.00     0.074 A 
ATOM     56  C   UNL A   1      44.126  26.516  30.289  1.00  0.00     0.029 A 
ATOM     57  N   UNL A   1      42.601  27.777  31.299  1.00  0.00    -0.354 N 
ATOM     58  N   UNL A   1      41.600  29.505  33.387  1.00  0.00    -0.248 NA
ATOM     59  C   UNL A   1      41.690  30.349  35.561  1.00  0.00     0.031 C 
ATOM     60  C   UNL A   1      44.588  26.818  31.575  1.00  0.00     0.029 A 
ATOM     61  C   UNL A   1      43.646  27.616  32.199  1.00  0.00     0.049 A 
ATOM     62  H   UNL A   1      41.789  28.309  31.465  1.00  0.00     0.167 HD
ATOM     63  C   UNL A   1      42.733  29.015  34.019  1.00  0.00     0.074 A 
ATOM     64  C   UNL A   1      42.754  29.585  35.348  1.00  0.00     0.031 C 
ATOM     65  C   UNL A   1      43.678  28.179  33.525  1.00  0.00     0.037 A 
BRANCH  52  66
ATOM     66  C   UNL A   1      42.395  26.095  27.865  1.00  0.00     0.064 A 
ATOM     67  C   UNL A   1      41.855  24.809  27.703  1.00  0.00     0.173 A 
ATOM     68  C   UNL A   1      43.292  26.556  26.889  1.00  0.00     0.173 A 
ATOM     69  F   UNL A   1      40.993  24.320  28.607  1.00  0.00    -0.203 F 
ATOM     70  C   UNL A   1      42.223  24.008  26.625  1.00  0.00     0.198 A 
ATOM     71  C   UNL A   1      43.634  25.763  25.797  1.00  0.00     0.198 A 
ATOM     72  F   UNL A   1      43.825  27.784  26.987  1.00  0.00    -0.203 F 
ATOM     73  F   UNL A   1      41.728  22.767  26.516  1.00  0.00    -0.200 F 
ATOM     74  C   UNL A   1      43.106  24.487  25.670  1.00  0.00     0.200 A 
ATOM     75  F   UNL A   1      44.474  26.234  24.865  1.00  0.00    -0.200 F 
ATOM     76  F   UNL A   1      43.451  23.718  24.629  1.00  0.00    -0.200 F 
ENDBRANCH  52  66
BRANCH  53  77
ATOM     77  C   UNL A   1      39.274  31.951  35.218  1.00  0.00     0.064 A 
ATOM     78  C   UNL A   1      38.476  31.377  36.215  1.00  0.00     0.173 A 
ATOM     79  C   UNL A   1      39.559  33.321  35.314  1.00  0.00     0.173 A 
ATOM     80  F   UNL A   1      38.156  30.077  36.149  1.00  0.00    -0.203 F 
ATOM     81  C   UNL A   1      37.969  32.146  37.259  1.00  0.00     0.198 A 
ATOM     82  C   UNL A   1      39.071  34.085  36.372  1.00  0.00     0.198 A 
ATOM     83  F   UNL A   1      40.315  33.917  34.381  1.00  0.00    -0.203 F 
ATOM     84  F   UNL A   1      37.175  31.582  38.179  1.00  0.00    -0.200 F 
ATOM     85  C   UNL A   1      38.271  33.498  37.341  1.00  0.00     0.200 A 
ATOM     86  F   UNL A   1      39.371  35.388  36.453  1.00  0.00    -0.200 F 
ATOM     87  F   UNL A   1      37.784  34.235  38.348  1.00  0.00    -0.200 F 
ENDBRANCH  53  77
BRANCH  65  88
ATOM     88  C   UNL A   1      44.847  27.853  34.408  1.00  0.00     0.064 A 
ATOM     89  C   UNL A   1      45.989  28.666  34.450  1.00  0.00     0.173 A 
ATOM     90  C   UNL A   1      44.810  26.732  35.253  1.00  0.00     0.173 A 
ATOM     91  F   UNL A   1      46.084  29.736  33.646  1.00  0.00    -0.203 F 
ATOM     92  C   UNL A   1      47.056  28.360  35.291  1.00  0.00     0.198 A 
ATOM     93  C   UNL A   1      45.865  26.446  36.114  1.00  0.00     0.198 A 
ATOM     94  F   UNL A   1      43.742  25.920  35.252  1.00  0.00    -0.203 F 
ATOM     95  F   UNL A   1      48.154  29.129  35.283  1.00  0.00    -0.200 F 
ATOM     96  C   UNL A   1      46.990  27.257  36.129  1.00  0.00     0.200 A 
ATOM     97  F   UNL A   1      45.795  25.386  36.930  1.00  0.00    -0.200 F 
ATOM     98  F   UNL A   1      48.013  26.972  36.946  1.00  0.00    -0.200 F 
ENDBRANCH  65  88
ENDBRANCH  39  40
ENDBRANCH  31  34
ENDBRANCH  29  30
ENDBRANCH  28  29
ENDBRANCH   1  28
TORSDOF 15
ENDMDL
MODEL 2
REMARK VINA RESULT:     -12.3      3.500      6.644
REMARK SMILES COc1ccc(OC)c(/C=N/[NH+]=C2/NC(=O)[C@@H](CC(=O)NCCCNC(=O)c3ccc(-c4c5nc(c(-c6c(F)c(F)c(F)c(F)c6F)c6ccc([nH]6)c(-c6c(F)c(F)c(F)c(F)c6F)c6nc(c(-c7c(F)c(F)c(F)c(F)c7F)c7ccc4[nH]7)C=C6)C=C5)cc3)S2)c1
REMARK SMILES IDX 22 1 21 2 19 3 20 4 18 6 17 7 12 8 13 9 14 11 91 12 15 13
REMARK SMILES IDX 16 15 11 16 10 17 9 18 3 19 4 20 92 21 5 22 6 23 2 24 1 25
REMARK SMILES IDX 7 26 8 27 23 28 24 29 25 30 26 31 27 33 28 34 29 35 90 36
REMARK SMILES IDX 30 37 89 38 31 39 32 40 33 41 83 42 34 43 88 44 82 45 84 46
REMARK SMILES IDX 35 47 87 48 81 49 80 50 36 52 68 53 48 54 67 55 49 56 52 57
REMARK SMILES IDX 66 58 85 59 50 60 51 61 65 63 86 64 53 65 37 66 38 67 46 68
REMARK SMILES IDX 39 69 40 70 44 71 47 72 41 73 42 74 45 75 43 76 69 77 70 78
REMARK SMILES IDX 78 79 71 80 72 81 76 82 79 83 73 84 74 85 77 86 75 87 54 88
REMARK SMILES IDX 55 89 63 90 56 91 57 92 61 93 64 94 58 95 59 96 62 97 60 98
REMARK H PARENT 21 5 12 10 14 14 25 32 84 51 52 62
REMARK Flexibility Score: inf
ROOT
ATOM      1  C   UNL A   1      34.469  24.798  25.344  1.00  0.00     0.117 C 
ENDROOT
BRANCH   1   2
ATOM      2  N   UNL A   1      34.463  24.991  23.901  1.00  0.00    -0.356 N 
ATOM      3  C   UNL A   1      33.571  25.587  23.063  1.00  0.00     0.221 C 
ATOM      4  O   UNL A   1      33.839  25.601  21.860  1.00  0.00    -0.275 OA
ATOM      5  H   UNL A   1      35.253  24.621  23.445  1.00  0.00     0.163 HD
BRANCH   3   6
ATOM      6  C   UNL A   1      32.305  26.229  23.581  1.00  0.00     0.127 C 
BRANCH   6   7
ATOM      7  C   UNL A   1      31.089  25.319  23.768  1.00  0.00     0.183 C 
ATOM      8  N   UNL A   1      31.340  22.149  25.936  1.00  0.00    -0.142 N 
ATOM      9  C   UNL A   1      31.107  23.214  25.252  1.00  0.00     0.337 C 
ATOM     10  H   UNL A   1      31.248  22.157  26.915  1.00  0.00     0.343 HD
ATOM     11  N   UNL A   1      30.689  24.326  25.897  1.00  0.00    -0.202 N 
ATOM     12  S   UNL A   1      31.321  23.517  23.564  1.00  0.00    -0.020 SA
ATOM     13  C   UNL A   1      30.576  25.478  25.186  1.00  0.00     0.322 C 
ATOM     14  H   UNL A   1      30.472  24.302  26.857  1.00  0.00     0.316 HD
ATOM     15  O   UNL A   1      30.166  26.527  25.669  1.00  0.00    -0.246 OA
BRANCH   8  16
ATOM     16  N   UNL A   1      31.723  20.983  25.271  1.00  0.00    -0.093 NA
ATOM     17  C   UNL A   1      32.998  20.768  25.298  1.00  0.00     0.170 C 
BRANCH  17  18
ATOM     18  C   UNL A   1      33.628  19.455  25.085  1.00  0.00     0.042 A 
ATOM     19  C   UNL A   1      33.202  17.082  24.733  1.00  0.00     0.119 A 
ATOM     20  C   UNL A   1      34.571  16.882  24.572  1.00  0.00     0.050 A 
ATOM     21  C   UNL A   1      32.730  18.369  24.991  1.00  0.00     0.060 A 
ATOM     22  C   UNL A   1      35.457  17.960  24.635  1.00  0.00     0.051 A 
ATOM     23  C   UNL A   1      35.001  19.261  24.877  1.00  0.00     0.128 A 
BRANCH  19  24
ATOM     24  O   UNL A   1      32.443  15.949  24.659  1.00  0.00    -0.497 OA
ATOM     25  C   UNL A   1      32.767  14.889  25.551  1.00  0.00     0.278 C 
ENDBRANCH  19  24
BRANCH  23  26
ATOM     26  O   UNL A   1      36.016  20.173  24.911  1.00  0.00    -0.496 OA
ATOM     27  C   UNL A   1      37.357  19.709  24.840  1.00  0.00     0.278 C 
ENDBRANCH  23  26
ENDBRANCH  17  18
ENDBRANCH   8  16
ENDBRANCH   6   7
ENDBRANCH   3   6
ENDBRANCH   1   2
BRANCH   1  28
ATOM     28  C   UNL A   1      35.521  23.780  25.791  1.00  0.00     0.042 C 
BRANCH  28  29
ATOM     29  C   UNL A   1      36.898  23.910  25.128  1.00  0.00     0.118 C 
BRANCH  29  30
ATOM     30  N   UNL A   1      37.827  22.891  25.580  1.00  0.00    -0.352 N 
ATOM     31  C   UNL A   1      39.027  23.016  26.241  1.00  0.00     0.251 C 
ATOM     32  H   UNL A   1      37.555  21.965  25.384  1.00  0.00     0.163 HD
ATOM     33  O   UNL A   1      39.766  22.036  26.311  1.00  0.00    -0.269 OA
BRANCH  31  34
ATOM     34  C   UNL A   1      39.465  24.294  26.862  1.00  0.00     0.039 A 
ATOM     35  C   UNL A   1      39.055  24.574  28.172  1.00  0.00     0.014 A 
ATOM     36  C   UNL A   1      40.166  25.270  26.151  1.00  0.00     0.014 A 
ATOM     37  C   UNL A   1      39.388  25.793  28.782  1.00  0.00     0.010 A 
ATOM     38  C   UNL A   1      40.535  26.470  26.781  1.00  0.00     0.010 A 
ATOM     39  C   UNL A   1      40.168  26.746  28.109  1.00  0.00    -0.014 A 
BRANCH  39  40
ATOM     40  C   UNL A   1      40.630  28.004  28.779  1.00  0.00     0.031 A 
ATOM     41  C   UNL A   1      42.007  28.113  29.384  1.00  0.00     0.074 A 
ATOM     42  C   UNL A   1      39.794  29.056  28.906  1.00  0.00     0.049 A 
ATOM     43  N   UNL A   1      42.526  29.087  30.096  1.00  0.00    -0.248 NA
ATOM     44  C   UNL A   1      42.926  26.990  29.151  1.00  0.00     0.031 C 
ATOM     45  C   UNL A   1      38.445  29.137  28.353  1.00  0.00     0.029 A 
ATOM     46  N   UNL A   1      39.944  30.251  29.577  1.00  0.00    -0.354 N 
ATOM     47  C   UNL A   1      43.831  28.704  30.377  1.00  0.00     0.074 A 
ATOM     48  C   UNL A   1      44.004  27.378  29.819  1.00  0.00     0.031 C 
ATOM     49  C   UNL A   1      37.877  30.289  28.739  1.00  0.00     0.029 A 
ATOM     50  C   UNL A   1      38.797  31.009  29.609  1.00  0.00     0.049 A 
ATOM     51  H   UNL A   1      40.790  30.535  29.993  1.00  0.00     0.167 HD
ATOM     52  C   UNL A   1      44.809  29.405  31.004  1.00  0.00     0.037 A 
ATOM     53  C   UNL A   1      38.489  32.131  30.287  1.00  0.00     0.037 A 
ATOM     54  C   UNL A   1      44.656  30.730  31.551  1.00  0.00     0.049 A 
ATOM     55  C   UNL A   1      39.539  32.821  31.108  1.00  0.00     0.074 A 
ATOM     56  C   UNL A   1      45.619  31.541  32.128  1.00  0.00     0.029 A 
ATOM     57  N   UNL A   1      43.462  31.434  31.607  1.00  0.00    -0.354 N 
ATOM     58  N   UNL A   1      40.789  32.484  31.295  1.00  0.00    -0.248 NA
ATOM     59  C   UNL A   1      39.145  34.066  31.784  1.00  0.00     0.031 C 
ATOM     60  C   UNL A   1      44.998  32.709  32.587  1.00  0.00     0.029 A 
ATOM     61  C   UNL A   1      43.657  32.648  32.250  1.00  0.00     0.049 A 
ATOM     62  H   UNL A   1      42.603  31.119  31.243  1.00  0.00     0.167 HD
ATOM     63  C   UNL A   1      41.344  33.495  32.067  1.00  0.00     0.074 A 
ATOM     64  C   UNL A   1      40.293  34.457  32.320  1.00  0.00     0.031 C 
ATOM     65  C   UNL A   1      42.620  33.614  32.507  1.00  0.00     0.037 A 
BRANCH  52  66
ATOM     66  C   UNL A   1      46.158  28.756  31.126  1.00  0.00     0.064 A 
ATOM     67  C   UNL A   1      47.142  28.922  30.139  1.00  0.00     0.173 A 
ATOM     68  C   UNL A   1      46.496  28.017  32.271  1.00  0.00     0.173 A 
ATOM     69  F   UNL A   1      46.871  29.620  29.026  1.00  0.00    -0.203 F 
ATOM     70  C   UNL A   1      48.402  28.344  30.279  1.00  0.00     0.198 A 
ATOM     71  C   UNL A   1      47.765  27.465  32.419  1.00  0.00     0.198 A 
ATOM     72  F   UNL A   1      45.597  27.841  33.251  1.00  0.00    -0.203 F 
ATOM     73  F   UNL A   1      49.309  28.479  29.302  1.00  0.00    -0.200 F 
ATOM     74  C   UNL A   1      48.714  27.623  31.420  1.00  0.00     0.200 A 
ATOM     75  F   UNL A   1      48.073  26.783  33.531  1.00  0.00    -0.200 F 
ATOM     76  F   UNL A   1      49.930  27.076  31.557  1.00  0.00    -0.200 F 
ENDBRANCH  52  66
BRANCH  53  77
ATOM     77  C   UNL A   1      37.106  32.675  30.224  1.00  0.00     0.064 A 
ATOM     78  C   UNL A   1      36.690  33.471  29.150  1.00  0.00     0.173 A 
ATOM     79  C   UNL A   1      36.182  32.418  31.248  1.00  0.00     0.173 A 
ATOM     80  F   UNL A   1      37.548  33.764  28.163  1.00  0.00    -0.203 F 
ATOM     81  C   UNL A   1      35.404  34.004  29.110  1.00  0.00     0.198 A 
ATOM     82  C   UNL A   1      34.888  32.932  31.194  1.00  0.00     0.198 A 
ATOM     83  F   UNL A   1      36.535  31.665  32.299  1.00  0.00    -0.203 F 
ATOM     84  F   UNL A   1      35.042  34.796  28.091  1.00  0.00    -0.200 F 
ATOM     85  C   UNL A   1      34.502  33.730  30.128  1.00  0.00     0.200 A 
ATOM     86  F   UNL A   1      34.017  32.659  32.175  1.00  0.00    -0.200 F 
ATOM     87  F   UNL A   1      33.264  34.242  30.085  1.00  0.00    -0.200 F 
ENDBRANCH  53  77
BRANCH  65  88
ATOM     88  C   UNL A   1      42.975  34.851  33.280  1.00  0.00     0.064 A 
ATOM     89  C   UNL A   1      43.348  36.040  32.637  1.00  0.00     0.173 A 
ATOM     90  C   UNL A   1      42.904  34.858  34.682  1.00  0.00     0.173 A 
ATOM     91  F   UNL A   1      43.453  36.079  31.300  1.00  0.00    -0.203 F 
ATOM     92  C   UNL A   1      43.654  37.185  33.369  1.00  0.00     0.198 A 
ATOM     93  C   UNL A   1      43.181  36.013  35.409  1.00  0.00     0.198 A 
ATOM     94  F   UNL A   1      42.553  33.748  35.347  1.00  0.00    -0.203 F 
ATOM     95  F   UNL A   1      44.049  38.297  32.734  1.00  0.00    -0.200 F 
ATOM     96  C   UNL A   1      43.561  37.174  34.752  1.00  0.00     0.200 A 
ATOM     97  F   UNL A   1      43.081  36.003  36.745  1.00  0.00    -0.200 F 
ATOM     98  F   UNL A   1      43.844  38.280  35.454  1.00  0.00    -0.200 F 
ENDBRANCH  65  88
ENDBRANCH  39  40
ENDBRANCH  31  34
ENDBRANCH  29  30
ENDBRANCH  28  29
ENDBRANCH   1  28
TORSDOF 15
ENDMDL
MODEL 3
REMARK VINA RESULT:     -12.3      4.587     10.345
REMARK SMILES COc1ccc(OC)c(/C=N/[NH+]=C2/NC(=O)[C@@H](CC(=O)NCCCNC(=O)c3ccc(-c4c5nc(c(-c6c(F)c(F)c(F)c(F)c6F)c6ccc([nH]6)c(-c6c(F)c(F)c(F)c(F)c6F)c6nc(c(-c7c(F)c(F)c(F)c(F)c7F)c7ccc4[nH]7)C=C6)C=C5)cc3)S2)c1
REMARK SMILES IDX 22 1 21 2 19 3 20 4 18 6 17 7 12 8 13 9 14 11 91 12 15 13
REMARK SMILES IDX 16 15 11 16 10 17 9 18 3 19 4 20 92 21 5 22 6 23 2 24 1 25
REMARK SMILES IDX 7 26 8 27 23 28 24 29 25 30 26 31 27 33 28 34 29 35 90 36
REMARK SMILES IDX 30 37 89 38 31 39 32 40 33 41 83 42 34 43 88 44 82 45 84 46
REMARK SMILES IDX 35 47 87 48 81 49 80 50 36 52 68 53 48 54 67 55 49 56 52 57
REMARK SMILES IDX 66 58 85 59 50 60 51 61 65 63 86 64 53 65 37 66 38 67 46 68
REMARK SMILES IDX 39 69 40 70 44 71 47 72 41 73 42 74 45 75 43 76 69 77 70 78
REMARK SMILES IDX 78 79 71 80 72 81 76 82 79 83 73 84 74 85 77 86 75 87 54 88
REMARK SMILES IDX 55 89 63 90 56 91 57 92 61 93 64 94 58 95 59 96 62 97 60 98
REMARK H PARENT 21 5 12 10 14 14 25 32 84 51 52 62
REMARK Flexibility Score: inf
ROOT
ATOM      1  C   UNL A   1      36.545  20.133  24.943  1.00  0.00     0.117 C 
ENDROOT
BRANCH   1   2
ATOM      2  N   UNL A   1      36.789  21.545  25.205  1.00  0.00    -0.356 N 
ATOM      3  C   UNL A   1      35.981  22.541  25.661  1.00  0.00     0.221 C 
ATOM      4  O   UNL A   1      36.475  23.663  25.788  1.00  0.00    -0.275 OA
ATOM      5  H   UNL A   1      37.711  21.833  25.019  1.00  0.00     0.163 HD
BRANCH   3   6
ATOM      6  C   UNL A   1      34.535  22.287  26.018  1.00  0.00     0.127 C 
BRANCH   6   7
ATOM      7  C   UNL A   1      33.729  23.476  26.546  1.00  0.00     0.183 C 
ATOM      8  N   UNL A   1      30.259  24.280  25.089  1.00  0.00    -0.142 N 
ATOM      9  C   UNL A   1      31.367  24.072  25.708  1.00  0.00     0.337 C 
ATOM     10  H   UNL A   1      29.434  23.832  25.381  1.00  0.00     0.343 HD
ATOM     11  N   UNL A   1      31.368  23.268  26.795  1.00  0.00    -0.202 N 
ATOM     12  S   UNL A   1      32.967  24.609  25.330  1.00  0.00    -0.020 SA
ATOM     13  C   UNL A   1      32.562  22.949  27.359  1.00  0.00     0.322 C 
ATOM     14  H   UNL A   1      30.525  22.923  27.168  1.00  0.00     0.316 HD
ATOM     15  O   UNL A   1      32.665  22.263  28.369  1.00  0.00    -0.246 OA
BRANCH   8  16
ATOM     16  N   UNL A   1      30.241  25.149  23.996  1.00  0.00    -0.093 NA
ATOM     17  C   UNL A   1      29.676  26.285  24.250  1.00  0.00     0.170 C 
BRANCH  17  18
ATOM     18  C   UNL A   1      29.893  27.516  23.473  1.00  0.00     0.042 A 
ATOM     19  C   UNL A   1      28.795  29.417  22.415  1.00  0.00     0.119 A 
ATOM     20  C   UNL A   1      30.048  29.934  22.093  1.00  0.00     0.050 A 
ATOM     21  C   UNL A   1      28.718  28.206  23.105  1.00  0.00     0.060 A 
ATOM     22  C   UNL A   1      31.211  29.267  22.483  1.00  0.00     0.051 A 
ATOM     23  C   UNL A   1      31.154  28.059  23.189  1.00  0.00     0.128 A 
BRANCH  19  24
ATOM     24  O   UNL A   1      27.736  30.156  21.972  1.00  0.00    -0.497 OA
ATOM     25  C   UNL A   1      28.028  31.403  21.353  1.00  0.00     0.278 C 
ENDBRANCH  19  24
BRANCH  23  26
ATOM     26  O   UNL A   1      32.393  27.559  23.470  1.00  0.00    -0.496 OA
ATOM     27  C   UNL A   1      33.219  28.254  24.393  1.00  0.00     0.278 C 
ENDBRANCH  23  26
ENDBRANCH  17  18
ENDBRANCH   8  16
ENDBRANCH   6   7
ENDBRANCH   3   6
ENDBRANCH   1   2
BRANCH   1  28
ATOM     28  C   UNL A   1      37.828  19.300  24.997  1.00  0.00     0.042 C 
BRANCH  28  29
ATOM     29  C   UNL A   1      39.020  19.959  25.704  1.00  0.00     0.118 C 
BRANCH  29  30
ATOM     30  N   UNL A   1      40.146  19.055  25.845  1.00  0.00    -0.352 N 
ATOM     31  C   UNL A   1      41.482  19.324  26.034  1.00  0.00     0.251 C 
ATOM     32  H   UNL A   1      39.917  18.098  25.799  1.00  0.00     0.163 HD
ATOM     33  O   UNL A   1      42.294  18.415  25.884  1.00  0.00    -0.269 OA
BRANCH  31  34
ATOM     34  C   UNL A   1      41.976  20.677  26.403  1.00  0.00     0.039 A 
ATOM     35  C   UNL A   1      42.254  21.589  25.377  1.00  0.00     0.014 A 
ATOM     36  C   UNL A   1      42.281  21.029  27.719  1.00  0.00     0.014 A 
ATOM     37  C   UNL A   1      42.781  22.856  25.669  1.00  0.00     0.010 A 
ATOM     38  C   UNL A   1      42.767  22.314  28.010  1.00  0.00     0.010 A 
ATOM     39  C   UNL A   1      43.010  23.255  26.995  1.00  0.00    -0.014 A 
BRANCH  39  40
ATOM     40  C   UNL A   1      43.466  24.640  27.336  1.00  0.00     0.031 A 
ATOM     41  C   UNL A   1      42.493  25.697  27.798  1.00  0.00     0.074 A 
ATOM     42  C   UNL A   1      44.760  24.992  27.181  1.00  0.00     0.049 A 
ATOM     43  N   UNL A   1      42.701  26.973  28.027  1.00  0.00    -0.248 NA
ATOM     44  C   UNL A   1      41.111  25.265  28.045  1.00  0.00     0.031 C 
ATOM     45  C   UNL A   1      45.838  24.092  26.779  1.00  0.00     0.029 A 
ATOM     46  N   UNL A   1      45.384  26.214  27.308  1.00  0.00    -0.354 N 
ATOM     47  C   UNL A   1      41.487  27.488  28.463  1.00  0.00     0.074 A 
ATOM     48  C   UNL A   1      40.530  26.403  28.399  1.00  0.00     0.031 C 
ATOM     49  C   UNL A   1      46.974  24.793  26.651  1.00  0.00     0.029 A 
ATOM     50  C   UNL A   1      46.700  26.201  26.909  1.00  0.00     0.049 A 
ATOM     51  H   UNL A   1      44.932  27.019  27.651  1.00  0.00     0.167 HD
ATOM     52  C   UNL A   1      41.203  28.735  28.914  1.00  0.00     0.037 A 
ATOM     53  C   UNL A   1      47.585  27.198  26.724  1.00  0.00     0.037 A 
ATOM     54  C   UNL A   1      42.149  29.820  28.997  1.00  0.00     0.049 A 
ATOM     55  C   UNL A   1      47.210  28.607  27.082  1.00  0.00     0.074 A 
ATOM     56  C   UNL A   1      41.962  31.090  29.518  1.00  0.00     0.029 A 
ATOM     57  N   UNL A   1      43.454  29.774  28.530  1.00  0.00    -0.354 N 
ATOM     58  N   UNL A   1      46.083  29.059  27.568  1.00  0.00    -0.248 NA
ATOM     59  C   UNL A   1      48.242  29.639  26.899  1.00  0.00     0.031 C 
ATOM     60  C   UNL A   1      43.131  31.830  29.314  1.00  0.00     0.029 A 
ATOM     61  C   UNL A   1      44.066  31.007  28.711  1.00  0.00     0.049 A 
ATOM     62  H   UNL A   1      43.883  28.983  28.131  1.00  0.00     0.167 HD
ATOM     63  C   UNL A   1      46.282  30.414  27.793  1.00  0.00     0.074 A 
ATOM     64  C   UNL A   1      47.637  30.714  27.386  1.00  0.00     0.031 C 
ATOM     65  C   UNL A   1      45.415  31.318  28.311  1.00  0.00     0.037 A 
BRANCH  52  66
ATOM     66  C   UNL A   1      39.799  29.003  29.374  1.00  0.00     0.064 A 
ATOM     67  C   UNL A   1      38.809  29.447  28.484  1.00  0.00     0.173 A 
ATOM     68  C   UNL A   1      39.421  28.753  30.703  1.00  0.00     0.173 A 
ATOM     69  F   UNL A   1      39.116  29.701  27.203  1.00  0.00    -0.203 F 
ATOM     70  C   UNL A   1      37.501  29.660  28.914  1.00  0.00     0.198 A 
ATOM     71  C   UNL A   1      38.106  28.939  31.121  1.00  0.00     0.198 A 
ATOM     72  F   UNL A   1      40.325  28.313  31.591  1.00  0.00    -0.203 F 
ATOM     73  F   UNL A   1      36.583  30.126  28.056  1.00  0.00    -0.200 F 
ATOM     74  C   UNL A   1      37.150  29.400  30.229  1.00  0.00     0.200 A 
ATOM     75  F   UNL A   1      37.763  28.670  32.389  1.00  0.00    -0.200 F 
ATOM     76  F   UNL A   1      35.889  29.596  30.639  1.00  0.00    -0.200 F 
ENDBRANCH  52  66
BRANCH  53  77
ATOM     77  C   UNL A   1      48.928  26.899  26.160  1.00  0.00     0.064 A 
ATOM     78  C   UNL A   1      49.177  27.010  24.787  1.00  0.00     0.173 A 
ATOM     79  C   UNL A   1      49.981  26.481  26.986  1.00  0.00     0.173 A 
ATOM     80  F   UNL A   1      48.192  27.381  23.956  1.00  0.00    -0.203 F 
ATOM     81  C   UNL A   1      50.428  26.700  24.257  1.00  0.00     0.198 A 
ATOM     82  C   UNL A   1      51.239  26.193  26.458  1.00  0.00     0.198 A 
ATOM     83  F   UNL A   1      49.790  26.355  28.307  1.00  0.00    -0.203 F 
ATOM     84  F   UNL A   1      50.630  26.776  22.935  1.00  0.00    -0.200 F 
ATOM     85  C   UNL A   1      51.459  26.297  25.093  1.00  0.00     0.200 A 
ATOM     86  F   UNL A   1      52.235  25.812  27.269  1.00  0.00    -0.200 F 
ATOM     87  F   UNL A   1      52.661  26.001  24.582  1.00  0.00    -0.200 F 
ENDBRANCH  53  77
BRANCH  65  88
ATOM     88  C   UNL A   1      45.911  32.721  28.509  1.00  0.00     0.064 A 
ATOM     89  C   UNL A   1      46.589  33.104  29.674  1.00  0.00     0.173 A 
ATOM     90  C   UNL A   1      45.737  33.685  27.502  1.00  0.00     0.173 A 
ATOM     91  F   UNL A   1      46.760  32.228  30.674  1.00  0.00    -0.203 F 
ATOM     92  C   UNL A   1      47.061  34.406  29.832  1.00  0.00     0.198 A 
ATOM     93  C   UNL A   1      46.237  34.975  27.652  1.00  0.00     0.198 A 
ATOM     94  F   UNL A   1      45.095  33.370  26.368  1.00  0.00    -0.203 F 
ATOM     95  F   UNL A   1      47.670  34.761  30.972  1.00  0.00    -0.200 F 
ATOM     96  C   UNL A   1      46.894  35.336  28.819  1.00  0.00     0.200 A 
ATOM     97  F   UNL A   1      46.083  35.871  26.666  1.00  0.00    -0.200 F 
ATOM     98  F   UNL A   1      47.359  36.584  28.968  1.00  0.00    -0.200 F 
ENDBRANCH  65  88
ENDBRANCH  39  40
ENDBRANCH  31  34
ENDBRANCH  29  30
ENDBRANCH  28  29
ENDBRANCH   1  28
TORSDOF 15
ENDMDL
