MODEL 1
REMARK VINA RESULT:     -14.2      0.000      0.000
REMARK SMILES Nc1ccc(-c2cc(Cl)cc3c2O[C@H](C(F)(F)F)C(C(=O)NCCCNC(=O)c2ccc(-c4c5nc(c(-c6c(F)c(F)c(F)c(F)c6F)c6ccc([nH]6)c(-c6c(F)c(F)c(F)c(F)c6F)c6nc(c(-c7c(F)c(F)c(F)c(F)c7F)c7ccc4[nH]7)C=C6)C=C5)cc2)=C3)cc1
REMARK SMILES IDX 24 1 23 2 22 3 20 4 21 5 19 7 6 8 7 9 12 10 8 11 11 12 13 13
REMARK SMILES IDX 9 14 10 15 92 16 14 17 5 18 2 19 3 20 94 21 4 22 93 23 1 24
REMARK SMILES IDX 15 27 16 28 17 29 18 30 25 31 26 32 27 33 28 35 29 36 30 37
REMARK SMILES IDX 91 38 31 39 90 40 32 41 33 42 34 43 84 44 35 45 89 46 83 47
REMARK SMILES IDX 85 48 36 49 88 50 82 51 81 52 37 54 69 55 49 56 68 57 50 58
REMARK SMILES IDX 53 59 67 60 86 61 51 62 52 63 66 65 87 66 54 67 38 68 39 69
REMARK SMILES IDX 47 70 40 71 41 72 45 73 48 74 42 75 43 76 46 77 44 78 70 79
REMARK SMILES IDX 71 80 79 81 72 82 73 83 77 84 80 85 74 86 75 87 78 88 76 89
REMARK SMILES IDX 55 90 56 91 64 92 57 93 58 94 62 95 65 96 59 97 60 98 63 99
REMARK SMILES IDX 61 100
REMARK H PARENT 22 6 1 25 1 26 26 34 85 53 53 64
REMARK Flexibility Score: inf
ROOT
ATOM      1  C   UNL A   1      31.564  31.781  26.537  1.00  0.00     0.042 C 
ENDROOT
BRANCH   1   2
ATOM      2  C   UNL A   1      31.973  30.419  25.996  1.00  0.00     0.118 C 
BRANCH   2   3
ATOM      3  N   UNL A   1      33.342  30.076  26.347  1.00  0.00    -0.352 N 
ATOM      4  C   UNL A   1      34.185  29.033  26.147  1.00  0.00     0.251 C 
ATOM      5  O   UNL A   1      35.314  29.172  26.629  1.00  0.00    -0.270 OA
ATOM      6  H   UNL A   1      33.772  30.792  26.868  1.00  0.00     0.163 HD
BRANCH   4   7
ATOM      7  C   UNL A   1      33.842  27.779  25.418  1.00  0.00     0.067 C 
ATOM      8  C   UNL A   1      33.134  24.229  23.273  1.00  0.00     0.026 A 
ATOM      9  C   UNL A   1      32.869  24.314  21.899  1.00  0.00     0.033 A 
ATOM     10  C   UNL A   1      33.458  25.417  23.956  1.00  0.00     0.135 A 
ATOM     11  C   UNL A   1      32.925  25.547  21.244  1.00  0.00     0.042 A 
ATOM     12  C   UNL A   1      33.504  26.656  23.304  1.00  0.00     0.019 A 
ATOM     13  O   UNL A   1      33.787  25.315  25.285  1.00  0.00    -0.475 OA
ATOM     14  Cl  UNL A   1      32.596  25.626  19.555  1.00  0.00    -0.084 Cl
ATOM     15  C   UNL A   1      33.241  26.717  21.937  1.00  0.00     0.032 A 
ATOM     16  C   UNL A   1      33.850  27.850  24.072  1.00  0.00     0.025 C 
ATOM     17  C   UNL A   1      33.492  26.484  26.089  1.00  0.00     0.314 C 
BRANCH   8  18
ATOM     18  C   UNL A   1      33.052  22.943  23.983  1.00  0.00    -0.014 A 
ATOM     19  C   UNL A   1      32.926  20.544  25.486  1.00  0.00     0.031 A 
ATOM     20  C   UNL A   1      31.834  21.407  25.435  1.00  0.00     0.026 A 
ATOM     21  C   UNL A   1      34.088  20.897  24.797  1.00  0.00     0.026 A 
ATOM     22  C   UNL A   1      31.888  22.582  24.679  1.00  0.00     0.011 A 
ATOM     23  C   UNL A   1      34.149  22.074  24.042  1.00  0.00     0.011 A 
BRANCH  19  24
ATOM     24  N   UNL A   1      32.905  19.431  26.310  1.00  0.00    -0.399 N 
ATOM     25  H   UNL A   1      33.305  18.585  26.003  1.00  0.00     0.156 HD
ATOM     26  H   UNL A   1      32.491  19.485  27.202  1.00  0.00     0.156 HD
ENDBRANCH  19  24
ENDBRANCH   8  18
BRANCH  17  27
ATOM     27  C   UNL A   1      32.030  26.428  26.576  1.00  0.00     0.429 C 
ATOM     28  F   UNL A   1      31.704  25.166  26.949  1.00  0.00    -0.167 F 
ATOM     29  F   UNL A   1      31.814  27.217  27.657  1.00  0.00    -0.167 F 
ATOM     30  F   UNL A   1      31.143  26.812  25.632  1.00  0.00    -0.167 F 
ENDBRANCH  17  27
ENDBRANCH   4   7
ENDBRANCH   2   3
ENDBRANCH   1   2
BRANCH   1  31
ATOM     31  C   UNL A   1      32.673  32.451  27.337  1.00  0.00     0.118 C 
BRANCH  31  32
ATOM     32  N   UNL A   1      32.397  33.862  27.605  1.00  0.00    -0.352 N 
ATOM     33  C   UNL A   1      32.981  34.732  28.494  1.00  0.00     0.251 C 
ATOM     34  H   UNL A   1      31.676  34.252  27.059  1.00  0.00     0.163 HD
ATOM     35  O   UNL A   1      32.483  35.839  28.680  1.00  0.00    -0.269 OA
BRANCH  33  36
ATOM     36  C   UNL A   1      34.184  34.329  29.248  1.00  0.00     0.039 A 
ATOM     37  C   UNL A   1      35.456  34.596  28.745  1.00  0.00     0.014 A 
ATOM     38  C   UNL A   1      34.041  33.660  30.469  1.00  0.00     0.014 A 
ATOM     39  C   UNL A   1      36.564  34.014  29.342  1.00  0.00     0.010 A 
ATOM     40  C   UNL A   1      35.173  33.175  31.133  1.00  0.00     0.010 A 
ATOM     41  C   UNL A   1      36.439  33.294  30.542  1.00  0.00    -0.014 A 
BRANCH  41  42
ATOM     42  C   UNL A   1      37.656  32.669  31.124  1.00  0.00     0.031 A 
ATOM     43  C   UNL A   1      38.100  32.999  32.523  1.00  0.00     0.074 A 
ATOM     44  C   UNL A   1      38.291  31.712  30.420  1.00  0.00     0.049 A 
ATOM     45  N   UNL A   1      39.064  32.464  33.229  1.00  0.00    -0.248 NA
ATOM     46  C   UNL A   1      37.376  34.071  33.226  1.00  0.00     0.031 C 
ATOM     47  C   UNL A   1      37.947  31.308  29.056  1.00  0.00     0.029 A 
ATOM     48  N   UNL A   1      39.312  30.865  30.769  1.00  0.00    -0.354 N 
ATOM     49  C   UNL A   1      39.075  33.141  34.441  1.00  0.00     0.074 A 
ATOM     50  C   UNL A   1      38.043  34.152  34.369  1.00  0.00     0.031 C 
ATOM     51  C   UNL A   1      38.671  30.231  28.721  1.00  0.00     0.029 A 
ATOM     52  C   UNL A   1      39.580  29.912  29.816  1.00  0.00     0.049 A 
ATOM     53  H   UNL A   1      39.804  30.932  31.620  1.00  0.00     0.167 HD
ATOM     54  C   UNL A   1      39.859  32.926  35.522  1.00  0.00     0.037 A 
ATOM     55  C   UNL A   1      40.458  28.891  29.823  1.00  0.00     0.037 A 
ATOM     56  C   UNL A   1      40.858  31.893  35.604  1.00  0.00     0.049 A 
ATOM     57  C   UNL A   1      41.337  28.695  31.023  1.00  0.00     0.074 A 
ATOM     58  C   UNL A   1      41.681  31.573  36.670  1.00  0.00     0.029 A 
ATOM     59  N   UNL A   1      41.164  31.007  34.582  1.00  0.00    -0.354 N 
ATOM     60  N   UNL A   1      41.326  29.337  32.166  1.00  0.00    -0.248 NA
ATOM     61  C   UNL A   1      42.366  27.650  30.928  1.00  0.00     0.031 C 
ATOM     62  C   UNL A   1      42.512  30.520  36.278  1.00  0.00     0.029 A 
ATOM     63  C   UNL A   1      42.182  30.158  34.982  1.00  0.00     0.049 A 
ATOM     64  H   UNL A   1      40.721  30.985  33.702  1.00  0.00     0.167 HD
ATOM     65  C   UNL A   1      42.345  28.781  32.924  1.00  0.00     0.074 A 
ATOM     66  C   UNL A   1      42.936  27.727  32.123  1.00  0.00     0.031 C 
ATOM     67  C   UNL A   1      42.761  29.123  34.167  1.00  0.00     0.037 A 
BRANCH  54  68
ATOM     68  C   UNL A   1      39.677  33.822  36.711  1.00  0.00     0.064 A 
ATOM     69  C   UNL A   1      40.272  35.091  36.773  1.00  0.00     0.173 A 
ATOM     70  C   UNL A   1      38.846  33.434  37.773  1.00  0.00     0.173 A 
ATOM     71  F   UNL A   1      41.084  35.505  35.788  1.00  0.00    -0.203 F 
ATOM     72  C   UNL A   1      40.056  35.931  37.862  1.00  0.00     0.198 A 
ATOM     73  C   UNL A   1      38.612  34.288  38.849  1.00  0.00     0.198 A 
ATOM     74  F   UNL A   1      38.247  32.234  37.759  1.00  0.00    -0.203 F 
ATOM     75  F   UNL A   1      40.661  37.126  37.915  1.00  0.00    -0.200 F 
ATOM     76  C   UNL A   1      39.220  35.533  38.894  1.00  0.00     0.200 A 
ATOM     77  F   UNL A   1      37.795  33.906  39.840  1.00  0.00    -0.200 F 
ATOM     78  F   UNL A   1      39.003  36.348  39.935  1.00  0.00    -0.200 F 
ENDBRANCH  54  68
BRANCH  55  79
ATOM     79  C   UNL A   1      40.529  27.978  28.654  1.00  0.00     0.064 A 
ATOM     80  C   UNL A   1      39.801  26.781  28.631  1.00  0.00     0.173 A 
ATOM     81  C   UNL A   1      41.286  28.303  27.519  1.00  0.00     0.173 A 
ATOM     82  F   UNL A   1      39.075  26.418  29.700  1.00  0.00    -0.203 F 
ATOM     83  C   UNL A   1      39.826  25.945  27.517  1.00  0.00     0.198 A 
ATOM     84  C   UNL A   1      41.289  27.481  26.395  1.00  0.00     0.198 A 
ATOM     85  F   UNL A   1      41.999  29.439  27.491  1.00  0.00    -0.203 F 
ATOM     86  F   UNL A   1      39.138  24.795  27.529  1.00  0.00    -0.200 F 
ATOM     87  C   UNL A   1      40.561  26.301  26.395  1.00  0.00     0.200 A 
ATOM     88  F   UNL A   1      41.985  27.838  25.308  1.00  0.00    -0.200 F 
ATOM     89  F   UNL A   1      40.568  25.507  25.316  1.00  0.00    -0.200 F 
ENDBRANCH  55  79
BRANCH  67  90
ATOM     90  C   UNL A   1      43.921  28.366  34.740  1.00  0.00     0.064 A 
ATOM     91  C   UNL A   1      45.228  28.863  34.637  1.00  0.00     0.173 A 
ATOM     92  C   UNL A   1      43.716  27.189  35.472  1.00  0.00     0.173 A 
ATOM     93  F   UNL A   1      45.473  29.979  33.934  1.00  0.00    -0.203 F 
ATOM     94  C   UNL A   1      46.290  28.205  35.249  1.00  0.00     0.198 A 
ATOM     95  C   UNL A   1      44.778  26.546  36.102  1.00  0.00     0.198 A 
ATOM     96  F   UNL A   1      42.482  26.679  35.602  1.00  0.00    -0.203 F 
ATOM     97  F   UNL A   1      47.535  28.686  35.124  1.00  0.00    -0.200 F 
ATOM     98  C   UNL A   1      46.063  27.054  35.988  1.00  0.00     0.200 A 
ATOM     99  F   UNL A   1      44.556  25.442  36.827  1.00  0.00    -0.200 F 
ATOM    100  F   UNL A   1      47.085  26.433  36.595  1.00  0.00    -0.200 F 
ENDBRANCH  67  90
ENDBRANCH  41  42
ENDBRANCH  33  36
ENDBRANCH  31  32
ENDBRANCH   1  31
TORSDOF 13
ENDMDL
MODEL 2
REMARK VINA RESULT:     -14.1      5.412     10.500
REMARK SMILES Nc1ccc(-c2cc(Cl)cc3c2O[C@H](C(F)(F)F)C(C(=O)NCCCNC(=O)c2ccc(-c4c5nc(c(-c6c(F)c(F)c(F)c(F)c6F)c6ccc([nH]6)c(-c6c(F)c(F)c(F)c(F)c6F)c6nc(c(-c7c(F)c(F)c(F)c(F)c7F)c7ccc4[nH]7)C=C6)C=C5)cc2)=C3)cc1
REMARK SMILES IDX 24 1 23 2 22 3 20 4 21 5 19 7 6 8 7 9 12 10 8 11 11 12 13 13
REMARK SMILES IDX 9 14 10 15 92 16 14 17 5 18 2 19 3 20 94 21 4 22 93 23 1 24
REMARK SMILES IDX 15 27 16 28 17 29 18 30 25 31 26 32 27 33 28 35 29 36 30 37
REMARK SMILES IDX 91 38 31 39 90 40 32 41 33 42 34 43 84 44 35 45 89 46 83 47
REMARK SMILES IDX 85 48 36 49 88 50 82 51 81 52 37 54 69 55 49 56 68 57 50 58
REMARK SMILES IDX 53 59 67 60 86 61 51 62 52 63 66 65 87 66 54 67 38 68 39 69
REMARK SMILES IDX 47 70 40 71 41 72 45 73 48 74 42 75 43 76 46 77 44 78 70 79
REMARK SMILES IDX 71 80 79 81 72 82 73 83 77 84 80 85 74 86 75 87 78 88 76 89
REMARK SMILES IDX 55 90 56 91 64 92 57 93 58 94 62 95 65 96 59 97 60 98 63 99
REMARK SMILES IDX 61 100
REMARK H PARENT 22 6 1 25 1 26 26 34 85 53 53 64
REMARK Flexibility Score: inf
ROOT
ATOM      1  C   UNL A   1      37.902  19.897  25.004  1.00  0.00     0.042 C 
ENDROOT
BRANCH   1   2
ATOM      2  C   UNL A   1      36.828  20.970  25.085  1.00  0.00     0.118 C 
BRANCH   2   3
ATOM      3  N   UNL A   1      37.273  22.140  25.826  1.00  0.00    -0.352 N 
ATOM      4  C   UNL A   1      36.743  23.323  26.223  1.00  0.00     0.251 C 
ATOM      5  O   UNL A   1      37.505  24.046  26.873  1.00  0.00    -0.270 OA
ATOM      6  H   UNL A   1      38.209  22.049  26.116  1.00  0.00     0.163 HD
BRANCH   4   7
ATOM      7  C   UNL A   1      35.357  23.785  25.928  1.00  0.00     0.067 C 
ATOM      8  C   UNL A   1      31.447  25.222  25.336  1.00  0.00     0.026 A 
ATOM      9  C   UNL A   1      30.380  24.532  25.929  1.00  0.00     0.033 A 
ATOM     10  C   UNL A   1      32.754  24.781  25.620  1.00  0.00     0.135 A 
ATOM     11  C   UNL A   1      30.622  23.441  26.768  1.00  0.00     0.042 A 
ATOM     12  C   UNL A   1      32.999  23.681  26.452  1.00  0.00     0.019 A 
ATOM     13  O   UNL A   1      33.795  25.505  25.094  1.00  0.00    -0.475 OA
ATOM     14  Cl  UNL A   1      29.294  22.610  27.485  1.00  0.00    -0.084 Cl
ATOM     15  C   UNL A   1      31.924  23.012  27.033  1.00  0.00     0.032 A 
ATOM     16  C   UNL A   1      34.380  23.276  26.706  1.00  0.00     0.025 C 
ATOM     17  C   UNL A   1      35.007  24.753  24.837  1.00  0.00     0.314 C 
BRANCH   8  18
ATOM     18  C   UNL A   1      31.207  26.355  24.429  1.00  0.00    -0.014 A 
ATOM     19  C   UNL A   1      30.904  28.545  22.658  1.00  0.00     0.031 A 
ATOM     20  C   UNL A   1      31.061  27.252  22.165  1.00  0.00     0.026 A 
ATOM     21  C   UNL A   1      30.917  28.739  24.040  1.00  0.00     0.026 A 
ATOM     22  C   UNL A   1      31.193  26.167  23.039  1.00  0.00     0.011 A 
ATOM     23  C   UNL A   1      31.054  27.658  24.919  1.00  0.00     0.011 A 
BRANCH  19  24
ATOM     24  N   UNL A   1      30.870  29.627  21.794  1.00  0.00    -0.399 N 
ATOM     25  H   UNL A   1      30.337  30.423  22.023  1.00  0.00     0.156 HD
ATOM     26  H   UNL A   1      31.378  29.602  20.951  1.00  0.00     0.156 HD
ENDBRANCH  19  24
ENDBRANCH   8  18
BRANCH  17  27
ATOM     27  C   UNL A   1      34.927  24.095  23.445  1.00  0.00     0.429 C 
ATOM     28  F   UNL A   1      34.129  22.999  23.485  1.00  0.00    -0.167 F 
ATOM     29  F   UNL A   1      34.398  24.922  22.511  1.00  0.00    -0.167 F 
ATOM     30  F   UNL A   1      36.131  23.700  22.976  1.00  0.00    -0.167 F 
ENDBRANCH  17  27
ENDBRANCH   4   7
ENDBRANCH   2   3
ENDBRANCH   1   2
BRANCH   1  31
ATOM     31  C   UNL A   1      39.167  20.274  25.764  1.00  0.00     0.118 C 
BRANCH  31  32
ATOM     32  N   UNL A   1      40.156  19.197  25.777  1.00  0.00    -0.352 N 
ATOM     33  C   UNL A   1      41.511  19.233  26.002  1.00  0.00     0.251 C 
ATOM     34  H   UNL A   1      39.792  18.301  25.595  1.00  0.00     0.163 HD
ATOM     35  O   UNL A   1      42.190  18.230  25.800  1.00  0.00    -0.269 OA
BRANCH  33  36
ATOM     36  C   UNL A   1      42.157  20.480  26.457  1.00  0.00     0.039 A 
ATOM     37  C   UNL A   1      42.203  20.799  27.812  1.00  0.00     0.014 A 
ATOM     38  C   UNL A   1      42.711  21.352  25.513  1.00  0.00     0.014 A 
ATOM     39  C   UNL A   1      42.602  22.069  28.203  1.00  0.00     0.010 A 
ATOM     40  C   UNL A   1      43.223  22.587  25.925  1.00  0.00     0.010 A 
ATOM     41  C   UNL A   1      43.114  22.981  27.266  1.00  0.00    -0.014 A 
BRANCH  41  42
ATOM     42  C   UNL A   1      43.502  24.337  27.736  1.00  0.00     0.031 A 
ATOM     43  C   UNL A   1      44.933  24.797  27.674  1.00  0.00     0.074 A 
ATOM     44  C   UNL A   1      42.531  25.194  28.112  1.00  0.00     0.049 A 
ATOM     45  N   UNL A   1      45.429  25.982  27.930  1.00  0.00    -0.248 NA
ATOM     46  C   UNL A   1      45.945  23.803  27.278  1.00  0.00     0.031 C 
ATOM     47  C   UNL A   1      41.110  24.858  28.208  1.00  0.00     0.029 A 
ATOM     48  N   UNL A   1      42.578  26.529  28.420  1.00  0.00    -0.354 N 
ATOM     49  C   UNL A   1      46.801  25.871  27.746  1.00  0.00     0.074 A 
ATOM     50  C   UNL A   1      47.070  24.496  27.389  1.00  0.00     0.031 C 
ATOM     51  C   UNL A   1      40.410  25.975  28.454  1.00  0.00     0.029 A 
ATOM     52  C   UNL A   1      41.337  27.091  28.603  1.00  0.00     0.049 A 
ATOM     53  H   UNL A   1      43.419  27.036  28.503  1.00  0.00     0.167 HD
ATOM     54  C   UNL A   1      47.747  26.833  27.847  1.00  0.00     0.037 A 
ATOM     55  C   UNL A   1      40.983  28.364  28.859  1.00  0.00     0.037 A 
ATOM     56  C   UNL A   1      47.470  28.210  28.165  1.00  0.00     0.049 A 
ATOM     57  C   UNL A   1      42.056  29.405  28.997  1.00  0.00     0.074 A 
ATOM     58  C   UNL A   1      48.359  29.267  28.257  1.00  0.00     0.029 A 
ATOM     59  N   UNL A   1      46.210  28.719  28.435  1.00  0.00    -0.354 N 
ATOM     60  N   UNL A   1      43.348  29.286  28.808  1.00  0.00    -0.248 NA
ATOM     61  C   UNL A   1      41.626  30.750  29.404  1.00  0.00     0.031 C 
ATOM     62  C   UNL A   1      47.639  30.409  28.622  1.00  0.00     0.029 A 
ATOM     63  C   UNL A   1      46.299  30.072  28.720  1.00  0.00     0.049 A 
ATOM     64  H   UNL A   1      45.375  28.197  28.424  1.00  0.00     0.167 HD
ATOM     65  C   UNL A   1      43.887  30.534  29.079  1.00  0.00     0.074 A 
ATOM     66  C   UNL A   1      42.779  31.406  29.415  1.00  0.00     0.031 C 
ATOM     67  C   UNL A   1      45.186  30.919  29.062  1.00  0.00     0.037 A 
BRANCH  54  68
ATOM     68  C   UNL A   1      49.176  26.440  27.614  1.00  0.00     0.064 A 
ATOM     69  C   UNL A   1      49.713  26.355  26.321  1.00  0.00     0.173 A 
ATOM     70  C   UNL A   1      50.036  26.208  28.699  1.00  0.00     0.173 A 
ATOM     71  F   UNL A   1      48.930  26.557  25.250  1.00  0.00    -0.203 F 
ATOM     72  C   UNL A   1      51.054  26.035  26.122  1.00  0.00     0.198 A 
ATOM     73  C   UNL A   1      51.382  25.913  28.496  1.00  0.00     0.198 A 
ATOM     74  F   UNL A   1      49.574  26.285  29.956  1.00  0.00    -0.203 F 
ATOM     75  F   UNL A   1      51.537  25.927  24.877  1.00  0.00    -0.200 F 
ATOM     76  C   UNL A   1      51.888  25.823  27.209  1.00  0.00     0.200 A 
ATOM     77  F   UNL A   1      52.189  25.720  29.548  1.00  0.00    -0.200 F 
ATOM     78  F   UNL A   1      53.181  25.527  27.015  1.00  0.00    -0.200 F 
ENDBRANCH  54  68
BRANCH  55  79
ATOM     79  C   UNL A   1      39.546  28.713  28.988  1.00  0.00     0.064 A 
ATOM     80  C   UNL A   1      38.887  28.606  30.221  1.00  0.00     0.173 A 
ATOM     81  C   UNL A   1      38.812  29.202  27.897  1.00  0.00     0.173 A 
ATOM     82  F   UNL A   1      39.541  28.127  31.290  1.00  0.00    -0.203 F 
ATOM     83  C   UNL A   1      37.552  28.978  30.357  1.00  0.00     0.198 A 
ATOM     84  C   UNL A   1      37.486  29.600  28.041  1.00  0.00     0.198 A 
ATOM     85  F   UNL A   1      39.398  29.325  26.697  1.00  0.00    -0.203 F 
ATOM     86  F   UNL A   1      36.940  28.847  31.542  1.00  0.00    -0.200 F 
ATOM     87  C   UNL A   1      36.855  29.485  29.270  1.00  0.00     0.200 A 
ATOM     88  F   UNL A   1      36.823  30.106  26.992  1.00  0.00    -0.200 F 
ATOM     89  F   UNL A   1      35.577  29.862  29.407  1.00  0.00    -0.200 F 
ENDBRANCH  55  79
BRANCH  67  90
ATOM     90  C   UNL A   1      45.491  32.338  29.432  1.00  0.00     0.064 A 
ATOM     91  C   UNL A   1      45.843  32.682  30.744  1.00  0.00     0.173 A 
ATOM     92  C   UNL A   1      45.522  33.342  28.454  1.00  0.00     0.173 A 
ATOM     93  F   UNL A   1      45.814  31.757  31.715  1.00  0.00    -0.203 F 
ATOM     94  C   UNL A   1      46.215  33.984  31.065  1.00  0.00     0.198 A 
ATOM     95  C   UNL A   1      45.917  34.638  28.774  1.00  0.00     0.198 A 
ATOM     96  F   UNL A   1      45.200  33.059  27.183  1.00  0.00    -0.203 F 
ATOM     97  F   UNL A   1      46.529  34.296  32.330  1.00  0.00    -0.200 F 
ATOM     98  C   UNL A   1      46.261  34.957  30.079  1.00  0.00     0.200 A 
ATOM     99  F   UNL A   1      45.974  35.575  27.818  1.00  0.00    -0.200 F 
ATOM    100  F   UNL A   1      46.640  36.206  30.385  1.00  0.00    -0.200 F 
ENDBRANCH  67  90
ENDBRANCH  41  42
ENDBRANCH  33  36
ENDBRANCH  31  32
ENDBRANCH   1  31
TORSDOF 13
ENDMDL
MODEL 3
REMARK VINA RESULT:     -14.0      1.662      2.605
REMARK SMILES Nc1ccc(-c2cc(Cl)cc3c2O[C@H](C(F)(F)F)C(C(=O)NCCCNC(=O)c2ccc(-c4c5nc(c(-c6c(F)c(F)c(F)c(F)c6F)c6ccc([nH]6)c(-c6c(F)c(F)c(F)c(F)c6F)c6nc(c(-c7c(F)c(F)c(F)c(F)c7F)c7ccc4[nH]7)C=C6)C=C5)cc2)=C3)cc1
REMARK SMILES IDX 24 1 23 2 22 3 20 4 21 5 19 7 6 8 7 9 12 10 8 11 11 12 13 13
REMARK SMILES IDX 9 14 10 15 92 16 14 17 5 18 2 19 3 20 94 21 4 22 93 23 1 24
REMARK SMILES IDX 15 27 16 28 17 29 18 30 25 31 26 32 27 33 28 35 29 36 30 37
REMARK SMILES IDX 91 38 31 39 90 40 32 41 33 42 34 43 84 44 35 45 89 46 83 47
REMARK SMILES IDX 85 48 36 49 88 50 82 51 81 52 37 54 69 55 49 56 68 57 50 58
REMARK SMILES IDX 53 59 67 60 86 61 51 62 52 63 66 65 87 66 54 67 38 68 39 69
REMARK SMILES IDX 47 70 40 71 41 72 45 73 48 74 42 75 43 76 46 77 44 78 70 79
REMARK SMILES IDX 71 80 79 81 72 82 73 83 77 84 80 85 74 86 75 87 78 88 76 89
REMARK SMILES IDX 55 90 56 91 64 92 57 93 58 94 62 95 65 96 59 97 60 98 63 99
REMARK SMILES IDX 61 100
REMARK H PARENT 22 6 1 25 1 26 26 34 85 53 53 64
REMARK Flexibility Score: inf
ROOT
ATOM      1  C   UNL A   1      31.470  32.062  26.649  1.00  0.00     0.042 C 
ENDROOT
BRANCH   1   2
ATOM      2  C   UNL A   1      31.751  30.606  26.311  1.00  0.00     0.118 C 
BRANCH   2   3
ATOM      3  N   UNL A   1      31.322  30.260  24.965  1.00  0.00    -0.352 N 
ATOM      4  C   UNL A   1      31.218  29.136  24.216  1.00  0.00     0.251 C 
ATOM      5  O   UNL A   1      30.772  29.305  23.076  1.00  0.00    -0.270 OA
ATOM      6  H   UNL A   1      31.028  31.055  24.464  1.00  0.00     0.163 HD
BRANCH   4   7
ATOM      7  C   UNL A   1      31.601  27.767  24.664  1.00  0.00     0.067 C 
ATOM      8  C   UNL A   1      32.555  23.804  25.708  1.00  0.00     0.026 A 
ATOM      9  C   UNL A   1      31.593  23.033  26.376  1.00  0.00     0.033 A 
ATOM     10  C   UNL A   1      32.187  25.096  25.286  1.00  0.00     0.135 A 
ATOM     11  C   UNL A   1      30.315  23.548  26.612  1.00  0.00     0.042 A 
ATOM     12  C   UNL A   1      30.911  25.618  25.530  1.00  0.00     0.019 A 
ATOM     13  O   UNL A   1      33.110  25.816  24.569  1.00  0.00    -0.475 OA
ATOM     14  Cl  UNL A   1      29.150  22.582  27.435  1.00  0.00    -0.084 Cl
ATOM     15  C   UNL A   1      29.968  24.834  26.193  1.00  0.00     0.032 A 
ATOM     16  C   UNL A   1      30.593  26.966  25.064  1.00  0.00     0.025 C 
ATOM     17  C   UNL A   1      33.011  27.255  24.698  1.00  0.00     0.314 C 
BRANCH   8  18
ATOM     18  C   UNL A   1      33.913  23.287  25.476  1.00  0.00    -0.014 A 
ATOM     19  C   UNL A   1      36.570  22.438  24.977  1.00  0.00     0.031 A 
ATOM     20  C   UNL A   1      36.254  23.128  26.145  1.00  0.00     0.026 A 
ATOM     21  C   UNL A   1      35.554  22.190  24.053  1.00  0.00     0.026 A 
ATOM     22  C   UNL A   1      34.939  23.532  26.401  1.00  0.00     0.011 A 
ATOM     23  C   UNL A   1      34.238  22.596  24.301  1.00  0.00     0.011 A 
BRANCH  19  24
ATOM     24  N   UNL A   1      37.885  22.122  24.681  1.00  0.00    -0.399 N 
ATOM     25  H   UNL A   1      38.484  21.793  25.391  1.00  0.00     0.156 HD
ATOM     26  H   UNL A   1      38.223  22.226  23.762  1.00  0.00     0.156 HD
ENDBRANCH  19  24
ENDBRANCH   8  18
BRANCH  17  27
ATOM     27  C   UNL A   1      33.796  27.724  25.940  1.00  0.00     0.429 C 
ATOM     28  F   UNL A   1      34.797  26.854  26.222  1.00  0.00    -0.167 F 
ATOM     29  F   UNL A   1      34.379  28.934  25.758  1.00  0.00    -0.167 F 
ATOM     30  F   UNL A   1      33.027  27.826  27.046  1.00  0.00    -0.167 F 
ENDBRANCH  17  27
ENDBRANCH   4   7
ENDBRANCH   2   3
ENDBRANCH   1   2
BRANCH   1  31
ATOM     31  C   UNL A   1      32.650  32.744  27.330  1.00  0.00     0.118 C 
BRANCH  31  32
ATOM     32  N   UNL A   1      32.380  34.146  27.646  1.00  0.00    -0.352 N 
ATOM     33  C   UNL A   1      32.969  34.982  28.563  1.00  0.00     0.251 C 
ATOM     34  H   UNL A   1      31.662  34.558  27.114  1.00  0.00     0.163 HD
ATOM     35  O   UNL A   1      32.477  36.085  28.788  1.00  0.00    -0.269 OA
BRANCH  33  36
ATOM     36  C   UNL A   1      34.171  34.548  29.303  1.00  0.00     0.039 A 
ATOM     37  C   UNL A   1      35.442  34.773  28.780  1.00  0.00     0.014 A 
ATOM     38  C   UNL A   1      34.025  33.891  30.530  1.00  0.00     0.014 A 
ATOM     39  C   UNL A   1      36.541  34.162  29.365  1.00  0.00     0.010 A 
ATOM     40  C   UNL A   1      35.151  33.377  31.181  1.00  0.00     0.010 A 
ATOM     41  C   UNL A   1      36.411  33.453  30.571  1.00  0.00    -0.014 A 
BRANCH  41  42
ATOM     42  C   UNL A   1      37.617  32.796  31.141  1.00  0.00     0.031 A 
ATOM     43  C   UNL A   1      38.078  33.103  32.539  1.00  0.00     0.074 A 
ATOM     44  C   UNL A   1      38.226  31.829  30.425  1.00  0.00     0.049 A 
ATOM     45  N   UNL A   1      39.034  32.540  33.234  1.00  0.00    -0.248 NA
ATOM     46  C   UNL A   1      37.383  34.186  33.256  1.00  0.00     0.031 C 
ATOM     47  C   UNL A   1      37.864  31.445  29.059  1.00  0.00     0.029 A 
ATOM     48  N   UNL A   1      39.228  30.956  30.760  1.00  0.00    -0.354 N 
ATOM     49  C   UNL A   1      39.068  33.206  34.451  1.00  0.00     0.074 A 
ATOM     50  C   UNL A   1      38.060  34.241  34.395  1.00  0.00     0.031 C 
ATOM     51  C   UNL A   1      38.560  30.354  28.710  1.00  0.00     0.029 A 
ATOM     52  C   UNL A   1      39.468  30.005  29.797  1.00  0.00     0.049 A 
ATOM     53  H   UNL A   1      39.728  31.005  31.607  1.00  0.00     0.167 HD
ATOM     54  C   UNL A   1      39.855  32.964  35.525  1.00  0.00     0.037 A 
ATOM     55  C   UNL A   1      40.322  28.964  29.789  1.00  0.00     0.037 A 
ATOM     56  C   UNL A   1      40.830  31.907  35.592  1.00  0.00     0.049 A 
ATOM     57  C   UNL A   1      41.204  28.738  30.982  1.00  0.00     0.074 A 
ATOM     58  C   UNL A   1      41.652  31.560  36.651  1.00  0.00     0.029 A 
ATOM     59  N   UNL A   1      41.108  31.023  34.561  1.00  0.00    -0.354 N 
ATOM     60  N   UNL A   1      41.216  29.370  32.130  1.00  0.00    -0.248 NA
ATOM     61  C   UNL A   1      42.208  27.670  30.872  1.00  0.00     0.031 C 
ATOM     62  C   UNL A   1      42.456  30.490  36.244  1.00  0.00     0.029 A 
ATOM     63  C   UNL A   1      42.108  30.147  34.947  1.00  0.00     0.049 A 
ATOM     64  H   UNL A   1      40.659  31.019  33.684  1.00  0.00     0.167 HD
ATOM     65  C   UNL A   1      42.227  28.784  32.877  1.00  0.00     0.074 A 
ATOM     66  C   UNL A   1      42.788  27.724  32.063  1.00  0.00     0.031 C 
ATOM     67  C   UNL A   1      42.658  29.106  34.120  1.00  0.00     0.037 A 
BRANCH  54  68
ATOM     68  C   UNL A   1      39.701  33.854  36.723  1.00  0.00     0.064 A 
ATOM     69  C   UNL A   1      40.326  35.108  36.791  1.00  0.00     0.173 A 
ATOM     70  C   UNL A   1      38.868  33.477  37.788  1.00  0.00     0.173 A 
ATOM     71  F   UNL A   1      41.140  35.511  35.804  1.00  0.00    -0.203 F 
ATOM     72  C   UNL A   1      40.136  35.944  37.889  1.00  0.00     0.198 A 
ATOM     73  C   UNL A   1      38.661  34.326  38.872  1.00  0.00     0.198 A 
ATOM     74  F   UNL A   1      38.241  32.291  37.768  1.00  0.00    -0.203 F 
ATOM     75  F   UNL A   1      40.769  37.124  37.948  1.00  0.00    -0.200 F 
ATOM     76  C   UNL A   1      39.298  35.557  38.923  1.00  0.00     0.200 A 
ATOM     77  F   UNL A   1      37.841  33.955  39.865  1.00  0.00    -0.200 F 
ATOM     78  F   UNL A   1      39.107  36.368  39.973  1.00  0.00    -0.200 F 
ENDBRANCH  54  68
BRANCH  55  79
ATOM     79  C   UNL A   1      40.364  28.060  28.613  1.00  0.00     0.064 A 
ATOM     80  C   UNL A   1      41.103  28.399  27.471  1.00  0.00     0.173 A 
ATOM     81  C   UNL A   1      39.708  26.820  28.620  1.00  0.00     0.173 A 
ATOM     82  F   UNL A   1      41.734  29.581  27.409  1.00  0.00    -0.203 F 
ATOM     83  C   UNL A   1      41.185  27.532  26.384  1.00  0.00     0.198 A 
ATOM     84  C   UNL A   1      39.813  25.942  27.545  1.00  0.00     0.198 A 
ATOM     85  F   UNL A   1      38.990  26.448  29.691  1.00  0.00    -0.203 F 
ATOM     86  F   UNL A   1      41.881  27.890  25.296  1.00  0.00    -0.200 F 
ATOM     87  C   UNL A   1      40.550  26.299  26.426  1.00  0.00     0.200 A 
ATOM     88  F   UNL A   1      39.213  24.746  27.598  1.00  0.00    -0.200 F 
ATOM     89  F   UNL A   1      40.646  25.457  25.388  1.00  0.00    -0.200 F 
ENDBRANCH  55  79
BRANCH  67  90
ATOM     90  C   UNL A   1      43.804  28.318  34.679  1.00  0.00     0.064 A 
ATOM     91  C   UNL A   1      43.586  27.112  35.360  1.00  0.00     0.173 A 
ATOM     92  C   UNL A   1      45.128  28.721  34.453  1.00  0.00     0.173 A 
ATOM     93  F   UNL A   1      42.336  26.694  35.610  1.00  0.00    -0.203 F 
ATOM     94  C   UNL A   1      44.655  26.337  35.797  1.00  0.00     0.198 A 
ATOM     95  C   UNL A   1      46.195  27.932  34.872  1.00  0.00     0.198 A 
ATOM     96  F   UNL A   1      45.385  29.864  33.800  1.00  0.00    -0.203 F 
ATOM     97  F   UNL A   1      44.426  25.197  36.463  1.00  0.00    -0.200 F 
ATOM     98  C   UNL A   1      45.958  26.742  35.544  1.00  0.00     0.200 A 
ATOM     99  F   UNL A   1      47.452  28.317  34.616  1.00  0.00    -0.200 F 
ATOM    100  F   UNL A   1      46.987  25.983  35.947  1.00  0.00    -0.200 F 
ENDBRANCH  67  90
ENDBRANCH  41  42
ENDBRANCH  33  36
ENDBRANCH  31  32
ENDBRANCH   1  31
TORSDOF 13
ENDMDL
