MODEL 1
REMARK VINA RESULT:     -12.5      0.000      0.000
REMARK SMILES Nc1nc(N2CCOC[C@H]2C(=O)NCCCNC(=O)c2ccc(-c3c4nc(c(-c5c(F)c(F)c(F)c(F)c5F)c5ccc([nH]5)c(-c5c(F)c(F)c(F)c(F)c5F)c5nc(c(-c6c(F)c(F)c(F)c(F)c6F)c6ccc3[nH]6)C=C5)C=C4)cc2)ccc1[N+](=O)[O-]
REMARK SMILES IDX 15 1 14 2 13 3 11 4 12 5 10 7 5 8 6 9 7 10 9 11 8 12 4 13
REMARK SMILES IDX 2 14 3 15 85 16 84 17 83 18 1 19 86 22 87 23 88 24 16 25
REMARK SMILES IDX 17 26 18 27 19 29 20 30 21 31 82 32 22 33 81 34 23 35 24 36
REMARK SMILES IDX 25 37 75 38 26 39 80 40 74 41 76 42 27 43 79 44 73 45 72 46
REMARK SMILES IDX 28 48 60 49 40 50 59 51 41 52 44 53 58 54 77 55 42 56 43 57
REMARK SMILES IDX 57 59 78 60 45 61 29 62 30 63 38 64 31 65 32 66 36 67 39 68
REMARK SMILES IDX 33 69 34 70 37 71 35 72 61 73 62 74 70 75 63 76 64 77 68 78
REMARK SMILES IDX 71 79 65 80 66 81 69 82 67 83 46 84 47 85 55 86 48 87 49 88
REMARK SMILES IDX 53 89 56 90 50 91 51 92 54 93 52 94
REMARK H PARENT 13 6 1 20 1 21 17 28 76 47 44 58
REMARK Flexibility Score: inf
ROOT
ATOM      1  C   UNL A   1      31.638  29.110  25.918  1.00  0.00     0.042 C 
ENDROOT
BRANCH   1   2
ATOM      2  C   UNL A   1      31.677  27.811  26.712  1.00  0.00     0.117 C 
BRANCH   2   3
ATOM      3  N   UNL A   1      32.895  27.068  26.472  1.00  0.00    -0.354 N 
ATOM      4  C   UNL A   1      33.157  25.929  25.772  1.00  0.00     0.245 C 
ATOM      5  O   UNL A   1      34.354  25.599  25.757  1.00  0.00    -0.273 OA
ATOM      6  H   UNL A   1      33.690  27.463  26.898  1.00  0.00     0.163 HD
BRANCH   4   7
ATOM      7  C   UNL A   1      32.120  25.113  24.963  1.00  0.00     0.199 C 
ATOM      8  N   UNL A   1      31.863  25.557  23.573  1.00  0.00    -0.340 N 
ATOM      9  C   UNL A   1      32.563  24.886  22.487  1.00  0.00     0.147 C 
ATOM     10  C   UNL A   1      32.529  23.372  22.686  1.00  0.00     0.181 C 
ATOM     11  C   UNL A   1      32.325  23.583  25.043  1.00  0.00     0.195 C 
ATOM     12  O   UNL A   1      33.069  23.000  23.958  1.00  0.00    -0.377 OA
BRANCH   8  13
ATOM     13  C   UNL A   1      30.953  26.567  23.343  1.00  0.00     0.132 A 
ATOM     14  C   UNL A   1      30.486  28.679  22.423  1.00  0.00     0.204 A 
ATOM     15  N   UNL A   1      31.365  27.685  22.707  1.00  0.00    -0.207 NA
ATOM     16  C   UNL A   1      29.149  28.584  22.789  1.00  0.00     0.311 A 
ATOM     17  C   UNL A   1      28.715  27.466  23.497  1.00  0.00     0.093 A 
ATOM     18  C   UNL A   1      29.630  26.456  23.771  1.00  0.00     0.054 A 
BRANCH  14  19
ATOM     19  N   UNL A   1      31.019  29.703  21.667  1.00  0.00    -0.378 N 
ATOM     20  H   UNL A   1      31.266  29.545  20.727  1.00  0.00     0.158 HD
ATOM     21  H   UNL A   1      31.151  30.594  22.067  1.00  0.00     0.158 HD
ENDBRANCH  14  19
BRANCH  16  22
ATOM     22  N   UNL A   1      28.185  29.624  22.465  1.00  0.00     0.066 N 
ATOM     23  O   UNL A   1      28.200  30.069  21.307  1.00  0.00    -0.258 OA
ATOM     24  O   UNL A   1      27.383  29.981  23.341  1.00  0.00    -0.258 OA
ENDBRANCH  16  22
ENDBRANCH   8  13
ENDBRANCH   4   7
ENDBRANCH   2   3
ENDBRANCH   1   2
BRANCH   1  25
ATOM     25  C   UNL A   1      32.941  29.893  25.968  1.00  0.00     0.118 C 
BRANCH  25  26
ATOM     26  N   UNL A   1      32.732  31.279  26.363  1.00  0.00    -0.352 N 
ATOM     27  C   UNL A   1      33.360  32.054  27.305  1.00  0.00     0.251 C 
ATOM     28  H   UNL A   1      32.016  31.740  25.867  1.00  0.00     0.163 HD
ATOM     29  O   UNL A   1      32.872  33.143  27.598  1.00  0.00    -0.269 OA
BRANCH  27  30
ATOM     30  C   UNL A   1      34.599  31.607  27.988  1.00  0.00     0.039 A 
ATOM     31  C   UNL A   1      34.638  30.310  28.512  1.00  0.00     0.014 A 
ATOM     32  C   UNL A   1      35.691  32.455  28.184  1.00  0.00     0.014 A 
ATOM     33  C   UNL A   1      35.774  29.859  29.192  1.00  0.00     0.010 A 
ATOM     34  C   UNL A   1      36.860  31.975  28.773  1.00  0.00     0.010 A 
ATOM     35  C   UNL A   1      36.905  30.683  29.310  1.00  0.00    -0.014 A 
BRANCH  35  36
ATOM     36  C   UNL A   1      38.118  30.212  30.028  1.00  0.00     0.031 A 
ATOM     37  C   UNL A   1      38.384  30.653  31.443  1.00  0.00     0.074 A 
ATOM     38  C   UNL A   1      38.999  29.413  29.396  1.00  0.00     0.049 A 
ATOM     39  N   UNL A   1      39.379  30.340  32.236  1.00  0.00    -0.248 NA
ATOM     40  C   UNL A   1      37.423  31.594  32.038  1.00  0.00     0.031 C 
ATOM     41  C   UNL A   1      38.897  28.978  28.002  1.00  0.00     0.029 A 
ATOM     42  N   UNL A   1      40.156  28.825  29.842  1.00  0.00    -0.354 N 
ATOM     43  C   UNL A   1      39.175  31.062  33.405  1.00  0.00     0.074 A 
ATOM     44  C   UNL A   1      37.995  31.872  33.200  1.00  0.00     0.031 C 
ATOM     45  C   UNL A   1      39.925  28.163  27.718  1.00  0.00     0.029 A 
ATOM     46  C   UNL A   1      40.770  28.035  28.902  1.00  0.00     0.049 A 
ATOM     47  H   UNL A   1      40.511  28.957  30.751  1.00  0.00     0.167 HD
ATOM     48  C   UNL A   1      39.888  31.033  34.556  1.00  0.00     0.037 A 
ATOM     49  C   UNL A   1      41.882  27.280  28.989  1.00  0.00     0.037 A 
ATOM     50  C   UNL A   1      41.036  30.193  34.772  1.00  0.00     0.049 A 
ATOM     51  C   UNL A   1      42.618  27.210  30.299  1.00  0.00     0.074 A 
ATOM     52  C   UNL A   1      41.786  30.032  35.925  1.00  0.00     0.029 A 
ATOM     53  N   UNL A   1      41.598  29.365  33.811  1.00  0.00    -0.354 N 
ATOM     54  N   UNL A   1      42.364  27.831  31.425  1.00  0.00    -0.248 NA
ATOM     55  C   UNL A   1      43.782  26.317  30.356  1.00  0.00     0.031 C 
ATOM     56  C   UNL A   1      42.821  29.131  35.651  1.00  0.00     0.029 A 
ATOM     57  C   UNL A   1      42.690  28.698  34.340  1.00  0.00     0.049 A 
ATOM     58  H   UNL A   1      41.267  29.266  32.889  1.00  0.00     0.167 HD
ATOM     59  C   UNL A   1      43.319  27.387  32.329  1.00  0.00     0.074 A 
ATOM     60  C   UNL A   1      44.146  26.428  31.626  1.00  0.00     0.031 C 
ATOM     61  C   UNL A   1      43.496  27.742  33.626  1.00  0.00     0.037 A 
BRANCH  48  62
ATOM     62  C   UNL A   1      39.438  31.928  35.674  1.00  0.00     0.064 A 
ATOM     63  C   UNL A   1      39.956  33.224  35.833  1.00  0.00     0.173 A 
ATOM     64  C   UNL A   1      38.461  31.497  36.584  1.00  0.00     0.173 A 
ATOM     65  F   UNL A   1      40.901  33.681  34.999  1.00  0.00    -0.203 F 
ATOM     66  C   UNL A   1      39.535  34.041  36.880  1.00  0.00     0.198 A 
ATOM     67  C   UNL A   1      38.021  32.329  37.612  1.00  0.00     0.198 A 
ATOM     68  F   UNL A   1      37.929  30.271  36.475  1.00  0.00    -0.203 F 
ATOM     69  F   UNL A   1      40.084  35.253  37.043  1.00  0.00    -0.200 F 
ATOM     70  C   UNL A   1      38.565  33.596  37.764  1.00  0.00     0.200 A 
ATOM     71  F   UNL A   1      37.073  31.902  38.459  1.00  0.00    -0.200 F 
ATOM     72  F   UNL A   1      38.158  34.384  38.769  1.00  0.00    -0.200 F 
ENDBRANCH  48  62
BRANCH  49  73
ATOM     73  C   UNL A   1      42.327  26.485  27.817  1.00  0.00     0.064 A 
ATOM     74  C   UNL A   1      41.760  25.232  27.542  1.00  0.00     0.173 A 
ATOM     75  C   UNL A   1      43.315  26.960  26.944  1.00  0.00     0.173 A 
ATOM     76  F   UNL A   1      40.823  24.728  28.358  1.00  0.00    -0.203 F 
ATOM     77  C   UNL A   1      42.177  24.479  26.447  1.00  0.00     0.198 A 
ATOM     78  C   UNL A   1      43.713  26.217  25.834  1.00  0.00     0.198 A 
ATOM     79  F   UNL A   1      43.882  28.157  27.159  1.00  0.00    -0.203 F 
ATOM     80  F   UNL A   1      41.645  23.268  26.229  1.00  0.00    -0.200 F 
ATOM     81  C   UNL A   1      43.149  24.974  25.591  1.00  0.00     0.200 A 
ATOM     82  F   UNL A   1      44.641  26.705  25.000  1.00  0.00    -0.200 F 
ATOM     83  F   UNL A   1      43.543  24.252  24.534  1.00  0.00    -0.200 F 
ENDBRANCH  49  73
BRANCH  61  84
ATOM     84  C   UNL A   1      44.607  27.066  34.373  1.00  0.00     0.064 A 
ATOM     85  C   UNL A   1      45.895  27.620  34.433  1.00  0.00     0.173 A 
ATOM     86  C   UNL A   1      44.374  25.863  35.055  1.00  0.00     0.173 A 
ATOM     87  F   UNL A   1      46.170  28.761  33.786  1.00  0.00    -0.203 F 
ATOM     88  C   UNL A   1      46.918  26.974  35.124  1.00  0.00     0.198 A 
ATOM     89  C   UNL A   1      45.392  25.236  35.769  1.00  0.00     0.198 A 
ATOM     90  F   UNL A   1      43.158  25.297  35.034  1.00  0.00    -0.203 F 
ATOM     91  F   UNL A   1      48.153  27.493  35.126  1.00  0.00    -0.200 F 
ATOM     92  C   UNL A   1      46.664  25.788  35.795  1.00  0.00     0.200 A 
ATOM     93  F   UNL A   1      45.143  24.095  36.425  1.00  0.00    -0.200 F 
ATOM     94  F   UNL A   1      47.649  25.169  36.460  1.00  0.00    -0.200 F 
ENDBRANCH  61  84
ENDBRANCH  35  36
ENDBRANCH  27  30
ENDBRANCH  25  26
ENDBRANCH   1  25
TORSDOF 13
ENDMDL
MODEL 2
REMARK VINA RESULT:     -12.5      0.786      1.836
REMARK SMILES Nc1nc(N2CCOC[C@H]2C(=O)NCCCNC(=O)c2ccc(-c3c4nc(c(-c5c(F)c(F)c(F)c(F)c5F)c5ccc([nH]5)c(-c5c(F)c(F)c(F)c(F)c5F)c5nc(c(-c6c(F)c(F)c(F)c(F)c6F)c6ccc3[nH]6)C=C5)C=C4)cc2)ccc1[N+](=O)[O-]
REMARK SMILES IDX 15 1 14 2 13 3 11 4 12 5 10 7 5 8 6 9 7 10 9 11 8 12 4 13
REMARK SMILES IDX 2 14 3 15 85 16 84 17 83 18 1 19 86 22 87 23 88 24 16 25
REMARK SMILES IDX 17 26 18 27 19 29 20 30 21 31 82 32 22 33 81 34 23 35 24 36
REMARK SMILES IDX 25 37 75 38 26 39 80 40 74 41 76 42 27 43 79 44 73 45 72 46
REMARK SMILES IDX 28 48 60 49 40 50 59 51 41 52 44 53 58 54 77 55 42 56 43 57
REMARK SMILES IDX 57 59 78 60 45 61 29 62 30 63 38 64 31 65 32 66 36 67 39 68
REMARK SMILES IDX 33 69 34 70 37 71 35 72 61 73 62 74 70 75 63 76 64 77 68 78
REMARK SMILES IDX 71 79 65 80 66 81 69 82 67 83 46 84 47 85 55 86 48 87 49 88
REMARK SMILES IDX 53 89 56 90 50 91 51 92 54 93 52 94
REMARK H PARENT 13 6 1 20 1 21 17 28 76 47 44 58
REMARK Flexibility Score: inf
ROOT
ATOM      1  C   UNL A   1      32.081  28.233  26.590  1.00  0.00     0.042 C 
ENDROOT
BRANCH   1   2
ATOM      2  C   UNL A   1      32.540  26.784  26.491  1.00  0.00     0.117 C 
BRANCH   2   3
ATOM      3  N   UNL A   1      31.484  25.859  26.843  1.00  0.00    -0.354 N 
ATOM      4  C   UNL A   1      30.704  25.025  26.100  1.00  0.00     0.245 C 
ATOM      5  O   UNL A   1      29.909  24.339  26.762  1.00  0.00    -0.273 OA
ATOM      6  H   UNL A   1      31.292  25.826  27.808  1.00  0.00     0.163 HD
BRANCH   4   7
ATOM      7  C   UNL A   1      30.805  24.828  24.567  1.00  0.00     0.199 C 
ATOM      8  N   UNL A   1      31.348  25.965  23.786  1.00  0.00    -0.340 N 
ATOM      9  C   UNL A   1      32.758  25.949  23.425  1.00  0.00     0.147 C 
ATOM     10  C   UNL A   1      33.160  24.571  22.903  1.00  0.00     0.181 C 
ATOM     11  C   UNL A   1      31.452  23.488  24.148  1.00  0.00     0.195 C 
ATOM     12  O   UNL A   1      32.859  23.545  23.854  1.00  0.00    -0.377 OA
BRANCH   8  13
ATOM     13  C   UNL A   1      30.505  26.984  23.400  1.00  0.00     0.132 A 
ATOM     14  C   UNL A   1      30.219  29.061  22.337  1.00  0.00     0.204 A 
ATOM     15  N   UNL A   1      31.026  28.061  22.773  1.00  0.00    -0.207 NA
ATOM     16  C   UNL A   1      28.845  29.017  22.537  1.00  0.00     0.311 A 
ATOM     17  C   UNL A   1      28.293  27.944  23.232  1.00  0.00     0.093 A 
ATOM     18  C   UNL A   1      29.136  26.926  23.663  1.00  0.00     0.054 A 
BRANCH  14  19
ATOM     19  N   UNL A   1      30.873  30.036  21.611  1.00  0.00    -0.378 N 
ATOM     20  H   UNL A   1      30.691  30.137  20.648  1.00  0.00     0.158 HD
ATOM     21  H   UNL A   1      31.520  30.631  22.055  1.00  0.00     0.158 HD
ENDBRANCH  14  19
BRANCH  16  22
ATOM     22  N   UNL A   1      27.961  30.064  22.049  1.00  0.00     0.066 N 
ATOM     23  O   UNL A   1      27.242  30.633  22.885  1.00  0.00    -0.258 OA
ATOM     24  O   UNL A   1      27.999  30.356  20.844  1.00  0.00    -0.258 OA
ENDBRANCH  16  22
ENDBRANCH   8  13
ENDBRANCH   4   7
ENDBRANCH   2   3
ENDBRANCH   1   2
BRANCH   1  25
ATOM     25  C   UNL A   1      32.943  29.199  25.792  1.00  0.00     0.118 C 
BRANCH  25  26
ATOM     26  N   UNL A   1      32.654  30.589  26.119  1.00  0.00    -0.352 N 
ATOM     27  C   UNL A   1      33.242  31.447  27.015  1.00  0.00     0.251 C 
ATOM     28  H   UNL A   1      31.909  30.981  25.608  1.00  0.00     0.163 HD
ATOM     29  O   UNL A   1      32.692  32.519  27.257  1.00  0.00    -0.269 OA
BRANCH  27  30
ATOM     30  C   UNL A   1      34.511  31.110  27.706  1.00  0.00     0.039 A 
ATOM     31  C   UNL A   1      34.687  29.802  28.173  1.00  0.00     0.014 A 
ATOM     32  C   UNL A   1      35.497  32.065  27.964  1.00  0.00     0.014 A 
ATOM     33  C   UNL A   1      35.853  29.450  28.859  1.00  0.00     0.010 A 
ATOM     34  C   UNL A   1      36.702  31.691  28.559  1.00  0.00     0.010 A 
ATOM     35  C   UNL A   1      36.882  30.389  29.039  1.00  0.00    -0.014 A 
BRANCH  35  36
ATOM     36  C   UNL A   1      38.127  30.023  29.764  1.00  0.00     0.031 A 
ATOM     37  C   UNL A   1      38.365  30.519  31.166  1.00  0.00     0.074 A 
ATOM     38  C   UNL A   1      39.060  29.271  29.149  1.00  0.00     0.049 A 
ATOM     39  N   UNL A   1      39.382  30.298  31.962  1.00  0.00    -0.248 NA
ATOM     40  C   UNL A   1      37.342  31.407  31.740  1.00  0.00     0.031 C 
ATOM     41  C   UNL A   1      38.985  28.793  27.768  1.00  0.00     0.029 A 
ATOM     42  N   UNL A   1      40.256  28.777  29.606  1.00  0.00    -0.354 N 
ATOM     43  C   UNL A   1      39.130  31.035  33.112  1.00  0.00     0.074 A 
ATOM     44  C   UNL A   1      37.896  31.755  32.892  1.00  0.00     0.031 C 
ATOM     45  C   UNL A   1      40.066  28.045  27.501  1.00  0.00     0.029 A 
ATOM     46  C   UNL A   1      40.922  28.008  28.684  1.00  0.00     0.049 A 
ATOM     47  H   UNL A   1      40.604  28.958  30.509  1.00  0.00     0.167 HD
ATOM     48  C   UNL A   1      39.847  31.087  34.261  1.00  0.00     0.037 A 
ATOM     49  C   UNL A   1      42.084  27.336  28.786  1.00  0.00     0.037 A 
ATOM     50  C   UNL A   1      41.052  30.336  34.494  1.00  0.00     0.049 A 
ATOM     51  C   UNL A   1      42.827  27.352  30.094  1.00  0.00     0.074 A 
ATOM     52  C   UNL A   1      41.814  30.258  35.647  1.00  0.00     0.029 A 
ATOM     53  N   UNL A   1      41.667  29.523  33.552  1.00  0.00    -0.354 N 
ATOM     54  N   UNL A   1      42.533  27.984  31.204  1.00  0.00    -0.248 NA
ATOM     55  C   UNL A   1      44.051  26.545  30.169  1.00  0.00     0.031 C 
ATOM     56  C   UNL A   1      42.909  29.426  35.392  1.00  0.00     0.029 A 
ATOM     57  C   UNL A   1      42.805  28.950  34.094  1.00  0.00     0.049 A 
ATOM     58  H   UNL A   1      41.342  29.377  32.635  1.00  0.00     0.167 HD
ATOM     59  C   UNL A   1      43.519  27.632  32.116  1.00  0.00     0.074 A 
ATOM     60  C   UNL A   1      44.409  26.715  31.435  1.00  0.00     0.031 C 
ATOM     61  C   UNL A   1      43.674  28.033  33.402  1.00  0.00     0.037 A 
BRANCH  48  62
ATOM     62  C   UNL A   1      39.338  31.978  35.357  1.00  0.00     0.064 A 
ATOM     63  C   UNL A   1      38.510  31.489  36.379  1.00  0.00     0.173 A 
ATOM     64  C   UNL A   1      39.701  33.333  35.401  1.00  0.00     0.173 A 
ATOM     65  F   UNL A   1      38.123  30.204  36.378  1.00  0.00    -0.203 F 
ATOM     66  C   UNL A   1      38.039  32.328  37.385  1.00  0.00     0.198 A 
ATOM     67  C   UNL A   1      39.252  34.163  36.426  1.00  0.00     0.198 A 
ATOM     68  F   UNL A   1      40.495  33.852  34.453  1.00  0.00    -0.203 F 
ATOM     69  F   UNL A   1      37.205  31.850  38.320  1.00  0.00    -0.200 F 
ATOM     70  C   UNL A   1      38.415  33.663  37.412  1.00  0.00     0.200 A 
ATOM     71  F   UNL A   1      39.627  35.450  36.457  1.00  0.00    -0.200 F 
ATOM     72  F   UNL A   1      37.964  34.469  38.382  1.00  0.00    -0.200 F 
ENDBRANCH  48  62
BRANCH  49  73
ATOM     73  C   UNL A   1      42.581  26.542  27.634  1.00  0.00     0.064 A 
ATOM     74  C   UNL A   1      42.119  25.238  27.407  1.00  0.00     0.173 A 
ATOM     75  C   UNL A   1      43.515  27.070  26.732  1.00  0.00     0.173 A 
ATOM     76  F   UNL A   1      41.237  24.684  28.252  1.00  0.00    -0.203 F 
ATOM     77  C   UNL A   1      42.584  24.486  26.331  1.00  0.00     0.198 A 
ATOM     78  C   UNL A   1      43.960  26.327  25.640  1.00  0.00     0.198 A 
ATOM     79  F   UNL A   1      43.981  28.316  26.900  1.00  0.00    -0.203 F 
ATOM     80  F   UNL A   1      42.154  23.229  26.159  1.00  0.00    -0.200 F 
ATOM     81  C   UNL A   1      43.501  25.033  25.445  1.00  0.00     0.200 A 
ATOM     82  F   UNL A   1      44.834  26.863  24.777  1.00  0.00    -0.200 F 
ATOM     83  F   UNL A   1      43.942  24.312  24.406  1.00  0.00    -0.200 F 
ENDBRANCH  49  73
BRANCH  61  84
ATOM     84  C   UNL A   1      44.832  27.457  34.162  1.00  0.00     0.064 A 
ATOM     85  C   UNL A   1      44.718  26.254  34.875  1.00  0.00     0.173 A 
ATOM     86  C   UNL A   1      46.076  28.106  34.157  1.00  0.00     0.173 A 
ATOM     87  F   UNL A   1      43.546  25.605  34.920  1.00  0.00    -0.203 F 
ATOM     88  C   UNL A   1      45.802  25.738  35.581  1.00  0.00     0.198 A 
ATOM     89  C   UNL A   1      47.164  27.571  34.841  1.00  0.00     0.198 A 
ATOM     90  F   UNL A   1      46.238  29.255  33.485  1.00  0.00    -0.203 F 
ATOM     91  F   UNL A   1      45.657  24.615  36.298  1.00  0.00    -0.200 F 
ATOM     92  C   UNL A   1      47.023  26.393  35.560  1.00  0.00     0.200 A 
ATOM     93  F   UNL A   1      48.347  28.200  34.811  1.00  0.00    -0.200 F 
ATOM     94  F   UNL A   1      48.064  25.895  36.241  1.00  0.00    -0.200 F 
ENDBRANCH  61  84
ENDBRANCH  35  36
ENDBRANCH  27  30
ENDBRANCH  25  26
ENDBRANCH   1  25
TORSDOF 13
ENDMDL
MODEL 3
REMARK VINA RESULT:     -12.3      4.820     10.212
REMARK SMILES Nc1nc(N2CCOC[C@H]2C(=O)NCCCNC(=O)c2ccc(-c3c4nc(c(-c5c(F)c(F)c(F)c(F)c5F)c5ccc([nH]5)c(-c5c(F)c(F)c(F)c(F)c5F)c5nc(c(-c6c(F)c(F)c(F)c(F)c6F)c6ccc3[nH]6)C=C5)C=C4)cc2)ccc1[N+](=O)[O-]
REMARK SMILES IDX 15 1 14 2 13 3 11 4 12 5 10 7 5 8 6 9 7 10 9 11 8 12 4 13
REMARK SMILES IDX 2 14 3 15 85 16 84 17 83 18 1 19 86 22 87 23 88 24 16 25
REMARK SMILES IDX 17 26 18 27 19 29 20 30 21 31 82 32 22 33 81 34 23 35 24 36
REMARK SMILES IDX 25 37 75 38 26 39 80 40 74 41 76 42 27 43 79 44 73 45 72 46
REMARK SMILES IDX 28 48 60 49 40 50 59 51 41 52 44 53 58 54 77 55 42 56 43 57
REMARK SMILES IDX 57 59 78 60 45 61 29 62 30 63 38 64 31 65 32 66 36 67 39 68
REMARK SMILES IDX 33 69 34 70 37 71 35 72 61 73 62 74 70 75 63 76 64 77 68 78
REMARK SMILES IDX 71 79 65 80 66 81 69 82 67 83 46 84 47 85 55 86 48 87 49 88
REMARK SMILES IDX 53 89 56 90 50 91 51 92 54 93 52 94
REMARK H PARENT 13 6 1 20 1 21 17 28 76 47 44 58
REMARK Flexibility Score: inf
ROOT
ATOM      1  C   UNL A   1      36.301  22.864  24.419  1.00  0.00     0.042 C 
ENDROOT
BRANCH   1   2
ATOM      2  C   UNL A   1      35.066  23.743  24.266  1.00  0.00     0.117 C 
BRANCH   2   3
ATOM      3  N   UNL A   1      34.552  23.721  22.914  1.00  0.00    -0.354 N 
ATOM      4  C   UNL A   1      33.386  23.261  22.380  1.00  0.00     0.245 C 
ATOM      5  O   UNL A   1      33.274  23.446  21.158  1.00  0.00    -0.273 OA
ATOM      6  H   UNL A   1      35.164  24.113  22.251  1.00  0.00     0.163 HD
BRANCH   4   7
ATOM      7  C   UNL A   1      32.216  22.636  23.178  1.00  0.00     0.199 C 
ATOM      8  N   UNL A   1      32.581  21.822  24.362  1.00  0.00    -0.340 N 
ATOM      9  C   UNL A   1      32.543  22.449  25.676  1.00  0.00     0.147 C 
ATOM     10  C   UNL A   1      31.266  23.270  25.839  1.00  0.00     0.181 C 
ATOM     11  C   UNL A   1      31.074  23.627  23.498  1.00  0.00     0.195 C 
ATOM     12  O   UNL A   1      31.134  24.243  24.797  1.00  0.00    -0.377 OA
BRANCH   8  13
ATOM     13  C   UNL A   1      32.914  20.495  24.194  1.00  0.00     0.132 A 
ATOM     14  C   UNL A   1      32.524  18.448  23.107  1.00  0.00     0.204 A 
ATOM     15  N   UNL A   1      32.194  19.745  23.333  1.00  0.00    -0.207 NA
ATOM     16  C   UNL A   1      33.594  17.852  23.764  1.00  0.00     0.311 A 
ATOM     17  C   UNL A   1      34.314  18.591  24.700  1.00  0.00     0.093 A 
ATOM     18  C   UNL A   1      33.965  19.920  24.909  1.00  0.00     0.054 A 
BRANCH  14  19
ATOM     19  N   UNL A   1      31.778  17.840  22.117  1.00  0.00    -0.378 N 
ATOM     20  H   UNL A   1      32.004  16.929  21.820  1.00  0.00     0.158 HD
ATOM     21  H   UNL A   1      31.020  18.318  21.708  1.00  0.00     0.158 HD
ENDBRANCH  14  19
BRANCH  16  22
ATOM     22  N   UNL A   1      33.982  16.474  23.512  1.00  0.00     0.066 N 
ATOM     23  O   UNL A   1      34.403  16.202  22.377  1.00  0.00    -0.258 OA
ATOM     24  O   UNL A   1      33.910  15.659  24.445  1.00  0.00    -0.258 OA
ENDBRANCH  16  22
ENDBRANCH   8  13
ENDBRANCH   4   7
ENDBRANCH   2   3
ENDBRANCH   1   2
BRANCH   1  25
ATOM     25  C   UNL A   1      36.537  22.390  25.845  1.00  0.00     0.118 C 
BRANCH  25  26
ATOM     26  N   UNL A   1      37.567  21.362  25.917  1.00  0.00    -0.352 N 
ATOM     27  C   UNL A   1      38.920  21.453  26.131  1.00  0.00     0.251 C 
ATOM     28  H   UNL A   1      37.235  20.444  25.791  1.00  0.00     0.163 HD
ATOM     29  O   UNL A   1      39.616  20.457  25.948  1.00  0.00    -0.269 OA
BRANCH  27  30
ATOM     30  C   UNL A   1      39.563  22.720  26.560  1.00  0.00     0.039 A 
ATOM     31  C   UNL A   1      39.252  23.892  25.862  1.00  0.00     0.014 A 
ATOM     32  C   UNL A   1      40.512  22.765  27.583  1.00  0.00     0.014 A 
ATOM     33  C   UNL A   1      39.860  25.101  26.211  1.00  0.00     0.010 A 
ATOM     34  C   UNL A   1      41.043  23.986  27.998  1.00  0.00     0.010 A 
ATOM     35  C   UNL A   1      40.747  25.163  27.299  1.00  0.00    -0.014 A 
BRANCH  35  36
ATOM     36  C   UNL A   1      41.396  26.444  27.680  1.00  0.00     0.031 A 
ATOM     37  C   UNL A   1      42.803  26.746  27.238  1.00  0.00     0.074 A 
ATOM     38  C   UNL A   1      40.731  27.324  28.453  1.00  0.00     0.049 A 
ATOM     39  N   UNL A   1      43.532  27.811  27.461  1.00  0.00    -0.248 NA
ATOM     40  C   UNL A   1      43.497  25.701  26.470  1.00  0.00     0.031 C 
ATOM     41  C   UNL A   1      39.394  27.117  29.011  1.00  0.00     0.029 A 
ATOM     42  N   UNL A   1      41.089  28.569  28.905  1.00  0.00    -0.354 N 
ATOM     43  C   UNL A   1      44.769  27.553  26.884  1.00  0.00     0.074 A 
ATOM     44  C   UNL A   1      44.714  26.210  26.351  1.00  0.00     0.031 C 
ATOM     45  C   UNL A   1      39.029  28.211  29.698  1.00  0.00     0.029 A 
ATOM     46  C   UNL A   1      40.114  29.187  29.648  1.00  0.00     0.049 A 
ATOM     47  H   UNL A   1      41.963  28.980  28.715  1.00  0.00     0.167 HD
ATOM     48  C   UNL A   1      45.845  28.369  26.783  1.00  0.00     0.037 A 
ATOM     49  C   UNL A   1      40.090  30.409  30.212  1.00  0.00     0.037 A 
ATOM     50  C   UNL A   1      45.882  29.721  27.276  1.00  0.00     0.049 A 
ATOM     51  C   UNL A   1      41.270  31.324  30.026  1.00  0.00     0.074 A 
ATOM     52  C   UNL A   1      46.894  30.657  27.159  1.00  0.00     0.029 A 
ATOM     53  N   UNL A   1      44.852  30.330  27.977  1.00  0.00    -0.354 N 
ATOM     54  N   UNL A   1      42.401  31.099  29.403  1.00  0.00    -0.248 NA
ATOM     55  C   UNL A   1      41.160  32.670  30.604  1.00  0.00     0.031 C 
ATOM     56  C   UNL A   1      46.490  31.823  27.819  1.00  0.00     0.029 A 
ATOM     57  C   UNL A   1      45.208  31.627  28.309  1.00  0.00     0.049 A 
ATOM     58  H   UNL A   1      43.994  29.904  28.205  1.00  0.00     0.167 HD
ATOM     59  C   UNL A   1      43.126  32.279  29.492  1.00  0.00     0.074 A 
ATOM     60  C   UNL A   1      42.299  33.224  30.212  1.00  0.00     0.031 C 
ATOM     61  C   UNL A   1      44.367  32.555  29.020  1.00  0.00     0.037 A 
BRANCH  48  62
ATOM     62  C   UNL A   1      47.067  27.825  26.101  1.00  0.00     0.064 A 
ATOM     63  C   UNL A   1      47.173  27.785  24.701  1.00  0.00     0.173 A 
ATOM     64  C   UNL A   1      48.156  27.359  26.853  1.00  0.00     0.173 A 
ATOM     65  F   UNL A   1      46.156  28.206  23.935  1.00  0.00    -0.203 F 
ATOM     66  C   UNL A   1      48.310  27.270  24.082  1.00  0.00     0.198 A 
ATOM     67  C   UNL A   1      49.304  26.873  26.230  1.00  0.00     0.198 A 
ATOM     68  F   UNL A   1      48.111  27.380  28.193  1.00  0.00    -0.203 F 
ATOM     69  F   UNL A   1      48.365  27.192  22.745  1.00  0.00    -0.200 F 
ATOM     70  C   UNL A   1      49.376  26.820  24.846  1.00  0.00     0.200 A 
ATOM     71  F   UNL A   1      50.338  26.450  26.970  1.00  0.00    -0.200 F 
ATOM     72  F   UNL A   1      50.470  26.328  24.249  1.00  0.00    -0.200 F 
ENDBRANCH  48  62
BRANCH  49  73
ATOM     73  C   UNL A   1      38.883  30.858  30.952  1.00  0.00     0.064 A 
ATOM     74  C   UNL A   1      38.796  30.708  32.343  1.00  0.00     0.173 A 
ATOM     75  C   UNL A   1      37.799  31.452  30.290  1.00  0.00     0.173 A 
ATOM     76  F   UNL A   1      39.800  30.130  33.018  1.00  0.00    -0.203 F 
ATOM     77  C   UNL A   1      37.664  31.121  33.042  1.00  0.00     0.198 A 
ATOM     78  C   UNL A   1      36.679  31.889  30.994  1.00  0.00     0.198 A 
ATOM     79  F   UNL A   1      37.838  31.626  28.960  1.00  0.00    -0.203 F 
ATOM     80  F   UNL A   1      37.592  30.932  34.367  1.00  0.00    -0.200 F 
ATOM     81  C   UNL A   1      36.609  31.717  32.368  1.00  0.00     0.200 A 
ATOM     82  F   UNL A   1      35.667  32.479  30.341  1.00  0.00    -0.200 F 
ATOM     83  F   UNL A   1      35.524  32.121  33.042  1.00  0.00    -0.200 F 
ENDBRANCH  49  73
BRANCH  61  84
ATOM     84  C   UNL A   1      44.889  33.944  29.242  1.00  0.00     0.064 A 
ATOM     85  C   UNL A   1      44.647  34.976  28.322  1.00  0.00     0.173 A 
ATOM     86  C   UNL A   1      45.619  34.250  30.399  1.00  0.00     0.173 A 
ATOM     87  F   UNL A   1      43.966  34.729  27.194  1.00  0.00    -0.203 F 
ATOM     88  C   UNL A   1      45.147  36.257  28.540  1.00  0.00     0.198 A 
ATOM     89  C   UNL A   1      46.092  35.539  30.627  1.00  0.00     0.198 A 
ATOM     90  F   UNL A   1      45.871  33.300  31.312  1.00  0.00    -0.203 F 
ATOM     91  F   UNL A   1      44.949  37.215  27.625  1.00  0.00    -0.200 F 
ATOM     92  C   UNL A   1      45.863  36.539  29.694  1.00  0.00     0.200 A 
ATOM     93  F   UNL A   1      46.775  35.813  31.747  1.00  0.00    -0.200 F 
ATOM     94  F   UNL A   1      46.342  37.773  29.902  1.00  0.00    -0.200 F 
ENDBRANCH  61  84
ENDBRANCH  35  36
ENDBRANCH  27  30
ENDBRANCH  25  26
ENDBRANCH   1  25
TORSDOF 13
ENDMDL
