MODEL 1
REMARK VINA RESULT:     -11.8      0.000      0.000
REMARK SMILES C/C=C/C=C/C(=O)N[C@@](C)(C(=O)NCCCNC(=O)c1ccc(-c2c3nc(c(-c4c(F)c(F)c(F)c(F)c4F)c4ccc([nH]4)c(-c4c(F)c(F)c(F)c(F)c4F)c4nc(c(-c5c(F)c(F)c(F)c(F)c5F)c5ccc2[nH]5)C=C4)C=C3)cc1)C(F)(F)F
REMARK SMILES IDX 14 1 13 2 11 3 12 4 9 6 10 7 8 8 6 9 7 10 5 12 4 13 3 14
REMARK SMILES IDX 1 15 2 16 83 17 84 18 85 19 86 20 15 21 16 22 17 23 18 24
REMARK SMILES IDX 19 26 20 27 21 28 82 29 22 30 81 31 23 32 24 33 25 34 75 35
REMARK SMILES IDX 26 36 80 37 74 38 76 39 27 40 79 41 73 42 72 43 28 45 60 46
REMARK SMILES IDX 40 47 59 48 41 49 44 50 58 51 77 52 42 53 43 54 57 56 78 57
REMARK SMILES IDX 45 58 29 59 30 60 38 61 31 62 32 63 36 64 39 65 33 66 34 67
REMARK SMILES IDX 37 68 35 69 61 70 62 71 70 72 63 73 64 74 68 75 71 76 65 77
REMARK SMILES IDX 66 78 69 79 67 80 46 81 47 82 55 83 48 84 49 85 53 86 56 87
REMARK SMILES IDX 50 88 51 89 54 90 52 91
REMARK H PARENT 13 5 8 11 17 25 76 44 44 55
REMARK Flexibility Score: inf
ROOT
ATOM      1  C   UNL A   1      36.566  20.826  25.193  1.00  0.00     0.117 C 
ENDROOT
BRANCH   1   2
ATOM      2  N   UNL A   1      35.332  20.073  25.106  1.00  0.00    -0.354 N 
ATOM      3  C   UNL A   1      34.029  20.378  25.320  1.00  0.00     0.254 C 
ATOM      4  O   UNL A   1      33.310  19.388  25.491  1.00  0.00    -0.272 OA
ATOM      5  H   UNL A   1      35.469  19.137  24.833  1.00  0.00     0.163 HD
BRANCH   3   6
ATOM      6  C   UNL A   1      33.496  21.821  25.441  1.00  0.00     0.212 C 
ATOM      7  C   UNL A   1      31.960  21.925  25.348  1.00  0.00     0.056 C 
BRANCH   6   8
ATOM      8  N   UNL A   1      34.063  22.579  24.264  1.00  0.00    -0.331 N 
ATOM      9  C   UNL A   1      34.199  23.832  23.778  1.00  0.00     0.245 C 
ATOM     10  O   UNL A   1      34.944  23.967  22.805  1.00  0.00    -0.270 OA
ATOM     11  H   UNL A   1      34.471  21.942  23.634  1.00  0.00     0.165 HD
BRANCH   9  12
ATOM     12  C   UNL A   1      33.572  25.036  24.345  1.00  0.00     0.071 C 
ATOM     13  C   UNL A   1      34.059  25.686  25.402  1.00  0.00     0.005 C 
BRANCH  13  14
ATOM     14  C   UNL A   1      33.565  26.947  25.902  1.00  0.00    -0.004 C 
ATOM     15  C   UNL A   1      31.756  28.170  27.185  1.00  0.00     0.035 C 
ATOM     16  C   UNL A   1      32.423  26.969  26.609  1.00  0.00    -0.030 C 
ENDBRANCH  13  14
ENDBRANCH   9  12
ENDBRANCH   6   8
BRANCH   6  17
ATOM     17  C   UNL A   1      33.827  22.149  26.922  1.00  0.00     0.420 C 
ATOM     18  F   UNL A   1      34.081  21.076  27.691  1.00  0.00    -0.168 F 
ATOM     19  F   UNL A   1      34.889  22.992  27.009  1.00  0.00    -0.168 F 
ATOM     20  F   UNL A   1      32.810  22.841  27.507  1.00  0.00    -0.168 F 
ENDBRANCH   6  17
ENDBRANCH   3   6
ENDBRANCH   1   2
BRANCH   1  21
ATOM     21  C   UNL A   1      37.771  19.934  24.939  1.00  0.00     0.042 C 
BRANCH  21  22
ATOM     22  C   UNL A   1      39.020  20.326  25.716  1.00  0.00     0.118 C 
BRANCH  22  23
ATOM     23  N   UNL A   1      39.964  19.228  25.865  1.00  0.00    -0.352 N 
ATOM     24  C   UNL A   1      41.325  19.262  26.068  1.00  0.00     0.251 C 
ATOM     25  H   UNL A   1      39.570  18.328  25.814  1.00  0.00     0.163 HD
ATOM     26  O   UNL A   1      41.984  18.237  25.982  1.00  0.00    -0.269 OA
BRANCH  24  27
ATOM     27  C   UNL A   1      41.986  20.552  26.357  1.00  0.00     0.039 A 
ATOM     28  C   UNL A   1      42.346  21.381  25.293  1.00  0.00     0.014 A 
ATOM     29  C   UNL A   1      42.226  20.952  27.673  1.00  0.00     0.014 A 
ATOM     30  C   UNL A   1      42.873  22.646  25.555  1.00  0.00     0.010 A 
ATOM     31  C   UNL A   1      42.648  22.249  27.933  1.00  0.00     0.010 A 
ATOM     32  C   UNL A   1      42.985  23.108  26.877  1.00  0.00    -0.014 A 
BRANCH  32  33
ATOM     33  C   UNL A   1      43.455  24.484  27.177  1.00  0.00     0.031 A 
ATOM     34  C   UNL A   1      42.497  25.505  27.727  1.00  0.00     0.074 A 
ATOM     35  C   UNL A   1      44.725  24.832  26.892  1.00  0.00     0.049 A 
ATOM     36  N   UNL A   1      42.697  26.770  27.995  1.00  0.00    -0.248 NA
ATOM     37  C   UNL A   1      41.120  25.052  27.980  1.00  0.00     0.031 C 
ATOM     38  C   UNL A   1      45.732  23.948  26.302  1.00  0.00     0.029 A 
ATOM     39  N   UNL A   1      45.385  26.025  27.052  1.00  0.00    -0.354 N 
ATOM     40  C   UNL A   1      41.475  27.262  28.432  1.00  0.00     0.074 A 
ATOM     41  C   UNL A   1      40.522  26.179  28.332  1.00  0.00     0.031 C 
ATOM     42  C   UNL A   1      46.888  24.619  26.177  1.00  0.00     0.029 A 
ATOM     43  C   UNL A   1      46.694  25.991  26.635  1.00  0.00     0.049 A 
ATOM     44  H   UNL A   1      44.959  26.829  27.428  1.00  0.00     0.167 HD
ATOM     45  C   UNL A   1      41.180  28.497  28.901  1.00  0.00     0.037 A 
ATOM     46  C   UNL A   1      47.628  26.961  26.617  1.00  0.00     0.037 A 
ATOM     47  C   UNL A   1      42.138  29.564  29.019  1.00  0.00     0.049 A 
ATOM     48  C   UNL A   1      47.271  28.329  27.135  1.00  0.00     0.074 A 
ATOM     49  C   UNL A   1      41.957  30.832  29.541  1.00  0.00     0.029 A 
ATOM     50  N   UNL A   1      43.460  29.488  28.601  1.00  0.00    -0.354 N 
ATOM     51  N   UNL A   1      46.132  28.759  27.622  1.00  0.00    -0.248 NA
ATOM     52  C   UNL A   1      48.332  29.344  27.107  1.00  0.00     0.031 C 
ATOM     53  C   UNL A   1      43.151  31.544  29.385  1.00  0.00     0.029 A 
ATOM     54  C   UNL A   1      44.096  30.698  28.827  1.00  0.00     0.049 A 
ATOM     55  H   UNL A   1      43.882  28.692  28.203  1.00  0.00     0.167 HD
ATOM     56  C   UNL A   1      46.348  30.082  27.985  1.00  0.00     0.074 A 
ATOM     57  C   UNL A   1      47.732  30.377  27.680  1.00  0.00     0.031 C 
ATOM     58  C   UNL A   1      45.478  30.973  28.523  1.00  0.00     0.037 A 
BRANCH  45  59
ATOM     59  C   UNL A   1      39.763  28.761  29.325  1.00  0.00     0.064 A 
ATOM     60  C   UNL A   1      38.804  29.260  28.429  1.00  0.00     0.173 A 
ATOM     61  C   UNL A   1      39.348  28.483  30.636  1.00  0.00     0.173 A 
ATOM     62  F   UNL A   1      39.148  29.556  27.167  1.00  0.00    -0.203 F 
ATOM     63  C   UNL A   1      37.494  29.498  28.838  1.00  0.00     0.198 A 
ATOM     64  C   UNL A   1      38.030  28.688  31.033  1.00  0.00     0.198 A 
ATOM     65  F   UNL A   1      40.222  28.001  31.535  1.00  0.00    -0.203 F 
ATOM     66  F   UNL A   1      36.611  30.025  27.978  1.00  0.00    -0.200 F 
ATOM     67  C   UNL A   1      37.106  29.204  30.136  1.00  0.00     0.200 A 
ATOM     68  F   UNL A   1      37.652  28.390  32.283  1.00  0.00    -0.200 F 
ATOM     69  F   UNL A   1      35.843  29.425  30.525  1.00  0.00    -0.200 F 
ENDBRANCH  45  59
BRANCH  46  70
ATOM     70  C   UNL A   1      48.995  26.670  26.110  1.00  0.00     0.064 A 
ATOM     71  C   UNL A   1      49.954  26.056  26.930  1.00  0.00     0.173 A 
ATOM     72  C   UNL A   1      49.377  27.006  24.804  1.00  0.00     0.173 A 
ATOM     73  F   UNL A   1      49.644  25.730  28.194  1.00  0.00    -0.203 F 
ATOM     74  C   UNL A   1      51.247  25.815  26.471  1.00  0.00     0.198 A 
ATOM     75  C   UNL A   1      50.661  26.735  24.335  1.00  0.00     0.198 A 
ATOM     76  F   UNL A   1      48.498  27.589  23.975  1.00  0.00    -0.203 F 
ATOM     77  F   UNL A   1      52.157  25.275  27.294  1.00  0.00    -0.200 F 
ATOM     78  C   UNL A   1      51.598  26.149  25.172  1.00  0.00     0.200 A 
ATOM     79  F   UNL A   1      50.991  27.043  23.073  1.00  0.00    -0.200 F 
ATOM     80  F   UNL A   1      52.841  25.914  24.731  1.00  0.00    -0.200 F 
ENDBRANCH  46  70
BRANCH  58  81
ATOM     81  C   UNL A   1      46.007  32.339  28.851  1.00  0.00     0.064 A 
ATOM     82  C   UNL A   1      46.593  32.628  30.093  1.00  0.00     0.173 A 
ATOM     83  C   UNL A   1      45.959  33.366  27.895  1.00  0.00     0.173 A 
ATOM     84  F   UNL A   1      46.652  31.687  31.047  1.00  0.00    -0.203 F 
ATOM     85  C   UNL A   1      47.083  33.901  30.375  1.00  0.00     0.198 A 
ATOM     86  C   UNL A   1      46.482  34.627  28.167  1.00  0.00     0.198 A 
ATOM     87  F   UNL A   1      45.416  33.142  26.689  1.00  0.00    -0.203 F 
ATOM     88  F   UNL A   1      47.588  34.168  31.587  1.00  0.00    -0.200 F 
ATOM     89  C   UNL A   1      47.035  34.895  29.410  1.00  0.00     0.200 A 
ATOM     90  F   UNL A   1      46.451  35.581  27.228  1.00  0.00    -0.200 F 
ATOM     91  F   UNL A   1      47.515  36.118  29.681  1.00  0.00    -0.200 F 
ENDBRANCH  58  81
ENDBRANCH  32  33
ENDBRANCH  24  27
ENDBRANCH  22  23
ENDBRANCH  21  22
ENDBRANCH   1  21
TORSDOF 14
ENDMDL
MODEL 2
REMARK VINA RESULT:     -11.8      0.190      1.681
REMARK SMILES C/C=C/C=C/C(=O)N[C@@](C)(C(=O)NCCCNC(=O)c1ccc(-c2c3nc(c(-c4c(F)c(F)c(F)c(F)c4F)c4ccc([nH]4)c(-c4c(F)c(F)c(F)c(F)c4F)c4nc(c(-c5c(F)c(F)c(F)c(F)c5F)c5ccc2[nH]5)C=C4)C=C3)cc1)C(F)(F)F
REMARK SMILES IDX 14 1 13 2 11 3 12 4 9 6 10 7 8 8 6 9 7 10 5 12 4 13 3 14
REMARK SMILES IDX 1 15 2 16 83 17 84 18 85 19 86 20 15 21 16 22 17 23 18 24
REMARK SMILES IDX 19 26 20 27 21 28 82 29 22 30 81 31 23 32 24 33 25 34 75 35
REMARK SMILES IDX 26 36 80 37 74 38 76 39 27 40 79 41 73 42 72 43 28 45 60 46
REMARK SMILES IDX 40 47 59 48 41 49 44 50 58 51 77 52 42 53 43 54 57 56 78 57
REMARK SMILES IDX 45 58 29 59 30 60 38 61 31 62 32 63 36 64 39 65 33 66 34 67
REMARK SMILES IDX 37 68 35 69 61 70 62 71 70 72 63 73 64 74 68 75 71 76 65 77
REMARK SMILES IDX 66 78 69 79 67 80 46 81 47 82 55 83 48 84 49 85 53 86 56 87
REMARK SMILES IDX 50 88 51 89 54 90 52 91
REMARK H PARENT 13 5 8 11 17 25 76 44 44 55
REMARK Flexibility Score: inf
ROOT
ATOM      1  C   UNL A   1      36.624  20.829  25.139  1.00  0.00     0.117 C 
ENDROOT
BRANCH   1   2
ATOM      2  N   UNL A   1      35.373  20.100  25.086  1.00  0.00    -0.354 N 
ATOM      3  C   UNL A   1      34.083  20.430  25.337  1.00  0.00     0.254 C 
ATOM      4  O   UNL A   1      33.350  19.453  25.527  1.00  0.00    -0.272 OA
ATOM      5  H   UNL A   1      35.485  19.162  24.808  1.00  0.00     0.163 HD
BRANCH   3   6
ATOM      6  C   UNL A   1      33.581  21.882  25.474  1.00  0.00     0.212 C 
ATOM      7  C   UNL A   1      32.044  22.013  25.447  1.00  0.00     0.056 C 
BRANCH   6   8
ATOM      8  N   UNL A   1      34.109  22.625  24.270  1.00  0.00    -0.331 N 
ATOM      9  C   UNL A   1      34.513  23.853  23.877  1.00  0.00     0.245 C 
ATOM     10  O   UNL A   1      35.063  23.924  22.775  1.00  0.00    -0.270 OA
ATOM     11  H   UNL A   1      34.182  22.002  23.511  1.00  0.00     0.165 HD
BRANCH   9  12
ATOM     12  C   UNL A   1      34.392  25.083  24.673  1.00  0.00     0.071 C 
ATOM     13  C   UNL A   1      33.283  25.422  25.333  1.00  0.00     0.005 C 
BRANCH  13  14
ATOM     14  C   UNL A   1      33.165  26.537  26.241  1.00  0.00    -0.004 C 
ATOM     15  C   UNL A   1      31.628  28.138  27.462  1.00  0.00     0.035 C 
ATOM     16  C   UNL A   1      31.943  26.994  26.561  1.00  0.00    -0.030 C 
ENDBRANCH  13  14
ENDBRANCH   9  12
ENDBRANCH   6   8
BRANCH   6  17
ATOM     17  C   UNL A   1      33.983  22.210  26.938  1.00  0.00     0.420 C 
ATOM     18  F   UNL A   1      33.064  22.908  27.628  1.00  0.00    -0.168 F 
ATOM     19  F   UNL A   1      34.262  21.076  27.632  1.00  0.00    -0.168 F 
ATOM     20  F   UNL A   1      35.148  22.915  26.977  1.00  0.00    -0.168 F 
ENDBRANCH   6  17
ENDBRANCH   3   6
ENDBRANCH   1   2
BRANCH   1  21
ATOM     21  C   UNL A   1      37.810  19.897  24.953  1.00  0.00     0.042 C 
BRANCH  21  22
ATOM     22  C   UNL A   1      39.053  20.296  25.736  1.00  0.00     0.118 C 
BRANCH  22  23
ATOM     23  N   UNL A   1      40.008  19.206  25.879  1.00  0.00    -0.352 N 
ATOM     24  C   UNL A   1      41.370  19.252  26.072  1.00  0.00     0.251 C 
ATOM     25  H   UNL A   1      39.622  18.302  25.831  1.00  0.00     0.163 HD
ATOM     26  O   UNL A   1      42.038  18.233  25.982  1.00  0.00    -0.269 OA
BRANCH  24  27
ATOM     27  C   UNL A   1      42.021  20.548  26.356  1.00  0.00     0.039 A 
ATOM     28  C   UNL A   1      42.375  21.375  25.289  1.00  0.00     0.014 A 
ATOM     29  C   UNL A   1      42.259  20.955  27.671  1.00  0.00     0.014 A 
ATOM     30  C   UNL A   1      42.893  22.645  25.546  1.00  0.00     0.010 A 
ATOM     31  C   UNL A   1      42.671  22.256  27.926  1.00  0.00     0.010 A 
ATOM     32  C   UNL A   1      43.002  23.113  26.866  1.00  0.00    -0.014 A 
BRANCH  32  33
ATOM     33  C   UNL A   1      43.462  24.494  27.160  1.00  0.00     0.031 A 
ATOM     34  C   UNL A   1      42.497  25.508  27.711  1.00  0.00     0.074 A 
ATOM     35  C   UNL A   1      44.728  24.851  26.870  1.00  0.00     0.049 A 
ATOM     36  N   UNL A   1      42.689  26.776  27.975  1.00  0.00    -0.248 NA
ATOM     37  C   UNL A   1      41.125  25.045  27.970  1.00  0.00     0.031 C 
ATOM     38  C   UNL A   1      45.740  23.974  26.278  1.00  0.00     0.029 A 
ATOM     39  N   UNL A   1      45.379  26.050  27.024  1.00  0.00    -0.354 N 
ATOM     40  C   UNL A   1      41.464  27.259  28.415  1.00  0.00     0.074 A 
ATOM     41  C   UNL A   1      40.519  26.168  28.321  1.00  0.00     0.031 C 
ATOM     42  C   UNL A   1      46.890  24.654  26.147  1.00  0.00     0.029 A 
ATOM     43  C   UNL A   1      46.686  26.026  26.602  1.00  0.00     0.049 A 
ATOM     44  H   UNL A   1      44.948  26.852  27.400  1.00  0.00     0.167 HD
ATOM     45  C   UNL A   1      41.160  28.493  28.882  1.00  0.00     0.037 A 
ATOM     46  C   UNL A   1      47.613  27.003  26.579  1.00  0.00     0.037 A 
ATOM     47  C   UNL A   1      42.111  29.568  28.994  1.00  0.00     0.049 A 
ATOM     48  C   UNL A   1      47.246  28.369  27.094  1.00  0.00     0.074 A 
ATOM     49  C   UNL A   1      41.921  30.836  29.512  1.00  0.00     0.029 A 
ATOM     50  N   UNL A   1      43.431  29.501  28.571  1.00  0.00    -0.354 N 
ATOM     51  N   UNL A   1      46.106  28.792  27.584  1.00  0.00    -0.248 NA
ATOM     52  C   UNL A   1      48.299  29.393  27.059  1.00  0.00     0.031 C 
ATOM     53  C   UNL A   1      43.108  31.557  29.350  1.00  0.00     0.029 A 
ATOM     54  C   UNL A   1      44.058  30.717  28.791  1.00  0.00     0.049 A 
ATOM     55  H   UNL A   1      43.858  28.708  28.174  1.00  0.00     0.167 HD
ATOM     56  C   UNL A   1      46.312  30.117  27.943  1.00  0.00     0.074 A 
ATOM     57  C   UNL A   1      47.693  30.422  27.631  1.00  0.00     0.031 C 
ATOM     58  C   UNL A   1      45.437  31.002  28.481  1.00  0.00     0.037 A 
BRANCH  45  59
ATOM     59  C   UNL A   1      39.743  28.747  29.311  1.00  0.00     0.064 A 
ATOM     60  C   UNL A   1      38.780  29.247  28.420  1.00  0.00     0.173 A 
ATOM     61  C   UNL A   1      39.332  28.457  30.621  1.00  0.00     0.173 A 
ATOM     62  F   UNL A   1      39.120  29.554  27.159  1.00  0.00    -0.203 F 
ATOM     63  C   UNL A   1      37.469  29.475  28.833  1.00  0.00     0.198 A 
ATOM     64  C   UNL A   1      38.013  28.653  31.021  1.00  0.00     0.198 A 
ATOM     65  F   UNL A   1      40.210  27.973  31.514  1.00  0.00    -0.203 F 
ATOM     66  F   UNL A   1      36.582  30.005  27.979  1.00  0.00    -0.200 F 
ATOM     67  C   UNL A   1      37.085  29.170  30.130  1.00  0.00     0.200 A 
ATOM     68  F   UNL A   1      37.640  28.343  32.269  1.00  0.00    -0.200 F 
ATOM     69  F   UNL A   1      35.822  29.382  30.523  1.00  0.00    -0.200 F 
ENDBRANCH  45  59
BRANCH  46  70
ATOM     70  C   UNL A   1      48.980  26.721  26.067  1.00  0.00     0.064 A 
ATOM     71  C   UNL A   1      49.340  27.048  24.752  1.00  0.00     0.173 A 
ATOM     72  C   UNL A   1      49.952  26.113  26.875  1.00  0.00     0.173 A 
ATOM     73  F   UNL A   1      48.442  27.615  23.933  1.00  0.00    -0.203 F 
ATOM     74  C   UNL A   1      50.609  26.752  24.257  1.00  0.00     0.198 A 
ATOM     75  C   UNL A   1      51.231  25.848  26.389  1.00  0.00     0.198 A 
ATOM     76  F   UNL A   1      49.663  25.786  28.143  1.00  0.00    -0.203 F 
ATOM     77  F   UNL A   1      50.907  27.027  22.979  1.00  0.00    -0.200 F 
ATOM     78  C   UNL A   1      51.555  26.158  25.077  1.00  0.00     0.200 A 
ATOM     79  F   UNL A   1      52.147  25.289  27.191  1.00  0.00    -0.200 F 
ATOM     80  F   UNL A   1      52.775  25.876  24.601  1.00  0.00    -0.200 F 
ENDBRANCH  46  70
BRANCH  58  81
ATOM     81  C   UNL A   1      45.956  32.374  28.804  1.00  0.00     0.064 A 
ATOM     82  C   UNL A   1      45.937  33.414  27.862  1.00  0.00     0.173 A 
ATOM     83  C   UNL A   1      46.446  32.662  30.088  1.00  0.00     0.173 A 
ATOM     84  F   UNL A   1      45.492  33.189  26.617  1.00  0.00    -0.203 F 
ATOM     85  C   UNL A   1      46.418  34.680  28.184  1.00  0.00     0.198 A 
ATOM     86  C   UNL A   1      46.892  33.938  30.417  1.00  0.00     0.198 A 
ATOM     87  F   UNL A   1      46.480  31.706  31.029  1.00  0.00    -0.203 F 
ATOM     88  F   UNL A   1      46.441  35.642  27.251  1.00  0.00    -0.200 F 
ATOM     89  C   UNL A   1      46.887  34.943  29.463  1.00  0.00     0.200 A 
ATOM     90  F   UNL A   1      47.328  34.195  31.657  1.00  0.00    -0.200 F 
ATOM     91  F   UNL A   1      47.342  36.166  29.773  1.00  0.00    -0.200 F 
ENDBRANCH  58  81
ENDBRANCH  32  33
ENDBRANCH  24  27
ENDBRANCH  22  23
ENDBRANCH  21  22
ENDBRANCH   1  21
TORSDOF 14
ENDMDL
MODEL 3
REMARK VINA RESULT:     -11.7      5.889     11.216
REMARK SMILES C/C=C/C=C/C(=O)N[C@@](C)(C(=O)NCCCNC(=O)c1ccc(-c2c3nc(c(-c4c(F)c(F)c(F)c(F)c4F)c4ccc([nH]4)c(-c4c(F)c(F)c(F)c(F)c4F)c4nc(c(-c5c(F)c(F)c(F)c(F)c5F)c5ccc2[nH]5)C=C4)C=C3)cc1)C(F)(F)F
REMARK SMILES IDX 14 1 13 2 11 3 12 4 9 6 10 7 8 8 6 9 7 10 5 12 4 13 3 14
REMARK SMILES IDX 1 15 2 16 83 17 84 18 85 19 86 20 15 21 16 22 17 23 18 24
REMARK SMILES IDX 19 26 20 27 21 28 82 29 22 30 81 31 23 32 24 33 25 34 75 35
REMARK SMILES IDX 26 36 80 37 74 38 76 39 27 40 79 41 73 42 72 43 28 45 60 46
REMARK SMILES IDX 40 47 59 48 41 49 44 50 58 51 77 52 42 53 43 54 57 56 78 57
REMARK SMILES IDX 45 58 29 59 30 60 38 61 31 62 32 63 36 64 39 65 33 66 34 67
REMARK SMILES IDX 37 68 35 69 61 70 62 71 70 72 63 73 64 74 68 75 71 76 65 77
REMARK SMILES IDX 66 78 69 79 67 80 46 81 47 82 55 83 48 84 49 85 53 86 56 87
REMARK SMILES IDX 50 88 51 89 54 90 52 91
REMARK H PARENT 13 5 8 11 17 25 76 44 44 55
REMARK Flexibility Score: inf
ROOT
ATOM      1  C   UNL A   1      31.817  30.445  25.808  1.00  0.00     0.117 C 
ENDROOT
BRANCH   1   2
ATOM      2  N   UNL A   1      30.948  30.196  24.676  1.00  0.00    -0.354 N 
ATOM      3  C   UNL A   1      30.911  29.241  23.715  1.00  0.00     0.254 C 
ATOM      4  O   UNL A   1      30.246  29.563  22.724  1.00  0.00    -0.272 OA
ATOM      5  H   UNL A   1      30.230  30.863  24.586  1.00  0.00     0.163 HD
BRANCH   3   6
ATOM      6  C   UNL A   1      31.698  27.917  23.791  1.00  0.00     0.212 C 
ATOM      7  C   UNL A   1      31.223  26.853  22.780  1.00  0.00     0.056 C 
BRANCH   6   8
ATOM      8  N   UNL A   1      31.447  27.357  25.172  1.00  0.00    -0.331 N 
ATOM      9  C   UNL A   1      32.049  26.651  26.153  1.00  0.00     0.245 C 
ATOM     10  O   UNL A   1      31.459  26.599  27.235  1.00  0.00    -0.270 OA
ATOM     11  H   UNL A   1      30.530  27.582  25.451  1.00  0.00     0.165 HD
BRANCH   9  12
ATOM     12  C   UNL A   1      33.358  25.991  26.044  1.00  0.00     0.071 C 
ATOM     13  C   UNL A   1      33.632  25.052  25.138  1.00  0.00     0.005 C 
BRANCH  13  14
ATOM     14  C   UNL A   1      34.937  24.483  24.898  1.00  0.00    -0.004 C 
ATOM     15  C   UNL A   1      36.796  22.984  25.742  1.00  0.00     0.035 C 
ATOM     16  C   UNL A   1      35.464  23.648  25.809  1.00  0.00    -0.030 C 
ENDBRANCH  13  14
ENDBRANCH   9  12
ENDBRANCH   6   8
BRANCH   6  17
ATOM     17  C   UNL A   1      33.095  28.358  23.277  1.00  0.00     0.420 C 
ATOM     18  F   UNL A   1      33.079  29.414  22.447  1.00  0.00    -0.168 F 
ATOM     19  F   UNL A   1      33.926  28.647  24.313  1.00  0.00    -0.168 F 
ATOM     20  F   UNL A   1      33.720  27.336  22.629  1.00  0.00    -0.168 F 
ENDBRANCH   6  17
ENDBRANCH   3   6
ENDBRANCH   1   2
BRANCH   1  21
ATOM     21  C   UNL A   1      31.454  31.751  26.499  1.00  0.00     0.042 C 
BRANCH  21  22
ATOM     22  C   UNL A   1      32.609  32.417  27.233  1.00  0.00     0.118 C 
BRANCH  22  23
ATOM     23  N   UNL A   1      32.388  33.836  27.469  1.00  0.00    -0.352 N 
ATOM     24  C   UNL A   1      32.976  34.675  28.388  1.00  0.00     0.251 C 
ATOM     25  H   UNL A   1      31.719  34.259  26.884  1.00  0.00     0.163 HD
ATOM     26  O   UNL A   1      32.531  35.798  28.568  1.00  0.00    -0.269 OA
BRANCH  24  27
ATOM     27  C   UNL A   1      34.129  34.195  29.178  1.00  0.00     0.039 A 
ATOM     28  C   UNL A   1      33.893  33.453  30.337  1.00  0.00     0.014 A 
ATOM     29  C   UNL A   1      35.437  34.455  28.763  1.00  0.00     0.014 A 
ATOM     30  C   UNL A   1      34.971  32.905  31.033  1.00  0.00     0.010 A 
ATOM     31  C   UNL A   1      36.499  33.820  29.394  1.00  0.00     0.010 A 
ATOM     32  C   UNL A   1      36.279  33.045  30.541  1.00  0.00    -0.014 A 
BRANCH  32  33
ATOM     33  C   UNL A   1      37.431  32.392  31.214  1.00  0.00     0.031 A 
ATOM     34  C   UNL A   1      38.133  31.237  30.552  1.00  0.00     0.074 A 
ATOM     35  C   UNL A   1      37.800  32.795  32.444  1.00  0.00     0.049 A 
ATOM     36  N   UNL A   1      39.115  30.497  31.002  1.00  0.00    -0.248 NA
ATOM     37  C   UNL A   1      37.646  30.840  29.222  1.00  0.00     0.031 C 
ATOM     38  C   UNL A   1      37.160  33.863  33.213  1.00  0.00     0.029 A 
ATOM     39  N   UNL A   1      38.800  32.346  33.272  1.00  0.00    -0.354 N 
ATOM     40  C   UNL A   1      39.350  29.546  30.019  1.00  0.00     0.074 A 
ATOM     41  C   UNL A   1      38.368  29.757  28.980  1.00  0.00     0.031 C 
ATOM     42  C   UNL A   1      37.800  34.008  34.384  1.00  0.00     0.029 A 
ATOM     43  C   UNL A   1      38.866  33.015  34.470  1.00  0.00     0.049 A 
ATOM     44  H   UNL A   1      39.412  31.614  33.029  1.00  0.00     0.167 HD
ATOM     45  C   UNL A   1      40.316  28.598  29.975  1.00  0.00     0.037 A 
ATOM     46  C   UNL A   1      39.688  32.840  35.522  1.00  0.00     0.037 A 
ATOM     47  C   UNL A   1      41.305  28.407  31.003  1.00  0.00     0.049 A 
ATOM     48  C   UNL A   1      40.747  31.772  35.452  1.00  0.00     0.074 A 
ATOM     49  C   UNL A   1      42.365  27.518  31.026  1.00  0.00     0.029 A 
ATOM     50  N   UNL A   1      41.349  29.115  32.196  1.00  0.00    -0.354 N 
ATOM     51  N   UNL A   1      41.012  30.930  34.481  1.00  0.00    -0.248 NA
ATOM     52  C   UNL A   1      41.626  31.635  36.620  1.00  0.00     0.031 C 
ATOM     53  C   UNL A   1      43.015  27.646  32.257  1.00  0.00     0.029 A 
ATOM     54  C   UNL A   1      42.402  28.660  32.975  1.00  0.00     0.049 A 
ATOM     55  H   UNL A   1      40.726  29.832  32.452  1.00  0.00     0.167 HD
ATOM     56  C   UNL A   1      42.104  30.187  34.909  1.00  0.00     0.074 A 
ATOM     57  C   UNL A   1      42.463  30.690  36.218  1.00  0.00     0.031 C 
ATOM     58  C   UNL A   1      42.750  29.177  34.274  1.00  0.00     0.037 A 
BRANCH  45  59
ATOM     59  C   UNL A   1      40.354  27.696  28.774  1.00  0.00     0.064 A 
ATOM     60  C   UNL A   1      39.642  26.486  28.735  1.00  0.00     0.173 A 
ATOM     61  C   UNL A   1      41.084  28.061  27.632  1.00  0.00     0.173 A 
ATOM     62  F   UNL A   1      38.938  26.083  29.803  1.00  0.00    -0.203 F 
ATOM     63  C   UNL A   1      39.686  25.663  27.613  1.00  0.00     0.198 A 
ATOM     64  C   UNL A   1      41.098  27.252  26.499  1.00  0.00     0.198 A 
ATOM     65  F   UNL A   1      41.780  29.208  27.611  1.00  0.00    -0.203 F 
ATOM     66  F   UNL A   1      39.043  24.487  27.622  1.00  0.00    -0.200 F 
ATOM     67  C   UNL A   1      40.407  26.050  26.493  1.00  0.00     0.200 A 
ATOM     68  F   UNL A   1      41.781  27.634  25.413  1.00  0.00    -0.200 F 
ATOM     69  F   UNL A   1      40.440  25.260  25.412  1.00  0.00    -0.200 F 
ENDBRANCH  45  59
BRANCH  46  70
ATOM     70  C   UNL A   1      39.557  33.706  36.723  1.00  0.00     0.064 A 
ATOM     71  C   UNL A   1      38.757  33.319  37.809  1.00  0.00     0.173 A 
ATOM     72  C   UNL A   1      40.216  34.941  36.810  1.00  0.00     0.173 A 
ATOM     73  F   UNL A   1      38.091  32.155  37.768  1.00  0.00    -0.203 F 
ATOM     74  C   UNL A   1      38.602  34.145  38.921  1.00  0.00     0.198 A 
ATOM     75  C   UNL A   1      40.086  35.751  37.936  1.00  0.00     0.198 A 
ATOM     76  F   UNL A   1      40.999  35.357  35.803  1.00  0.00    -0.203 F 
ATOM     77  F   UNL A   1      37.789  33.772  39.919  1.00  0.00    -0.200 F 
ATOM     78  C   UNL A   1      39.271  35.357  38.986  1.00  0.00     0.200 A 
ATOM     79  F   UNL A   1      40.748  36.914  38.003  1.00  0.00    -0.200 F 
ATOM     80  F   UNL A   1      39.123  36.148  40.057  1.00  0.00    -0.200 F 
ENDBRANCH  46  70
BRANCH  58  81
ATOM     81  C   UNL A   1      43.937  28.575  34.971  1.00  0.00     0.064 A 
ATOM     82  C   UNL A   1      45.234  29.080  34.795  1.00  0.00     0.173 A 
ATOM     83  C   UNL A   1      43.768  27.498  35.856  1.00  0.00     0.173 A 
ATOM     84  F   UNL A   1      45.453  30.099  33.950  1.00  0.00    -0.203 F 
ATOM     85  C   UNL A   1      46.320  28.511  35.455  1.00  0.00     0.198 A 
ATOM     86  C   UNL A   1      44.850  26.955  36.542  1.00  0.00     0.198 A 
ATOM     87  F   UNL A   1      42.548  26.981  36.067  1.00  0.00    -0.203 F 
ATOM     88  F   UNL A   1      47.557  28.975  35.229  1.00  0.00    -0.200 F 
ATOM     89  C   UNL A   1      46.126  27.455  36.333  1.00  0.00     0.200 A 
ATOM     90  F   UNL A   1      44.658  25.947  37.403  1.00  0.00    -0.200 F 
ATOM     91  F   UNL A   1      47.172  26.914  36.974  1.00  0.00    -0.200 F 
ENDBRANCH  58  81
ENDBRANCH  32  33
ENDBRANCH  24  27
ENDBRANCH  22  23
ENDBRANCH  21  22
ENDBRANCH   1  21
TORSDOF 14
ENDMDL
