MODEL 1
REMARK VINA RESULT:     -14.0      0.000      0.000
REMARK SMILES Cc1cccc(C(=O)NCCCNC(=O)c2ccc(-c3c4nc(c(-c5c(F)c(F)c(F)c(F)c5F)c5ccc([nH]5)c(-c5c(F)c(F)c(F)c(F)c5F)c5nc(c(-c6c(F)c(F)c(F)c(F)c6F)c6ccc3[nH]6)C=C5)C=C4)cc2)c1OC[C@@H]1C[C@H]2CC[C@@H]1C2
REMARK SMILES IDX 10 1 9 2 7 3 8 4 6 6 1 7 2 8 3 9 79 10 4 11 5 12 80 13 81 14
REMARK SMILES IDX 82 15 83 16 87 17 84 18 86 19 88 20 85 21 11 22 12 23 13 24
REMARK SMILES IDX 14 25 15 27 16 28 17 29 78 30 18 31 77 32 19 33 20 34 21 35
REMARK SMILES IDX 71 36 22 37 76 38 70 39 72 40 23 41 75 42 69 43 68 44 24 46
REMARK SMILES IDX 56 47 36 48 55 49 37 50 40 51 54 52 73 53 38 54 39 55 53 57
REMARK SMILES IDX 74 58 41 59 25 60 26 61 34 62 27 63 28 64 32 65 35 66 29 67
REMARK SMILES IDX 30 68 33 69 31 70 57 71 58 72 66 73 59 74 60 75 64 76 67 77
REMARK SMILES IDX 61 78 62 79 65 80 63 81 42 82 43 83 51 84 44 85 45 86 49 87
REMARK SMILES IDX 52 88 46 89 47 90 50 91 48 92
REMARK H PARENT 9 5 13 26 72 45 40 56
REMARK Flexibility Score: inf
ROOT
ATOM      1  C   UNL A   1      37.351  21.110  25.297  1.00  0.00     0.118 C 
ENDROOT
BRANCH   1   2
ATOM      2  N   UNL A   1      37.101  21.864  24.093  1.00  0.00    -0.352 N 
ATOM      3  C   UNL A   1      36.034  22.607  23.670  1.00  0.00     0.255 C 
ATOM      4  O   UNL A   1      36.092  22.953  22.482  1.00  0.00    -0.269 OA
ATOM      5  H   UNL A   1      37.845  21.839  23.449  1.00  0.00     0.163 HD
BRANCH   3   6
ATOM      6  C   UNL A   1      34.865  23.089  24.482  1.00  0.00     0.082 A 
ATOM      7  C   UNL A   1      31.047  23.264  24.819  1.00  0.00     0.048 C 
ATOM      8  C   UNL A   1      32.523  23.441  25.058  1.00  0.00    -0.008 A 
ATOM      9  C   UNL A   1      32.869  24.645  25.702  1.00  0.00     0.007 A 
ATOM     10  C   UNL A   1      33.538  22.593  24.552  1.00  0.00     0.134 A 
ATOM     11  C   UNL A   1      34.183  25.076  25.751  1.00  0.00     0.001 A 
ATOM     12  C   UNL A   1      35.158  24.322  25.113  1.00  0.00     0.018 A 
BRANCH  10  13
ATOM     13  O   UNL A   1      33.253  21.366  24.027  1.00  0.00    -0.492 OA
BRANCH  13  14
ATOM     14  C   UNL A   1      32.440  20.423  24.765  1.00  0.00     0.233 C 
BRANCH  14  15
ATOM     15  C   UNL A   1      33.123  19.131  25.252  1.00  0.00     0.030 C 
ATOM     16  C   UNL A   1      34.535  18.916  24.626  1.00  0.00     0.011 C 
ATOM     17  C   UNL A   1      32.373  17.881  24.717  1.00  0.00    -0.004 C 
ATOM     18  C   UNL A   1      34.403  17.578  23.873  1.00  0.00    -0.010 C 
ATOM     19  C   UNL A   1      32.872  16.639  25.468  1.00  0.00     0.004 C 
ATOM     20  C   UNL A   1      32.984  17.674  23.329  1.00  0.00     0.007 C 
ATOM     21  C   UNL A   1      34.277  16.432  24.891  1.00  0.00     0.004 C 
ENDBRANCH  14  15
ENDBRANCH  13  14
ENDBRANCH  10  13
ENDBRANCH   3   6
ENDBRANCH   1   2
BRANCH   1  22
ATOM     22  C   UNL A   1      38.771  21.388  25.773  1.00  0.00     0.042 C 
BRANCH  22  23
ATOM     23  C   UNL A   1      39.046  22.833  26.126  1.00  0.00     0.118 C 
BRANCH  23  24
ATOM     24  N   UNL A   1      40.430  23.036  26.564  1.00  0.00    -0.352 N 
ATOM     25  C   UNL A   1      41.054  24.201  26.981  1.00  0.00     0.251 C 
ATOM     26  H   UNL A   1      40.997  22.230  26.562  1.00  0.00     0.163 HD
ATOM     27  O   UNL A   1      42.213  24.214  27.343  1.00  0.00    -0.269 OA
BRANCH  25  28
ATOM     28  C   UNL A   1      40.204  25.404  27.099  1.00  0.00     0.039 A 
ATOM     29  C   UNL A   1      40.628  26.534  26.397  1.00  0.00     0.014 A 
ATOM     30  C   UNL A   1      39.327  25.498  28.174  1.00  0.00     0.014 A 
ATOM     31  C   UNL A   1      40.403  27.785  26.956  1.00  0.00     0.010 A 
ATOM     32  C   UNL A   1      39.213  26.726  28.792  1.00  0.00     0.010 A 
ATOM     33  C   UNL A   1      39.820  27.855  28.220  1.00  0.00    -0.014 A 
BRANCH  33  34
ATOM     34  C   UNL A   1      39.898  29.047  29.057  1.00  0.00     0.031 A 
ATOM     35  C   UNL A   1      38.863  30.091  28.929  1.00  0.00     0.074 A 
ATOM     36  C   UNL A   1      40.881  29.169  29.979  1.00  0.00     0.049 A 
ATOM     37  N   UNL A   1      39.011  31.318  29.297  1.00  0.00    -0.248 NA
ATOM     38  C   UNL A   1      37.574  29.833  28.299  1.00  0.00     0.031 C 
ATOM     39  C   UNL A   1      40.961  30.145  31.064  1.00  0.00     0.029 A 
ATOM     40  N   UNL A   1      42.140  28.540  29.985  1.00  0.00    -0.354 N 
ATOM     41  C   UNL A   1      37.789  31.941  29.194  1.00  0.00     0.074 A 
ATOM     42  C   UNL A   1      36.940  30.987  28.521  1.00  0.00     0.031 C 
ATOM     43  C   UNL A   1      42.245  30.283  31.430  1.00  0.00     0.029 A 
ATOM     44  C   UNL A   1      43.040  29.510  30.493  1.00  0.00     0.049 A 
ATOM     45  H   UNL A   1      42.351  27.622  29.698  1.00  0.00     0.167 HD
ATOM     46  C   UNL A   1      37.608  33.150  29.800  1.00  0.00     0.037 A 
ATOM     47  C   UNL A   1      44.067  30.006  29.744  1.00  0.00     0.037 A 
ATOM     48  C   UNL A   1      38.863  33.647  30.361  1.00  0.00     0.049 A 
ATOM     49  C   UNL A   1      44.041  31.510  29.591  1.00  0.00     0.074 A 
ATOM     50  C   UNL A   1      39.406  33.599  31.634  1.00  0.00     0.029 A 
ATOM     51  N   UNL A   1      39.895  34.011  29.505  1.00  0.00    -0.354 N 
ATOM     52  N   UNL A   1      42.972  32.236  29.757  1.00  0.00    -0.248 NA
ATOM     53  C   UNL A   1      45.201  32.303  29.192  1.00  0.00     0.031 C 
ATOM     54  C   UNL A   1      40.788  33.893  31.534  1.00  0.00     0.029 A 
ATOM     55  C   UNL A   1      41.079  34.141  30.205  1.00  0.00     0.049 A 
ATOM     56  H   UNL A   1      39.797  34.156  28.537  1.00  0.00     0.167 HD
ATOM     57  C   UNL A   1      43.263  33.545  29.478  1.00  0.00     0.074 A 
ATOM     58  C   UNL A   1      44.676  33.539  29.148  1.00  0.00     0.031 C 
ATOM     59  C   UNL A   1      42.309  34.520  29.528  1.00  0.00     0.037 A 
BRANCH  46  60
ATOM     60  C   UNL A   1      36.251  33.731  30.139  1.00  0.00     0.064 A 
ATOM     61  C   UNL A   1      35.394  34.203  29.119  1.00  0.00     0.173 A 
ATOM     62  C   UNL A   1      35.763  33.924  31.443  1.00  0.00     0.173 A 
ATOM     63  F   UNL A   1      35.657  33.982  27.824  1.00  0.00    -0.203 F 
ATOM     64  C   UNL A   1      34.228  34.925  29.389  1.00  0.00     0.198 A 
ATOM     65  C   UNL A   1      34.630  34.699  31.718  1.00  0.00     0.198 A 
ATOM     66  F   UNL A   1      36.323  33.315  32.494  1.00  0.00    -0.203 F 
ATOM     67  F   UNL A   1      33.463  35.355  28.377  1.00  0.00    -0.200 F 
ATOM     68  C   UNL A   1      33.870  35.212  30.689  1.00  0.00     0.200 A 
ATOM     69  F   UNL A   1      34.283  34.939  32.990  1.00  0.00    -0.200 F 
ATOM     70  F   UNL A   1      32.782  35.950  30.949  1.00  0.00    -0.200 F 
ENDBRANCH  46  60
BRANCH  47  71
ATOM     71  C   UNL A   1      44.559  29.060  28.709  1.00  0.00     0.064 A 
ATOM     72  C   UNL A   1      45.332  27.956  29.121  1.00  0.00     0.173 A 
ATOM     73  C   UNL A   1      43.993  29.014  27.431  1.00  0.00     0.173 A 
ATOM     74  F   UNL A   1      45.898  27.951  30.338  1.00  0.00    -0.203 F 
ATOM     75  C   UNL A   1      45.425  26.806  28.341  1.00  0.00     0.198 A 
ATOM     76  C   UNL A   1      44.105  27.865  26.644  1.00  0.00     0.198 A 
ATOM     77  F   UNL A   1      43.234  30.025  26.987  1.00  0.00    -0.203 F 
ATOM     78  F   UNL A   1      46.063  25.726  28.816  1.00  0.00    -0.200 F 
ATOM     79  C   UNL A   1      44.787  26.753  27.114  1.00  0.00     0.200 A 
ATOM     80  F   UNL A   1      43.459  27.798  25.470  1.00  0.00    -0.200 F 
ATOM     81  F   UNL A   1      44.789  25.614  26.406  1.00  0.00    -0.200 F 
ENDBRANCH  47  71
BRANCH  59  82
ATOM     82  C   UNL A   1      42.450  35.936  29.026  1.00  0.00     0.064 A 
ATOM     83  C   UNL A   1      41.843  36.416  27.854  1.00  0.00     0.173 A 
ATOM     84  C   UNL A   1      43.092  36.915  29.824  1.00  0.00     0.173 A 
ATOM     85  F   UNL A   1      41.108  35.615  27.071  1.00  0.00    -0.203 F 
ATOM     86  C   UNL A   1      41.918  37.762  27.481  1.00  0.00     0.198 A 
ATOM     87  C   UNL A   1      43.117  38.265  29.478  1.00  0.00     0.198 A 
ATOM     88  F   UNL A   1      43.692  36.593  30.980  1.00  0.00    -0.203 F 
ATOM     89  F   UNL A   1      41.354  38.164  26.334  1.00  0.00    -0.200 F 
ATOM     90  C   UNL A   1      42.542  38.686  28.298  1.00  0.00     0.200 A 
ATOM     91  F   UNL A   1      43.680  39.155  30.307  1.00  0.00    -0.200 F 
ATOM     92  F   UNL A   1      42.569  39.982  27.960  1.00  0.00    -0.200 F 
ENDBRANCH  59  82
ENDBRANCH  33  34
ENDBRANCH  25  28
ENDBRANCH  23  24
ENDBRANCH  22  23
ENDBRANCH   1  22
TORSDOF 13
ENDMDL
MODEL 2
REMARK VINA RESULT:     -14.0      4.654     10.710
REMARK SMILES Cc1cccc(C(=O)NCCCNC(=O)c2ccc(-c3c4nc(c(-c5c(F)c(F)c(F)c(F)c5F)c5ccc([nH]5)c(-c5c(F)c(F)c(F)c(F)c5F)c5nc(c(-c6c(F)c(F)c(F)c(F)c6F)c6ccc3[nH]6)C=C5)C=C4)cc2)c1OC[C@@H]1C[C@H]2CC[C@@H]1C2
REMARK SMILES IDX 10 1 9 2 7 3 8 4 6 6 1 7 2 8 3 9 79 10 4 11 5 12 80 13 81 14
REMARK SMILES IDX 82 15 83 16 87 17 84 18 86 19 88 20 85 21 11 22 12 23 13 24
REMARK SMILES IDX 14 25 15 27 16 28 17 29 78 30 18 31 77 32 19 33 20 34 21 35
REMARK SMILES IDX 71 36 22 37 76 38 70 39 72 40 23 41 75 42 69 43 68 44 24 46
REMARK SMILES IDX 56 47 36 48 55 49 37 50 40 51 54 52 73 53 38 54 39 55 53 57
REMARK SMILES IDX 74 58 41 59 25 60 26 61 34 62 27 63 28 64 32 65 35 66 29 67
REMARK SMILES IDX 30 68 33 69 31 70 57 71 58 72 66 73 59 74 60 75 64 76 67 77
REMARK SMILES IDX 61 78 62 79 65 80 63 81 42 82 43 83 51 84 44 85 45 86 49 87
REMARK SMILES IDX 52 88 46 89 47 90 50 91 48 92
REMARK H PARENT 9 5 13 26 72 45 40 56
REMARK Flexibility Score: inf
ROOT
ATOM      1  C   UNL A   1      32.332  30.036  25.797  1.00  0.00     0.118 C 
ENDROOT
BRANCH   1   2
ATOM      2  N   UNL A   1      31.763  28.877  26.443  1.00  0.00    -0.352 N 
ATOM      3  C   UNL A   1      31.750  27.550  26.120  1.00  0.00     0.255 C 
ATOM      4  O   UNL A   1      30.988  26.863  26.814  1.00  0.00    -0.269 OA
ATOM      5  H   UNL A   1      31.292  29.085  27.282  1.00  0.00     0.163 HD
BRANCH   3   6
ATOM      6  C   UNL A   1      32.582  26.843  25.087  1.00  0.00     0.082 A 
ATOM      7  C   UNL A   1      32.811  25.567  21.476  1.00  0.00     0.048 C 
ATOM      8  C   UNL A   1      33.122  25.875  22.916  1.00  0.00    -0.008 A 
ATOM      9  C   UNL A   1      33.942  24.923  23.552  1.00  0.00     0.007 A 
ATOM     10  C   UNL A   1      32.535  26.920  23.671  1.00  0.00     0.134 A 
ATOM     11  C   UNL A   1      34.096  24.919  24.927  1.00  0.00     0.001 A 
ATOM     12  C   UNL A   1      33.391  25.845  25.682  1.00  0.00     0.018 A 
BRANCH  10  13
ATOM     13  O   UNL A   1      31.833  27.927  23.078  1.00  0.00    -0.492 OA
BRANCH  13  14
ATOM     14  C   UNL A   1      30.414  27.786  22.829  1.00  0.00     0.233 C 
BRANCH  14  15
ATOM     15  C   UNL A   1      29.478  28.835  23.460  1.00  0.00     0.030 C 
ATOM     16  C   UNL A   1      27.999  28.695  22.987  1.00  0.00     0.011 C 
ATOM     17  C   UNL A   1      29.820  30.257  22.937  1.00  0.00    -0.004 C 
ATOM     18  C   UNL A   1      27.700  30.048  22.312  1.00  0.00    -0.010 C 
ATOM     19  C   UNL A   1      29.103  31.296  23.810  1.00  0.00     0.004 C 
ATOM     20  C   UNL A   1      29.028  30.347  21.630  1.00  0.00     0.007 C 
ATOM     21  C   UNL A   1      27.638  31.148  23.384  1.00  0.00     0.004 C 
ENDBRANCH  14  15
ENDBRANCH  13  14
ENDBRANCH  10  13
ENDBRANCH   3   6
ENDBRANCH   1   2
BRANCH   1  22
ATOM     22  C   UNL A   1      33.667  30.366  26.452  1.00  0.00     0.042 C 
BRANCH  22  23
ATOM     23  C   UNL A   1      33.697  30.174  27.952  1.00  0.00     0.118 C 
BRANCH  23  24
ATOM     24  N   UNL A   1      34.479  31.218  28.621  1.00  0.00    -0.352 N 
ATOM     25  C   UNL A   1      35.774  31.162  29.111  1.00  0.00     0.251 C 
ATOM     26  H   UNL A   1      34.019  32.082  28.739  1.00  0.00     0.163 HD
ATOM     27  O   UNL A   1      36.308  32.124  29.625  1.00  0.00    -0.269 OA
BRANCH  25  28
ATOM     28  C   UNL A   1      36.529  29.919  28.853  1.00  0.00     0.039 A 
ATOM     29  C   UNL A   1      36.825  29.131  29.967  1.00  0.00     0.014 A 
ATOM     30  C   UNL A   1      37.250  29.810  27.669  1.00  0.00     0.014 A 
ATOM     31  C   UNL A   1      38.029  28.441  29.990  1.00  0.00     0.010 A 
ATOM     32  C   UNL A   1      38.499  29.229  27.739  1.00  0.00     0.010 A 
ATOM     33  C   UNL A   1      38.917  28.613  28.929  1.00  0.00    -0.014 A 
BRANCH  33  34
ATOM     34  C   UNL A   1      40.332  28.273  29.025  1.00  0.00     0.031 A 
ATOM     35  C   UNL A   1      40.801  26.973  28.507  1.00  0.00     0.074 A 
ATOM     36  C   UNL A   1      41.213  29.163  29.536  1.00  0.00     0.049 A 
ATOM     37  N   UNL A   1      41.898  26.396  28.863  1.00  0.00    -0.248 NA
ATOM     38  C   UNL A   1      40.014  26.180  27.573  1.00  0.00     0.031 C 
ATOM     39  C   UNL A   1      42.672  29.104  29.467  1.00  0.00     0.029 A 
ATOM     40  N   UNL A   1      40.952  30.224  30.424  1.00  0.00    -0.354 N 
ATOM     41  C   UNL A   1      42.089  25.307  28.044  1.00  0.00     0.074 A 
ATOM     42  C   UNL A   1      40.863  25.188  27.292  1.00  0.00     0.031 C 
ATOM     43  C   UNL A   1      43.184  29.839  30.467  1.00  0.00     0.029 A 
ATOM     44  C   UNL A   1      42.070  30.269  31.292  1.00  0.00     0.049 A 
ATOM     45  H   UNL A   1      40.159  30.809  30.439  1.00  0.00     0.167 HD
ATOM     46  C   UNL A   1      43.313  24.705  28.016  1.00  0.00     0.037 A 
ATOM     47  C   UNL A   1      41.957  30.039  32.632  1.00  0.00     0.037 A 
ATOM     48  C   UNL A   1      44.202  25.281  29.022  1.00  0.00     0.049 A 
ATOM     49  C   UNL A   1      42.826  28.910  33.135  1.00  0.00     0.074 A 
ATOM     50  C   UNL A   1      45.184  26.257  28.960  1.00  0.00     0.029 A 
ATOM     51  N   UNL A   1      43.922  25.088  30.370  1.00  0.00    -0.354 N 
ATOM     52  N   UNL A   1      43.302  27.968  32.371  1.00  0.00    -0.248 NA
ATOM     53  C   UNL A   1      43.183  28.726  34.539  1.00  0.00     0.031 C 
ATOM     54  C   UNL A   1      45.462  26.685  30.281  1.00  0.00     0.029 A 
ATOM     55  C   UNL A   1      44.666  25.955  31.146  1.00  0.00     0.049 A 
ATOM     56  H   UNL A   1      43.284  24.427  30.722  1.00  0.00     0.167 HD
ATOM     57  C   UNL A   1      43.987  27.062  33.137  1.00  0.00     0.074 A 
ATOM     58  C   UNL A   1      43.900  27.591  34.485  1.00  0.00     0.031 C 
ATOM     59  C   UNL A   1      44.553  25.944  32.596  1.00  0.00     0.037 A 
BRANCH  46  60
ATOM     60  C   UNL A   1      43.789  23.813  26.889  1.00  0.00     0.064 A 
ATOM     61  C   UNL A   1      43.392  22.457  26.826  1.00  0.00     0.173 A 
ATOM     62  C   UNL A   1      44.695  24.200  25.886  1.00  0.00     0.173 A 
ATOM     63  F   UNL A   1      42.441  21.967  27.632  1.00  0.00    -0.203 F 
ATOM     64  C   UNL A   1      43.959  21.548  25.929  1.00  0.00     0.198 A 
ATOM     65  C   UNL A   1      45.309  23.280  25.028  1.00  0.00     0.198 A 
ATOM     66  F   UNL A   1      44.967  25.489  25.653  1.00  0.00    -0.203 F 
ATOM     67  F   UNL A   1      43.547  20.273  25.925  1.00  0.00    -0.200 F 
ATOM     68  C   UNL A   1      44.951  21.950  25.060  1.00  0.00     0.200 A 
ATOM     69  F   UNL A   1      46.249  23.699  24.169  1.00  0.00    -0.200 F 
ATOM     70  F   UNL A   1      45.534  21.068  24.236  1.00  0.00    -0.200 F 
ENDBRANCH  46  60
BRANCH  47  71
ATOM     71  C   UNL A   1      40.621  30.387  33.184  1.00  0.00     0.064 A 
ATOM     72  C   UNL A   1      40.279  31.749  33.308  1.00  0.00     0.173 A 
ATOM     73  C   UNL A   1      39.582  29.452  33.232  1.00  0.00     0.173 A 
ATOM     74  F   UNL A   1      41.239  32.687  33.269  1.00  0.00    -0.203 F 
ATOM     75  C   UNL A   1      38.949  32.161  33.347  1.00  0.00     0.198 A 
ATOM     76  C   UNL A   1      38.250  29.869  33.290  1.00  0.00     0.198 A 
ATOM     77  F   UNL A   1      39.840  28.143  33.103  1.00  0.00    -0.203 F 
ATOM     78  F   UNL A   1      38.654  33.469  33.338  1.00  0.00    -0.200 F 
ATOM     79  C   UNL A   1      37.936  31.220  33.310  1.00  0.00     0.200 A 
ATOM     80  F   UNL A   1      37.266  28.961  33.220  1.00  0.00    -0.200 F 
ATOM     81  F   UNL A   1      36.656  31.614  33.246  1.00  0.00    -0.200 F 
ENDBRANCH  47  71
BRANCH  59  82
ATOM     82  C   UNL A   1      45.124  24.773  33.357  1.00  0.00     0.064 A 
ATOM     83  C   UNL A   1      44.438  23.565  33.565  1.00  0.00     0.173 A 
ATOM     84  C   UNL A   1      46.479  24.783  33.769  1.00  0.00     0.173 A 
ATOM     85  F   UNL A   1      43.188  23.387  33.119  1.00  0.00    -0.203 F 
ATOM     86  C   UNL A   1      45.044  22.470  34.189  1.00  0.00     0.198 A 
ATOM     87  C   UNL A   1      47.097  23.671  34.339  1.00  0.00     0.198 A 
ATOM     88  F   UNL A   1      47.253  25.867  33.607  1.00  0.00    -0.203 F 
ATOM     89  F   UNL A   1      44.336  21.352  34.399  1.00  0.00    -0.200 F 
ATOM     90  C   UNL A   1      46.374  22.519  34.562  1.00  0.00     0.200 A 
ATOM     91  F   UNL A   1      48.400  23.718  34.648  1.00  0.00    -0.200 F 
ATOM     92  F   UNL A   1      46.963  21.450  35.115  1.00  0.00    -0.200 F 
ENDBRANCH  59  82
ENDBRANCH  33  34
ENDBRANCH  25  28
ENDBRANCH  23  24
ENDBRANCH  22  23
ENDBRANCH   1  22
TORSDOF 13
ENDMDL
MODEL 3
REMARK VINA RESULT:     -14.0      4.790     10.901
REMARK SMILES Cc1cccc(C(=O)NCCCNC(=O)c2ccc(-c3c4nc(c(-c5c(F)c(F)c(F)c(F)c5F)c5ccc([nH]5)c(-c5c(F)c(F)c(F)c(F)c5F)c5nc(c(-c6c(F)c(F)c(F)c(F)c6F)c6ccc3[nH]6)C=C5)C=C4)cc2)c1OC[C@@H]1C[C@H]2CC[C@@H]1C2
REMARK SMILES IDX 10 1 9 2 7 3 8 4 6 6 1 7 2 8 3 9 79 10 4 11 5 12 80 13 81 14
REMARK SMILES IDX 82 15 83 16 87 17 84 18 86 19 88 20 85 21 11 22 12 23 13 24
REMARK SMILES IDX 14 25 15 27 16 28 17 29 78 30 18 31 77 32 19 33 20 34 21 35
REMARK SMILES IDX 71 36 22 37 76 38 70 39 72 40 23 41 75 42 69 43 68 44 24 46
REMARK SMILES IDX 56 47 36 48 55 49 37 50 40 51 54 52 73 53 38 54 39 55 53 57
REMARK SMILES IDX 74 58 41 59 25 60 26 61 34 62 27 63 28 64 32 65 35 66 29 67
REMARK SMILES IDX 30 68 33 69 31 70 57 71 58 72 66 73 59 74 60 75 64 76 67 77
REMARK SMILES IDX 61 78 62 79 65 80 63 81 42 82 43 83 51 84 44 85 45 86 49 87
REMARK SMILES IDX 52 88 46 89 47 90 50 91 48 92
REMARK H PARENT 9 5 13 26 72 45 40 56
REMARK Flexibility Score: inf
ROOT
ATOM      1  C   UNL A   1      32.166  29.531  26.062  1.00  0.00     0.118 C 
ENDROOT
BRANCH   1   2
ATOM      2  N   UNL A   1      32.748  29.702  24.753  1.00  0.00    -0.352 N 
ATOM      3  C   UNL A   1      33.175  28.814  23.806  1.00  0.00     0.255 C 
ATOM      4  O   UNL A   1      33.808  29.328  22.874  1.00  0.00    -0.269 OA
ATOM      5  H   UNL A   1      32.859  30.645  24.491  1.00  0.00     0.163 HD
BRANCH   3   6
ATOM      6  C   UNL A   1      32.912  27.336  23.742  1.00  0.00     0.082 A 
ATOM      7  C   UNL A   1      30.280  24.550  23.571  1.00  0.00     0.048 C 
ATOM      8  C   UNL A   1      31.587  25.293  23.649  1.00  0.00    -0.008 A 
ATOM      9  C   UNL A   1      32.606  24.609  24.341  1.00  0.00     0.007 A 
ATOM     10  C   UNL A   1      31.790  26.632  23.236  1.00  0.00     0.134 A 
ATOM     11  C   UNL A   1      33.765  25.257  24.728  1.00  0.00     0.001 A 
ATOM     12  C   UNL A   1      33.893  26.614  24.464  1.00  0.00     0.018 A 
BRANCH  10  13
ATOM     13  O   UNL A   1      30.878  27.291  22.464  1.00  0.00    -0.492 OA
BRANCH  13  14
ATOM     14  C   UNL A   1      29.820  28.065  23.076  1.00  0.00     0.233 C 
BRANCH  14  15
ATOM     15  C   UNL A   1      29.584  29.489  22.537  1.00  0.00     0.030 C 
ATOM     16  C   UNL A   1      29.502  30.561  23.666  1.00  0.00     0.011 C 
ATOM     17  C   UNL A   1      28.167  29.610  21.914  1.00  0.00    -0.004 C 
ATOM     18  C   UNL A   1      28.092  31.160  23.502  1.00  0.00    -0.010 C 
ATOM     19  C   UNL A   1      28.084  30.916  21.112  1.00  0.00     0.004 C 
ATOM     20  C   UNL A   1      27.281  29.928  23.122  1.00  0.00     0.007 C 
ATOM     21  C   UNL A   1      28.038  31.988  22.207  1.00  0.00     0.004 C 
ENDBRANCH  14  15
ENDBRANCH  13  14
ENDBRANCH  10  13
ENDBRANCH   3   6
ENDBRANCH   1   2
BRANCH   1  22
ATOM     22  C   UNL A   1      32.871  30.457  27.046  1.00  0.00     0.042 C 
BRANCH  22  23
ATOM     23  C   UNL A   1      34.252  30.001  27.462  1.00  0.00     0.118 C 
BRANCH  23  24
ATOM     24  N   UNL A   1      34.914  30.982  28.327  1.00  0.00    -0.352 N 
ATOM     25  C   UNL A   1      36.154  30.909  28.942  1.00  0.00     0.251 C 
ATOM     26  H   UNL A   1      34.408  31.811  28.493  1.00  0.00     0.163 HD
ATOM     27  O   UNL A   1      36.589  31.819  29.618  1.00  0.00    -0.269 OA
BRANCH  25  28
ATOM     28  C   UNL A   1      36.984  29.729  28.626  1.00  0.00     0.039 A 
ATOM     29  C   UNL A   1      37.220  28.838  29.675  1.00  0.00     0.014 A 
ATOM     30  C   UNL A   1      37.808  29.774  27.506  1.00  0.00     0.014 A 
ATOM     31  C   UNL A   1      38.448  28.193  29.734  1.00  0.00     0.010 A 
ATOM     32  C   UNL A   1      39.072  29.235  27.629  1.00  0.00     0.010 A 
ATOM     33  C   UNL A   1      39.414  28.511  28.781  1.00  0.00    -0.014 A 
BRANCH  33  34
ATOM     34  C   UNL A   1      40.830  28.215  28.967  1.00  0.00     0.031 A 
ATOM     35  C   UNL A   1      41.395  26.982  28.387  1.00  0.00     0.074 A 
ATOM     36  C   UNL A   1      41.629  29.090  29.623  1.00  0.00     0.049 A 
ATOM     37  N   UNL A   1      42.483  26.416  28.786  1.00  0.00    -0.248 NA
ATOM     38  C   UNL A   1      40.721  26.243  27.327  1.00  0.00     0.031 C 
ATOM     39  C   UNL A   1      43.089  29.089  29.672  1.00  0.00     0.029 A 
ATOM     40  N   UNL A   1      41.250  30.060  30.570  1.00  0.00    -0.354 N 
ATOM     41  C   UNL A   1      42.786  25.409  27.899  1.00  0.00     0.074 A 
ATOM     42  C   UNL A   1      41.632  25.311  27.038  1.00  0.00     0.031 C 
ATOM     43  C   UNL A   1      43.487  29.754  30.769  1.00  0.00     0.029 A 
ATOM     44  C   UNL A   1      42.292  30.072  31.530  1.00  0.00     0.049 A 
ATOM     45  H   UNL A   1      40.435  30.614  30.566  1.00  0.00     0.167 HD
ATOM     46  C   UNL A   1      44.033  24.856  27.925  1.00  0.00     0.037 A 
ATOM     47  C   UNL A   1      42.080  29.724  32.832  1.00  0.00     0.037 A 
ATOM     48  C   UNL A   1      44.812  25.375  29.047  1.00  0.00     0.049 A 
ATOM     49  C   UNL A   1      42.952  28.588  33.312  1.00  0.00     0.074 A 
ATOM     50  C   UNL A   1      45.753  26.387  29.148  1.00  0.00     0.029 A 
ATOM     51  N   UNL A   1      44.433  25.058  30.346  1.00  0.00    -0.354 N 
ATOM     52  N   UNL A   1      43.529  27.732  32.516  1.00  0.00    -0.248 NA
ATOM     53  C   UNL A   1      43.202  28.298  34.721  1.00  0.00     0.031 C 
ATOM     54  C   UNL A   1      45.905  26.711  30.519  1.00  0.00     0.029 A 
ATOM     55  C   UNL A   1      45.073  25.882  31.250  1.00  0.00     0.049 A 
ATOM     56  H   UNL A   1      43.797  24.347  30.586  1.00  0.00     0.167 HD
ATOM     57  C   UNL A   1      44.188  26.790  33.261  1.00  0.00     0.074 A 
ATOM     58  C   UNL A   1      43.969  27.198  34.636  1.00  0.00     0.031 C 
ATOM     59  C   UNL A   1      44.843  25.743  32.679  1.00  0.00     0.037 A 
BRANCH  46  60
ATOM     60  C   UNL A   1      44.637  24.080  26.772  1.00  0.00     0.064 A 
ATOM     61  C   UNL A   1      44.318  22.717  26.575  1.00  0.00     0.173 A 
ATOM     62  C   UNL A   1      45.592  24.589  25.875  1.00  0.00     0.173 A 
ATOM     63  F   UNL A   1      43.337  22.120  27.265  1.00  0.00    -0.203 F 
ATOM     64  C   UNL A   1      44.996  21.911  25.657  1.00  0.00     0.198 A 
ATOM     65  C   UNL A   1      46.316  23.771  25.000  1.00  0.00     0.198 A 
ATOM     66  F   UNL A   1      45.813  25.904  25.764  1.00  0.00    -0.203 F 
ATOM     67  F   UNL A   1      44.652  20.622  25.523  1.00  0.00    -0.200 F 
ATOM     68  C   UNL A   1      46.026  22.427  24.901  1.00  0.00     0.200 A 
ATOM     69  F   UNL A   1      47.292  24.301  24.250  1.00  0.00    -0.200 F 
ATOM     70  F   UNL A   1      46.714  21.643  24.059  1.00  0.00    -0.200 F 
ENDBRANCH  46  60
BRANCH  47  71
ATOM     71  C   UNL A   1      40.690  29.976  33.295  1.00  0.00     0.064 A 
ATOM     72  C   UNL A   1      40.293  31.306  33.539  1.00  0.00     0.173 A 
ATOM     73  C   UNL A   1      39.683  29.017  33.144  1.00  0.00     0.173 A 
ATOM     74  F   UNL A   1      41.221  32.265  33.692  1.00  0.00    -0.203 F 
ATOM     75  C   UNL A   1      38.952  31.680  33.502  1.00  0.00     0.198 A 
ATOM     76  C   UNL A   1      38.338  29.393  33.128  1.00  0.00     0.198 A 
ATOM     77  F   UNL A   1      39.995  27.738  32.894  1.00  0.00    -0.203 F 
ATOM     78  F   UNL A   1      38.615  32.973  33.613  1.00  0.00    -0.200 F 
ATOM     79  C   UNL A   1      37.977  30.725  33.270  1.00  0.00     0.200 A 
ATOM     80  F   UNL A   1      37.394  28.477  32.868  1.00  0.00    -0.200 F 
ATOM     81  F   UNL A   1      36.695  31.095  33.133  1.00  0.00    -0.200 F 
ENDBRANCH  47  71
BRANCH  59  82
ATOM     82  C   UNL A   1      45.400  24.533  33.387  1.00  0.00     0.064 A 
ATOM     83  C   UNL A   1      46.666  24.495  33.995  1.00  0.00     0.173 A 
ATOM     84  C   UNL A   1      44.581  23.399  33.613  1.00  0.00     0.173 A 
ATOM     85  F   UNL A   1      47.492  25.549  33.953  1.00  0.00    -0.203 F 
ATOM     86  C   UNL A   1      47.100  23.385  34.727  1.00  0.00     0.198 A 
ATOM     87  C   UNL A   1      44.996  22.319  34.390  1.00  0.00     0.198 A 
ATOM     88  F   UNL A   1      43.341  23.318  33.107  1.00  0.00    -0.203 F 
ATOM     89  F   UNL A   1      48.332  23.382  35.257  1.00  0.00    -0.200 F 
ATOM     90  C   UNL A   1      46.262  22.306  34.935  1.00  0.00     0.200 A 
ATOM     91  F   UNL A   1      44.152  21.304  34.625  1.00  0.00    -0.200 F 
ATOM     92  F   UNL A   1      46.666  21.266  35.678  1.00  0.00    -0.200 F 
ENDBRANCH  59  82
ENDBRANCH  33  34
ENDBRANCH  25  28
ENDBRANCH  23  24
ENDBRANCH  22  23
ENDBRANCH   1  22
TORSDOF 13
ENDMDL
