MODEL 1
REMARK VINA RESULT:     -10.3      0.000      0.000
REMARK SMILES O=C(CCC(=O)c1ccc(Cl)cc1)NCCCNC(=O)c1ccc(-c2c3nc(c(-c4c(F)c(F)c(F)c(F)c4F)c4ccc([nH]4)c(-c4c(F)c(F)c(F)c(F)c4F)c4nc(c(-c5c(F)c(F)c(F)c(F)c5F)c5ccc2[nH]5)C=C4)C=C3)cc1
REMARK SMILES IDX 15 1 14 2 1 3 2 4 3 6 4 7 5 8 6 9 7 10 8 11 13 12 9 13 12 14
REMARK SMILES IDX 10 15 11 16 16 17 17 18 18 19 19 20 20 22 21 23 22 24 83 25
REMARK SMILES IDX 23 26 82 27 24 28 25 29 26 30 76 31 27 32 81 33 75 34 77 35
REMARK SMILES IDX 28 36 80 37 74 38 73 39 29 41 61 42 41 43 60 44 42 45 45 46
REMARK SMILES IDX 59 47 78 48 43 49 44 50 58 52 79 53 46 54 30 55 31 56 39 57
REMARK SMILES IDX 32 58 33 59 37 60 40 61 34 62 35 63 38 64 36 65 62 66 63 67
REMARK SMILES IDX 71 68 64 69 65 70 69 71 72 72 66 73 67 74 70 75 68 76 47 77
REMARK SMILES IDX 48 78 56 79 49 80 50 81 54 82 57 83 51 84 52 85 55 86 53 87
REMARK H PARENT 14 5 18 21 77 40 45 51
REMARK Flexibility Score: inf
ROOT
ATOM      1  C   UNL A   1      33.751  34.903  28.667  1.00  0.00     0.117 C 
ENDROOT
BRANCH   1   2
ATOM      2  N   UNL A   1      34.466  34.842  29.927  1.00  0.00    -0.356 N 
ATOM      3  O   UNL A   1      32.604  35.114  31.232  1.00  0.00    -0.275 OA
ATOM      4  C   UNL A   1      33.795  34.838  31.129  1.00  0.00     0.220 C 
ATOM      5  H   UNL A   1      35.450  34.803  29.923  1.00  0.00     0.163 HD
BRANCH   4   6
ATOM      6  C   UNL A   1      34.603  34.299  32.291  1.00  0.00     0.108 C 
BRANCH   6   7
ATOM      7  C   UNL A   1      34.769  32.784  32.143  1.00  0.00     0.091 C 
BRANCH   7   8
ATOM      8  C   UNL A   1      36.225  32.344  32.145  1.00  0.00     0.163 C 
ATOM      9  O   UNL A   1      36.587  31.352  32.777  1.00  0.00    -0.294 OA
BRANCH   8  10
ATOM     10  C   UNL A   1      37.244  33.120  31.376  1.00  0.00     0.018 A 
ATOM     11  C   UNL A   1      38.156  33.965  32.012  1.00  0.00     0.013 A 
ATOM     12  C   UNL A   1      37.341  32.947  29.989  1.00  0.00     0.013 A 
ATOM     13  C   UNL A   1      39.189  34.578  31.300  1.00  0.00     0.021 A 
ATOM     14  C   UNL A   1      38.350  33.597  29.265  1.00  0.00     0.021 A 
ATOM     15  C   UNL A   1      39.283  34.394  29.925  1.00  0.00     0.041 A 
ATOM     16  Cl  UNL A   1      40.552  35.157  29.054  1.00  0.00    -0.084 Cl
ENDBRANCH   8  10
ENDBRANCH   7   8
ENDBRANCH   6   7
ENDBRANCH   4   6
ENDBRANCH   1   2
BRANCH   1  17
ATOM     17  C   UNL A   1      33.520  33.546  27.999  1.00  0.00     0.042 C 
BRANCH  17  18
ATOM     18  C   UNL A   1      34.397  32.379  28.458  1.00  0.00     0.118 C 
BRANCH  18  19
ATOM     19  N   UNL A   1      33.966  31.064  28.010  1.00  0.00    -0.352 N 
ATOM     20  C   UNL A   1      34.637  29.863  27.951  1.00  0.00     0.251 C 
ATOM     21  H   UNL A   1      33.034  31.027  27.695  1.00  0.00     0.163 HD
ATOM     22  O   UNL A   1      34.090  28.875  27.477  1.00  0.00    -0.269 OA
BRANCH  20  23
ATOM     23  C   UNL A   1      36.034  29.757  28.422  1.00  0.00     0.039 A 
ATOM     24  C   UNL A   1      36.276  29.340  29.735  1.00  0.00     0.014 A 
ATOM     25  C   UNL A   1      37.104  30.064  27.580  1.00  0.00     0.014 A 
ATOM     26  C   UNL A   1      37.586  29.113  30.162  1.00  0.00     0.010 A 
ATOM     27  C   UNL A   1      38.401  29.754  27.974  1.00  0.00     0.010 A 
ATOM     28  C   UNL A   1      38.652  29.253  29.260  1.00  0.00    -0.014 A 
BRANCH  28  29
ATOM     29  C   UNL A   1      40.032  28.826  29.600  1.00  0.00     0.031 A 
ATOM     30  C   UNL A   1      40.951  29.756  30.338  1.00  0.00     0.074 A 
ATOM     31  C   UNL A   1      40.492  27.653  29.121  1.00  0.00     0.049 A 
ATOM     32  N   UNL A   1      42.235  29.644  30.568  1.00  0.00    -0.248 NA
ATOM     33  C   UNL A   1      40.352  30.995  30.856  1.00  0.00     0.031 C 
ATOM     34  C   UNL A   1      39.704  26.689  28.350  1.00  0.00     0.029 A 
ATOM     35  N   UNL A   1      41.740  27.085  29.182  1.00  0.00    -0.354 N 
ATOM     36  C   UNL A   1      42.600  30.804  31.237  1.00  0.00     0.074 A 
ATOM     37  C   UNL A   1      41.414  31.629  31.334  1.00  0.00     0.031 C 
ATOM     38  C   UNL A   1      40.483  25.648  28.016  1.00  0.00     0.029 A 
ATOM     39  C   UNL A   1      41.836  25.893  28.503  1.00  0.00     0.049 A 
ATOM     40  H   UNL A   1      42.495  27.492  29.664  1.00  0.00     0.167 HD
ATOM     41  C   UNL A   1      43.814  31.142  31.736  1.00  0.00     0.037 A 
ATOM     42  C   UNL A   1      42.900  25.100  28.277  1.00  0.00     0.037 A 
ATOM     43  C   UNL A   1      44.982  30.305  31.647  1.00  0.00     0.049 A 
ATOM     44  C   UNL A   1      44.240  25.506  28.828  1.00  0.00     0.074 A 
ATOM     45  C   UNL A   1      46.243  30.521  32.175  1.00  0.00     0.029 A 
ATOM     46  N   UNL A   1      45.033  29.090  30.977  1.00  0.00    -0.354 N 
ATOM     47  N   UNL A   1      44.561  26.575  29.517  1.00  0.00    -0.248 NA
ATOM     48  C   UNL A   1      45.365  24.598  28.570  1.00  0.00     0.031 C 
ATOM     49  C   UNL A   1      47.070  29.464  31.780  1.00  0.00     0.029 A 
ATOM     50  C   UNL A   1      46.311  28.560  31.055  1.00  0.00     0.049 A 
ATOM     51  H   UNL A   1      44.273  28.667  30.516  1.00  0.00     0.167 HD
ATOM     52  C   UNL A   1      45.914  26.455  29.797  1.00  0.00     0.074 A 
ATOM     53  C   UNL A   1      46.351  25.202  29.218  1.00  0.00     0.031 C 
ATOM     54  C   UNL A   1      46.725  27.307  30.473  1.00  0.00     0.037 A 
BRANCH  41  55
ATOM     55  C   UNL A   1      43.940  32.472  32.422  1.00  0.00     0.064 A 
ATOM     56  C   UNL A   1      44.278  33.637  31.718  1.00  0.00     0.173 A 
ATOM     57  C   UNL A   1      43.683  32.592  33.797  1.00  0.00     0.173 A 
ATOM     58  F   UNL A   1      44.543  33.578  30.403  1.00  0.00    -0.203 F 
ATOM     59  C   UNL A   1      44.386  34.865  32.367  1.00  0.00     0.198 A 
ATOM     60  C   UNL A   1      43.761  33.826  34.437  1.00  0.00     0.198 A 
ATOM     61  F   UNL A   1      43.350  31.512  34.521  1.00  0.00    -0.203 F 
ATOM     62  F   UNL A   1      44.761  35.953  31.681  1.00  0.00    -0.200 F 
ATOM     63  C   UNL A   1      44.121  34.959  33.725  1.00  0.00     0.200 A 
ATOM     64  F   UNL A   1      43.490  33.919  35.747  1.00  0.00    -0.200 F 
ATOM     65  F   UNL A   1      44.218  36.142  34.347  1.00  0.00    -0.200 F 
ENDBRANCH  41  55
BRANCH  42  66
ATOM     66  C   UNL A   1      42.739  23.840  27.505  1.00  0.00     0.064 A 
ATOM     67  C   UNL A   1      42.271  22.674  28.127  1.00  0.00     0.173 A 
ATOM     68  C   UNL A   1      43.041  23.772  26.137  1.00  0.00     0.173 A 
ATOM     69  F   UNL A   1      41.987  22.683  29.438  1.00  0.00    -0.203 F 
ATOM     70  C   UNL A   1      42.131  21.484  27.415  1.00  0.00     0.198 A 
ATOM     71  C   UNL A   1      42.872  22.589  25.420  1.00  0.00     0.198 A 
ATOM     72  F   UNL A   1      43.484  24.860  25.492  1.00  0.00    -0.203 F 
ATOM     73  F   UNL A   1      41.725  20.373  28.046  1.00  0.00    -0.200 F 
ATOM     74  C   UNL A   1      42.425  21.444  26.061  1.00  0.00     0.200 A 
ATOM     75  F   UNL A   1      43.140  22.560  24.107  1.00  0.00    -0.200 F 
ATOM     76  F   UNL A   1      42.284  20.302  25.376  1.00  0.00    -0.200 F 
ENDBRANCH  42  66
BRANCH  54  77
ATOM     77  C   UNL A   1      48.157  26.898  30.647  1.00  0.00     0.064 A 
ATOM     78  C   UNL A   1      48.555  26.027  31.673  1.00  0.00     0.173 A 
ATOM     79  C   UNL A   1      49.138  27.346  29.748  1.00  0.00     0.173 A 
ATOM     80  F   UNL A   1      47.659  25.584  32.567  1.00  0.00    -0.203 F 
ATOM     81  C   UNL A   1      49.885  25.638  31.805  1.00  0.00     0.198 A 
ATOM     82  C   UNL A   1      50.460  26.930  29.865  1.00  0.00     0.198 A 
ATOM     83  F   UNL A   1      48.808  28.176  28.748  1.00  0.00    -0.203 F 
ATOM     84  F   UNL A   1      50.251  24.842  32.820  1.00  0.00    -0.200 F 
ATOM     85  C   UNL A   1      50.834  26.082  30.896  1.00  0.00     0.200 A 
ATOM     86  F   UNL A   1      51.373  27.348  28.977  1.00  0.00    -0.200 F 
ATOM     87  F   UNL A   1      52.112  25.697  31.018  1.00  0.00    -0.200 F 
ENDBRANCH  54  77
ENDBRANCH  28  29
ENDBRANCH  20  23
ENDBRANCH  18  19
ENDBRANCH  17  18
ENDBRANCH   1  17
TORSDOF 13
ENDMDL
MODEL 2
REMARK VINA RESULT:     -10.2      4.530     10.760
REMARK SMILES O=C(CCC(=O)c1ccc(Cl)cc1)NCCCNC(=O)c1ccc(-c2c3nc(c(-c4c(F)c(F)c(F)c(F)c4F)c4ccc([nH]4)c(-c4c(F)c(F)c(F)c(F)c4F)c4nc(c(-c5c(F)c(F)c(F)c(F)c5F)c5ccc2[nH]5)C=C4)C=C3)cc1
REMARK SMILES IDX 15 1 14 2 1 3 2 4 3 6 4 7 5 8 6 9 7 10 8 11 13 12 9 13 12 14
REMARK SMILES IDX 10 15 11 16 16 17 17 18 18 19 19 20 20 22 21 23 22 24 83 25
REMARK SMILES IDX 23 26 82 27 24 28 25 29 26 30 76 31 27 32 81 33 75 34 77 35
REMARK SMILES IDX 28 36 80 37 74 38 73 39 29 41 61 42 41 43 60 44 42 45 45 46
REMARK SMILES IDX 59 47 78 48 43 49 44 50 58 52 79 53 46 54 30 55 31 56 39 57
REMARK SMILES IDX 32 58 33 59 37 60 40 61 34 62 35 63 38 64 36 65 62 66 63 67
REMARK SMILES IDX 71 68 64 69 65 70 69 71 72 72 66 73 67 74 70 75 68 76 47 77
REMARK SMILES IDX 48 78 56 79 49 80 50 81 54 82 57 83 51 84 52 85 55 86 53 87
REMARK H PARENT 14 5 18 21 77 40 45 51
REMARK Flexibility Score: inf
ROOT
ATOM      1  C   UNL A   1      43.511  18.701  25.508  1.00  0.00     0.117 C 
ENDROOT
BRANCH   1   2
ATOM      2  N   UNL A   1      44.557  19.688  25.700  1.00  0.00    -0.356 N 
ATOM      3  O   UNL A   1      44.530  20.437  23.537  1.00  0.00    -0.275 OA
ATOM      4  C   UNL A   1      44.900  20.568  24.699  1.00  0.00     0.220 C 
ATOM      5  H   UNL A   1      45.030  19.729  26.562  1.00  0.00     0.163 HD
BRANCH   4   6
ATOM      6  C   UNL A   1      45.628  21.805  25.181  1.00  0.00     0.108 C 
BRANCH   6   7
ATOM      7  C   UNL A   1      44.863  22.430  26.350  1.00  0.00     0.091 C 
BRANCH   7   8
ATOM      8  C   UNL A   1      45.734  23.325  27.218  1.00  0.00     0.163 C 
ATOM      9  O   UNL A   1      46.839  23.703  26.830  1.00  0.00    -0.294 OA
BRANCH   8  10
ATOM     10  C   UNL A   1      45.257  23.759  28.566  1.00  0.00     0.018 A 
ATOM     11  C   UNL A   1      44.371  22.982  29.316  1.00  0.00     0.013 A 
ATOM     12  C   UNL A   1      45.761  24.937  29.130  1.00  0.00     0.013 A 
ATOM     13  C   UNL A   1      44.040  23.328  30.627  1.00  0.00     0.021 A 
ATOM     14  C   UNL A   1      45.395  25.312  30.430  1.00  0.00     0.021 A 
ATOM     15  C   UNL A   1      44.552  24.495  31.182  1.00  0.00     0.041 A 
ATOM     16  Cl  UNL A   1      44.134  24.920  32.793  1.00  0.00    -0.084 Cl
ENDBRANCH   8  10
ENDBRANCH   7   8
ENDBRANCH   6   7
ENDBRANCH   4   6
ENDBRANCH   1   2
BRANCH   1  17
ATOM     17  C   UNL A   1      42.320  18.842  26.458  1.00  0.00     0.042 C 
BRANCH  17  18
ATOM     18  C   UNL A   1      41.648  20.214  26.542  1.00  0.00     0.118 C 
BRANCH  18  19
ATOM     19  N   UNL A   1      40.252  20.248  26.133  1.00  0.00    -0.352 N 
ATOM     20  C   UNL A   1      39.331  21.271  26.142  1.00  0.00     0.251 C 
ATOM     21  H   UNL A   1      39.907  19.392  25.792  1.00  0.00     0.163 HD
ATOM     22  O   UNL A   1      38.174  21.061  25.801  1.00  0.00    -0.269 OA
BRANCH  20  23
ATOM     23  C   UNL A   1      39.714  22.625  26.597  1.00  0.00     0.039 A 
ATOM     24  C   UNL A   1      40.720  22.755  27.561  1.00  0.00     0.014 A 
ATOM     25  C   UNL A   1      39.091  23.762  26.082  1.00  0.00     0.014 A 
ATOM     26  C   UNL A   1      41.184  24.025  27.913  1.00  0.00     0.010 A 
ATOM     27  C   UNL A   1      39.611  25.020  26.364  1.00  0.00     0.010 A 
ATOM     28  C   UNL A   1      40.679  25.162  27.263  1.00  0.00    -0.014 A 
BRANCH  28  29
ATOM     29  C   UNL A   1      41.280  26.506  27.448  1.00  0.00     0.031 A 
ATOM     30  C   UNL A   1      42.671  26.786  26.958  1.00  0.00     0.074 A 
ATOM     31  C   UNL A   1      40.617  27.425  28.178  1.00  0.00     0.049 A 
ATOM     32  N   UNL A   1      43.435  27.826  27.180  1.00  0.00    -0.248 NA
ATOM     33  C   UNL A   1      43.301  25.740  26.139  1.00  0.00     0.031 C 
ATOM     34  C   UNL A   1      39.278  27.248  28.746  1.00  0.00     0.029 A 
ATOM     35  N   UNL A   1      40.989  28.679  28.596  1.00  0.00    -0.354 N 
ATOM     36  C   UNL A   1      44.639  27.550  26.547  1.00  0.00     0.074 A 
ATOM     37  C   UNL A   1      44.523  26.226  25.973  1.00  0.00     0.031 C 
ATOM     38  C   UNL A   1      38.939  28.352  29.430  1.00  0.00     0.029 A 
ATOM     39  C   UNL A   1      40.053  29.292  29.394  1.00  0.00     0.049 A 
ATOM     40  H   UNL A   1      41.844  29.098  28.349  1.00  0.00     0.167 HD
ATOM     41  C   UNL A   1      45.736  28.340  26.444  1.00  0.00     0.037 A 
ATOM     42  C   UNL A   1      40.098  30.471  30.045  1.00  0.00     0.037 A 
ATOM     43  C   UNL A   1      45.832  29.662  27.005  1.00  0.00     0.049 A 
ATOM     44  C   UNL A   1      41.334  31.320  29.928  1.00  0.00     0.074 A 
ATOM     45  C   UNL A   1      46.870  30.570  26.904  1.00  0.00     0.029 A 
ATOM     46  N   UNL A   1      44.851  30.262  27.783  1.00  0.00    -0.354 N 
ATOM     47  N   UNL A   1      42.443  31.079  29.271  1.00  0.00    -0.248 NA
ATOM     48  C   UNL A   1      41.325  32.604  30.641  1.00  0.00     0.031 C 
ATOM     49  C   UNL A   1      46.541  31.698  27.663  1.00  0.00     0.029 A 
ATOM     50  C   UNL A   1      45.273  31.517  28.191  1.00  0.00     0.049 A 
ATOM     51  H   UNL A   1      43.983  29.856  28.010  1.00  0.00     0.167 HD
ATOM     52  C   UNL A   1      43.252  32.188  29.469  1.00  0.00     0.074 A 
ATOM     53  C   UNL A   1      42.500  33.111  30.294  1.00  0.00     0.031 C 
ATOM     54  C   UNL A   1      44.506  32.423  29.010  1.00  0.00     0.037 A 
BRANCH  41  55
ATOM     55  C   UNL A   1      46.919  27.794  25.696  1.00  0.00     0.064 A 
ATOM     56  C   UNL A   1      47.035  27.921  24.304  1.00  0.00     0.173 A 
ATOM     57  C   UNL A   1      47.971  27.169  26.384  1.00  0.00     0.173 A 
ATOM     58  F   UNL A   1      46.055  28.502  23.595  1.00  0.00    -0.203 F 
ATOM     59  C   UNL A   1      48.142  27.414  23.625  1.00  0.00     0.198 A 
ATOM     60  C   UNL A   1      49.090  26.692  25.706  1.00  0.00     0.198 A 
ATOM     61  F   UNL A   1      47.917  27.025  27.717  1.00  0.00    -0.203 F 
ATOM     62  F   UNL A   1      48.204  27.502  22.289  1.00  0.00    -0.200 F 
ATOM     63  C   UNL A   1      49.171  26.807  24.328  1.00  0.00     0.200 A 
ATOM     64  F   UNL A   1      50.091  26.118  26.389  1.00  0.00    -0.200 F 
ATOM     65  F   UNL A   1      50.238  26.327  23.674  1.00  0.00    -0.200 F 
ENDBRANCH  41  55
BRANCH  42  66
ATOM     66  C   UNL A   1      38.934  30.919  30.853  1.00  0.00     0.064 A 
ATOM     67  C   UNL A   1      37.864  31.598  30.253  1.00  0.00     0.173 A 
ATOM     68  C   UNL A   1      38.860  30.678  32.233  1.00  0.00     0.173 A 
ATOM     69  F   UNL A   1      37.896  31.869  28.940  1.00  0.00    -0.203 F 
ATOM     70  C   UNL A   1      36.775  32.035  31.005  1.00  0.00     0.198 A 
ATOM     71  C   UNL A   1      37.757  31.090  32.978  1.00  0.00     0.198 A 
ATOM     72  F   UNL A   1      39.853  30.027  32.855  1.00  0.00    -0.203 F 
ATOM     73  F   UNL A   1      35.787  32.721  30.413  1.00  0.00    -0.200 F 
ATOM     74  C   UNL A   1      36.719  31.775  32.366  1.00  0.00     0.200 A 
ATOM     75  F   UNL A   1      37.699  30.821  34.290  1.00  0.00    -0.200 F 
ATOM     76  F   UNL A   1      35.670  32.191  33.087  1.00  0.00    -0.200 F 
ENDBRANCH  42  66
BRANCH  54  77
ATOM     77  C   UNL A   1      45.132  33.739  29.365  1.00  0.00     0.064 A 
ATOM     78  C   UNL A   1      44.958  34.878  28.564  1.00  0.00     0.173 A 
ATOM     79  C   UNL A   1      45.876  33.875  30.548  1.00  0.00     0.173 A 
ATOM     80  F   UNL A   1      44.268  34.795  27.417  1.00  0.00    -0.203 F 
ATOM     81  C   UNL A   1      45.525  36.098  28.922  1.00  0.00     0.198 A 
ATOM     82  C   UNL A   1      46.415  35.104  30.918  1.00  0.00     0.198 A 
ATOM     83  F   UNL A   1      46.068  32.818  31.351  1.00  0.00    -0.203 F 
ATOM     84  F   UNL A   1      45.384  37.161  28.118  1.00  0.00    -0.200 F 
ATOM     85  C   UNL A   1      46.244  36.211  30.103  1.00  0.00     0.200 A 
ATOM     86  F   UNL A   1      47.097  35.216  32.066  1.00  0.00    -0.200 F 
ATOM     87  F   UNL A   1      46.779  37.390  30.451  1.00  0.00    -0.200 F 
ENDBRANCH  54  77
ENDBRANCH  28  29
ENDBRANCH  20  23
ENDBRANCH  18  19
ENDBRANCH  17  18
ENDBRANCH   1  17
TORSDOF 13
ENDMDL
MODEL 3
REMARK VINA RESULT:     -10.1      0.195      2.096
REMARK SMILES O=C(CCC(=O)c1ccc(Cl)cc1)NCCCNC(=O)c1ccc(-c2c3nc(c(-c4c(F)c(F)c(F)c(F)c4F)c4ccc([nH]4)c(-c4c(F)c(F)c(F)c(F)c4F)c4nc(c(-c5c(F)c(F)c(F)c(F)c5F)c5ccc2[nH]5)C=C4)C=C3)cc1
REMARK SMILES IDX 15 1 14 2 1 3 2 4 3 6 4 7 5 8 6 9 7 10 8 11 13 12 9 13 12 14
REMARK SMILES IDX 10 15 11 16 16 17 17 18 18 19 19 20 20 22 21 23 22 24 83 25
REMARK SMILES IDX 23 26 82 27 24 28 25 29 26 30 76 31 27 32 81 33 75 34 77 35
REMARK SMILES IDX 28 36 80 37 74 38 73 39 29 41 61 42 41 43 60 44 42 45 45 46
REMARK SMILES IDX 59 47 78 48 43 49 44 50 58 52 79 53 46 54 30 55 31 56 39 57
REMARK SMILES IDX 32 58 33 59 37 60 40 61 34 62 35 63 38 64 36 65 62 66 63 67
REMARK SMILES IDX 71 68 64 69 65 70 69 71 72 72 66 73 67 74 70 75 68 76 47 77
REMARK SMILES IDX 48 78 56 79 49 80 50 81 54 82 57 83 51 84 52 85 55 86 53 87
REMARK H PARENT 14 5 18 21 77 40 45 51
REMARK Flexibility Score: inf
ROOT
ATOM      1  C   UNL A   1      33.393  34.670  28.986  1.00  0.00     0.117 C 
ENDROOT
BRANCH   1   2
ATOM      2  N   UNL A   1      34.185  34.542  30.195  1.00  0.00    -0.356 N 
ATOM      3  O   UNL A   1      32.550  35.322  31.594  1.00  0.00    -0.275 OA
ATOM      4  C   UNL A   1      33.637  34.778  31.435  1.00  0.00     0.220 C 
ATOM      5  H   UNL A   1      35.132  34.282  30.126  1.00  0.00     0.163 HD
BRANCH   4   6
ATOM      6  C   UNL A   1      34.406  34.156  32.582  1.00  0.00     0.108 C 
BRANCH   6   7
ATOM      7  C   UNL A   1      34.782  32.714  32.229  1.00  0.00     0.091 C 
BRANCH   7   8
ATOM      8  C   UNL A   1      36.259  32.419  32.438  1.00  0.00     0.163 C 
ATOM      9  O   UNL A   1      36.634  31.673  33.343  1.00  0.00    -0.294 OA
BRANCH   8  10
ATOM     10  C   UNL A   1      37.283  33.040  31.544  1.00  0.00     0.018 A 
ATOM     11  C   UNL A   1      37.275  32.830  30.164  1.00  0.00     0.013 A 
ATOM     12  C   UNL A   1      38.235  33.911  32.088  1.00  0.00     0.013 A 
ATOM     13  C   UNL A   1      38.151  33.523  29.325  1.00  0.00     0.021 A 
ATOM     14  C   UNL A   1      39.145  34.573  31.252  1.00  0.00     0.021 A 
ATOM     15  C   UNL A   1      39.087  34.392  29.872  1.00  0.00     0.041 A 
ATOM     16  Cl  UNL A   1      40.166  35.235  28.834  1.00  0.00    -0.084 Cl
ENDBRANCH   8  10
ENDBRANCH   7   8
ENDBRANCH   6   7
ENDBRANCH   4   6
ENDBRANCH   1   2
BRANCH   1  17
ATOM     17  C   UNL A   1      33.537  33.507  28.003  1.00  0.00     0.042 C 
BRANCH  17  18
ATOM     18  C   UNL A   1      34.426  32.336  28.427  1.00  0.00     0.118 C 
BRANCH  18  19
ATOM     19  N   UNL A   1      34.022  31.034  27.918  1.00  0.00    -0.352 N 
ATOM     20  C   UNL A   1      34.714  29.848  27.817  1.00  0.00     0.251 C 
ATOM     21  H   UNL A   1      33.096  30.995  27.589  1.00  0.00     0.163 HD
ATOM     22  O   UNL A   1      34.190  28.871  27.295  1.00  0.00    -0.269 OA
BRANCH  20  23
ATOM     23  C   UNL A   1      36.107  29.745  28.302  1.00  0.00     0.039 A 
ATOM     24  C   UNL A   1      36.336  29.332  29.619  1.00  0.00     0.014 A 
ATOM     25  C   UNL A   1      37.184  30.050  27.470  1.00  0.00     0.014 A 
ATOM     26  C   UNL A   1      37.642  29.107  30.060  1.00  0.00     0.010 A 
ATOM     27  C   UNL A   1      38.478  29.742  27.878  1.00  0.00     0.010 A 
ATOM     28  C   UNL A   1      38.717  29.245  29.168  1.00  0.00    -0.014 A 
BRANCH  28  29
ATOM     29  C   UNL A   1      40.094  28.820  29.523  1.00  0.00     0.031 A 
ATOM     30  C   UNL A   1      41.010  29.760  30.254  1.00  0.00     0.074 A 
ATOM     31  C   UNL A   1      40.554  27.640  29.063  1.00  0.00     0.049 A 
ATOM     32  N   UNL A   1      42.292  29.648  30.493  1.00  0.00    -0.248 NA
ATOM     33  C   UNL A   1      40.410  31.007  30.750  1.00  0.00     0.031 C 
ATOM     34  C   UNL A   1      39.770  26.667  28.300  1.00  0.00     0.029 A 
ATOM     35  N   UNL A   1      41.801  27.071  29.140  1.00  0.00    -0.354 N 
ATOM     36  C   UNL A   1      42.655  30.817  31.148  1.00  0.00     0.074 A 
ATOM     37  C   UNL A   1      41.470  31.645  31.227  1.00  0.00     0.031 C 
ATOM     38  C   UNL A   1      40.549  25.620  27.986  1.00  0.00     0.029 A 
ATOM     39  C   UNL A   1      41.899  25.870  28.478  1.00  0.00     0.049 A 
ATOM     40  H   UNL A   1      42.554  27.484  29.621  1.00  0.00     0.167 HD
ATOM     41  C   UNL A   1      43.866  31.159  31.651  1.00  0.00     0.037 A 
ATOM     42  C   UNL A   1      42.964  25.071  28.270  1.00  0.00     0.037 A 
ATOM     43  C   UNL A   1      45.033  30.319  31.581  1.00  0.00     0.049 A 
ATOM     44  C   UNL A   1      44.300  25.483  28.824  1.00  0.00     0.074 A 
ATOM     45  C   UNL A   1      46.290  30.540  32.114  1.00  0.00     0.029 A 
ATOM     46  N   UNL A   1      45.086  29.095  30.928  1.00  0.00    -0.354 N 
ATOM     47  N   UNL A   1      44.619  26.560  29.500  1.00  0.00    -0.248 NA
ATOM     48  C   UNL A   1      45.425  24.569  28.586  1.00  0.00     0.031 C 
ATOM     49  C   UNL A   1      47.118  29.477  31.739  1.00  0.00     0.029 A 
ATOM     50  C   UNL A   1      46.363  28.564  31.022  1.00  0.00     0.049 A 
ATOM     51  H   UNL A   1      44.328  28.667  30.468  1.00  0.00     0.167 HD
ATOM     52  C   UNL A   1      45.970  26.442  29.790  1.00  0.00     0.074 A 
ATOM     53  C   UNL A   1      46.408  25.180  29.232  1.00  0.00     0.031 C 
ATOM     54  C   UNL A   1      46.778  27.302  30.460  1.00  0.00     0.037 A 
BRANCH  41  55
ATOM     55  C   UNL A   1      43.990  32.498  32.319  1.00  0.00     0.064 A 
ATOM     56  C   UNL A   1      43.751  32.663  33.692  1.00  0.00     0.173 A 
ATOM     57  C   UNL A   1      44.391  33.627  31.587  1.00  0.00     0.173 A 
ATOM     58  F   UNL A   1      43.357  31.620  34.439  1.00  0.00    -0.203 F 
ATOM     59  C   UNL A   1      43.875  33.911  34.299  1.00  0.00     0.198 A 
ATOM     60  C   UNL A   1      44.545  34.866  32.203  1.00  0.00     0.198 A 
ATOM     61  F   UNL A   1      44.640  33.527  30.272  1.00  0.00    -0.203 F 
ATOM     62  F   UNL A   1      43.590  34.053  35.600  1.00  0.00    -0.200 F 
ATOM     63  C   UNL A   1      44.279  35.009  33.556  1.00  0.00     0.200 A 
ATOM     64  F   UNL A   1      44.950  35.924  31.486  1.00  0.00    -0.200 F 
ATOM     65  F   UNL A   1      44.406  36.207  34.143  1.00  0.00    -0.200 F 
ENDBRANCH  41  55
BRANCH  42  66
ATOM     66  C   UNL A   1      42.804  23.802  27.515  1.00  0.00     0.064 A 
ATOM     67  C   UNL A   1      43.141  23.729  26.156  1.00  0.00     0.173 A 
ATOM     68  C   UNL A   1      42.319  22.637  28.128  1.00  0.00     0.173 A 
ATOM     69  F   UNL A   1      43.591  24.821  25.520  1.00  0.00    -0.203 F 
ATOM     70  C   UNL A   1      42.980  22.547  25.435  1.00  0.00     0.198 A 
ATOM     71  C   UNL A   1      42.187  21.448  27.413  1.00  0.00     0.198 A 
ATOM     72  F   UNL A   1      41.989  22.649  29.427  1.00  0.00    -0.203 F 
ATOM     73  F   UNL A   1      43.268  22.520  24.126  1.00  0.00    -0.200 F 
ATOM     74  C   UNL A   1      42.510  21.406  26.066  1.00  0.00     0.200 A 
ATOM     75  F   UNL A   1      41.748  20.343  28.032  1.00  0.00    -0.200 F 
ATOM     76  F   UNL A   1      42.361  20.268  25.374  1.00  0.00    -0.200 F 
ENDBRANCH  42  66
BRANCH  54  77
ATOM     77  C   UNL A   1      48.208  26.893  30.649  1.00  0.00     0.064 A 
ATOM     78  C   UNL A   1      49.221  27.334  29.785  1.00  0.00     0.173 A 
ATOM     79  C   UNL A   1      48.578  26.087  31.738  1.00  0.00     0.173 A 
ATOM     80  F   UNL A   1      48.917  28.092  28.721  1.00  0.00    -0.203 F 
ATOM     81  C   UNL A   1      50.548  26.964  29.989  1.00  0.00     0.198 A 
ATOM     82  C   UNL A   1      49.909  25.746  31.957  1.00  0.00     0.198 A 
ATOM     83  F   UNL A   1      47.648  25.643  32.596  1.00  0.00    -0.203 F 
ATOM     84  F   UNL A   1      51.492  27.359  29.124  1.00  0.00    -0.200 F 
ATOM     85  C   UNL A   1      50.891  26.179  31.080  1.00  0.00     0.200 A 
ATOM     86  F   UNL A   1      50.242  25.000  33.020  1.00  0.00    -0.200 F 
ATOM     87  F   UNL A   1      52.171  25.835  31.282  1.00  0.00    -0.200 F 
ENDBRANCH  54  77
ENDBRANCH  28  29
ENDBRANCH  20  23
ENDBRANCH  18  19
ENDBRANCH  17  18
ENDBRANCH   1  17
TORSDOF 13
ENDMDL
