MODEL 1
REMARK VINA RESULT:     -12.7      0.000      0.000
REMARK SMILES COc1ccc(C(=O)Nc2cccc(C(=O)NCCCNC(=O)c3ccc(-c4c5nc(c(-c6c(F)c(F)c(F)c(F)c6F)c6ccc([nH]6)c(-c6c(F)c(F)c(F)c(F)c6F)c6nc(c(-c7c(F)c(F)c(F)c(F)c7F)c7ccc4[nH]7)C=C6)C=C5)cc3)c2)cc1
REMARK SMILES IDX 18 1 17 2 15 3 16 4 14 6 10 7 11 8 87 9 12 10 13 11 9 12
REMARK SMILES IDX 7 13 8 14 6 16 3 17 4 18 89 19 5 20 88 21 2 22 1 23 19 24
REMARK SMILES IDX 20 25 21 26 22 27 23 29 24 30 25 31 86 32 26 33 85 34 27 35
REMARK SMILES IDX 28 36 29 37 79 38 30 39 84 40 78 41 80 42 31 43 83 44 77 45
REMARK SMILES IDX 76 46 32 48 64 49 44 50 63 51 45 52 48 53 62 54 81 55 46 56
REMARK SMILES IDX 47 57 61 59 82 60 49 61 33 62 34 63 42 64 35 65 36 66 40 67
REMARK SMILES IDX 43 68 37 69 38 70 41 71 39 72 65 73 66 74 74 75 67 76 68 77
REMARK SMILES IDX 72 78 75 79 69 80 70 81 73 82 71 83 50 84 51 85 59 86 52 87
REMARK SMILES IDX 53 88 57 89 60 90 54 91 55 92 58 93 56 94
REMARK H PARENT 17 5 9 15 21 28 80 47 48 58
REMARK Flexibility Score: inf
ROOT
ATOM      1  C   UNL A   1      31.408  30.759  26.430  1.00  0.00     0.118 C 
ENDROOT
BRANCH   1   2
ATOM      2  N   UNL A   1      32.358  30.321  25.426  1.00  0.00    -0.352 N 
ATOM      3  C   UNL A   1      32.406  29.223  24.605  1.00  0.00     0.251 C 
ATOM      4  O   UNL A   1      33.339  29.168  23.801  1.00  0.00    -0.269 OA
ATOM      5  H   UNL A   1      33.121  30.933  25.311  1.00  0.00     0.163 HD
BRANCH   3   6
ATOM      6  C   UNL A   1      31.384  28.135  24.595  1.00  0.00     0.041 A 
ATOM      7  C   UNL A   1      30.287  26.154  25.476  1.00  0.00     0.042 A 
ATOM      8  C   UNL A   1      29.342  26.195  24.455  1.00  0.00     0.026 A 
ATOM      9  C   UNL A   1      31.352  27.060  25.485  1.00  0.00     0.040 A 
ATOM     10  C   UNL A   1      29.382  27.235  23.528  1.00  0.00     0.003 A 
ATOM     11  C   UNL A   1      30.380  28.210  23.615  1.00  0.00     0.014 A 
BRANCH   7  12
ATOM     12  N   UNL A   1      30.108  25.228  26.514  1.00  0.00    -0.322 N 
ATOM     13  C   UNL A   1      30.591  23.936  26.619  1.00  0.00     0.255 C 
ATOM     14  O   UNL A   1      30.084  23.167  27.435  1.00  0.00    -0.269 OA
ATOM     15  H   UNL A   1      29.563  25.541  27.273  1.00  0.00     0.170 HD
BRANCH  13  16
ATOM     16  C   UNL A   1      31.792  23.479  25.848  1.00  0.00     0.040 A 
ATOM     17  C   UNL A   1      34.110  22.676  24.448  1.00  0.00     0.118 A 
ATOM     18  C   UNL A   1      34.211  23.413  25.630  1.00  0.00     0.047 A 
ATOM     19  C   UNL A   1      32.846  22.364  23.949  1.00  0.00     0.047 A 
ATOM     20  C   UNL A   1      33.064  23.815  26.327  1.00  0.00     0.017 A 
ATOM     21  C   UNL A   1      31.697  22.794  24.627  1.00  0.00     0.017 A 
BRANCH  17  22
ATOM     22  O   UNL A   1      35.301  22.319  23.881  1.00  0.00    -0.497 OA
ATOM     23  C   UNL A   1      36.405  23.189  24.103  1.00  0.00     0.278 C 
ENDBRANCH  17  22
ENDBRANCH  13  16
ENDBRANCH   7  12
ENDBRANCH   3   6
ENDBRANCH   1   2
BRANCH   1  24
ATOM     24  C   UNL A   1      31.362  32.281  26.527  1.00  0.00     0.042 C 
BRANCH  24  25
ATOM     25  C   UNL A   1      32.679  32.879  27.006  1.00  0.00     0.118 C 
BRANCH  25  26
ATOM     26  N   UNL A   1      32.489  34.185  27.624  1.00  0.00    -0.352 N 
ATOM     27  C   UNL A   1      33.105  34.747  28.709  1.00  0.00     0.251 C 
ATOM     28  H   UNL A   1      31.809  34.751  27.193  1.00  0.00     0.163 HD
ATOM     29  O   UNL A   1      32.654  35.790  29.185  1.00  0.00    -0.269 OA
BRANCH  27  30
ATOM     30  C   UNL A   1      34.290  34.116  29.326  1.00  0.00     0.039 A 
ATOM     31  C   UNL A   1      34.089  33.126  30.293  1.00  0.00     0.014 A 
ATOM     32  C   UNL A   1      35.588  34.517  28.998  1.00  0.00     0.014 A 
ATOM     33  C   UNL A   1      35.187  32.513  30.898  1.00  0.00     0.010 A 
ATOM     34  C   UNL A   1      36.682  33.848  29.540  1.00  0.00     0.010 A 
ATOM     35  C   UNL A   1      36.492  32.850  30.507  1.00  0.00    -0.014 A 
BRANCH  35  36
ATOM     36  C   UNL A   1      37.665  32.171  31.112  1.00  0.00     0.031 A 
ATOM     37  C   UNL A   1      38.132  32.543  32.491  1.00  0.00     0.074 A 
ATOM     38  C   UNL A   1      38.337  31.251  30.395  1.00  0.00     0.049 A 
ATOM     39  N   UNL A   1      39.137  32.066  33.181  1.00  0.00    -0.248 NA
ATOM     40  C   UNL A   1      37.393  33.616  33.174  1.00  0.00     0.031 C 
ATOM     41  C   UNL A   1      38.020  30.857  29.022  1.00  0.00     0.029 A 
ATOM     42  N   UNL A   1      39.426  30.483  30.719  1.00  0.00    -0.354 N 
ATOM     43  C   UNL A   1      39.161  32.790  34.366  1.00  0.00     0.074 A 
ATOM     44  C   UNL A   1      38.107  33.778  34.278  1.00  0.00     0.031 C 
ATOM     45  C   UNL A   1      38.875  29.900  28.632  1.00  0.00     0.029 A 
ATOM     46  C   UNL A   1      39.817  29.633  29.715  1.00  0.00     0.049 A 
ATOM     47  H   UNL A   1      39.884  30.537  31.589  1.00  0.00     0.167 HD
ATOM     48  C   UNL A   1      39.970  32.629  35.440  1.00  0.00     0.037 A 
ATOM     49  C   UNL A   1      40.817  28.734  29.675  1.00  0.00     0.037 A 
ATOM     50  C   UNL A   1      40.997  31.625  35.531  1.00  0.00     0.049 A 
ATOM     51  C   UNL A   1      41.680  28.546  30.892  1.00  0.00     0.074 A 
ATOM     52  C   UNL A   1      41.822  31.326  36.601  1.00  0.00     0.029 A 
ATOM     53  N   UNL A   1      41.342  30.756  34.505  1.00  0.00    -0.354 N 
ATOM     54  N   UNL A   1      41.636  29.174  32.041  1.00  0.00    -0.248 NA
ATOM     55  C   UNL A   1      42.721  27.513  30.811  1.00  0.00     0.031 C 
ATOM     56  C   UNL A   1      42.696  30.307  36.207  1.00  0.00     0.029 A 
ATOM     57  C   UNL A   1      42.382  29.935  34.909  1.00  0.00     0.049 A 
ATOM     58  H   UNL A   1      40.911  30.727  33.621  1.00  0.00     0.167 HD
ATOM     59  C   UNL A   1      42.623  28.600  32.829  1.00  0.00     0.074 A 
ATOM     60  C   UNL A   1      43.241  27.560  32.030  1.00  0.00     0.031 C 
ATOM     61  C   UNL A   1      42.984  28.905  34.100  1.00  0.00     0.037 A 
BRANCH  48  62
ATOM     62  C   UNL A   1      39.772  33.563  36.601  1.00  0.00     0.064 A 
ATOM     63  C   UNL A   1      38.910  33.248  37.663  1.00  0.00     0.173 A 
ATOM     64  C   UNL A   1      40.465  34.782  36.660  1.00  0.00     0.173 A 
ATOM     65  F   UNL A   1      38.217  32.100  37.652  1.00  0.00    -0.203 F 
ATOM     66  C   UNL A   1      38.717  34.137  38.718  1.00  0.00     0.198 A 
ATOM     67  C   UNL A   1      40.294  35.653  37.732  1.00  0.00     0.198 A 
ATOM     68  F   UNL A   1      41.307  35.131  35.676  1.00  0.00    -0.203 F 
ATOM     69  F   UNL A   1      37.841  33.841  39.689  1.00  0.00    -0.200 F 
ATOM     70  C   UNL A   1      39.413  35.335  38.755  1.00  0.00     0.200 A 
ATOM     71  F   UNL A   1      40.977  36.805  37.773  1.00  0.00    -0.200 F 
ATOM     72  F   UNL A   1      39.226  36.189  39.771  1.00  0.00    -0.200 F 
ENDBRANCH  48  62
BRANCH  49  73
ATOM     73  C   UNL A   1      41.015  27.913  28.454  1.00  0.00     0.064 A 
ATOM     74  C   UNL A   1      40.372  26.676  28.307  1.00  0.00     0.173 A 
ATOM     75  C   UNL A   1      41.818  28.362  27.395  1.00  0.00     0.173 A 
ATOM     76  F   UNL A   1      39.607  26.198  29.299  1.00  0.00    -0.203 F 
ATOM     77  C   UNL A   1      40.533  25.915  27.152  1.00  0.00     0.198 A 
ATOM     78  C   UNL A   1      41.957  27.611  26.230  1.00  0.00     0.198 A 
ATOM     79  F   UNL A   1      42.446  29.543  27.484  1.00  0.00    -0.203 F 
ATOM     80  F   UNL A   1      39.931  24.721  27.050  1.00  0.00    -0.200 F 
ATOM     81  C   UNL A   1      41.318  26.386  26.111  1.00  0.00     0.200 A 
ATOM     82  F   UNL A   1      42.704  28.078  25.220  1.00  0.00    -0.200 F 
ATOM     83  F   UNL A   1      41.463  25.658  24.995  1.00  0.00    -0.200 F 
ENDBRANCH  49  73
BRANCH  61  84
ATOM     84  C   UNL A   1      44.080  28.085  34.717  1.00  0.00     0.064 A 
ATOM     85  C   UNL A   1      45.418  28.502  34.684  1.00  0.00     0.173 A 
ATOM     86  C   UNL A   1      43.779  26.888  35.385  1.00  0.00     0.173 A 
ATOM     87  F   UNL A   1      45.758  29.631  34.045  1.00  0.00    -0.203 F 
ATOM     88  C   UNL A   1      46.420  27.736  35.275  1.00  0.00     0.198 A 
ATOM     89  C   UNL A   1      44.779  26.140  35.999  1.00  0.00     0.198 A 
ATOM     90  F   UNL A   1      42.513  26.450  35.450  1.00  0.00    -0.203 F 
ATOM     91  F   UNL A   1      47.698  28.129  35.191  1.00  0.00    -0.200 F 
ATOM     92  C   UNL A   1      46.099  26.561  35.937  1.00  0.00     0.200 A 
ATOM     93  F   UNL A   1      44.465  25.012  36.650  1.00  0.00    -0.200 F 
ATOM     94  F   UNL A   1      47.064  25.828  36.512  1.00  0.00    -0.200 F 
ENDBRANCH  61  84
ENDBRANCH  35  36
ENDBRANCH  27  30
ENDBRANCH  25  26
ENDBRANCH  24  25
ENDBRANCH   1  24
TORSDOF 13
ENDMDL
MODEL 2
REMARK VINA RESULT:     -12.6      1.137      2.267
REMARK SMILES COc1ccc(C(=O)Nc2cccc(C(=O)NCCCNC(=O)c3ccc(-c4c5nc(c(-c6c(F)c(F)c(F)c(F)c6F)c6ccc([nH]6)c(-c6c(F)c(F)c(F)c(F)c6F)c6nc(c(-c7c(F)c(F)c(F)c(F)c7F)c7ccc4[nH]7)C=C6)C=C5)cc3)c2)cc1
REMARK SMILES IDX 18 1 17 2 15 3 16 4 14 6 10 7 11 8 87 9 12 10 13 11 9 12
REMARK SMILES IDX 7 13 8 14 6 16 3 17 4 18 89 19 5 20 88 21 2 22 1 23 19 24
REMARK SMILES IDX 20 25 21 26 22 27 23 29 24 30 25 31 86 32 26 33 85 34 27 35
REMARK SMILES IDX 28 36 29 37 79 38 30 39 84 40 78 41 80 42 31 43 83 44 77 45
REMARK SMILES IDX 76 46 32 48 64 49 44 50 63 51 45 52 48 53 62 54 81 55 46 56
REMARK SMILES IDX 47 57 61 59 82 60 49 61 33 62 34 63 42 64 35 65 36 66 40 67
REMARK SMILES IDX 43 68 37 69 38 70 41 71 39 72 65 73 66 74 74 75 67 76 68 77
REMARK SMILES IDX 72 78 75 79 69 80 70 81 73 82 71 83 50 84 51 85 59 86 52 87
REMARK SMILES IDX 53 88 57 89 60 90 54 91 55 92 58 93 56 94
REMARK H PARENT 17 5 9 15 21 28 80 47 48 58
REMARK Flexibility Score: inf
ROOT
ATOM      1  C   UNL A   1      31.355  30.913  25.903  1.00  0.00     0.118 C 
ENDROOT
BRANCH   1   2
ATOM      2  N   UNL A   1      32.350  30.114  26.591  1.00  0.00    -0.352 N 
ATOM      3  C   UNL A   1      32.659  28.778  26.554  1.00  0.00     0.251 C 
ATOM      4  O   UNL A   1      33.622  28.410  27.231  1.00  0.00    -0.269 OA
ATOM      5  H   UNL A   1      32.915  30.633  27.207  1.00  0.00     0.163 HD
BRANCH   3   6
ATOM      6  C   UNL A   1      31.942  27.770  25.718  1.00  0.00     0.041 A 
ATOM      7  C   UNL A   1      31.460  26.584  23.653  1.00  0.00     0.042 A 
ATOM      8  C   UNL A   1      30.540  25.771  24.309  1.00  0.00     0.026 A 
ATOM      9  C   UNL A   1      32.080  27.636  24.336  1.00  0.00     0.040 A 
ATOM     10  C   UNL A   1      30.354  25.918  25.682  1.00  0.00     0.003 A 
ATOM     11  C   UNL A   1      31.069  26.894  26.383  1.00  0.00     0.014 A 
BRANCH   7  12
ATOM     12  N   UNL A   1      31.787  26.285  22.323  1.00  0.00    -0.322 N 
ATOM     13  C   UNL A   1      32.753  25.420  21.839  1.00  0.00     0.255 C 
ATOM     14  O   UNL A   1      33.113  25.515  20.666  1.00  0.00    -0.269 OA
ATOM     15  H   UNL A   1      31.256  26.754  21.639  1.00  0.00     0.170 HD
BRANCH  13  16
ATOM     16  C   UNL A   1      33.290  24.295  22.669  1.00  0.00     0.040 A 
ATOM     17  C   UNL A   1      34.221  22.126  24.221  1.00  0.00     0.118 A 
ATOM     18  C   UNL A   1      33.069  22.002  23.442  1.00  0.00     0.047 A 
ATOM     19  C   UNL A   1      34.893  23.347  24.248  1.00  0.00     0.047 A 
ATOM     20  C   UNL A   1      32.603  23.075  22.672  1.00  0.00     0.017 A 
ATOM     21  C   UNL A   1      34.409  24.432  23.504  1.00  0.00     0.017 A 
BRANCH  17  22
ATOM     22  O   UNL A   1      34.588  20.999  24.901  1.00  0.00    -0.497 OA
ATOM     23  C   UNL A   1      33.840  19.817  24.639  1.00  0.00     0.278 C 
ENDBRANCH  17  22
ENDBRANCH  13  16
ENDBRANCH   7  12
ENDBRANCH   3   6
ENDBRANCH   1   2
BRANCH   1  24
ATOM     24  C   UNL A   1      31.228  32.302  26.523  1.00  0.00     0.042 C 
BRANCH  24  25
ATOM     25  C   UNL A   1      32.550  32.819  27.077  1.00  0.00     0.118 C 
BRANCH  25  26
ATOM     26  N   UNL A   1      32.420  34.166  27.618  1.00  0.00    -0.352 N 
ATOM     27  C   UNL A   1      33.089  34.773  28.646  1.00  0.00     0.251 C 
ATOM     28  H   UNL A   1      31.745  34.728  27.174  1.00  0.00     0.163 HD
ATOM     29  O   UNL A   1      32.687  35.858  29.071  1.00  0.00    -0.269 OA
BRANCH  27  30
ATOM     30  C   UNL A   1      34.273  34.142  29.264  1.00  0.00     0.039 A 
ATOM     31  C   UNL A   1      34.073  33.186  30.265  1.00  0.00     0.014 A 
ATOM     32  C   UNL A   1      35.573  34.512  28.904  1.00  0.00     0.014 A 
ATOM     33  C   UNL A   1      35.170  32.574  30.871  1.00  0.00     0.010 A 
ATOM     34  C   UNL A   1      36.664  33.842  29.450  1.00  0.00     0.010 A 
ATOM     35  C   UNL A   1      36.474  32.878  30.450  1.00  0.00    -0.014 A 
BRANCH  35  36
ATOM     36  C   UNL A   1      37.645  32.198  31.059  1.00  0.00     0.031 A 
ATOM     37  C   UNL A   1      38.116  32.578  32.434  1.00  0.00     0.074 A 
ATOM     38  C   UNL A   1      38.313  31.271  30.347  1.00  0.00     0.049 A 
ATOM     39  N   UNL A   1      39.121  32.103  33.126  1.00  0.00    -0.248 NA
ATOM     40  C   UNL A   1      37.382  33.659  33.111  1.00  0.00     0.031 C 
ATOM     41  C   UNL A   1      37.993  30.869  28.976  1.00  0.00     0.029 A 
ATOM     42  N   UNL A   1      39.400  30.502  30.674  1.00  0.00    -0.354 N 
ATOM     43  C   UNL A   1      39.149  32.835  34.306  1.00  0.00     0.074 A 
ATOM     44  C   UNL A   1      38.098  33.825  34.212  1.00  0.00     0.031 C 
ATOM     45  C   UNL A   1      38.843  29.907  28.592  1.00  0.00     0.029 A 
ATOM     46  C   UNL A   1      39.786  29.644  29.675  1.00  0.00     0.049 A 
ATOM     47  H   UNL A   1      39.860  30.560  31.543  1.00  0.00     0.167 HD
ATOM     48  C   UNL A   1      39.959  32.679  35.379  1.00  0.00     0.037 A 
ATOM     49  C   UNL A   1      40.783  28.741  29.639  1.00  0.00     0.037 A 
ATOM     50  C   UNL A   1      40.983  31.671  35.476  1.00  0.00     0.049 A 
ATOM     51  C   UNL A   1      41.647  28.558  30.857  1.00  0.00     0.074 A 
ATOM     52  C   UNL A   1      41.808  31.377  36.546  1.00  0.00     0.029 A 
ATOM     53  N   UNL A   1      41.323  30.794  34.455  1.00  0.00    -0.354 N 
ATOM     54  N   UNL A   1      41.607  29.194  32.002  1.00  0.00    -0.248 NA
ATOM     55  C   UNL A   1      42.685  27.521  30.782  1.00  0.00     0.031 C 
ATOM     56  C   UNL A   1      42.678  30.352  36.158  1.00  0.00     0.029 A 
ATOM     57  C   UNL A   1      42.361  29.972  34.863  1.00  0.00     0.049 A 
ATOM     58  H   UNL A   1      40.891  30.761  33.572  1.00  0.00     0.167 HD
ATOM     59  C   UNL A   1      42.593  28.622  32.792  1.00  0.00     0.074 A 
ATOM     60  C   UNL A   1      43.206  27.575  31.999  1.00  0.00     0.031 C 
ATOM     61  C   UNL A   1      42.958  28.935  34.060  1.00  0.00     0.037 A 
BRANCH  48  62
ATOM     62  C   UNL A   1      39.767  33.620  36.534  1.00  0.00     0.064 A 
ATOM     63  C   UNL A   1      40.416  34.864  36.588  1.00  0.00     0.173 A 
ATOM     64  C   UNL A   1      38.912  33.282  37.595  1.00  0.00     0.173 A 
ATOM     65  F   UNL A   1      41.252  35.233  35.606  1.00  0.00    -0.203 F 
ATOM     66  C   UNL A   1      40.248  35.714  37.679  1.00  0.00     0.198 A 
ATOM     67  C   UNL A   1      38.721  34.149  38.667  1.00  0.00     0.198 A 
ATOM     68  F   UNL A   1      38.260  32.110  37.591  1.00  0.00    -0.203 F 
ATOM     69  F   UNL A   1      40.928  36.868  37.737  1.00  0.00    -0.200 F 
ATOM     70  C   UNL A   1      39.398  35.359  38.714  1.00  0.00     0.200 A 
ATOM     71  F   UNL A   1      37.889  33.810  39.661  1.00  0.00    -0.200 F 
ATOM     72  F   UNL A   1      39.237  36.178  39.763  1.00  0.00    -0.200 F 
ENDBRANCH  48  62
BRANCH  49  73
ATOM     73  C   UNL A   1      40.976  27.911  28.424  1.00  0.00     0.064 A 
ATOM     74  C   UNL A   1      40.330  26.675  28.287  1.00  0.00     0.173 A 
ATOM     75  C   UNL A   1      41.778  28.350  27.361  1.00  0.00     0.173 A 
ATOM     76  F   UNL A   1      39.566  26.205  29.285  1.00  0.00    -0.203 F 
ATOM     77  C   UNL A   1      40.486  25.905  27.137  1.00  0.00     0.198 A 
ATOM     78  C   UNL A   1      41.913  27.591  26.200  1.00  0.00     0.198 A 
ATOM     79  F   UNL A   1      42.410  29.531  27.439  1.00  0.00    -0.203 F 
ATOM     80  F   UNL A   1      39.881  24.712  27.045  1.00  0.00    -0.200 F 
ATOM     81  C   UNL A   1      41.270  26.367  26.091  1.00  0.00     0.200 A 
ATOM     82  F   UNL A   1      42.659  28.049  25.186  1.00  0.00    -0.200 F 
ATOM     83  F   UNL A   1      41.411  25.631  24.980  1.00  0.00    -0.200 F 
ENDBRANCH  49  73
BRANCH  61  84
ATOM     84  C   UNL A   1      44.052  28.115  34.681  1.00  0.00     0.064 A 
ATOM     85  C   UNL A   1      43.778  26.923  35.368  1.00  0.00     0.173 A 
ATOM     86  C   UNL A   1      45.393  28.507  34.551  1.00  0.00     0.173 A 
ATOM     87  F   UNL A   1      42.511  26.513  35.532  1.00  0.00    -0.203 F 
ATOM     88  C   UNL A   1      44.807  26.167  35.924  1.00  0.00     0.198 A 
ATOM     89  C   UNL A   1      46.420  27.734  35.083  1.00  0.00     0.198 A 
ATOM     90  F   UNL A   1      45.706  29.635  33.897  1.00  0.00    -0.203 F 
ATOM     91  F   UNL A   1      44.520  25.056  36.616  1.00  0.00    -0.200 F 
ATOM     92  C   UNL A   1      46.126  26.568  35.775  1.00  0.00     0.200 A 
ATOM     93  F   UNL A   1      47.694  28.116  34.926  1.00  0.00    -0.200 F 
ATOM     94  F   UNL A   1      47.115  25.835  36.305  1.00  0.00    -0.200 F 
ENDBRANCH  61  84
ENDBRANCH  35  36
ENDBRANCH  27  30
ENDBRANCH  25  26
ENDBRANCH  24  25
ENDBRANCH   1  24
TORSDOF 13
ENDMDL
MODEL 3
REMARK VINA RESULT:     -12.5      0.373      1.635
REMARK SMILES COc1ccc(C(=O)Nc2cccc(C(=O)NCCCNC(=O)c3ccc(-c4c5nc(c(-c6c(F)c(F)c(F)c(F)c6F)c6ccc([nH]6)c(-c6c(F)c(F)c(F)c(F)c6F)c6nc(c(-c7c(F)c(F)c(F)c(F)c7F)c7ccc4[nH]7)C=C6)C=C5)cc3)c2)cc1
REMARK SMILES IDX 18 1 17 2 15 3 16 4 14 6 10 7 11 8 87 9 12 10 13 11 9 12
REMARK SMILES IDX 7 13 8 14 6 16 3 17 4 18 89 19 5 20 88 21 2 22 1 23 19 24
REMARK SMILES IDX 20 25 21 26 22 27 23 29 24 30 25 31 86 32 26 33 85 34 27 35
REMARK SMILES IDX 28 36 29 37 79 38 30 39 84 40 78 41 80 42 31 43 83 44 77 45
REMARK SMILES IDX 76 46 32 48 64 49 44 50 63 51 45 52 48 53 62 54 81 55 46 56
REMARK SMILES IDX 47 57 61 59 82 60 49 61 33 62 34 63 42 64 35 65 36 66 40 67
REMARK SMILES IDX 43 68 37 69 38 70 41 71 39 72 65 73 66 74 74 75 67 76 68 77
REMARK SMILES IDX 72 78 75 79 69 80 70 81 73 82 71 83 50 84 51 85 59 86 52 87
REMARK SMILES IDX 53 88 57 89 60 90 54 91 55 92 58 93 56 94
REMARK H PARENT 17 5 9 15 21 28 80 47 48 58
REMARK Flexibility Score: inf
ROOT
ATOM      1  C   UNL A   1      31.376  30.604  26.385  1.00  0.00     0.118 C 
ENDROOT
BRANCH   1   2
ATOM      2  N   UNL A   1      32.405  30.126  25.481  1.00  0.00    -0.352 N 
ATOM      3  C   UNL A   1      32.513  29.000  24.705  1.00  0.00     0.251 C 
ATOM      4  O   UNL A   1      33.511  28.913  23.987  1.00  0.00    -0.269 OA
ATOM      5  H   UNL A   1      33.180  30.730  25.411  1.00  0.00     0.163 HD
BRANCH   3   6
ATOM      6  C   UNL A   1      31.486  27.918  24.644  1.00  0.00     0.041 A 
ATOM      7  C   UNL A   1      30.314  25.963  25.485  1.00  0.00     0.042 A 
ATOM      8  C   UNL A   1      29.446  25.988  24.397  1.00  0.00     0.026 A 
ATOM      9  C   UNL A   1      31.383  26.863  25.552  1.00  0.00     0.040 A 
ATOM     10  C   UNL A   1      29.560  27.007  23.455  1.00  0.00     0.003 A 
ATOM     11  C   UNL A   1      30.557  27.978  23.593  1.00  0.00     0.014 A 
BRANCH   7  12
ATOM     12  N   UNL A   1      30.054  25.061  26.527  1.00  0.00    -0.322 N 
ATOM     13  C   UNL A   1      30.506  23.763  26.685  1.00  0.00     0.255 C 
ATOM     14  O   UNL A   1      29.935  23.019  27.482  1.00  0.00    -0.269 OA
ATOM     15  H   UNL A   1      29.468  25.397  27.244  1.00  0.00     0.170 HD
BRANCH  13  16
ATOM     16  C   UNL A   1      31.745  23.272  26.001  1.00  0.00     0.040 A 
ATOM     17  C   UNL A   1      34.133  22.405  24.764  1.00  0.00     0.118 A 
ATOM     18  C   UNL A   1      34.173  23.188  25.921  1.00  0.00     0.047 A 
ATOM     19  C   UNL A   1      32.897  22.080  24.208  1.00  0.00     0.047 A 
ATOM     20  C   UNL A   1      32.991  23.621  26.536  1.00  0.00     0.017 A 
ATOM     21  C   UNL A   1      31.715  22.540  24.804  1.00  0.00     0.017 A 
BRANCH  17  22
ATOM     22  O   UNL A   1      35.351  22.022  24.279  1.00  0.00    -0.497 OA
ATOM     23  C   UNL A   1      36.069  21.054  25.034  1.00  0.00     0.278 C 
ENDBRANCH  17  22
ENDBRANCH  13  16
ENDBRANCH   7  12
ENDBRANCH   3   6
ENDBRANCH   1   2
BRANCH   1  24
ATOM     24  C   UNL A   1      31.404  32.125  26.508  1.00  0.00     0.042 C 
BRANCH  24  25
ATOM     25  C   UNL A   1      32.727  32.644  27.057  1.00  0.00     0.118 C 
BRANCH  25  26
ATOM     26  N   UNL A   1      32.596  33.987  27.606  1.00  0.00    -0.352 N 
ATOM     27  C   UNL A   1      33.261  34.588  28.641  1.00  0.00     0.251 C 
ATOM     28  H   UNL A   1      31.922  34.552  27.163  1.00  0.00     0.163 HD
ATOM     29  O   UNL A   1      32.857  35.671  29.070  1.00  0.00    -0.269 OA
BRANCH  27  30
ATOM     30  C   UNL A   1      34.443  33.954  29.259  1.00  0.00     0.039 A 
ATOM     31  C   UNL A   1      34.238  32.955  30.216  1.00  0.00     0.014 A 
ATOM     32  C   UNL A   1      35.742  34.359  28.942  1.00  0.00     0.014 A 
ATOM     33  C   UNL A   1      35.333  32.338  30.822  1.00  0.00     0.010 A 
ATOM     34  C   UNL A   1      36.834  33.687  29.485  1.00  0.00     0.010 A 
ATOM     35  C   UNL A   1      36.640  32.681  30.442  1.00  0.00    -0.014 A 
BRANCH  35  36
ATOM     36  C   UNL A   1      37.810  31.998  31.049  1.00  0.00     0.031 A 
ATOM     37  C   UNL A   1      38.267  32.356  32.435  1.00  0.00     0.074 A 
ATOM     38  C   UNL A   1      38.490  31.088  30.327  1.00  0.00     0.049 A 
ATOM     39  N   UNL A   1      39.268  31.875  33.127  1.00  0.00    -0.248 NA
ATOM     40  C   UNL A   1      37.519  33.420  33.124  1.00  0.00     0.031 C 
ATOM     41  C   UNL A   1      38.184  30.708  28.947  1.00  0.00     0.029 A 
ATOM     42  N   UNL A   1      39.579  30.319  30.650  1.00  0.00    -0.354 N 
ATOM     43  C   UNL A   1      39.281  32.586  34.320  1.00  0.00     0.074 A 
ATOM     44  C   UNL A   1      38.225  33.571  34.235  1.00  0.00     0.031 C 
ATOM     45  C   UNL A   1      39.044  29.758  28.552  1.00  0.00     0.029 A 
ATOM     46  C   UNL A   1      39.979  29.481  29.640  1.00  0.00     0.049 A 
ATOM     47  H   UNL A   1      40.030  30.365  31.524  1.00  0.00     0.167 HD
ATOM     48  C   UNL A   1      40.082  32.415  35.398  1.00  0.00     0.037 A 
ATOM     49  C   UNL A   1      40.982  28.585  29.597  1.00  0.00     0.037 A 
ATOM     50  C   UNL A   1      41.112  31.412  35.486  1.00  0.00     0.049 A 
ATOM     51  C   UNL A   1      41.836  28.386  30.818  1.00  0.00     0.074 A 
ATOM     52  C   UNL A   1      41.929  31.104  36.558  1.00  0.00     0.029 A 
ATOM     53  N   UNL A   1      41.466  30.556  34.452  1.00  0.00    -0.354 N 
ATOM     54  N   UNL A   1      41.782  29.002  31.974  1.00  0.00    -0.248 NA
ATOM     55  C   UNL A   1      42.881  27.357  30.734  1.00  0.00     0.031 C 
ATOM     56  C   UNL A   1      42.809  30.092  36.159  1.00  0.00     0.029 A 
ATOM     57  C   UNL A   1      42.506  29.733  34.855  1.00  0.00     0.049 A 
ATOM     58  H   UNL A   1      41.042  30.535  33.565  1.00  0.00     0.167 HD
ATOM     59  C   UNL A   1      42.765  28.422  32.762  1.00  0.00     0.074 A 
ATOM     60  C   UNL A   1      43.391  27.392  31.957  1.00  0.00     0.031 C 
ATOM     61  C   UNL A   1      43.116  28.714  34.040  1.00  0.00     0.037 A 
BRANCH  48  62
ATOM     62  C   UNL A   1      39.874  33.335  36.567  1.00  0.00     0.064 A 
ATOM     63  C   UNL A   1      38.955  33.038  37.586  1.00  0.00     0.173 A 
ATOM     64  C   UNL A   1      40.613  34.524  36.679  1.00  0.00     0.173 A 
ATOM     65  F   UNL A   1      38.215  31.921  37.523  1.00  0.00    -0.203 F 
ATOM     66  C   UNL A   1      38.754  33.916  38.649  1.00  0.00     0.198 A 
ATOM     67  C   UNL A   1      40.433  35.382  37.760  1.00  0.00     0.198 A 
ATOM     68  F   UNL A   1      41.510  34.854  35.738  1.00  0.00    -0.203 F 
ATOM     69  F   UNL A   1      37.825  33.640  39.576  1.00  0.00    -0.200 F 
ATOM     70  C   UNL A   1      39.496  35.083  38.738  1.00  0.00     0.200 A 
ATOM     71  F   UNL A   1      41.160  36.503  37.853  1.00  0.00    -0.200 F 
ATOM     72  F   UNL A   1      39.301  35.926  39.762  1.00  0.00    -0.200 F 
ENDBRANCH  48  62
BRANCH  49  73
ATOM     73  C   UNL A   1      41.191  27.778  28.368  1.00  0.00     0.064 A 
ATOM     74  C   UNL A   1      42.077  28.204  27.370  1.00  0.00     0.173 A 
ATOM     75  C   UNL A   1      40.539  26.550  28.184  1.00  0.00     0.173 A 
ATOM     76  F   UNL A   1      42.710  29.380  27.495  1.00  0.00    -0.203 F 
ATOM     77  C   UNL A   1      42.296  27.437  26.228  1.00  0.00     0.198 A 
ATOM     78  C   UNL A   1      40.779  25.772  27.053  1.00  0.00     0.198 A 
ATOM     79  F   UNL A   1      39.689  26.094  29.115  1.00  0.00    -0.203 F 
ATOM     80  F   UNL A   1      43.125  27.883  25.274  1.00  0.00    -0.200 F 
ATOM     81  C   UNL A   1      41.654  26.218  26.074  1.00  0.00     0.200 A 
ATOM     82  F   UNL A   1      40.168  24.587  26.916  1.00  0.00    -0.200 F 
ATOM     83  F   UNL A   1      41.875  25.476  24.981  1.00  0.00    -0.200 F 
ENDBRANCH  49  73
BRANCH  61  84
ATOM     84  C   UNL A   1      44.210  27.889  34.655  1.00  0.00     0.064 A 
ATOM     85  C   UNL A   1      43.938  26.679  35.309  1.00  0.00     0.173 A 
ATOM     86  C   UNL A   1      45.548  28.297  34.553  1.00  0.00     0.173 A 
ATOM     87  F   UNL A   1      42.674  26.253  35.446  1.00  0.00    -0.203 F 
ATOM     88  C   UNL A   1      44.967  25.919  35.861  1.00  0.00     0.198 A 
ATOM     89  C   UNL A   1      46.576  27.522  35.081  1.00  0.00     0.198 A 
ATOM     90  F   UNL A   1      45.859  29.445  33.931  1.00  0.00    -0.203 F 
ATOM     91  F   UNL A   1      44.682  24.789  36.522  1.00  0.00    -0.200 F 
ATOM     92  C   UNL A   1      46.284  26.337  35.740  1.00  0.00     0.200 A 
ATOM     93  F   UNL A   1      47.848  27.920  34.951  1.00  0.00    -0.200 F 
ATOM     94  F   UNL A   1      47.273  25.601  36.266  1.00  0.00    -0.200 F 
ENDBRANCH  61  84
ENDBRANCH  35  36
ENDBRANCH  27  30
ENDBRANCH  25  26
ENDBRANCH  24  25
ENDBRANCH   1  24
TORSDOF 13
ENDMDL
