MODEL 1
REMARK VINA RESULT:     -11.7      0.000      0.000
REMARK SMILES C[C@@H](C(=O)NCCCNC(=O)c1ccc(-c2c3nc(c(-c4c(F)c(F)c(F)c(F)c4F)c4ccc([nH]4)c(-c4c(F)c(F)c(F)c(F)c4F)c4nc(c(-c5c(F)c(F)c(F)c(F)c5F)c5ccc2[nH]5)C=C4)C=C3)cc1)[C@@H](N[S@](=O)C(C)(C)C)C(C)(C)C
REMARK SMILES IDX 6 1 5 2 3 3 4 4 2 6 1 7 75 8 76 9 77 11 78 12 79 13 80 14
REMARK SMILES IDX 81 15 82 16 83 17 84 18 85 19 86 20 7 21 8 22 9 23 10 24
REMARK SMILES IDX 11 26 12 27 13 28 74 29 14 30 73 31 15 32 16 33 17 34 67 35
REMARK SMILES IDX 18 36 72 37 66 38 68 39 19 40 71 41 65 42 64 43 20 45 52 46
REMARK SMILES IDX 32 47 51 48 33 49 36 50 50 51 69 52 34 53 35 54 49 56 70 57
REMARK SMILES IDX 37 58 21 59 22 60 30 61 23 62 24 63 28 64 31 65 25 66 26 67
REMARK SMILES IDX 29 68 27 69 53 70 54 71 62 72 55 73 56 74 60 75 63 76 57 77
REMARK SMILES IDX 58 78 61 79 59 80 38 81 39 82 47 83 40 84 41 85 45 86 48 87
REMARK SMILES IDX 42 88 43 89 46 90 44 91
REMARK H PARENT 5 5 76 10 9 25 68 44 36 55
REMARK Flexibility Score: inf
ROOT
ATOM      1  C   UNL A   1      31.730  30.424  26.396  1.00  0.00     0.117 C 
ENDROOT
BRANCH   1   2
ATOM      2  N   UNL A   1      32.118  30.121  25.027  1.00  0.00    -0.356 N 
ATOM      3  C   UNL A   1      32.646  28.978  24.502  1.00  0.00     0.224 C 
ATOM      4  O   UNL A   1      33.286  29.070  23.454  1.00  0.00    -0.275 OA
ATOM      5  H   UNL A   1      31.979  30.852  24.382  1.00  0.00     0.163 HD
BRANCH   3   6
ATOM      6  C   UNL A   1      32.460  27.650  25.228  1.00  0.00     0.094 C 
ATOM      7  C   UNL A   1      33.766  27.454  26.020  1.00  0.00     0.020 C 
BRANCH   6   8
ATOM      8  C   UNL A   1      32.118  26.464  24.223  1.00  0.00     0.085 C 
BRANCH   8   9
ATOM      9  N   UNL A   1      33.152  25.394  24.420  1.00  0.00    -0.233 NA
ATOM     10  H   UNL A   1      32.639  24.562  24.711  1.00  0.00     0.138 HD
BRANCH   9  11
ATOM     11  S   UNL A   1      34.193  24.889  23.230  1.00  0.00     0.097 S 
ATOM     12  O   UNL A   1      33.470  24.322  22.047  1.00  0.00    -0.242 OA
BRANCH  11  13
ATOM     13  C   UNL A   1      35.061  23.490  24.080  1.00  0.00     0.052 C 
ATOM     14  C   UNL A   1      35.409  23.861  25.525  1.00  0.00     0.027 C 
ATOM     15  C   UNL A   1      34.051  22.322  24.087  1.00  0.00     0.027 C 
ATOM     16  C   UNL A   1      36.307  23.040  23.310  1.00  0.00     0.027 C 
ENDBRANCH  11  13
ENDBRANCH   9  11
ENDBRANCH   8   9
BRANCH   8  17
ATOM     17  C   UNL A   1      30.587  25.947  24.323  1.00  0.00    -0.021 C 
ATOM     18  C   UNL A   1      30.332  24.616  23.577  1.00  0.00     0.012 C 
ATOM     19  C   UNL A   1      30.172  25.629  25.787  1.00  0.00     0.012 C 
ATOM     20  C   UNL A   1      29.606  26.981  23.737  1.00  0.00     0.012 C 
ENDBRANCH   8  17
ENDBRANCH   6   8
ENDBRANCH   3   6
ENDBRANCH   1   2
BRANCH   1  21
ATOM     21  C   UNL A   1      31.527  31.930  26.573  1.00  0.00     0.042 C 
BRANCH  21  22
ATOM     22  C   UNL A   1      32.655  32.629  27.332  1.00  0.00     0.118 C 
BRANCH  22  23
ATOM     23  N   UNL A   1      32.355  34.021  27.632  1.00  0.00    -0.352 N 
ATOM     24  C   UNL A   1      32.942  34.875  28.534  1.00  0.00     0.251 C 
ATOM     25  H   UNL A   1      31.617  34.411  27.109  1.00  0.00     0.163 HD
ATOM     26  O   UNL A   1      32.427  35.968  28.763  1.00  0.00    -0.269 OA
BRANCH  24  27
ATOM     27  C   UNL A   1      34.168  34.479  29.260  1.00  0.00     0.039 A 
ATOM     28  C   UNL A   1      34.042  33.932  30.539  1.00  0.00     0.014 A 
ATOM     29  C   UNL A   1      35.436  34.644  28.693  1.00  0.00     0.014 A 
ATOM     30  C   UNL A   1      35.174  33.461  31.210  1.00  0.00     0.010 A 
ATOM     31  C   UNL A   1      36.556  34.117  29.336  1.00  0.00     0.010 A 
ATOM     32  C   UNL A   1      36.433  33.498  30.589  1.00  0.00    -0.014 A 
BRANCH  32  33
ATOM     33  C   UNL A   1      37.608  32.817  31.195  1.00  0.00     0.031 A 
ATOM     34  C   UNL A   1      38.253  31.641  30.518  1.00  0.00     0.074 A 
ATOM     35  C   UNL A   1      38.036  33.211  32.412  1.00  0.00     0.049 A 
ATOM     36  N   UNL A   1      39.215  30.865  30.951  1.00  0.00    -0.248 NA
ATOM     37  C   UNL A   1      37.742  31.276  29.187  1.00  0.00     0.031 C 
ATOM     38  C   UNL A   1      37.465  34.315  33.191  1.00  0.00     0.029 A 
ATOM     39  N   UNL A   1      39.031  32.719  33.222  1.00  0.00    -0.354 N 
ATOM     40  C   UNL A   1      39.413  29.914  29.959  1.00  0.00     0.074 A 
ATOM     41  C   UNL A   1      38.454  30.191  28.911  1.00  0.00     0.031 C 
ATOM     42  C   UNL A   1      38.120  34.417  34.358  1.00  0.00     0.029 A 
ATOM     43  C   UNL A   1      39.120  33.357  34.437  1.00  0.00     0.049 A 
ATOM     44  H   UNL A   1      39.624  31.980  32.957  1.00  0.00     0.167 HD
ATOM     45  C   UNL A   1      40.321  28.910  29.926  1.00  0.00     0.037 A 
ATOM     46  C   UNL A   1      39.896  33.099  35.509  1.00  0.00     0.037 A 
ATOM     47  C   UNL A   1      41.293  28.657  30.958  1.00  0.00     0.049 A 
ATOM     48  C   UNL A   1      40.870  31.952  35.449  1.00  0.00     0.074 A 
ATOM     49  C   UNL A   1      42.316  27.725  30.965  1.00  0.00     0.029 A 
ATOM     50  N   UNL A   1      41.354  29.326  32.171  1.00  0.00    -0.354 N 
ATOM     51  N   UNL A   1      41.116  31.125  34.462  1.00  0.00    -0.248 NA
ATOM     52  C   UNL A   1      41.672  31.699  36.655  1.00  0.00     0.031 C 
ATOM     53  C   UNL A   1      42.952  27.781  32.209  1.00  0.00     0.029 A 
ATOM     54  C   UNL A   1      42.365  28.789  32.954  1.00  0.00     0.049 A 
ATOM     55  H   UNL A   1      40.767  30.070  32.436  1.00  0.00     0.167 HD
ATOM     56  C   UNL A   1      42.110  30.272  34.919  1.00  0.00     0.074 A 
ATOM     57  C   UNL A   1      42.444  30.697  36.261  1.00  0.00     0.031 C 
ATOM     58  C   UNL A   1      42.689  29.222  34.287  1.00  0.00     0.037 A 
BRANCH  45  59
ATOM     59  C   UNL A   1      40.324  27.990  28.741  1.00  0.00     0.064 A 
ATOM     60  C   UNL A   1      41.069  28.274  27.587  1.00  0.00     0.173 A 
ATOM     61  C   UNL A   1      39.666  26.751  28.808  1.00  0.00     0.173 A 
ATOM     62  F   UNL A   1      41.713  29.445  27.471  1.00  0.00    -0.203 F 
ATOM     63  C   UNL A   1      41.148  27.356  26.542  1.00  0.00     0.198 A 
ATOM     64  C   UNL A   1      39.769  25.825  27.774  1.00  0.00     0.198 A 
ATOM     65  F   UNL A   1      38.947  26.426  29.895  1.00  0.00    -0.203 F 
ATOM     66  F   UNL A   1      41.849  27.657  25.441  1.00  0.00    -0.200 F 
ATOM     67  C   UNL A   1      40.509  26.129  26.643  1.00  0.00     0.200 A 
ATOM     68  F   UNL A   1      39.166  24.633  27.881  1.00  0.00    -0.200 F 
ATOM     69  F   UNL A   1      40.610  25.236  25.648  1.00  0.00    -0.200 F 
ENDBRANCH  45  59
BRANCH  46  70
ATOM     70  C   UNL A   1      39.767  33.914  36.747  1.00  0.00     0.064 A 
ATOM     71  C   UNL A   1      38.925  33.511  37.795  1.00  0.00     0.173 A 
ATOM     72  C   UNL A   1      40.440  35.137  36.889  1.00  0.00     0.173 A 
ATOM     73  F   UNL A   1      38.242  32.360  37.699  1.00  0.00    -0.203 F 
ATOM     74  C   UNL A   1      38.731  34.318  38.915  1.00  0.00     0.198 A 
ATOM     75  C   UNL A   1      40.274  35.925  38.026  1.00  0.00     0.198 A 
ATOM     76  F   UNL A   1      41.261  35.570  35.920  1.00  0.00    -0.203 F 
ATOM     77  F   UNL A   1      37.866  33.942  39.865  1.00  0.00    -0.200 F 
ATOM     78  C   UNL A   1      39.408  35.522  39.030  1.00  0.00     0.200 A 
ATOM     79  F   UNL A   1      40.945  37.079  38.141  1.00  0.00    -0.200 F 
ATOM     80  F   UNL A   1      39.215  36.301  40.104  1.00  0.00    -0.200 F 
ENDBRANCH  46  70
BRANCH  58  81
ATOM     81  C   UNL A   1      43.753  28.468  35.031  1.00  0.00     0.064 A 
ATOM     82  C   UNL A   1      45.097  28.868  34.991  1.00  0.00     0.173 A 
ATOM     83  C   UNL A   1      43.419  27.366  35.833  1.00  0.00     0.173 A 
ATOM     84  F   UNL A   1      45.471  29.904  34.226  1.00  0.00    -0.203 F 
ATOM     85  C   UNL A   1      46.069  28.181  35.712  1.00  0.00     0.198 A 
ATOM     86  C   UNL A   1      44.389  26.703  36.579  1.00  0.00     0.198 A 
ATOM     87  F   UNL A   1      42.147  26.947  35.911  1.00  0.00    -0.203 F 
ATOM     88  F   UNL A   1      47.354  28.553  35.622  1.00  0.00    -0.200 F 
ATOM     89  C   UNL A   1      45.714  27.105  36.512  1.00  0.00     0.200 A 
ATOM     90  F   UNL A   1      44.040  25.674  37.363  1.00  0.00    -0.200 F 
ATOM     91  F   UNL A   1      46.650  26.453  37.216  1.00  0.00    -0.200 F 
ENDBRANCH  58  81
ENDBRANCH  32  33
ENDBRANCH  24  27
ENDBRANCH  22  23
ENDBRANCH  21  22
ENDBRANCH   1  21
TORSDOF 15
ENDMDL
MODEL 2
REMARK VINA RESULT:     -11.5      5.820     11.317
REMARK SMILES C[C@@H](C(=O)NCCCNC(=O)c1ccc(-c2c3nc(c(-c4c(F)c(F)c(F)c(F)c4F)c4ccc([nH]4)c(-c4c(F)c(F)c(F)c(F)c4F)c4nc(c(-c5c(F)c(F)c(F)c(F)c5F)c5ccc2[nH]5)C=C4)C=C3)cc1)[C@@H](N[S@](=O)C(C)(C)C)C(C)(C)C
REMARK SMILES IDX 6 1 5 2 3 3 4 4 2 6 1 7 75 8 76 9 77 11 78 12 79 13 80 14
REMARK SMILES IDX 81 15 82 16 83 17 84 18 85 19 86 20 7 21 8 22 9 23 10 24
REMARK SMILES IDX 11 26 12 27 13 28 74 29 14 30 73 31 15 32 16 33 17 34 67 35
REMARK SMILES IDX 18 36 72 37 66 38 68 39 19 40 71 41 65 42 64 43 20 45 52 46
REMARK SMILES IDX 32 47 51 48 33 49 36 50 50 51 69 52 34 53 35 54 49 56 70 57
REMARK SMILES IDX 37 58 21 59 22 60 30 61 23 62 24 63 28 64 31 65 25 66 26 67
REMARK SMILES IDX 29 68 27 69 53 70 54 71 62 72 55 73 56 74 60 75 63 76 57 77
REMARK SMILES IDX 58 78 61 79 59 80 38 81 39 82 47 83 40 84 41 85 45 86 48 87
REMARK SMILES IDX 42 88 43 89 46 90 44 91
REMARK H PARENT 5 5 76 10 9 25 68 44 36 55
REMARK Flexibility Score: inf
ROOT
ATOM      1  C   UNL A   1      36.970  21.068  24.795  1.00  0.00     0.117 C 
ENDROOT
BRANCH   1   2
ATOM      2  N   UNL A   1      35.879  21.026  25.756  1.00  0.00    -0.356 N 
ATOM      3  C   UNL A   1      34.963  21.984  26.079  1.00  0.00     0.224 C 
ATOM      4  O   UNL A   1      34.421  21.910  27.183  1.00  0.00    -0.275 OA
ATOM      5  H   UNL A   1      35.789  20.178  26.249  1.00  0.00     0.163 HD
BRANCH   3   6
ATOM      6  C   UNL A   1      34.663  23.112  25.100  1.00  0.00     0.094 C 
ATOM      7  C   UNL A   1      35.466  24.314  25.632  1.00  0.00     0.020 C 
BRANCH   6   8
ATOM      8  C   UNL A   1      33.100  23.379  24.957  1.00  0.00     0.085 C 
BRANCH   8   9
ATOM      9  N   UNL A   1      32.865  24.837  25.225  1.00  0.00    -0.233 NA
ATOM     10  H   UNL A   1      32.394  25.199  24.395  1.00  0.00     0.138 HD
BRANCH   9  11
ATOM     11  S   UNL A   1      32.002  25.409  26.521  1.00  0.00     0.097 S 
ATOM     12  O   UNL A   1      30.556  25.024  26.453  1.00  0.00    -0.242 OA
BRANCH  11  13
ATOM     13  C   UNL A   1      32.108  27.238  26.247  1.00  0.00     0.052 C 
ATOM     14  C   UNL A   1      31.630  28.004  27.485  1.00  0.00     0.027 C 
ATOM     15  C   UNL A   1      33.606  27.533  26.017  1.00  0.00     0.027 C 
ATOM     16  C   UNL A   1      31.337  27.673  24.997  1.00  0.00     0.027 C 
ENDBRANCH  11  13
ENDBRANCH   9  11
ENDBRANCH   8   9
BRANCH   8  17
ATOM     17  C   UNL A   1      32.472  22.840  23.565  1.00  0.00    -0.021 C 
ATOM     18  C   UNL A   1      33.277  23.266  22.315  1.00  0.00     0.012 C 
ATOM     19  C   UNL A   1      32.470  21.288  23.487  1.00  0.00     0.012 C 
ATOM     20  C   UNL A   1      31.032  23.355  23.363  1.00  0.00     0.012 C 
ENDBRANCH   8  17
ENDBRANCH   6   8
ENDBRANCH   3   6
ENDBRANCH   1   2
BRANCH   1  21
ATOM     21  C   UNL A   1      37.927  19.895  25.020  1.00  0.00     0.042 C 
BRANCH  21  22
ATOM     22  C   UNL A   1      39.222  20.274  25.740  1.00  0.00     0.118 C 
BRANCH  22  23
ATOM     23  N   UNL A   1      40.173  19.175  25.803  1.00  0.00    -0.352 N 
ATOM     24  C   UNL A   1      41.528  19.194  26.026  1.00  0.00     0.251 C 
ATOM     25  H   UNL A   1      39.787  18.280  25.663  1.00  0.00     0.163 HD
ATOM     26  O   UNL A   1      42.187  18.168  25.867  1.00  0.00    -0.269 OA
BRANCH  24  27
ATOM     27  C   UNL A   1      42.210  20.446  26.422  1.00  0.00     0.039 A 
ATOM     28  C   UNL A   1      42.989  21.113  25.474  1.00  0.00     0.014 A 
ATOM     29  C   UNL A   1      42.090  20.963  27.716  1.00  0.00     0.014 A 
ATOM     30  C   UNL A   1      43.567  22.345  25.790  1.00  0.00     0.010 A 
ATOM     31  C   UNL A   1      42.614  22.222  28.010  1.00  0.00     0.010 A 
ATOM     32  C   UNL A   1      43.336  22.937  27.042  1.00  0.00    -0.014 A 
BRANCH  32  33
ATOM     33  C   UNL A   1      43.765  24.333  27.323  1.00  0.00     0.031 A 
ATOM     34  C   UNL A   1      42.773  25.370  27.771  1.00  0.00     0.074 A 
ATOM     35  C   UNL A   1      45.045  24.684  27.084  1.00  0.00     0.049 A 
ATOM     36  N   UNL A   1      42.951  26.655  27.959  1.00  0.00    -0.248 NA
ATOM     37  C   UNL A   1      41.398  24.911  28.024  1.00  0.00     0.031 C 
ATOM     38  C   UNL A   1      46.094  23.777  26.608  1.00  0.00     0.029 A 
ATOM     39  N   UNL A   1      45.681  25.898  27.182  1.00  0.00    -0.354 N 
ATOM     40  C   UNL A   1      41.713  27.158  28.335  1.00  0.00     0.074 A 
ATOM     41  C   UNL A   1      40.783  26.048  28.323  1.00  0.00     0.031 C 
ATOM     42  C   UNL A   1      47.238  24.463  26.462  1.00  0.00     0.029 A 
ATOM     43  C   UNL A   1      46.996  25.867  26.780  1.00  0.00     0.049 A 
ATOM     44  H   UNL A   1      45.237  26.714  27.510  1.00  0.00     0.167 HD
ATOM     45  C   UNL A   1      41.389  28.430  28.669  1.00  0.00     0.037 A 
ATOM     46  C   UNL A   1      47.897  26.860  26.649  1.00  0.00     0.037 A 
ATOM     47  C   UNL A   1      42.324  29.525  28.708  1.00  0.00     0.049 A 
ATOM     48  C   UNL A   1      47.492  28.268  26.996  1.00  0.00     0.074 A 
ATOM     49  C   UNL A   1      42.108  30.825  29.129  1.00  0.00     0.029 A 
ATOM     50  N   UNL A   1      43.647  29.453  28.296  1.00  0.00    -0.354 N 
ATOM     51  N   UNL A   1      46.344  28.711  27.450  1.00  0.00    -0.248 NA
ATOM     52  C   UNL A   1      48.506  29.316  26.811  1.00  0.00     0.031 C 
ATOM     53  C   UNL A   1      43.278  31.558  28.908  1.00  0.00     0.029 A 
ATOM     54  C   UNL A   1      44.242  30.700  28.406  1.00  0.00     0.049 A 
ATOM     55  H   UNL A   1      44.096  28.638  27.975  1.00  0.00     0.167 HD
ATOM     56  C   UNL A   1      46.505  30.079  27.620  1.00  0.00     0.074 A 
ATOM     57  C   UNL A   1      47.868  30.391  27.251  1.00  0.00     0.031 C 
ATOM     58  C   UNL A   1      45.600  30.998  28.038  1.00  0.00     0.037 A 
BRANCH  45  59
ATOM     59  C   UNL A   1      39.963  28.734  29.022  1.00  0.00     0.064 A 
ATOM     60  C   UNL A   1      39.030  29.127  28.052  1.00  0.00     0.173 A 
ATOM     61  C   UNL A   1      39.498  28.515  30.329  1.00  0.00     0.173 A 
ATOM     62  F   UNL A   1      39.424  29.353  26.790  1.00  0.00    -0.203 F 
ATOM     63  C   UNL A   1      37.686  29.296  28.378  1.00  0.00     0.198 A 
ATOM     64  C   UNL A   1      38.150  28.659  30.646  1.00  0.00     0.198 A 
ATOM     65  F   UNL A   1      40.348  28.128  31.293  1.00  0.00    -0.203 F 
ATOM     66  F   UNL A   1      36.816  29.692  27.440  1.00  0.00    -0.200 F 
ATOM     67  C   UNL A   1      37.247  29.050  29.671  1.00  0.00     0.200 A 
ATOM     68  F   UNL A   1      37.725  28.403  31.891  1.00  0.00    -0.200 F 
ATOM     69  F   UNL A   1      35.948  29.187  29.976  1.00  0.00    -0.200 F 
ENDBRANCH  45  59
BRANCH  46  70
ATOM     70  C   UNL A   1      49.265  26.575  26.135  1.00  0.00     0.064 A 
ATOM     71  C   UNL A   1      50.284  26.136  26.992  1.00  0.00     0.173 A 
ATOM     72  C   UNL A   1      49.595  26.786  24.787  1.00  0.00     0.173 A 
ATOM     73  F   UNL A   1      50.026  25.940  28.294  1.00  0.00    -0.203 F 
ATOM     74  C   UNL A   1      51.588  25.959  26.530  1.00  0.00     0.198 A 
ATOM     75  C   UNL A   1      50.890  26.573  24.319  1.00  0.00     0.198 A 
ATOM     76  F   UNL A   1      48.658  27.202  23.921  1.00  0.00    -0.203 F 
ATOM     77  F   UNL A   1      52.556  25.610  27.388  1.00  0.00    -0.200 F 
ATOM     78  C   UNL A   1      51.888  26.175  25.195  1.00  0.00     0.200 A 
ATOM     79  F   UNL A   1      51.171  26.765  23.023  1.00  0.00    -0.200 F 
ATOM     80  F   UNL A   1      53.143  26.012  24.753  1.00  0.00    -0.200 F 
ENDBRANCH  46  70
BRANCH  58  81
ATOM     81  C   UNL A   1      46.057  32.425  28.131  1.00  0.00     0.064 A 
ATOM     82  C   UNL A   1      46.703  32.913  29.277  1.00  0.00     0.173 A 
ATOM     83  C   UNL A   1      45.894  33.300  27.046  1.00  0.00     0.173 A 
ATOM     84  F   UNL A   1      46.868  32.122  30.348  1.00  0.00    -0.203 F 
ATOM     85  C   UNL A   1      47.152  34.229  29.339  1.00  0.00     0.198 A 
ATOM     86  C   UNL A   1      46.374  34.605  27.100  1.00  0.00     0.198 A 
ATOM     87  F   UNL A   1      45.288  32.881  25.925  1.00  0.00    -0.203 F 
ATOM     88  F   UNL A   1      47.725  34.686  30.461  1.00  0.00    -0.200 F 
ATOM     89  C   UNL A   1      46.996  35.071  28.248  1.00  0.00     0.200 A 
ATOM     90  F   UNL A   1      46.236  35.412  26.038  1.00  0.00    -0.200 F 
ATOM     91  F   UNL A   1      47.441  36.334  28.306  1.00  0.00    -0.200 F 
ENDBRANCH  58  81
ENDBRANCH  32  33
ENDBRANCH  24  27
ENDBRANCH  22  23
ENDBRANCH  21  22
ENDBRANCH   1  21
TORSDOF 15
ENDMDL
MODEL 3
REMARK VINA RESULT:     -11.4      5.678     11.155
REMARK SMILES C[C@@H](C(=O)NCCCNC(=O)c1ccc(-c2c3nc(c(-c4c(F)c(F)c(F)c(F)c4F)c4ccc([nH]4)c(-c4c(F)c(F)c(F)c(F)c4F)c4nc(c(-c5c(F)c(F)c(F)c(F)c5F)c5ccc2[nH]5)C=C4)C=C3)cc1)[C@@H](N[S@](=O)C(C)(C)C)C(C)(C)C
REMARK SMILES IDX 6 1 5 2 3 3 4 4 2 6 1 7 75 8 76 9 77 11 78 12 79 13 80 14
REMARK SMILES IDX 81 15 82 16 83 17 84 18 85 19 86 20 7 21 8 22 9 23 10 24
REMARK SMILES IDX 11 26 12 27 13 28 74 29 14 30 73 31 15 32 16 33 17 34 67 35
REMARK SMILES IDX 18 36 72 37 66 38 68 39 19 40 71 41 65 42 64 43 20 45 52 46
REMARK SMILES IDX 32 47 51 48 33 49 36 50 50 51 69 52 34 53 35 54 49 56 70 57
REMARK SMILES IDX 37 58 21 59 22 60 30 61 23 62 24 63 28 64 31 65 25 66 26 67
REMARK SMILES IDX 29 68 27 69 53 70 54 71 62 72 55 73 56 74 60 75 63 76 57 77
REMARK SMILES IDX 58 78 61 79 59 80 38 81 39 82 47 83 40 84 41 85 45 86 48 87
REMARK SMILES IDX 42 88 43 89 46 90 44 91
REMARK H PARENT 5 5 76 10 9 25 68 44 36 55
REMARK Flexibility Score: inf
ROOT
ATOM      1  C   UNL A   1      37.018  21.044  24.744  1.00  0.00     0.117 C 
ENDROOT
BRANCH   1   2
ATOM      2  N   UNL A   1      35.907  21.007  25.683  1.00  0.00    -0.356 N 
ATOM      3  C   UNL A   1      34.991  21.969  25.990  1.00  0.00     0.224 C 
ATOM      4  O   UNL A   1      34.426  21.895  27.082  1.00  0.00    -0.275 OA
ATOM      5  H   UNL A   1      35.801  20.157  26.170  1.00  0.00     0.163 HD
BRANCH   3   6
ATOM      6  C   UNL A   1      34.719  23.103  25.008  1.00  0.00     0.094 C 
ATOM      7  C   UNL A   1      35.618  24.258  25.489  1.00  0.00     0.020 C 
BRANCH   6   8
ATOM      8  C   UNL A   1      33.172  23.466  24.930  1.00  0.00     0.085 C 
BRANCH   8   9
ATOM      9  N   UNL A   1      33.054  24.960  25.015  1.00  0.00    -0.233 NA
ATOM     10  H   UNL A   1      32.499  25.242  24.207  1.00  0.00     0.138 HD
BRANCH   9  11
ATOM     11  S   UNL A   1      32.399  25.761  26.313  1.00  0.00     0.097 S 
ATOM     12  O   UNL A   1      30.912  25.600  26.387  1.00  0.00    -0.242 OA
BRANCH  11  13
ATOM     13  C   UNL A   1      32.752  27.524  25.866  1.00  0.00     0.052 C 
ATOM     14  C   UNL A   1      33.582  28.208  26.957  1.00  0.00     0.027 C 
ATOM     15  C   UNL A   1      33.580  27.460  24.565  1.00  0.00     0.027 C 
ATOM     16  C   UNL A   1      31.466  28.306  25.578  1.00  0.00     0.027 C 
ENDBRANCH  11  13
ENDBRANCH   9  11
ENDBRANCH   8   9
BRANCH   8  17
ATOM     17  C   UNL A   1      32.410  22.803  23.664  1.00  0.00    -0.021 C 
ATOM     18  C   UNL A   1      33.173  22.962  22.328  1.00  0.00     0.012 C 
ATOM     19  C   UNL A   1      32.257  21.263  23.816  1.00  0.00     0.012 C 
ATOM     20  C   UNL A   1      31.016  23.428  23.458  1.00  0.00     0.012 C 
ENDBRANCH   8  17
ENDBRANCH   6   8
ENDBRANCH   3   6
ENDBRANCH   1   2
BRANCH   1  21
ATOM     21  C   UNL A   1      37.968  19.871  24.993  1.00  0.00     0.042 C 
BRANCH  21  22
ATOM     22  C   UNL A   1      39.217  20.238  25.797  1.00  0.00     0.118 C 
BRANCH  22  23
ATOM     23  N   UNL A   1      40.188  19.156  25.854  1.00  0.00    -0.352 N 
ATOM     24  C   UNL A   1      41.544  19.199  26.072  1.00  0.00     0.251 C 
ATOM     25  H   UNL A   1      39.817  18.254  25.715  1.00  0.00     0.163 HD
ATOM     26  O   UNL A   1      42.220  18.186  25.908  1.00  0.00    -0.269 OA
BRANCH  24  27
ATOM     27  C   UNL A   1      42.204  20.462  26.467  1.00  0.00     0.039 A 
ATOM     28  C   UNL A   1      42.775  21.259  25.471  1.00  0.00     0.014 A 
ATOM     29  C   UNL A   1      42.269  20.864  27.804  1.00  0.00     0.014 A 
ATOM     30  C   UNL A   1      43.321  22.502  25.802  1.00  0.00     0.010 A 
ATOM     31  C   UNL A   1      42.757  22.131  28.125  1.00  0.00     0.010 A 
ATOM     32  C   UNL A   1      43.265  22.973  27.124  1.00  0.00    -0.014 A 
BRANCH  32  33
ATOM     33  C   UNL A   1      43.649  24.370  27.459  1.00  0.00     0.031 A 
ATOM     34  C   UNL A   1      42.615  25.374  27.883  1.00  0.00     0.074 A 
ATOM     35  C   UNL A   1      44.931  24.753  27.290  1.00  0.00     0.049 A 
ATOM     36  N   UNL A   1      42.755  26.657  28.111  1.00  0.00    -0.248 NA
ATOM     37  C   UNL A   1      41.240  24.881  28.059  1.00  0.00     0.031 C 
ATOM     38  C   UNL A   1      46.021  23.881  26.843  1.00  0.00     0.029 A 
ATOM     39  N   UNL A   1      45.535  25.978  27.448  1.00  0.00    -0.354 N 
ATOM     40  C   UNL A   1      41.490  27.125  28.439  1.00  0.00     0.074 A 
ATOM     41  C   UNL A   1      40.587  25.997  28.356  1.00  0.00     0.031 C 
ATOM     42  C   UNL A   1      47.156  24.594  26.768  1.00  0.00     0.029 A 
ATOM     43  C   UNL A   1      46.868  25.984  27.109  1.00  0.00     0.049 A 
ATOM     44  H   UNL A   1      45.059  26.775  27.774  1.00  0.00     0.167 HD
ATOM     45  C   UNL A   1      41.123  28.381  28.788  1.00  0.00     0.037 A 
ATOM     46  C   UNL A   1      47.753  26.998  27.046  1.00  0.00     0.037 A 
ATOM     47  C   UNL A   1      42.031  29.494  28.899  1.00  0.00     0.049 A 
ATOM     48  C   UNL A   1      47.300  28.389  27.407  1.00  0.00     0.074 A 
ATOM     49  C   UNL A   1      41.767  30.779  29.341  1.00  0.00     0.029 A 
ATOM     50  N   UNL A   1      43.373  29.460  28.549  1.00  0.00    -0.354 N 
ATOM     51  N   UNL A   1      46.123  28.796  27.815  1.00  0.00    -0.248 NA
ATOM     52  C   UNL A   1      48.299  29.462  27.296  1.00  0.00     0.031 C 
ATOM     53  C   UNL A   1      42.929  31.541  29.194  1.00  0.00     0.029 A 
ATOM     54  C   UNL A   1      43.935  30.716  28.718  1.00  0.00     0.049 A 
ATOM     55  H   UNL A   1      43.854  28.663  28.231  1.00  0.00     0.167 HD
ATOM     56  C   UNL A   1      46.246  30.162  28.027  1.00  0.00     0.074 A 
ATOM     57  C   UNL A   1      47.617  30.512  27.731  1.00  0.00     0.031 C 
ATOM     58  C   UNL A   1      45.302  31.051  28.422  1.00  0.00     0.037 A 
BRANCH  45  59
ATOM     59  C   UNL A   1      39.675  28.646  29.080  1.00  0.00     0.064 A 
ATOM     60  C   UNL A   1      39.139  28.482  30.365  1.00  0.00     0.173 A 
ATOM     61  C   UNL A   1      38.843  29.184  28.085  1.00  0.00     0.173 A 
ATOM     62  F   UNL A   1      39.891  27.968  31.349  1.00  0.00    -0.203 F 
ATOM     63  C   UNL A   1      37.821  28.839  30.641  1.00  0.00     0.198 A 
ATOM     64  C   UNL A   1      37.535  29.565  28.371  1.00  0.00     0.198 A 
ATOM     65  F   UNL A   1      39.310  29.371  26.841  1.00  0.00    -0.203 F 
ATOM     66  F   UNL A   1      37.323  28.655  31.872  1.00  0.00    -0.200 F 
ATOM     67  C   UNL A   1      37.026  29.391  29.648  1.00  0.00     0.200 A 
ATOM     68  F   UNL A   1      36.774  30.115  27.414  1.00  0.00    -0.200 F 
ATOM     69  F   UNL A   1      35.766  29.760  29.924  1.00  0.00    -0.200 F 
ENDBRANCH  45  59
BRANCH  46  70
ATOM     70  C   UNL A   1      49.149  26.755  26.591  1.00  0.00     0.064 A 
ATOM     71  C   UNL A   1      49.513  26.931  25.248  1.00  0.00     0.173 A 
ATOM     72  C   UNL A   1      50.134  26.293  27.476  1.00  0.00     0.173 A 
ATOM     73  F   UNL A   1      48.603  27.350  24.356  1.00  0.00    -0.203 F 
ATOM     74  C   UNL A   1      50.796  26.615  24.801  1.00  0.00     0.198 A 
ATOM     75  C   UNL A   1      51.426  26.013  27.036  1.00  0.00     0.198 A 
ATOM     76  F   UNL A   1      49.842  26.111  28.773  1.00  0.00    -0.203 F 
ATOM     77  F   UNL A   1      51.094  26.723  23.500  1.00  0.00    -0.200 F 
ATOM     78  C   UNL A   1      51.751  26.159  25.697  1.00  0.00     0.200 A 
ATOM     79  F   UNL A   1      52.351  25.590  27.909  1.00  0.00    -0.200 F 
ATOM     80  F   UNL A   1      52.981  25.847  25.266  1.00  0.00    -0.200 F 
ENDBRANCH  46  70
BRANCH  58  81
ATOM     81  C   UNL A   1      45.722  32.484  28.572  1.00  0.00     0.064 A 
ATOM     82  C   UNL A   1      45.606  33.396  27.512  1.00  0.00     0.173 A 
ATOM     83  C   UNL A   1      46.198  32.965  29.802  1.00  0.00     0.173 A 
ATOM     84  F   UNL A   1      45.173  32.984  26.311  1.00  0.00    -0.203 F 
ATOM     85  C   UNL A   1      45.968  34.730  27.673  1.00  0.00     0.198 A 
ATOM     86  C   UNL A   1      46.527  34.307  29.968  1.00  0.00     0.198 A 
ATOM     87  F   UNL A   1      46.323  32.136  30.849  1.00  0.00    -0.203 F 
ATOM     88  F   UNL A   1      45.891  35.573  26.634  1.00  0.00    -0.200 F 
ATOM     89  C   UNL A   1      46.419  35.187  28.903  1.00  0.00     0.200 A 
ATOM     90  F   UNL A   1      46.948  34.748  31.162  1.00  0.00    -0.200 F 
ATOM     91  F   UNL A   1      46.754  36.476  29.059  1.00  0.00    -0.200 F 
ENDBRANCH  58  81
ENDBRANCH  32  33
ENDBRANCH  24  27
ENDBRANCH  22  23
ENDBRANCH  21  22
ENDBRANCH   1  21
TORSDOF 15
ENDMDL
