MODEL 1
REMARK VINA RESULT:     -11.8      0.000      0.000
REMARK SMILES CCc1cc(OC(F)(F)F)cc2c1O[C@@H](C(F)(F)F)C(C(=O)NCCCNC(=O)c1ccc(-c3c4nc(c(-c5c(F)c(F)c(F)c(F)c5F)c5ccc([nH]5)c(-c5c(F)c(F)c(F)c(F)c5F)c5nc(c(-c6c(F)c(F)c(F)c(F)c6F)c6ccc3[nH]6)C=C5)C=C4)cc1)=C2
REMARK SMILES IDX 25 1 24 2 23 3 21 4 22 5 20 7 3 8 4 9 13 10 5 11 12 12 14 13
REMARK SMILES IDX 11 14 93 15 15 16 2 17 1 18 6 19 7 20 8 21 9 22 10 23 16 24
REMARK SMILES IDX 17 25 18 26 19 27 26 28 27 29 28 30 29 32 30 33 31 34 92 35
REMARK SMILES IDX 32 36 91 37 33 38 34 39 35 40 85 41 36 42 90 43 84 44 86 45
REMARK SMILES IDX 37 46 89 47 83 48 82 49 38 51 70 52 50 53 69 54 51 55 54 56
REMARK SMILES IDX 68 57 87 58 52 59 53 60 67 62 88 63 55 64 39 65 40 66 48 67
REMARK SMILES IDX 41 68 42 69 46 70 49 71 43 72 44 73 47 74 45 75 71 76 72 77
REMARK SMILES IDX 80 78 73 79 74 80 78 81 81 82 75 83 76 84 79 85 77 86 56 87
REMARK SMILES IDX 57 88 65 89 58 90 59 91 63 92 66 93 60 94 61 95 64 96 62 97
REMARK H PARENT 23 6 27 31 86 50 54 61
REMARK Flexibility Score: inf
ROOT
ATOM      1  C   UNL A   1      36.680  23.574  24.307  1.00  0.00     0.042 C 
ENDROOT
BRANCH   1   2
ATOM      2  C   UNL A   1      35.412  22.936  23.733  1.00  0.00     0.118 C 
BRANCH   2   3
ATOM      3  N   UNL A   1      34.584  22.405  24.806  1.00  0.00    -0.352 N 
ATOM      4  C   UNL A   1      33.622  22.951  25.595  1.00  0.00     0.251 C 
ATOM      5  O   UNL A   1      33.217  22.282  26.542  1.00  0.00    -0.270 OA
ATOM      6  H   UNL A   1      34.755  21.455  24.999  1.00  0.00     0.163 HD
BRANCH   4   7
ATOM      7  C   UNL A   1      33.005  24.276  25.328  1.00  0.00     0.067 C 
ATOM      8  C   UNL A   1      31.198  27.922  24.233  1.00  0.00    -0.002 A 
ATOM      9  C   UNL A   1      31.775  29.123  24.693  1.00  0.00     0.054 A 
ATOM     10  C   UNL A   1      31.780  26.699  24.604  1.00  0.00     0.131 A 
ATOM     11  C   UNL A   1      32.915  29.111  25.496  1.00  0.00     0.130 A 
ATOM     12  C   UNL A   1      32.901  26.683  25.432  1.00  0.00     0.021 A 
ATOM     13  O   UNL A   1      31.257  25.556  24.075  1.00  0.00    -0.475 OA
ATOM     14  C   UNL A   1      33.465  27.885  25.870  1.00  0.00     0.058 A 
ATOM     15  C   UNL A   1      33.533  25.421  25.777  1.00  0.00     0.025 C 
ATOM     16  C   UNL A   1      31.637  24.270  24.649  1.00  0.00     0.314 C 
BRANCH   8  17
ATOM     17  C   UNL A   1      29.956  27.986  23.371  1.00  0.00     0.036 C 
ATOM     18  C   UNL A   1      29.903  29.231  22.495  1.00  0.00     0.009 C 
ENDBRANCH   8  17
BRANCH  11  19
ATOM     19  O   UNL A   1      33.592  30.196  25.973  1.00  0.00    -0.406 OA
BRANCH  19  20
ATOM     20  C   UNL A   1      33.289  30.644  27.282  1.00  0.00     0.573 C 
ATOM     21  F   UNL A   1      32.251  29.957  27.807  1.00  0.00    -0.132 F 
ATOM     22  F   UNL A   1      34.364  30.531  28.091  1.00  0.00    -0.132 F 
ATOM     23  F   UNL A   1      32.943  31.949  27.222  1.00  0.00    -0.132 F 
ENDBRANCH  19  20
ENDBRANCH  11  19
BRANCH  16  24
ATOM     24  C   UNL A   1      31.408  23.203  23.553  1.00  0.00     0.429 C 
ATOM     25  F   UNL A   1      31.376  21.945  24.042  1.00  0.00    -0.167 F 
ATOM     26  F   UNL A   1      30.204  23.384  22.944  1.00  0.00    -0.167 F 
ATOM     27  F   UNL A   1      32.347  23.257  22.579  1.00  0.00    -0.167 F 
ENDBRANCH  16  24
ENDBRANCH   4   7
ENDBRANCH   2   3
ENDBRANCH   1   2
BRANCH   1  28
ATOM     28  C   UNL A   1      36.877  23.273  25.791  1.00  0.00     0.118 C 
BRANCH  28  29
ATOM     29  N   UNL A   1      38.013  22.390  26.016  1.00  0.00    -0.352 N 
ATOM     30  C   UNL A   1      39.298  22.692  26.393  1.00  0.00     0.251 C 
ATOM     31  H   UNL A   1      37.832  21.432  25.877  1.00  0.00     0.163 HD
ATOM     32  O   UNL A   1      40.179  21.846  26.295  1.00  0.00    -0.269 OA
BRANCH  30  33
ATOM     33  C   UNL A   1      39.622  24.038  26.909  1.00  0.00     0.039 A 
ATOM     34  C   UNL A   1      39.331  24.344  28.241  1.00  0.00     0.014 A 
ATOM     35  C   UNL A   1      40.183  25.007  26.072  1.00  0.00     0.014 A 
ATOM     36  C   UNL A   1      39.658  25.603  28.751  1.00  0.00     0.010 A 
ATOM     37  C   UNL A   1      40.574  26.233  26.599  1.00  0.00     0.010 A 
ATOM     38  C   UNL A   1      40.313  26.546  27.942  1.00  0.00    -0.014 A 
BRANCH  38  39
ATOM     39  C   UNL A   1      40.734  27.867  28.470  1.00  0.00     0.031 A 
ATOM     40  C   UNL A   1      42.165  28.091  28.876  1.00  0.00     0.074 A 
ATOM     41  C   UNL A   1      39.813  28.831  28.669  1.00  0.00     0.049 A 
ATOM     42  N   UNL A   1      42.704  29.118  29.482  1.00  0.00    -0.248 NA
ATOM     43  C   UNL A   1      43.109  27.000  28.589  1.00  0.00     0.031 C 
ATOM     44  C   UNL A   1      38.390  28.718  28.347  1.00  0.00     0.029 A 
ATOM     45  N   UNL A   1      39.934  30.087  29.209  1.00  0.00    -0.354 N 
ATOM     46  C   UNL A   1      44.040  28.788  29.666  1.00  0.00     0.074 A 
ATOM     47  C   UNL A   1      44.220  27.448  29.154  1.00  0.00     0.031 C 
ATOM     48  C   UNL A   1      37.771  29.860  28.687  1.00  0.00     0.029 A 
ATOM     49  C   UNL A   1      38.742  30.766  29.293  1.00  0.00     0.049 A 
ATOM     50  H   UNL A   1      40.792  30.464  29.508  1.00  0.00     0.167 HD
ATOM     51  C   UNL A   1      45.030  29.545  30.197  1.00  0.00     0.037 A 
ATOM     52  C   UNL A   1      38.462  31.973  29.820  1.00  0.00     0.037 A 
ATOM     53  C   UNL A   1      44.847  30.887  30.682  1.00  0.00     0.049 A 
ATOM     54  C   UNL A   1      39.578  32.785  30.421  1.00  0.00     0.074 A 
ATOM     55  C   UNL A   1      45.796  31.760  31.184  1.00  0.00     0.029 A 
ATOM     56  N   UNL A   1      43.629  31.551  30.726  1.00  0.00    -0.354 N 
ATOM     57  N   UNL A   1      40.850  32.490  30.533  1.00  0.00    -0.248 NA
ATOM     58  C   UNL A   1      39.220  34.103  30.967  1.00  0.00     0.031 C 
ATOM     59  C   UNL A   1      45.145  32.931  31.583  1.00  0.00     0.029 A 
ATOM     60  C   UNL A   1      43.799  32.813  31.272  1.00  0.00     0.049 A 
ATOM     61  H   UNL A   1      42.771  31.180  30.417  1.00  0.00     0.167 HD
ATOM     62  C   UNL A   1      41.449  33.593  31.127  1.00  0.00     0.074 A 
ATOM     63  C   UNL A   1      40.402  34.570  31.343  1.00  0.00     0.031 C 
ATOM     64  C   UNL A   1      42.749  33.780  31.462  1.00  0.00     0.037 A 
BRANCH  51  65
ATOM     65  C   UNL A   1      46.401  28.939  30.285  1.00  0.00     0.064 A 
ATOM     66  C   UNL A   1      46.826  28.233  31.422  1.00  0.00     0.173 A 
ATOM     67  C   UNL A   1      47.289  29.027  29.201  1.00  0.00     0.173 A 
ATOM     68  F   UNL A   1      46.021  28.127  32.490  1.00  0.00    -0.203 F 
ATOM     69  C   UNL A   1      48.094  27.662  31.481  1.00  0.00     0.198 A 
ATOM     70  C   UNL A   1      48.544  28.426  29.251  1.00  0.00     0.198 A 
ATOM     71  F   UNL A   1      46.933  29.685  28.087  1.00  0.00    -0.203 F 
ATOM     72  F   UNL A   1      48.494  27.035  32.595  1.00  0.00    -0.200 F 
ATOM     73  C   UNL A   1      48.949  27.752  30.392  1.00  0.00     0.200 A 
ATOM     74  F   UNL A   1      49.363  28.501  28.192  1.00  0.00    -0.200 F 
ATOM     75  F   UNL A   1      50.166  27.193  30.446  1.00  0.00    -0.200 F 
ENDBRANCH  51  65
BRANCH  52  76
ATOM     76  C   UNL A   1      37.069  32.494  29.794  1.00  0.00     0.064 A 
ATOM     77  C   UNL A   1      36.594  33.225  28.696  1.00  0.00     0.173 A 
ATOM     78  C   UNL A   1      36.189  32.284  30.866  1.00  0.00     0.173 A 
ATOM     79  F   UNL A   1      37.403  33.469  27.654  1.00  0.00    -0.203 F 
ATOM     80  C   UNL A   1      35.303  33.750  28.684  1.00  0.00     0.198 A 
ATOM     81  C   UNL A   1      34.888  32.782  30.839  1.00  0.00     0.198 A 
ATOM     82  F   UNL A   1      36.591  31.585  31.938  1.00  0.00    -0.203 F 
ATOM     83  F   UNL A   1      34.894  34.491  27.645  1.00  0.00    -0.200 F 
ATOM     84  C   UNL A   1      34.450  33.523  29.752  1.00  0.00     0.200 A 
ATOM     85  F   UNL A   1      34.061  32.546  31.866  1.00  0.00    -0.200 F 
ATOM     86  F   UNL A   1      33.208  34.027  29.739  1.00  0.00    -0.200 F 
ENDBRANCH  52  76
BRANCH  64  87
ATOM     87  C   UNL A   1      43.128  35.108  32.051  1.00  0.00     0.064 A 
ATOM     88  C   UNL A   1      43.108  35.337  33.434  1.00  0.00     0.173 A 
ATOM     89  C   UNL A   1      43.575  36.147  31.219  1.00  0.00     0.173 A 
ATOM     90  F   UNL A   1      42.675  34.382  34.271  1.00  0.00    -0.203 F 
ATOM     91  C   UNL A   1      43.504  36.565  33.961  1.00  0.00     0.198 A 
ATOM     92  C   UNL A   1      44.000  37.360  31.751  1.00  0.00     0.198 A 
ATOM     93  F   UNL A   1      43.620  35.976  29.889  1.00  0.00    -0.203 F 
ATOM     94  F   UNL A   1      43.436  36.777  35.282  1.00  0.00    -0.200 F 
ATOM     95  C   UNL A   1      43.959  37.570  33.120  1.00  0.00     0.200 A 
ATOM     96  F   UNL A   1      44.456  38.324  30.938  1.00  0.00    -0.200 F 
ATOM     97  F   UNL A   1      44.353  38.744  33.631  1.00  0.00    -0.200 F 
ENDBRANCH  64  87
ENDBRANCH  38  39
ENDBRANCH  30  33
ENDBRANCH  28  29
ENDBRANCH   1  28
TORSDOF 14
ENDMDL
MODEL 2
REMARK VINA RESULT:     -11.8      1.028      1.609
REMARK SMILES CCc1cc(OC(F)(F)F)cc2c1O[C@@H](C(F)(F)F)C(C(=O)NCCCNC(=O)c1ccc(-c3c4nc(c(-c5c(F)c(F)c(F)c(F)c5F)c5ccc([nH]5)c(-c5c(F)c(F)c(F)c(F)c5F)c5nc(c(-c6c(F)c(F)c(F)c(F)c6F)c6ccc3[nH]6)C=C5)C=C4)cc1)=C2
REMARK SMILES IDX 25 1 24 2 23 3 21 4 22 5 20 7 3 8 4 9 13 10 5 11 12 12 14 13
REMARK SMILES IDX 11 14 93 15 15 16 2 17 1 18 6 19 7 20 8 21 9 22 10 23 16 24
REMARK SMILES IDX 17 25 18 26 19 27 26 28 27 29 28 30 29 32 30 33 31 34 92 35
REMARK SMILES IDX 32 36 91 37 33 38 34 39 35 40 85 41 36 42 90 43 84 44 86 45
REMARK SMILES IDX 37 46 89 47 83 48 82 49 38 51 70 52 50 53 69 54 51 55 54 56
REMARK SMILES IDX 68 57 87 58 52 59 53 60 67 62 88 63 55 64 39 65 40 66 48 67
REMARK SMILES IDX 41 68 42 69 46 70 49 71 43 72 44 73 47 74 45 75 71 76 72 77
REMARK SMILES IDX 80 78 73 79 74 80 78 81 81 82 75 83 76 84 79 85 77 86 56 87
REMARK SMILES IDX 57 88 65 89 58 90 59 91 63 92 66 93 60 94 61 95 64 96 62 97
REMARK H PARENT 23 6 27 31 86 50 54 61
REMARK Flexibility Score: inf
ROOT
ATOM      1  C   UNL A   1      35.400  23.358  26.427  1.00  0.00     0.042 C 
ENDROOT
BRANCH   1   2
ATOM      2  C   UNL A   1      34.180  23.310  25.503  1.00  0.00     0.118 C 
BRANCH   2   3
ATOM      3  N   UNL A   1      32.979  23.008  26.268  1.00  0.00    -0.352 N 
ATOM      4  C   UNL A   1      31.956  23.772  26.733  1.00  0.00     0.251 C 
ATOM      5  O   UNL A   1      31.160  23.247  27.505  1.00  0.00    -0.270 OA
ATOM      6  H   UNL A   1      32.889  22.055  26.495  1.00  0.00     0.163 HD
BRANCH   4   7
ATOM      7  C   UNL A   1      31.728  25.176  26.302  1.00  0.00     0.067 C 
ATOM      8  C   UNL A   1      31.147  29.049  24.746  1.00  0.00    -0.002 A 
ATOM      9  C   UNL A   1      31.686  30.145  25.451  1.00  0.00     0.054 A 
ATOM     10  C   UNL A   1      31.319  27.755  25.262  1.00  0.00     0.131 A 
ATOM     11  C   UNL A   1      32.393  29.958  26.639  1.00  0.00     0.130 A 
ATOM     12  C   UNL A   1      31.998  27.567  26.465  1.00  0.00     0.021 A 
ATOM     13  O   UNL A   1      30.867  26.705  24.518  1.00  0.00    -0.475 OA
ATOM     14  C   UNL A   1      32.534  28.666  27.145  1.00  0.00     0.058 A 
ATOM     15  C   UNL A   1      32.218  26.225  26.975  1.00  0.00     0.025 C 
ATOM     16  C   UNL A   1      30.764  25.388  25.137  1.00  0.00     0.314 C 
BRANCH   8  17
ATOM     17  C   UNL A   1      30.381  29.303  23.465  1.00  0.00     0.036 C 
ATOM     18  C   UNL A   1      29.389  30.452  23.584  1.00  0.00     0.009 C 
ENDBRANCH   8  17
BRANCH  11  19
ATOM     19  O   UNL A   1      32.994  30.922  27.393  1.00  0.00    -0.406 OA
BRANCH  19  20
ATOM     20  C   UNL A   1      34.397  30.842  27.578  1.00  0.00     0.573 C 
ATOM     21  F   UNL A   1      34.707  30.610  28.872  1.00  0.00    -0.132 F 
ATOM     22  F   UNL A   1      34.931  29.876  26.803  1.00  0.00    -0.132 F 
ATOM     23  F   UNL A   1      34.947  32.023  27.219  1.00  0.00    -0.132 F 
ENDBRANCH  19  20
ENDBRANCH  11  19
BRANCH  16  24
ATOM     24  C   UNL A   1      30.816  24.349  23.993  1.00  0.00     0.429 C 
ATOM     25  F   UNL A   1      32.027  24.281  23.398  1.00  0.00    -0.167 F 
ATOM     26  F   UNL A   1      30.578  23.095  24.467  1.00  0.00    -0.167 F 
ATOM     27  F   UNL A   1      29.887  24.587  23.039  1.00  0.00    -0.167 F 
ENDBRANCH  16  24
ENDBRANCH   4   7
ENDBRANCH   2   3
ENDBRANCH   1   2
BRANCH   1  28
ATOM     28  C   UNL A   1      36.676  23.782  25.703  1.00  0.00     0.118 C 
BRANCH  28  29
ATOM     29  N   UNL A   1      37.757  22.829  25.910  1.00  0.00    -0.352 N 
ATOM     30  C   UNL A   1      39.039  23.039  26.352  1.00  0.00     0.251 C 
ATOM     31  H   UNL A   1      37.534  21.892  25.702  1.00  0.00     0.163 HD
ATOM     32  O   UNL A   1      39.880  22.156  26.231  1.00  0.00    -0.269 OA
BRANCH  30  33
ATOM     33  C   UNL A   1      39.409  24.330  26.967  1.00  0.00     0.039 A 
ATOM     34  C   UNL A   1      39.075  24.566  28.304  1.00  0.00     0.014 A 
ATOM     35  C   UNL A   1      40.057  25.317  26.219  1.00  0.00     0.014 A 
ATOM     36  C   UNL A   1      39.444  25.771  28.908  1.00  0.00     0.010 A 
ATOM     37  C   UNL A   1      40.487  26.485  26.841  1.00  0.00     0.010 A 
ATOM     38  C   UNL A   1      40.183  26.726  28.189  1.00  0.00    -0.014 A 
BRANCH  38  39
ATOM     39  C   UNL A   1      40.648  27.986  28.819  1.00  0.00     0.031 A 
ATOM     40  C   UNL A   1      42.074  28.113  29.278  1.00  0.00     0.074 A 
ATOM     41  C   UNL A   1      39.767  28.978  29.059  1.00  0.00     0.049 A 
ATOM     42  N   UNL A   1      42.641  29.070  29.968  1.00  0.00    -0.248 NA
ATOM     43  C   UNL A   1      42.975  27.000  28.942  1.00  0.00     0.031 C 
ATOM     44  C   UNL A   1      38.351  28.956  28.691  1.00  0.00     0.029 A 
ATOM     45  N   UNL A   1      39.928  30.187  29.688  1.00  0.00    -0.354 N 
ATOM     46  C   UNL A   1      43.955  28.664  30.166  1.00  0.00     0.074 A 
ATOM     47  C   UNL A   1      44.088  27.355  29.567  1.00  0.00     0.031 C 
ATOM     48  C   UNL A   1      37.775  30.100  29.092  1.00  0.00     0.029 A 
ATOM     49  C   UNL A   1      38.767  30.915  29.786  1.00  0.00     0.049 A 
ATOM     50  H   UNL A   1      40.793  30.501  30.036  1.00  0.00     0.167 HD
ATOM     51  C   UNL A   1      44.961  29.335  30.775  1.00  0.00     0.037 A 
ATOM     52  C   UNL A   1      38.527  32.096  30.387  1.00  0.00     0.037 A 
ATOM     53  C   UNL A   1      44.826  30.648  31.347  1.00  0.00     0.049 A 
ATOM     54  C   UNL A   1      39.661  32.811  31.074  1.00  0.00     0.074 A 
ATOM     55  C   UNL A   1      45.798  31.438  31.934  1.00  0.00     0.029 A 
ATOM     56  N   UNL A   1      43.639  31.365  31.404  1.00  0.00    -0.354 N 
ATOM     57  N   UNL A   1      40.913  32.447  31.200  1.00  0.00    -0.248 NA
ATOM     58  C   UNL A   1      39.347  34.103  31.700  1.00  0.00     0.031 C 
ATOM     59  C   UNL A   1      45.190  32.609  32.396  1.00  0.00     0.029 A 
ATOM     60  C   UNL A   1      43.850  32.577  32.040  1.00  0.00     0.049 A 
ATOM     61  H   UNL A   1      42.774  31.058  31.046  1.00  0.00     0.167 HD
ATOM     62  C   UNL A   1      41.544  33.478  31.885  1.00  0.00     0.074 A 
ATOM     63  C   UNL A   1      40.537  34.486  32.139  1.00  0.00     0.031 C 
ATOM     64  C   UNL A   1      42.840  33.579  32.268  1.00  0.00     0.037 A 
BRANCH  51  65
ATOM     65  C   UNL A   1      46.300  28.659  30.859  1.00  0.00     0.064 A 
ATOM     66  C   UNL A   1      46.647  27.838  31.943  1.00  0.00     0.173 A 
ATOM     67  C   UNL A   1      47.233  28.799  29.819  1.00  0.00     0.173 A 
ATOM     68  F   UNL A   1      45.796  27.678  32.968  1.00  0.00    -0.203 F 
ATOM     69  C   UNL A   1      47.886  27.204  31.996  1.00  0.00     0.198 A 
ATOM     70  C   UNL A   1      48.458  28.137  29.860  1.00  0.00     0.198 A 
ATOM     71  F   UNL A   1      46.952  29.566  28.756  1.00  0.00    -0.203 F 
ATOM     72  F   UNL A   1      48.213  26.465  33.065  1.00  0.00    -0.200 F 
ATOM     73  C   UNL A   1      48.787  27.347  30.951  1.00  0.00     0.200 A 
ATOM     74  F   UNL A   1      49.321  28.264  28.843  1.00  0.00    -0.200 F 
ATOM     75  F   UNL A   1      49.975  26.729  31.000  1.00  0.00    -0.200 F 
ENDBRANCH  51  65
BRANCH  52  76
ATOM     76  C   UNL A   1      37.161  32.683  30.360  1.00  0.00     0.064 A 
ATOM     77  C   UNL A   1      36.780  33.573  29.345  1.00  0.00     0.173 A 
ATOM     78  C   UNL A   1      36.213  32.381  31.349  1.00  0.00     0.173 A 
ATOM     79  F   UNL A   1      37.656  33.909  28.386  1.00  0.00    -0.203 F 
ATOM     80  C   UNL A   1      35.515  34.157  29.336  1.00  0.00     0.198 A 
ATOM     81  C   UNL A   1      34.938  32.941  31.321  1.00  0.00     0.198 A 
ATOM     82  F   UNL A   1      36.524  31.530  32.338  1.00  0.00    -0.203 F 
ATOM     83  F   UNL A   1      35.197  35.046  28.384  1.00  0.00    -0.200 F 
ATOM     84  C   UNL A   1      34.594  33.837  30.321  1.00  0.00     0.200 A 
ATOM     85  F   UNL A   1      34.045  32.615  32.265  1.00  0.00    -0.200 F 
ATOM     86  F   UNL A   1      33.377  34.399  30.311  1.00  0.00    -0.200 F 
ENDBRANCH  52  76
BRANCH  64  87
ATOM     87  C   UNL A   1      43.262  34.844  32.957  1.00  0.00     0.064 A 
ATOM     88  C   UNL A   1      43.642  35.987  32.239  1.00  0.00     0.173 A 
ATOM     89  C   UNL A   1      43.227  34.929  34.359  1.00  0.00     0.173 A 
ATOM     90  F   UNL A   1      43.707  35.953  30.900  1.00  0.00    -0.203 F 
ATOM     91  C   UNL A   1      43.990  37.163  32.900  1.00  0.00     0.198 A 
ATOM     92  C   UNL A   1      43.544  36.114  35.014  1.00  0.00     0.198 A 
ATOM     93  F   UNL A   1      42.863  33.866  35.091  1.00  0.00    -0.203 F 
ATOM     94  F   UNL A   1      44.392  38.230  32.197  1.00  0.00    -0.200 F 
ATOM     95  C   UNL A   1      43.931  37.229  34.285  1.00  0.00     0.200 A 
ATOM     96  F   UNL A   1      43.469  36.181  36.350  1.00  0.00    -0.200 F 
ATOM     97  F   UNL A   1      44.252  38.365  34.917  1.00  0.00    -0.200 F 
ENDBRANCH  64  87
ENDBRANCH  38  39
ENDBRANCH  30  33
ENDBRANCH  28  29
ENDBRANCH   1  28
TORSDOF 14
ENDMDL
MODEL 3
REMARK VINA RESULT:     -11.7      0.924      2.150
REMARK SMILES CCc1cc(OC(F)(F)F)cc2c1O[C@@H](C(F)(F)F)C(C(=O)NCCCNC(=O)c1ccc(-c3c4nc(c(-c5c(F)c(F)c(F)c(F)c5F)c5ccc([nH]5)c(-c5c(F)c(F)c(F)c(F)c5F)c5nc(c(-c6c(F)c(F)c(F)c(F)c6F)c6ccc3[nH]6)C=C5)C=C4)cc1)=C2
REMARK SMILES IDX 25 1 24 2 23 3 21 4 22 5 20 7 3 8 4 9 13 10 5 11 12 12 14 13
REMARK SMILES IDX 11 14 93 15 15 16 2 17 1 18 6 19 7 20 8 21 9 22 10 23 16 24
REMARK SMILES IDX 17 25 18 26 19 27 26 28 27 29 28 30 29 32 30 33 31 34 92 35
REMARK SMILES IDX 32 36 91 37 33 38 34 39 35 40 85 41 36 42 90 43 84 44 86 45
REMARK SMILES IDX 37 46 89 47 83 48 82 49 38 51 70 52 50 53 69 54 51 55 54 56
REMARK SMILES IDX 68 57 87 58 52 59 53 60 67 62 88 63 55 64 39 65 40 66 48 67
REMARK SMILES IDX 41 68 42 69 46 70 49 71 43 72 44 73 47 74 45 75 71 76 72 77
REMARK SMILES IDX 80 78 73 79 74 80 78 81 81 82 75 83 76 84 79 85 77 86 56 87
REMARK SMILES IDX 57 88 65 89 58 90 59 91 63 92 66 93 60 94 61 95 64 96 62 97
REMARK H PARENT 23 6 27 31 86 50 54 61
REMARK Flexibility Score: inf
ROOT
ATOM      1  C   UNL A   1      35.635  23.737  25.948  1.00  0.00     0.042 C 
ENDROOT
BRANCH   1   2
ATOM      2  C   UNL A   1      34.451  23.303  25.080  1.00  0.00     0.118 C 
BRANCH   2   3
ATOM      3  N   UNL A   1      33.331  22.900  25.917  1.00  0.00    -0.352 N 
ATOM      4  C   UNL A   1      32.316  23.586  26.505  1.00  0.00     0.251 C 
ATOM      5  O   UNL A   1      31.609  22.979  27.305  1.00  0.00    -0.270 OA
ATOM      6  H   UNL A   1      33.303  21.932  26.095  1.00  0.00     0.163 HD
BRANCH   4   7
ATOM      7  C   UNL A   1      31.990  24.998  26.176  1.00  0.00     0.067 C 
ATOM      8  C   UNL A   1      31.110  28.916  24.899  1.00  0.00    -0.002 A 
ATOM      9  C   UNL A   1      31.651  29.997  25.625  1.00  0.00     0.054 A 
ATOM     10  C   UNL A   1      31.382  27.606  25.324  1.00  0.00     0.131 A 
ATOM     11  C   UNL A   1      32.457  29.781  26.743  1.00  0.00     0.130 A 
ATOM     12  C   UNL A   1      32.161  27.387  26.459  1.00  0.00     0.021 A 
ATOM     13  O   UNL A   1      30.921  26.577  24.556  1.00  0.00    -0.475 OA
ATOM     14  C   UNL A   1      32.697  28.472  27.159  1.00  0.00     0.058 A 
ATOM     15  C   UNL A   1      32.482  26.031  26.871  1.00  0.00     0.025 C 
ATOM     16  C   UNL A   1      30.929  25.225  25.103  1.00  0.00     0.314 C 
BRANCH   8  17
ATOM     17  C   UNL A   1      30.235  29.202  23.699  1.00  0.00     0.036 C 
ATOM     18  C   UNL A   1      31.006  29.196  22.385  1.00  0.00     0.009 C 
ENDBRANCH   8  17
BRANCH  11  19
ATOM     19  O   UNL A   1      33.071  30.731  27.505  1.00  0.00    -0.406 OA
BRANCH  19  20
ATOM     20  C   UNL A   1      34.487  30.722  27.565  1.00  0.00     0.573 C 
ATOM     21  F   UNL A   1      35.005  29.773  26.756  1.00  0.00    -0.132 F 
ATOM     22  F   UNL A   1      34.992  31.928  27.232  1.00  0.00    -0.132 F 
ATOM     23  F   UNL A   1      34.862  30.444  28.834  1.00  0.00    -0.132 F 
ENDBRANCH  19  20
ENDBRANCH  11  19
BRANCH  16  24
ATOM     24  C   UNL A   1      30.938  24.254  23.898  1.00  0.00     0.429 C 
ATOM     25  F   UNL A   1      30.697  22.973  24.253  1.00  0.00    -0.167 F 
ATOM     26  F   UNL A   1      29.955  24.572  23.011  1.00  0.00    -0.167 F 
ATOM     27  F   UNL A   1      32.105  24.293  23.215  1.00  0.00    -0.167 F 
ENDBRANCH  16  24
ENDBRANCH   4   7
ENDBRANCH   2   3
ENDBRANCH   1   2
BRANCH   1  28
ATOM     28  C   UNL A   1      36.941  23.841  25.163  1.00  0.00     0.118 C 
BRANCH  28  29
ATOM     29  N   UNL A   1      37.897  22.820  25.568  1.00  0.00    -0.352 N 
ATOM     30  C   UNL A   1      39.116  22.955  26.185  1.00  0.00     0.251 C 
ATOM     31  H   UNL A   1      37.629  21.893  25.371  1.00  0.00     0.163 HD
ATOM     32  O   UNL A   1      39.889  22.005  26.227  1.00  0.00    -0.269 OA
BRANCH  30  33
ATOM     33  C   UNL A   1      39.501  24.246  26.790  1.00  0.00     0.039 A 
ATOM     34  C   UNL A   1      39.167  24.498  28.124  1.00  0.00     0.014 A 
ATOM     35  C   UNL A   1      40.164  25.219  26.037  1.00  0.00     0.014 A 
ATOM     36  C   UNL A   1      39.549  25.703  28.720  1.00  0.00     0.010 A 
ATOM     37  C   UNL A   1      40.607  26.386  26.650  1.00  0.00     0.010 A 
ATOM     38  C   UNL A   1      40.303  26.642  27.996  1.00  0.00    -0.014 A 
BRANCH  38  39
ATOM     39  C   UNL A   1      40.782  27.901  28.617  1.00  0.00     0.031 A 
ATOM     40  C   UNL A   1      42.216  28.023  29.053  1.00  0.00     0.074 A 
ATOM     41  C   UNL A   1      39.908  28.896  28.870  1.00  0.00     0.049 A 
ATOM     42  N   UNL A   1      42.797  28.979  29.733  1.00  0.00    -0.248 NA
ATOM     43  C   UNL A   1      43.108  26.907  28.703  1.00  0.00     0.031 C 
ATOM     44  C   UNL A   1      38.486  28.879  28.526  1.00  0.00     0.029 A 
ATOM     45  N   UNL A   1      40.084  30.105  29.495  1.00  0.00    -0.354 N 
ATOM     46  C   UNL A   1      44.113  28.569  29.909  1.00  0.00     0.074 A 
ATOM     47  C   UNL A   1      44.232  27.259  29.309  1.00  0.00     0.031 C 
ATOM     48  C   UNL A   1      37.921  30.025  28.935  1.00  0.00     0.029 A 
ATOM     49  C   UNL A   1      38.927  30.838  29.612  1.00  0.00     0.049 A 
ATOM     50  H   UNL A   1      40.956  30.417  29.829  1.00  0.00     0.167 HD
ATOM     51  C   UNL A   1      45.131  29.236  30.502  1.00  0.00     0.037 A 
ATOM     52  C   UNL A   1      38.701  32.020  30.216  1.00  0.00     0.037 A 
ATOM     53  C   UNL A   1      45.010  30.550  31.074  1.00  0.00     0.049 A 
ATOM     54  C   UNL A   1      39.848  32.731  30.883  1.00  0.00     0.074 A 
ATOM     55  C   UNL A   1      45.994  31.337  31.644  1.00  0.00     0.029 A 
ATOM     56  N   UNL A   1      43.826  31.271  31.150  1.00  0.00    -0.354 N 
ATOM     57  N   UNL A   1      41.101  32.363  30.989  1.00  0.00    -0.248 NA
ATOM     58  C   UNL A   1      39.549  34.025  31.513  1.00  0.00     0.031 C 
ATOM     59  C   UNL A   1      45.397  32.511  32.115  1.00  0.00     0.029 A 
ATOM     60  C   UNL A   1      44.052  32.484  31.781  1.00  0.00     0.049 A 
ATOM     61  H   UNL A   1      42.955  30.967  30.807  1.00  0.00     0.167 HD
ATOM     62  C   UNL A   1      41.747  33.392  31.664  1.00  0.00     0.074 A 
ATOM     63  C   UNL A   1      40.747  34.404  31.933  1.00  0.00     0.031 C 
ATOM     64  C   UNL A   1      43.049  33.489  32.025  1.00  0.00     0.037 A 
BRANCH  51  65
ATOM     65  C   UNL A   1      46.469  28.556  30.563  1.00  0.00     0.064 A 
ATOM     66  C   UNL A   1      47.423  28.708  29.545  1.00  0.00     0.173 A 
ATOM     67  C   UNL A   1      46.821  27.779  31.678  1.00  0.00     0.173 A 
ATOM     68  F   UNL A   1      47.134  29.433  28.453  1.00  0.00    -0.203 F 
ATOM     69  C   UNL A   1      48.665  28.085  29.625  1.00  0.00     0.198 A 
ATOM     70  C   UNL A   1      48.078  27.185  31.771  1.00  0.00     0.198 A 
ATOM     71  F   UNL A   1      45.951  27.605  32.684  1.00  0.00    -0.203 F 
ATOM     72  F   UNL A   1      49.540  28.205  28.617  1.00  0.00    -0.200 F 
ATOM     73  C   UNL A   1      48.995  27.331  30.742  1.00  0.00     0.200 A 
ATOM     74  F   UNL A   1      48.400  26.469  32.857  1.00  0.00    -0.200 F 
ATOM     75  F   UNL A   1      50.196  26.741  30.823  1.00  0.00    -0.200 F 
ENDBRANCH  51  65
BRANCH  52  76
ATOM     76  C   UNL A   1      37.337  32.611  30.210  1.00  0.00     0.064 A 
ATOM     77  C   UNL A   1      36.392  32.251  31.182  1.00  0.00     0.173 A 
ATOM     78  C   UNL A   1      36.944  33.537  29.232  1.00  0.00     0.173 A 
ATOM     79  F   UNL A   1      36.712  31.355  32.127  1.00  0.00    -0.203 F 
ATOM     80  C   UNL A   1      35.099  32.771  31.157  1.00  0.00     0.198 A 
ATOM     81  C   UNL A   1      35.661  34.081  29.228  1.00  0.00     0.198 A 
ATOM     82  F   UNL A   1      37.812  33.922  28.284  1.00  0.00    -0.203 F 
ATOM     83  F   UNL A   1      34.200  32.368  32.066  1.00  0.00    -0.200 F 
ATOM     84  C   UNL A   1      34.737  33.690  30.185  1.00  0.00     0.200 A 
ATOM     85  F   UNL A   1      35.321  34.982  28.297  1.00  0.00    -0.200 F 
ATOM     86  F   UNL A   1      33.494  34.191  30.163  1.00  0.00    -0.200 F 
ENDBRANCH  52  76
BRANCH  64  87
ATOM     87  C   UNL A   1      43.487  34.753  32.706  1.00  0.00     0.064 A 
ATOM     88  C   UNL A   1      43.838  35.902  31.982  1.00  0.00     0.173 A 
ATOM     89  C   UNL A   1      43.496  34.832  34.108  1.00  0.00     0.173 A 
ATOM     90  F   UNL A   1      43.860  35.874  30.641  1.00  0.00    -0.203 F 
ATOM     91  C   UNL A   1      44.201  37.076  32.637  1.00  0.00     0.198 A 
ATOM     92  C   UNL A   1      43.828  36.016  34.758  1.00  0.00     0.198 A 
ATOM     93  F   UNL A   1      43.161  33.763  34.847  1.00  0.00    -0.203 F 
ATOM     94  F   UNL A   1      44.575  38.148  31.925  1.00  0.00    -0.200 F 
ATOM     95  C   UNL A   1      44.186  37.135  34.023  1.00  0.00     0.200 A 
ATOM     96  F   UNL A   1      43.796  36.076  36.097  1.00  0.00    -0.200 F 
ATOM     97  F   UNL A   1      44.521  38.270  34.650  1.00  0.00    -0.200 F 
ENDBRANCH  64  87
ENDBRANCH  38  39
ENDBRANCH  30  33
ENDBRANCH  28  29
ENDBRANCH   1  28
TORSDOF 14
ENDMDL
