MODEL 1
REMARK VINA RESULT:     -11.5      0.000      0.000
REMARK SMILES CCC(CC)[C@H](C(=O)NCCCNC(=O)c1ccc(-c2c3nc(c(-c4c(F)c(F)c(F)c(F)c4F)c4ccc([nH]4)c(-c4c(F)c(F)c(F)c(F)c4F)c4nc(c(-c5c(F)c(F)c(F)c(F)c5F)c5ccc2[nH]5)C=C4)C=C3)cc1)c1ccccc1
REMARK SMILES IDX 11 1 10 2 9 3 7 4 8 5 6 7 3 8 2 9 1 10 4 11 5 12 79 13 80 14
REMARK SMILES IDX 84 15 81 16 83 17 82 18 12 19 13 20 14 21 15 23 16 24 17 25
REMARK SMILES IDX 78 26 18 27 77 28 19 29 20 30 21 31 71 32 22 33 76 34 70 35
REMARK SMILES IDX 72 36 23 37 75 38 69 39 68 40 24 42 56 43 36 44 55 45 37 46
REMARK SMILES IDX 40 47 54 48 73 49 38 50 39 51 53 53 74 54 41 55 25 56 26 57
REMARK SMILES IDX 34 58 27 59 28 60 32 61 35 62 29 63 30 64 33 65 31 66 57 67
REMARK SMILES IDX 58 68 66 69 59 70 60 71 64 72 67 73 61 74 62 75 65 76 63 77
REMARK SMILES IDX 42 78 43 79 51 80 44 81 45 82 49 83 52 84 46 85 47 86 50 87
REMARK SMILES IDX 48 88
REMARK H PARENT 9 6 13 22 72 41 40 52
REMARK Flexibility Score: inf
ROOT
ATOM      1  C   UNL A   1      31.673  31.783  26.552  1.00  0.00     0.042 C 
ENDROOT
BRANCH   1   2
ATOM      2  C   UNL A   1      31.973  30.305  26.378  1.00  0.00     0.117 C 
BRANCH   2   3
ATOM      3  N   UNL A   1      32.817  30.066  25.223  1.00  0.00    -0.355 N 
ATOM      4  C   UNL A   1      32.784  29.066  24.298  1.00  0.00     0.227 C 
ATOM      5  O   UNL A   1      33.462  29.267  23.288  1.00  0.00    -0.274 OA
ATOM      6  H   UNL A   1      33.527  30.733  25.087  1.00  0.00     0.163 HD
BRANCH   4   7
ATOM      7  C   UNL A   1      31.852  27.851  24.499  1.00  0.00     0.111 C 
BRANCH   7   8
ATOM      8  C   UNL A   1      30.980  27.612  23.178  1.00  0.00     0.005 C 
BRANCH   8   9
ATOM      9  C   UNL A   1      31.294  26.279  22.435  1.00  0.00     0.001 C 
ATOM     10  C   UNL A   1      32.536  26.313  21.551  1.00  0.00     0.004 C 
ENDBRANCH   8   9
BRANCH   8  11
ATOM     11  C   UNL A   1      29.451  27.829  23.283  1.00  0.00     0.001 C 
ATOM     12  C   UNL A   1      28.665  26.667  23.874  1.00  0.00     0.004 C 
ENDBRANCH   8  11
ENDBRANCH   7   8
BRANCH   7  13
ATOM     13  C   UNL A   1      32.499  26.633  25.184  1.00  0.00    -0.035 A 
ATOM     14  C   UNL A   1      31.710  25.804  26.007  1.00  0.00     0.004 A 
ATOM     15  C   UNL A   1      33.850  26.275  25.049  1.00  0.00     0.004 A 
ATOM     16  C   UNL A   1      32.197  24.597  26.519  1.00  0.00     0.000 A 
ATOM     17  C   UNL A   1      34.355  25.092  25.601  1.00  0.00     0.000 A 
ATOM     18  C   UNL A   1      33.519  24.233  26.300  1.00  0.00     0.000 A 
ENDBRANCH   7  13
ENDBRANCH   4   7
ENDBRANCH   2   3
ENDBRANCH   1   2
BRANCH   1  19
ATOM     19  C   UNL A   1      32.766  32.551  27.283  1.00  0.00     0.118 C 
BRANCH  19  20
ATOM     20  N   UNL A   1      32.412  33.936  27.557  1.00  0.00    -0.352 N 
ATOM     21  C   UNL A   1      32.937  34.799  28.495  1.00  0.00     0.251 C 
ATOM     22  H   UNL A   1      31.696  34.309  26.993  1.00  0.00     0.163 HD
ATOM     23  O   UNL A   1      32.423  35.887  28.698  1.00  0.00    -0.269 OA
BRANCH  21  24
ATOM     24  C   UNL A   1      34.114  34.372  29.284  1.00  0.00     0.039 A 
ATOM     25  C   UNL A   1      33.912  33.745  30.515  1.00  0.00     0.014 A 
ATOM     26  C   UNL A   1      35.406  34.548  28.784  1.00  0.00     0.014 A 
ATOM     27  C   UNL A   1      35.006  33.217  31.204  1.00  0.00     0.010 A 
ATOM     28  C   UNL A   1      36.478  33.937  29.421  1.00  0.00     0.010 A 
ATOM     29  C   UNL A   1      36.292  33.267  30.640  1.00  0.00    -0.014 A 
BRANCH  29  30
ATOM     30  C   UNL A   1      37.456  32.630  31.305  1.00  0.00     0.031 A 
ATOM     31  C   UNL A   1      38.171  31.490  30.634  1.00  0.00     0.074 A 
ATOM     32  C   UNL A   1      37.821  33.024  32.540  1.00  0.00     0.049 A 
ATOM     33  N   UNL A   1      39.150  30.746  31.083  1.00  0.00    -0.248 NA
ATOM     34  C   UNL A   1      37.700  31.114  29.291  1.00  0.00     0.031 C 
ATOM     35  C   UNL A   1      37.172  34.082  33.318  1.00  0.00     0.029 A 
ATOM     36  N   UNL A   1      38.821  32.572  33.366  1.00  0.00    -0.354 N 
ATOM     37  C   UNL A   1      39.398  29.809  30.089  1.00  0.00     0.074 A 
ATOM     38  C   UNL A   1      38.428  30.036  29.041  1.00  0.00     0.031 C 
ATOM     39  C   UNL A   1      37.807  34.215  34.495  1.00  0.00     0.029 A 
ATOM     40  C   UNL A   1      38.878  33.227  34.572  1.00  0.00     0.049 A 
ATOM     41  H   UNL A   1      39.438  31.848  33.116  1.00  0.00     0.167 HD
ATOM     42  C   UNL A   1      40.366  28.863  30.041  1.00  0.00     0.037 A 
ATOM     43  C   UNL A   1      39.696  33.043  35.626  1.00  0.00     0.037 A 
ATOM     44  C   UNL A   1      41.346  28.660  31.074  1.00  0.00     0.049 A 
ATOM     45  C   UNL A   1      40.759  31.979  35.551  1.00  0.00     0.074 A 
ATOM     46  C   UNL A   1      42.406  27.771  31.095  1.00  0.00     0.029 A 
ATOM     47  N   UNL A   1      41.384  29.356  32.274  1.00  0.00    -0.354 N 
ATOM     48  N   UNL A   1      41.031  31.148  34.575  1.00  0.00    -0.248 NA
ATOM     49  C   UNL A   1      41.632  31.833  36.724  1.00  0.00     0.031 C 
ATOM     50  C   UNL A   1      43.055  27.893  32.327  1.00  0.00     0.029 A 
ATOM     51  C   UNL A   1      42.435  28.899  33.052  1.00  0.00     0.049 A 
ATOM     52  H   UNL A   1      40.757  30.069  32.533  1.00  0.00     0.167 HD
ATOM     53  C   UNL A   1      42.122  30.403  35.000  1.00  0.00     0.074 A 
ATOM     54  C   UNL A   1      42.471  30.891  36.318  1.00  0.00     0.031 C 
ATOM     55  C   UNL A   1      42.776  29.404  34.358  1.00  0.00     0.037 A 
BRANCH  42  56
ATOM     56  C   UNL A   1      40.412  27.979  28.828  1.00  0.00     0.064 A 
ATOM     57  C   UNL A   1      41.157  28.328  27.690  1.00  0.00     0.173 A 
ATOM     58  C   UNL A   1      39.730  26.753  28.813  1.00  0.00     0.173 A 
ATOM     59  F   UNL A   1      41.819  29.494  27.648  1.00  0.00    -0.203 F 
ATOM     60  C   UNL A   1      41.191  27.498  26.572  1.00  0.00     0.198 A 
ATOM     61  C   UNL A   1      39.793  25.910  27.706  1.00  0.00     0.198 A 
ATOM     62  F   UNL A   1      39.008  26.367  29.875  1.00  0.00    -0.203 F 
ATOM     63  F   UNL A   1      41.864  27.880  25.478  1.00  0.00    -0.200 F 
ATOM     64  C   UNL A   1      40.515  26.288  26.583  1.00  0.00     0.200 A 
ATOM     65  F   UNL A   1      39.152  24.734  27.724  1.00  0.00    -0.200 F 
ATOM     66  F   UNL A   1      40.555  25.487  25.510  1.00  0.00    -0.200 F 
ENDBRANCH  42  56
BRANCH  43  67
ATOM     67  C   UNL A   1      39.563  33.902  36.833  1.00  0.00     0.064 A 
ATOM     68  C   UNL A   1      38.790  33.489  37.928  1.00  0.00     0.173 A 
ATOM     69  C   UNL A   1      40.195  35.151  36.917  1.00  0.00     0.173 A 
ATOM     70  F   UNL A   1      38.149  32.311  37.888  1.00  0.00    -0.203 F 
ATOM     71  C   UNL A   1      38.635  34.302  39.048  1.00  0.00     0.198 A 
ATOM     72  C   UNL A   1      40.063  35.951  38.050  1.00  0.00     0.198 A 
ATOM     73  F   UNL A   1      40.951  35.591  35.900  1.00  0.00    -0.203 F 
ATOM     74  F   UNL A   1      37.850  33.904  40.059  1.00  0.00    -0.200 F 
ATOM     75  C   UNL A   1      39.276  35.529  39.111  1.00  0.00     0.200 A 
ATOM     76  F   UNL A   1      40.698  37.129  38.115  1.00  0.00    -0.200 F 
ATOM     77  F   UNL A   1      39.129  36.309  40.191  1.00  0.00    -0.200 F 
ENDBRANCH  43  67
BRANCH  55  78
ATOM     78  C   UNL A   1      43.962  28.799  35.051  1.00  0.00     0.064 A 
ATOM     79  C   UNL A   1      45.254  29.322  34.898  1.00  0.00     0.173 A 
ATOM     80  C   UNL A   1      43.794  27.705  35.916  1.00  0.00     0.173 A 
ATOM     81  F   UNL A   1      45.469  30.357  34.071  1.00  0.00    -0.203 F 
ATOM     82  C   UNL A   1      46.338  28.760  35.566  1.00  0.00     0.198 A 
ATOM     83  C   UNL A   1      44.875  27.165  36.607  1.00  0.00     0.198 A 
ATOM     84  F   UNL A   1      42.578  27.171  36.103  1.00  0.00    -0.203 F 
ATOM     85  F   UNL A   1      47.570  29.246  35.366  1.00  0.00    -0.200 F 
ATOM     86  C   UNL A   1      46.146  27.688  36.426  1.00  0.00     0.200 A 
ATOM     87  F   UNL A   1      44.685  26.141  37.449  1.00  0.00    -0.200 F 
ATOM     88  F   UNL A   1      47.190  27.153  37.074  1.00  0.00    -0.200 F 
ENDBRANCH  55  78
ENDBRANCH  29  30
ENDBRANCH  21  24
ENDBRANCH  19  20
ENDBRANCH   1  19
TORSDOF 14
ENDMDL
MODEL 2
REMARK VINA RESULT:     -11.4      0.273      1.689
REMARK SMILES CCC(CC)[C@H](C(=O)NCCCNC(=O)c1ccc(-c2c3nc(c(-c4c(F)c(F)c(F)c(F)c4F)c4ccc([nH]4)c(-c4c(F)c(F)c(F)c(F)c4F)c4nc(c(-c5c(F)c(F)c(F)c(F)c5F)c5ccc2[nH]5)C=C4)C=C3)cc1)c1ccccc1
REMARK SMILES IDX 11 1 10 2 9 3 7 4 8 5 6 7 3 8 2 9 1 10 4 11 5 12 79 13 80 14
REMARK SMILES IDX 84 15 81 16 83 17 82 18 12 19 13 20 14 21 15 23 16 24 17 25
REMARK SMILES IDX 78 26 18 27 77 28 19 29 20 30 21 31 71 32 22 33 76 34 70 35
REMARK SMILES IDX 72 36 23 37 75 38 69 39 68 40 24 42 56 43 36 44 55 45 37 46
REMARK SMILES IDX 40 47 54 48 73 49 38 50 39 51 53 53 74 54 41 55 25 56 26 57
REMARK SMILES IDX 34 58 27 59 28 60 32 61 35 62 29 63 30 64 33 65 31 66 57 67
REMARK SMILES IDX 58 68 66 69 59 70 60 71 64 72 67 73 61 74 62 75 65 76 63 77
REMARK SMILES IDX 42 78 43 79 51 80 44 81 45 82 49 83 52 84 46 85 47 86 50 87
REMARK SMILES IDX 48 88
REMARK H PARENT 9 6 13 22 72 41 40 52
REMARK Flexibility Score: inf
ROOT
ATOM      1  C   UNL A   1      31.667  31.853  26.606  1.00  0.00     0.042 C 
ENDROOT
BRANCH   1   2
ATOM      2  C   UNL A   1      31.957  30.373  26.436  1.00  0.00     0.117 C 
BRANCH   2   3
ATOM      3  N   UNL A   1      32.826  30.130  25.302  1.00  0.00    -0.355 N 
ATOM      4  C   UNL A   1      32.792  29.147  24.357  1.00  0.00     0.227 C 
ATOM      5  O   UNL A   1      33.504  29.345  23.371  1.00  0.00    -0.274 OA
ATOM      6  H   UNL A   1      33.559  30.777  25.197  1.00  0.00     0.163 HD
BRANCH   4   7
ATOM      7  C   UNL A   1      31.819  27.956  24.511  1.00  0.00     0.111 C 
BRANCH   7   8
ATOM      8  C   UNL A   1      30.974  27.770  23.164  1.00  0.00     0.005 C 
BRANCH   8   9
ATOM      9  C   UNL A   1      30.925  26.305  22.634  1.00  0.00     0.001 C 
ATOM     10  C   UNL A   1      31.963  25.973  21.567  1.00  0.00     0.004 C 
ENDBRANCH   8   9
BRANCH   8  11
ATOM     11  C   UNL A   1      29.569  28.416  23.109  1.00  0.00     0.001 C 
ATOM     12  C   UNL A   1      29.457  29.667  22.248  1.00  0.00     0.004 C 
ENDBRANCH   8  11
ENDBRANCH   7   8
BRANCH   7  13
ATOM     13  C   UNL A   1      32.413  26.706  25.186  1.00  0.00    -0.035 A 
ATOM     14  C   UNL A   1      31.603  25.934  26.043  1.00  0.00     0.004 A 
ATOM     15  C   UNL A   1      33.734  26.264  25.009  1.00  0.00     0.004 A 
ATOM     16  C   UNL A   1      32.032  24.704  26.550  1.00  0.00     0.000 A 
ATOM     17  C   UNL A   1      34.184  25.056  25.555  1.00  0.00     0.000 A 
ATOM     18  C   UNL A   1      33.320  24.256  26.291  1.00  0.00     0.000 A 
ENDBRANCH   7  13
ENDBRANCH   4   7
ENDBRANCH   2   3
ENDBRANCH   1   2
BRANCH   1  19
ATOM     19  C   UNL A   1      32.759  32.614  27.346  1.00  0.00     0.118 C 
BRANCH  19  20
ATOM     20  N   UNL A   1      32.415  34.004  27.609  1.00  0.00    -0.352 N 
ATOM     21  C   UNL A   1      32.949  34.871  28.539  1.00  0.00     0.251 C 
ATOM     22  H   UNL A   1      31.701  34.378  27.044  1.00  0.00     0.163 HD
ATOM     23  O   UNL A   1      32.444  35.964  28.733  1.00  0.00    -0.269 OA
BRANCH  21  24
ATOM     24  C   UNL A   1      34.126  34.442  29.328  1.00  0.00     0.039 A 
ATOM     25  C   UNL A   1      33.923  33.841  30.572  1.00  0.00     0.014 A 
ATOM     26  C   UNL A   1      35.416  34.590  28.815  1.00  0.00     0.014 A 
ATOM     27  C   UNL A   1      35.014  33.311  31.264  1.00  0.00     0.010 A 
ATOM     28  C   UNL A   1      36.484  33.976  29.457  1.00  0.00     0.010 A 
ATOM     29  C   UNL A   1      36.296  33.332  30.690  1.00  0.00    -0.014 A 
BRANCH  29  30
ATOM     30  C   UNL A   1      37.455  32.691  31.360  1.00  0.00     0.031 A 
ATOM     31  C   UNL A   1      38.171  31.549  30.690  1.00  0.00     0.074 A 
ATOM     32  C   UNL A   1      37.816  33.083  32.597  1.00  0.00     0.049 A 
ATOM     33  N   UNL A   1      39.146  30.803  31.143  1.00  0.00    -0.248 NA
ATOM     34  C   UNL A   1      37.705  31.176  29.345  1.00  0.00     0.031 C 
ATOM     35  C   UNL A   1      37.167  34.141  33.373  1.00  0.00     0.029 A 
ATOM     36  N   UNL A   1      38.811  32.627  33.426  1.00  0.00    -0.354 N 
ATOM     37  C   UNL A   1      39.395  29.866  30.149  1.00  0.00     0.074 A 
ATOM     38  C   UNL A   1      38.431  30.097  29.097  1.00  0.00     0.031 C 
ATOM     39  C   UNL A   1      37.797  34.272  34.553  1.00  0.00     0.029 A 
ATOM     40  C   UNL A   1      38.865  33.280  34.634  1.00  0.00     0.049 A 
ATOM     41  H   UNL A   1      39.428  31.901  33.179  1.00  0.00     0.167 HD
ATOM     42  C   UNL A   1      40.361  28.917  30.105  1.00  0.00     0.037 A 
ATOM     43  C   UNL A   1      39.678  33.093  35.691  1.00  0.00     0.037 A 
ATOM     44  C   UNL A   1      41.336  28.711  31.142  1.00  0.00     0.049 A 
ATOM     45  C   UNL A   1      40.738  32.026  35.620  1.00  0.00     0.074 A 
ATOM     46  C   UNL A   1      42.393  27.818  31.166  1.00  0.00     0.029 A 
ATOM     47  N   UNL A   1      41.371  29.405  32.342  1.00  0.00    -0.354 N 
ATOM     48  N   UNL A   1      41.012  31.195  34.644  1.00  0.00    -0.248 NA
ATOM     49  C   UNL A   1      41.605  31.876  36.797  1.00  0.00     0.031 C 
ATOM     50  C   UNL A   1      43.037  27.937  32.401  1.00  0.00     0.029 A 
ATOM     51  C   UNL A   1      42.417  28.944  33.124  1.00  0.00     0.049 A 
ATOM     52  H   UNL A   1      40.744  30.120  32.600  1.00  0.00     0.167 HD
ATOM     53  C   UNL A   1      42.099  30.447  35.072  1.00  0.00     0.074 A 
ATOM     54  C   UNL A   1      42.444  30.932  36.393  1.00  0.00     0.031 C 
ATOM     55  C   UNL A   1      42.753  29.447  34.432  1.00  0.00     0.037 A 
BRANCH  42  56
ATOM     56  C   UNL A   1      40.410  28.035  28.890  1.00  0.00     0.064 A 
ATOM     57  C   UNL A   1      41.168  28.379  27.759  1.00  0.00     0.173 A 
ATOM     58  C   UNL A   1      39.719  26.814  28.868  1.00  0.00     0.173 A 
ATOM     59  F   UNL A   1      41.839  29.540  27.724  1.00  0.00    -0.203 F 
ATOM     60  C   UNL A   1      41.204  27.551  26.641  1.00  0.00     0.198 A 
ATOM     61  C   UNL A   1      39.784  25.972  27.761  1.00  0.00     0.198 A 
ATOM     62  F   UNL A   1      38.984  26.433  29.923  1.00  0.00    -0.203 F 
ATOM     63  F   UNL A   1      41.889  27.928  25.552  1.00  0.00    -0.200 F 
ATOM     64  C   UNL A   1      40.518  26.345  26.644  1.00  0.00     0.200 A 
ATOM     65  F   UNL A   1      39.133  24.802  27.771  1.00  0.00    -0.200 F 
ATOM     66  F   UNL A   1      40.560  25.546  25.570  1.00  0.00    -0.200 F 
ENDBRANCH  42  56
BRANCH  43  67
ATOM     67  C   UNL A   1      39.541  33.951  36.899  1.00  0.00     0.064 A 
ATOM     68  C   UNL A   1      40.180  35.197  36.972  1.00  0.00     0.173 A 
ATOM     69  C   UNL A   1      38.780  33.543  38.003  1.00  0.00     0.173 A 
ATOM     70  F   UNL A   1      40.936  35.622  35.949  1.00  0.00    -0.203 F 
ATOM     71  C   UNL A   1      40.082  35.990  38.113  1.00  0.00     0.198 A 
ATOM     72  C   UNL A   1      38.659  34.351  39.132  1.00  0.00     0.198 A 
ATOM     73  F   UNL A   1      38.143  32.363  37.983  1.00  0.00    -0.203 F 
ATOM     74  F   UNL A   1      40.744  37.154  38.175  1.00  0.00    -0.200 F 
ATOM     75  C   UNL A   1      39.317  35.570  39.189  1.00  0.00     0.200 A 
ATOM     76  F   UNL A   1      37.905  33.949  40.165  1.00  0.00    -0.200 F 
ATOM     77  F   UNL A   1      39.221  36.336  40.285  1.00  0.00    -0.200 F 
ENDBRANCH  43  67
BRANCH  55  78
ATOM     78  C   UNL A   1      43.934  28.837  35.130  1.00  0.00     0.064 A 
ATOM     79  C   UNL A   1      43.801  27.726  35.975  1.00  0.00     0.173 A 
ATOM     80  C   UNL A   1      45.225  29.347  34.914  1.00  0.00     0.173 A 
ATOM     81  F   UNL A   1      42.588  27.211  36.226  1.00  0.00    -0.203 F 
ATOM     82  C   UNL A   1      44.912  27.163  36.597  1.00  0.00     0.198 A 
ATOM     83  C   UNL A   1      46.337  28.761  35.512  1.00  0.00     0.198 A 
ATOM     84  F   UNL A   1      45.408  30.404  34.109  1.00  0.00    -0.203 F 
ATOM     85  F   UNL A   1      44.754  26.132  37.439  1.00  0.00    -0.200 F 
ATOM     86  C   UNL A   1      46.179  27.675  36.358  1.00  0.00     0.200 A 
ATOM     87  F   UNL A   1      47.561  29.248  35.267  1.00  0.00    -0.200 F 
ATOM     88  F   UNL A   1      47.247  27.126  36.951  1.00  0.00    -0.200 F 
ENDBRANCH  55  78
ENDBRANCH  29  30
ENDBRANCH  21  24
ENDBRANCH  19  20
ENDBRANCH   1  19
TORSDOF 14
ENDMDL
MODEL 3
REMARK VINA RESULT:     -11.4      6.028     11.360
REMARK SMILES CCC(CC)[C@H](C(=O)NCCCNC(=O)c1ccc(-c2c3nc(c(-c4c(F)c(F)c(F)c(F)c4F)c4ccc([nH]4)c(-c4c(F)c(F)c(F)c(F)c4F)c4nc(c(-c5c(F)c(F)c(F)c(F)c5F)c5ccc2[nH]5)C=C4)C=C3)cc1)c1ccccc1
REMARK SMILES IDX 11 1 10 2 9 3 7 4 8 5 6 7 3 8 2 9 1 10 4 11 5 12 79 13 80 14
REMARK SMILES IDX 84 15 81 16 83 17 82 18 12 19 13 20 14 21 15 23 16 24 17 25
REMARK SMILES IDX 78 26 18 27 77 28 19 29 20 30 21 31 71 32 22 33 76 34 70 35
REMARK SMILES IDX 72 36 23 37 75 38 69 39 68 40 24 42 56 43 36 44 55 45 37 46
REMARK SMILES IDX 40 47 54 48 73 49 38 50 39 51 53 53 74 54 41 55 25 56 26 57
REMARK SMILES IDX 34 58 27 59 28 60 32 61 35 62 29 63 30 64 33 65 31 66 57 67
REMARK SMILES IDX 58 68 66 69 59 70 60 71 64 72 67 73 61 74 62 75 65 76 63 77
REMARK SMILES IDX 42 78 43 79 51 80 44 81 45 82 49 83 52 84 46 85 47 86 50 87
REMARK SMILES IDX 48 88
REMARK H PARENT 9 6 13 22 72 41 40 52
REMARK Flexibility Score: inf
ROOT
ATOM      1  C   UNL A   1      37.952  20.034  25.008  1.00  0.00     0.042 C 
ENDROOT
BRANCH   1   2
ATOM      2  C   UNL A   1      37.008  21.214  24.870  1.00  0.00     0.117 C 
BRANCH   2   3
ATOM      3  N   UNL A   1      36.230  21.416  26.077  1.00  0.00    -0.355 N 
ATOM      4  C   UNL A   1      34.918  21.749  26.238  1.00  0.00     0.227 C 
ATOM      5  O   UNL A   1      34.476  21.598  27.378  1.00  0.00    -0.274 OA
ATOM      6  H   UNL A   1      36.730  21.294  26.915  1.00  0.00     0.163 HD
BRANCH   4   7
ATOM      7  C   UNL A   1      34.067  22.162  25.016  1.00  0.00     0.111 C 
BRANCH   7   8
ATOM      8  C   UNL A   1      32.677  21.368  25.031  1.00  0.00     0.005 C 
BRANCH   8   9
ATOM      9  C   UNL A   1      31.416  22.282  25.063  1.00  0.00     0.001 C 
ATOM     10  C   UNL A   1      31.006  22.763  26.451  1.00  0.00     0.004 C 
ENDBRANCH   8   9
BRANCH   8  11
ATOM     11  C   UNL A   1      32.496  20.228  23.999  1.00  0.00     0.001 C 
ATOM     12  C   UNL A   1      33.245  18.940  24.310  1.00  0.00     0.004 C 
ENDBRANCH   8  11
ENDBRANCH   7   8
BRANCH   7  13
ATOM     13  C   UNL A   1      34.049  23.672  24.708  1.00  0.00    -0.035 A 
ATOM     14  C   UNL A   1      33.909  24.101  23.373  1.00  0.00     0.004 A 
ATOM     15  C   UNL A   1      34.164  24.678  25.680  1.00  0.00     0.004 A 
ATOM     16  C   UNL A   1      33.720  25.449  23.050  1.00  0.00     0.000 A 
ATOM     17  C   UNL A   1      34.025  26.032  25.355  1.00  0.00     0.000 A 
ATOM     18  C   UNL A   1      33.761  26.414  24.047  1.00  0.00     0.000 A 
ENDBRANCH   7  13
ENDBRANCH   4   7
ENDBRANCH   2   3
ENDBRANCH   1   2
BRANCH   1  19
ATOM     19  C   UNL A   1      39.226  20.352  25.778  1.00  0.00     0.118 C 
BRANCH  19  20
ATOM     20  N   UNL A   1      40.143  19.224  25.865  1.00  0.00    -0.352 N 
ATOM     21  C   UNL A   1      41.507  19.225  26.069  1.00  0.00     0.251 C 
ATOM     22  H   UNL A   1      39.732  18.335  25.763  1.00  0.00     0.163 HD
ATOM     23  O   UNL A   1      42.153  18.196  25.965  1.00  0.00    -0.269 OA
BRANCH  21  24
ATOM     24  C   UNL A   1      42.185  20.504  26.380  1.00  0.00     0.039 A 
ATOM     25  C   UNL A   1      42.657  21.292  25.329  1.00  0.00     0.014 A 
ATOM     26  C   UNL A   1      42.307  20.939  27.701  1.00  0.00     0.014 A 
ATOM     27  C   UNL A   1      43.176  22.559  25.601  1.00  0.00     0.010 A 
ATOM     28  C   UNL A   1      42.731  22.236  27.960  1.00  0.00     0.010 A 
ATOM     29  C   UNL A   1      43.173  23.060  26.913  1.00  0.00    -0.014 A 
BRANCH  29  30
ATOM     30  C   UNL A   1      43.628  24.440  27.217  1.00  0.00     0.031 A 
ATOM     31  C   UNL A   1      42.654  25.450  27.758  1.00  0.00     0.074 A 
ATOM     32  C   UNL A   1      44.895  24.805  26.938  1.00  0.00     0.049 A 
ATOM     33  N   UNL A   1      42.831  26.723  28.006  1.00  0.00    -0.248 NA
ATOM     34  C   UNL A   1      41.287  24.973  28.023  1.00  0.00     0.031 C 
ATOM     35  C   UNL A   1      45.920  23.932  26.361  1.00  0.00     0.029 A 
ATOM     36  N   UNL A   1      45.534  26.011  27.089  1.00  0.00    -0.354 N 
ATOM     37  C   UNL A   1      41.599  27.197  28.438  1.00  0.00     0.074 A 
ATOM     38  C   UNL A   1      40.669  26.094  28.358  1.00  0.00     0.031 C 
ATOM     39  C   UNL A   1      47.065  24.623  26.233  1.00  0.00     0.029 A 
ATOM     40  C   UNL A   1      46.844  25.996  26.677  1.00  0.00     0.049 A 
ATOM     41  H   UNL A   1      45.094  26.810  27.458  1.00  0.00     0.167 HD
ATOM     42  C   UNL A   1      41.280  28.435  28.887  1.00  0.00     0.037 A 
ATOM     43  C   UNL A   1      47.762  26.981  26.652  1.00  0.00     0.037 A 
ATOM     44  C   UNL A   1      42.218  29.521  28.990  1.00  0.00     0.049 A 
ATOM     45  C   UNL A   1      47.380  28.350  27.150  1.00  0.00     0.074 A 
ATOM     46  C   UNL A   1      42.010  30.794  29.490  1.00  0.00     0.029 A 
ATOM     47  N   UNL A   1      43.542  29.463  28.581  1.00  0.00    -0.354 N 
ATOM     48  N   UNL A   1      46.231  28.768  27.625  1.00  0.00    -0.248 NA
ATOM     49  C   UNL A   1      48.425  29.383  27.112  1.00  0.00     0.031 C 
ATOM     50  C   UNL A   1      43.194  31.521  29.338  1.00  0.00     0.029 A 
ATOM     51  C   UNL A   1      44.157  30.685  28.796  1.00  0.00     0.049 A 
ATOM     52  H   UNL A   1      43.980  28.669  28.196  1.00  0.00     0.167 HD
ATOM     53  C   UNL A   1      46.422  30.098  27.972  1.00  0.00     0.074 A 
ATOM     54  C   UNL A   1      47.802  30.415  27.665  1.00  0.00     0.031 C 
ATOM     55  C   UNL A   1      45.536  30.980  28.496  1.00  0.00     0.037 A 
BRANCH  42  56
ATOM     56  C   UNL A   1      39.858  28.675  29.305  1.00  0.00     0.064 A 
ATOM     57  C   UNL A   1      39.428  28.443  30.621  1.00  0.00     0.173 A 
ATOM     58  C   UNL A   1      38.921  29.174  28.388  1.00  0.00     0.173 A 
ATOM     59  F   UNL A   1      40.281  27.955  31.534  1.00  0.00    -0.203 F 
ATOM     60  C   UNL A   1      38.106  28.670  30.994  1.00  0.00     0.198 A 
ATOM     61  C   UNL A   1      37.608  29.432  28.774  1.00  0.00     0.198 A 
ATOM     62  F   UNL A   1      39.279  29.420  27.119  1.00  0.00    -0.203 F 
ATOM     63  F   UNL A   1      37.706  28.388  32.242  1.00  0.00    -0.200 F 
ATOM     64  C   UNL A   1      37.198  29.171  30.073  1.00  0.00     0.200 A 
ATOM     65  F   UNL A   1      36.736  29.930  27.886  1.00  0.00    -0.200 F 
ATOM     66  F   UNL A   1      35.929  29.397  30.435  1.00  0.00    -0.200 F 
ENDBRANCH  42  56
BRANCH  43  67
ATOM     67  C   UNL A   1      49.139  26.707  26.163  1.00  0.00     0.064 A 
ATOM     68  C   UNL A   1      49.503  26.994  24.839  1.00  0.00     0.173 A 
ATOM     69  C   UNL A   1      50.116  26.148  27.000  1.00  0.00     0.173 A 
ATOM     70  F   UNL A   1      48.599  27.511  23.994  1.00  0.00    -0.203 F 
ATOM     71  C   UNL A   1      50.782  26.709  24.366  1.00  0.00     0.198 A 
ATOM     72  C   UNL A   1      51.403  25.891  26.533  1.00  0.00     0.198 A 
ATOM     73  F   UNL A   1      49.822  25.860  28.277  1.00  0.00    -0.203 F 
ATOM     74  F   UNL A   1      51.087  26.948  23.083  1.00  0.00    -0.200 F 
ATOM     75  C   UNL A   1      51.733  26.164  25.215  1.00  0.00     0.200 A 
ATOM     76  F   UNL A   1      52.325  25.379  27.361  1.00  0.00    -0.200 F 
ATOM     77  F   UNL A   1      52.964  25.894  24.759  1.00  0.00    -0.200 F 
ENDBRANCH  43  67
BRANCH  55  78
ATOM     78  C   UNL A   1      46.038  32.358  28.811  1.00  0.00     0.064 A 
ATOM     79  C   UNL A   1      46.632  32.664  30.044  1.00  0.00     0.173 A 
ATOM     80  C   UNL A   1      45.963  33.377  27.848  1.00  0.00     0.173 A 
ATOM     81  F   UNL A   1      46.714  31.730  31.004  1.00  0.00    -0.203 F 
ATOM     82  C   UNL A   1      47.110  33.944  30.311  1.00  0.00     0.198 A 
ATOM     83  C   UNL A   1      46.471  34.647  28.105  1.00  0.00     0.198 A 
ATOM     84  F   UNL A   1      45.411  33.135  26.650  1.00  0.00    -0.203 F 
ATOM     85  F   UNL A   1      47.630  34.226  31.513  1.00  0.00    -0.200 F 
ATOM     86  C   UNL A   1      47.038  34.931  29.338  1.00  0.00     0.200 A 
ATOM     87  F   UNL A   1      46.414  35.594  27.159  1.00  0.00    -0.200 F 
ATOM     88  F   UNL A   1      47.506  36.160  29.594  1.00  0.00    -0.200 F 
ENDBRANCH  55  78
ENDBRANCH  29  30
ENDBRANCH  21  24
ENDBRANCH  19  20
ENDBRANCH   1  19
TORSDOF 14
ENDMDL
