MODEL 1
REMARK VINA RESULT:     -12.3      0.000      0.000
REMARK SMILES CC(C)C[C@@H](NS(=O)(=O)/C=C/c1ccc(Cl)cc1)C(=O)NCCCNC(=O)c1ccc(-c2c3nc(c(-c4c(F)c(F)c(F)c(F)c4F)c4ccc([nH]4)c(-c4c(F)c(F)c(F)c(F)c4F)c4nc(c(-c5c(F)c(F)c(F)c(F)c5F)c5ccc2[nH]5)C=C4)C=C3)cc1
REMARK SMILES IDX 22 1 21 2 19 3 20 4 5 6 4 7 2 8 1 9 3 10 6 11 7 13 8 14 9 15
REMARK SMILES IDX 10 16 11 17 12 18 13 19 18 20 14 21 17 22 15 23 16 24 23 25
REMARK SMILES IDX 24 26 25 27 26 28 27 30 28 31 29 32 90 33 30 34 89 35 31 36
REMARK SMILES IDX 32 37 33 38 83 39 34 40 88 41 82 42 84 43 35 44 87 45 81 46
REMARK SMILES IDX 80 47 36 49 68 50 48 51 67 52 49 53 52 54 66 55 85 56 50 57
REMARK SMILES IDX 51 58 65 60 86 61 53 62 37 63 38 64 46 65 39 66 40 67 44 68
REMARK SMILES IDX 47 69 41 70 42 71 45 72 43 73 69 74 70 75 78 76 71 77 72 78
REMARK SMILES IDX 76 79 79 80 73 81 74 82 77 83 75 84 54 85 55 86 63 87 56 88
REMARK SMILES IDX 57 89 61 90 64 91 58 92 59 93 62 94 60 95
REMARK H PARENT 21 5 6 12 25 29 84 48 52 59
REMARK Flexibility Score: inf
ROOT
ATOM      1  C   UNL A   1      31.837  29.608  24.951  1.00  0.00     0.117 C 
ENDROOT
BRANCH   1   2
ATOM      2  N   UNL A   1      30.989  29.685  23.768  1.00  0.00    -0.355 N 
ATOM      3  C   UNL A   1      30.667  28.716  22.854  1.00  0.00     0.238 C 
ATOM      4  O   UNL A   1      29.856  28.994  21.967  1.00  0.00    -0.273 OA
ATOM      5  H   UNL A   1      30.587  30.566  23.600  1.00  0.00     0.163 HD
BRANCH   3   6
ATOM      6  C   UNL A   1      31.329  27.341  22.918  1.00  0.00     0.159 C 
BRANCH   6   7
ATOM      7  C   UNL A   1      30.394  26.463  23.770  1.00  0.00     0.033 C 
BRANCH   7   8
ATOM      8  C   UNL A   1      30.948  25.868  25.068  1.00  0.00    -0.015 C 
ATOM      9  C   UNL A   1      30.729  24.361  25.144  1.00  0.00     0.007 C 
ATOM     10  C   UNL A   1      32.448  26.188  25.139  1.00  0.00     0.007 C 
ENDBRANCH   7   8
ENDBRANCH   6   7
BRANCH   6  11
ATOM     11  N   UNL A   1      31.552  26.821  21.538  1.00  0.00    -0.199 NA
ATOM     12  H   UNL A   1      31.682  27.624  20.923  1.00  0.00     0.142 HD
BRANCH  11  13
ATOM     13  S   UNL A   1      32.885  25.775  21.312  1.00  0.00     0.234 S 
ATOM     14  O   UNL A   1      32.942  25.549  19.882  1.00  0.00    -0.208 OA
ATOM     15  O   UNL A   1      33.979  26.447  21.978  1.00  0.00    -0.208 OA
BRANCH  13  16
ATOM     16  C   UNL A   1      32.573  24.264  22.101  1.00  0.00     0.123 C 
ATOM     17  C   UNL A   1      33.588  23.551  22.609  1.00  0.00     0.021 C 
BRANCH  17  18
ATOM     18  C   UNL A   1      33.416  22.315  23.381  1.00  0.00    -0.025 A 
ATOM     19  C   UNL A   1      32.402  21.422  23.025  1.00  0.00     0.009 A 
ATOM     20  C   UNL A   1      34.303  21.958  24.408  1.00  0.00     0.009 A 
ATOM     21  C   UNL A   1      32.284  20.187  23.673  1.00  0.00     0.021 A 
ATOM     22  C   UNL A   1      34.205  20.713  25.036  1.00  0.00     0.021 A 
ATOM     23  C   UNL A   1      33.195  19.831  24.664  1.00  0.00     0.041 A 
ATOM     24  Cl  UNL A   1      33.081  18.294  25.426  1.00  0.00    -0.084 Cl
ENDBRANCH  17  18
ENDBRANCH  13  16
ENDBRANCH  11  13
ENDBRANCH   6  11
ENDBRANCH   3   6
ENDBRANCH   1   2
BRANCH   1  25
ATOM     25  C   UNL A   1      31.432  30.639  25.990  1.00  0.00     0.042 C 
BRANCH  25  26
ATOM     26  C   UNL A   1      32.594  31.077  26.867  1.00  0.00     0.118 C 
BRANCH  26  27
ATOM     27  N   UNL A   1      32.649  32.521  27.046  1.00  0.00    -0.352 N 
ATOM     28  C   UNL A   1      33.555  33.271  27.751  1.00  0.00     0.251 C 
ATOM     29  H   UNL A   1      31.935  33.030  26.599  1.00  0.00     0.163 HD
ATOM     30  O   UNL A   1      33.350  34.464  27.946  1.00  0.00    -0.269 OA
BRANCH  28  31
ATOM     31  C   UNL A   1      34.763  32.625  28.302  1.00  0.00     0.039 A 
ATOM     32  C   UNL A   1      35.946  33.361  28.370  1.00  0.00     0.014 A 
ATOM     33  C   UNL A   1      34.724  31.308  28.768  1.00  0.00     0.014 A 
ATOM     34  C   UNL A   1      37.074  32.790  28.958  1.00  0.00     0.010 A 
ATOM     35  C   UNL A   1      35.815  30.781  29.449  1.00  0.00     0.010 A 
ATOM     36  C   UNL A   1      37.008  31.510  29.537  1.00  0.00    -0.014 A 
BRANCH  36  37
ATOM     37  C   UNL A   1      38.187  30.938  30.232  1.00  0.00     0.031 A 
ATOM     38  C   UNL A   1      38.468  31.280  31.669  1.00  0.00     0.074 A 
ATOM     39  C   UNL A   1      39.018  30.122  29.555  1.00  0.00     0.049 A 
ATOM     40  N   UNL A   1      39.418  30.833  32.454  1.00  0.00    -0.248 NA
ATOM     41  C   UNL A   1      37.590  32.274  32.304  1.00  0.00     0.031 C 
ATOM     42  C   UNL A   1      38.892  29.778  28.137  1.00  0.00     0.029 A 
ATOM     43  N   UNL A   1      40.122  29.423  29.969  1.00  0.00    -0.354 N 
ATOM     44  C   UNL A   1      39.249  31.492  33.665  1.00  0.00     0.074 A 
ATOM     45  C   UNL A   1      38.156  32.421  33.492  1.00  0.00     0.031 C 
ATOM     46  C   UNL A   1      39.849  28.894  27.812  1.00  0.00     0.029 A 
ATOM     47  C   UNL A   1      40.673  28.635  28.987  1.00  0.00     0.049 A 
ATOM     48  H   UNL A   1      40.486  29.481  30.881  1.00  0.00     0.167 HD
ATOM     49  C   UNL A   1      39.921  31.311  34.827  1.00  0.00     0.037 A 
ATOM     50  C   UNL A   1      41.721  27.791  29.036  1.00  0.00     0.037 A 
ATOM     51  C   UNL A   1      41.002  30.374  34.996  1.00  0.00     0.049 A 
ATOM     52  C   UNL A   1      42.442  27.600  30.341  1.00  0.00     0.074 A 
ATOM     53  C   UNL A   1      41.715  30.075  36.142  1.00  0.00     0.029 A 
ATOM     54  N   UNL A   1      41.528  29.586  33.981  1.00  0.00    -0.354 N 
ATOM     55  N   UNL A   1      42.216  28.161  31.505  1.00  0.00    -0.248 NA
ATOM     56  C   UNL A   1      43.556  26.643  30.343  1.00  0.00     0.031 C 
ATOM     57  C   UNL A   1      42.710  29.150  35.810  1.00  0.00     0.029 A 
ATOM     58  C   UNL A   1      42.574  28.819  34.473  1.00  0.00     0.049 A 
ATOM     59  H   UNL A   1      41.206  29.573  33.051  1.00  0.00     0.167 HD
ATOM     60  C   UNL A   1      43.137  27.605  32.382  1.00  0.00     0.074 A 
ATOM     61  C   UNL A   1      43.905  26.641  31.621  1.00  0.00     0.031 C 
ATOM     62  C   UNL A   1      43.331  27.867  33.700  1.00  0.00     0.037 A 
BRANCH  49  63
ATOM     63  C   UNL A   1      39.505  32.144  36.007  1.00  0.00     0.064 A 
ATOM     64  C   UNL A   1      38.476  31.736  36.872  1.00  0.00     0.173 A 
ATOM     65  C   UNL A   1      40.160  33.350  36.297  1.00  0.00     0.173 A 
ATOM     66  F   UNL A   1      37.807  30.597  36.636  1.00  0.00    -0.203 F 
ATOM     67  C   UNL A   1      38.100  32.518  37.963  1.00  0.00     0.198 A 
ATOM     68  C   UNL A   1      39.806  34.111  37.408  1.00  0.00     0.198 A 
ATOM     69  F   UNL A   1      41.152  33.789  35.507  1.00  0.00    -0.203 F 
ATOM     70  F   UNL A   1      37.079  32.133  38.740  1.00  0.00    -0.200 F 
ATOM     71  C   UNL A   1      38.771  33.699  38.234  1.00  0.00     0.200 A 
ATOM     72  F   UNL A   1      40.465  35.246  37.678  1.00  0.00    -0.200 F 
ATOM     73  F   UNL A   1      38.416  34.446  39.289  1.00  0.00    -0.200 F 
ENDBRANCH  49  63
BRANCH  50  74
ATOM     74  C   UNL A   1      42.122  27.030  27.822  1.00  0.00     0.064 A 
ATOM     75  C   UNL A   1      41.578  25.767  27.547  1.00  0.00     0.173 A 
ATOM     76  C   UNL A   1      43.061  27.545  26.917  1.00  0.00     0.173 A 
ATOM     77  F   UNL A   1      40.687  25.223  28.390  1.00  0.00    -0.203 F 
ATOM     78  C   UNL A   1      41.983  25.034  26.433  1.00  0.00     0.198 A 
ATOM     79  C   UNL A   1      43.440  26.826  25.785  1.00  0.00     0.198 A 
ATOM     80  F   UNL A   1      43.605  28.753  27.126  1.00  0.00    -0.203 F 
ATOM     81  F   UNL A   1      41.489  23.806  26.226  1.00  0.00    -0.200 F 
ATOM     82  C   UNL A   1      42.909  25.567  25.549  1.00  0.00     0.200 A 
ATOM     83  F   UNL A   1      44.320  27.353  24.924  1.00  0.00    -0.200 F 
ATOM     84  F   UNL A   1      43.295  24.865  24.476  1.00  0.00    -0.200 F 
ENDBRANCH  50  74
BRANCH  62  85
ATOM     85  C   UNL A   1      44.394  27.069  34.403  1.00  0.00     0.064 A 
ATOM     86  C   UNL A   1      45.736  27.481  34.428  1.00  0.00     0.173 A 
ATOM     87  C   UNL A   1      44.065  25.871  35.057  1.00  0.00     0.173 A 
ATOM     88  F   UNL A   1      46.107  28.613  33.810  1.00  0.00    -0.203 F 
ATOM     89  C   UNL A   1      46.714  26.698  35.034  1.00  0.00     0.198 A 
ATOM     90  C   UNL A   1      45.040  25.112  35.696  1.00  0.00     0.198 A 
ATOM     91  F   UNL A   1      42.797  25.436  35.074  1.00  0.00    -0.203 F 
ATOM     92  F   UNL A   1      48.000  27.072  34.976  1.00  0.00    -0.200 F 
ATOM     93  C   UNL A   1      46.366  25.516  35.671  1.00  0.00     0.200 A 
ATOM     94  F   UNL A   1      44.698  23.980  36.327  1.00  0.00    -0.200 F 
ATOM     95  F   UNL A   1      47.309  24.761  36.247  1.00  0.00    -0.200 F 
ENDBRANCH  62  85
ENDBRANCH  36  37
ENDBRANCH  28  31
ENDBRANCH  26  27
ENDBRANCH  25  26
ENDBRANCH   1  25
TORSDOF 16
ENDMDL
MODEL 2
REMARK VINA RESULT:     -12.2      1.647      2.696
REMARK SMILES CC(C)C[C@@H](NS(=O)(=O)/C=C/c1ccc(Cl)cc1)C(=O)NCCCNC(=O)c1ccc(-c2c3nc(c(-c4c(F)c(F)c(F)c(F)c4F)c4ccc([nH]4)c(-c4c(F)c(F)c(F)c(F)c4F)c4nc(c(-c5c(F)c(F)c(F)c(F)c5F)c5ccc2[nH]5)C=C4)C=C3)cc1
REMARK SMILES IDX 22 1 21 2 19 3 20 4 5 6 4 7 2 8 1 9 3 10 6 11 7 13 8 14 9 15
REMARK SMILES IDX 10 16 11 17 12 18 13 19 18 20 14 21 17 22 15 23 16 24 23 25
REMARK SMILES IDX 24 26 25 27 26 28 27 30 28 31 29 32 90 33 30 34 89 35 31 36
REMARK SMILES IDX 32 37 33 38 83 39 34 40 88 41 82 42 84 43 35 44 87 45 81 46
REMARK SMILES IDX 80 47 36 49 68 50 48 51 67 52 49 53 52 54 66 55 85 56 50 57
REMARK SMILES IDX 51 58 65 60 86 61 53 62 37 63 38 64 46 65 39 66 40 67 44 68
REMARK SMILES IDX 47 69 41 70 42 71 45 72 43 73 69 74 70 75 78 76 71 77 72 78
REMARK SMILES IDX 76 79 79 80 73 81 74 82 77 83 75 84 54 85 55 86 63 87 56 88
REMARK SMILES IDX 57 89 61 90 64 91 58 92 59 93 62 94 60 95
REMARK H PARENT 21 5 6 12 25 29 84 48 52 59
REMARK Flexibility Score: inf
ROOT
ATOM      1  C   UNL A   1      31.705  30.193  26.306  1.00  0.00     0.117 C 
ENDROOT
BRANCH   1   2
ATOM      2  N   UNL A   1      32.343  29.919  25.024  1.00  0.00    -0.355 N 
ATOM      3  C   UNL A   1      32.009  29.014  24.051  1.00  0.00     0.238 C 
ATOM      4  O   UNL A   1      32.655  29.017  23.001  1.00  0.00    -0.273 OA
ATOM      5  H   UNL A   1      33.134  30.469  24.827  1.00  0.00     0.163 HD
BRANCH   3   6
ATOM      6  C   UNL A   1      30.885  28.005  24.287  1.00  0.00     0.159 C 
BRANCH   6   7
ATOM      7  C   UNL A   1      29.935  28.146  23.084  1.00  0.00     0.033 C 
BRANCH   7   8
ATOM      8  C   UNL A   1      29.060  29.401  22.999  1.00  0.00    -0.015 C 
ATOM      9  C   UNL A   1      29.358  30.221  21.749  1.00  0.00     0.007 C 
ATOM     10  C   UNL A   1      27.590  28.960  23.002  1.00  0.00     0.007 C 
ENDBRANCH   7   8
ENDBRANCH   6   7
BRANCH   6  11
ATOM     11  N   UNL A   1      31.458  26.638  24.445  1.00  0.00    -0.199 NA
ATOM     12  H   UNL A   1      32.203  26.534  23.757  1.00  0.00     0.142 HD
BRANCH  11  13
ATOM     13  S   UNL A   1      32.108  26.244  25.976  1.00  0.00     0.234 S 
ATOM     14  O   UNL A   1      33.373  26.949  26.035  1.00  0.00    -0.208 OA
ATOM     15  O   UNL A   1      31.053  26.583  26.907  1.00  0.00    -0.208 OA
BRANCH  13  16
ATOM     16  C   UNL A   1      32.416  24.541  26.052  1.00  0.00     0.123 C 
ATOM     17  C   UNL A   1      32.733  23.867  24.937  1.00  0.00     0.021 C 
BRANCH  17  18
ATOM     18  C   UNL A   1      33.109  22.449  24.916  1.00  0.00    -0.025 A 
ATOM     19  C   UNL A   1      32.168  21.497  24.511  1.00  0.00     0.009 A 
ATOM     20  C   UNL A   1      34.417  22.029  25.199  1.00  0.00     0.009 A 
ATOM     21  C   UNL A   1      32.532  20.152  24.378  1.00  0.00     0.021 A 
ATOM     22  C   UNL A   1      34.790  20.692  25.038  1.00  0.00     0.021 A 
ATOM     23  C   UNL A   1      33.844  19.758  24.625  1.00  0.00     0.041 A 
ATOM     24  Cl  UNL A   1      34.303  18.115  24.414  1.00  0.00    -0.084 Cl
ENDBRANCH  17  18
ENDBRANCH  13  16
ENDBRANCH  11  13
ENDBRANCH   6  11
ENDBRANCH   3   6
ENDBRANCH   1   2
BRANCH   1  25
ATOM     25  C   UNL A   1      31.468  31.680  26.500  1.00  0.00     0.042 C 
BRANCH  25  26
ATOM     26  C   UNL A   1      32.699  32.408  27.014  1.00  0.00     0.118 C 
BRANCH  26  27
ATOM     27  N   UNL A   1      32.414  33.777  27.419  1.00  0.00    -0.352 N 
ATOM     28  C   UNL A   1      32.997  34.526  28.409  1.00  0.00     0.251 C 
ATOM     29  H   UNL A   1      31.702  34.229  26.910  1.00  0.00     0.163 HD
ATOM     30  O   UNL A   1      32.513  35.605  28.733  1.00  0.00    -0.269 OA
BRANCH  28  31
ATOM     31  C   UNL A   1      34.193  34.010  29.103  1.00  0.00     0.039 A 
ATOM     32  C   UNL A   1      34.027  33.072  30.122  1.00  0.00     0.014 A 
ATOM     33  C   UNL A   1      35.475  34.432  28.736  1.00  0.00     0.014 A 
ATOM     34  C   UNL A   1      35.150  32.518  30.734  1.00  0.00     0.010 A 
ATOM     35  C   UNL A   1      36.592  33.801  29.271  1.00  0.00     0.010 A 
ATOM     36  C   UNL A   1      36.442  32.848  30.287  1.00  0.00    -0.014 A 
BRANCH  36  37
ATOM     37  C   UNL A   1      37.634  32.198  30.886  1.00  0.00     0.031 A 
ATOM     38  C   UNL A   1      38.105  32.583  32.261  1.00  0.00     0.074 A 
ATOM     39  C   UNL A   1      38.304  31.270  30.175  1.00  0.00     0.049 A 
ATOM     40  N   UNL A   1      39.091  32.085  32.966  1.00  0.00    -0.248 NA
ATOM     41  C   UNL A   1      37.399  33.690  32.924  1.00  0.00     0.031 C 
ATOM     42  C   UNL A   1      37.989  30.869  28.803  1.00  0.00     0.029 A 
ATOM     43  N   UNL A   1      39.378  30.487  30.511  1.00  0.00    -0.354 N 
ATOM     44  C   UNL A   1      39.120  32.818  34.146  1.00  0.00     0.074 A 
ATOM     45  C   UNL A   1      38.106  33.841  34.034  1.00  0.00     0.031 C 
ATOM     46  C   UNL A   1      38.816  29.879  28.432  1.00  0.00     0.029 A 
ATOM     47  C   UNL A   1      39.740  29.600  29.526  1.00  0.00     0.049 A 
ATOM     48  H   UNL A   1      39.846  30.555  31.374  1.00  0.00     0.167 HD
ATOM     49  C   UNL A   1      39.899  32.631  35.238  1.00  0.00     0.037 A 
ATOM     50  C   UNL A   1      40.703  28.660  29.514  1.00  0.00     0.037 A 
ATOM     51  C   UNL A   1      40.900  31.600  35.347  1.00  0.00     0.049 A 
ATOM     52  C   UNL A   1      41.545  28.465  30.745  1.00  0.00     0.074 A 
ATOM     53  C   UNL A   1      41.707  31.291  36.427  1.00  0.00     0.029 A 
ATOM     54  N   UNL A   1      41.234  30.714  34.333  1.00  0.00    -0.354 N 
ATOM     55  N   UNL A   1      41.505  29.104  31.889  1.00  0.00    -0.248 NA
ATOM     56  C   UNL A   1      42.559  27.404  30.686  1.00  0.00     0.031 C 
ATOM     57  C   UNL A   1      42.568  30.257  36.048  1.00  0.00     0.029 A 
ATOM     58  C   UNL A   1      42.252  29.873  34.756  1.00  0.00     0.049 A 
ATOM     59  H   UNL A   1      40.810  30.686  33.445  1.00  0.00     0.167 HD
ATOM     60  C   UNL A   1      42.462  28.504  32.696  1.00  0.00     0.074 A 
ATOM     61  C   UNL A   1      43.048  27.432  31.917  1.00  0.00     0.031 C 
ATOM     62  C   UNL A   1      42.827  28.813  33.966  1.00  0.00     0.037 A 
BRANCH  49  63
ATOM     63  C   UNL A   1      39.697  33.559  36.403  1.00  0.00     0.064 A 
ATOM     64  C   UNL A   1      40.334  34.809  36.470  1.00  0.00     0.173 A 
ATOM     65  C   UNL A   1      38.833  33.210  37.451  1.00  0.00     0.173 A 
ATOM     66  F   UNL A   1      41.181  35.189  35.501  1.00  0.00    -0.203 F 
ATOM     67  C   UNL A   1      40.138  35.659  37.556  1.00  0.00     0.198 A 
ATOM     68  C   UNL A   1      38.611  34.078  38.517  1.00  0.00     0.198 A 
ATOM     69  F   UNL A   1      38.195  32.030  37.440  1.00  0.00    -0.203 F 
ATOM     70  F   UNL A   1      40.800  36.822  37.623  1.00  0.00    -0.200 F 
ATOM     71  C   UNL A   1      39.270  35.297  38.574  1.00  0.00     0.200 A 
ATOM     72  F   UNL A   1      37.760  33.733  39.494  1.00  0.00    -0.200 F 
ATOM     73  F   UNL A   1      39.074  36.120  39.614  1.00  0.00    -0.200 F 
ENDBRANCH  49  63
BRANCH  50  74
ATOM     74  C   UNL A   1      40.893  27.802  28.314  1.00  0.00     0.064 A 
ATOM     75  C   UNL A   1      40.244  26.565  28.198  1.00  0.00     0.173 A 
ATOM     76  C   UNL A   1      41.732  28.197  27.262  1.00  0.00     0.173 A 
ATOM     77  F   UNL A   1      39.443  26.134  29.184  1.00  0.00    -0.203 F 
ATOM     78  C   UNL A   1      40.452  25.741  27.093  1.00  0.00     0.198 A 
ATOM     79  C   UNL A   1      41.913  27.388  26.142  1.00  0.00     0.198 A 
ATOM     80  F   UNL A   1      42.370  29.376  27.316  1.00  0.00    -0.203 F 
ATOM     81  F   UNL A   1      39.864  24.538  27.037  1.00  0.00    -0.200 F 
ATOM     82  C   UNL A   1      41.282  26.156  26.063  1.00  0.00     0.200 A 
ATOM     83  F   UNL A   1      42.701  27.802  25.140  1.00  0.00    -0.200 F 
ATOM     84  F   UNL A   1      41.480  25.366  25.000  1.00  0.00    -0.200 F 
ENDBRANCH  50  74
BRANCH  62  85
ATOM     85  C   UNL A   1      43.883  27.950  34.599  1.00  0.00     0.064 A 
ATOM     86  C   UNL A   1      43.565  26.754  35.263  1.00  0.00     0.173 A 
ATOM     87  C   UNL A   1      45.234  28.328  34.544  1.00  0.00     0.173 A 
ATOM     88  F   UNL A   1      42.288  26.352  35.355  1.00  0.00    -0.203 F 
ATOM     89  C   UNL A   1      44.551  26.001  35.893  1.00  0.00     0.198 A 
ATOM     90  C   UNL A   1      46.221  27.549  35.140  1.00  0.00     0.198 A 
ATOM     91  F   UNL A   1      45.596  29.454  33.912  1.00  0.00    -0.203 F 
ATOM     92  F   UNL A   1      44.212  24.906  36.589  1.00  0.00    -0.200 F 
ATOM     93  C   UNL A   1      45.879  26.396  35.828  1.00  0.00     0.200 A 
ATOM     94  F   UNL A   1      47.506  27.924  35.059  1.00  0.00    -0.200 F 
ATOM     95  F   UNL A   1      46.826  25.673  36.440  1.00  0.00    -0.200 F 
ENDBRANCH  62  85
ENDBRANCH  36  37
ENDBRANCH  28  31
ENDBRANCH  26  27
ENDBRANCH  25  26
ENDBRANCH   1  25
TORSDOF 16
ENDMDL
MODEL 3
REMARK VINA RESULT:     -12.2      1.653      7.674
REMARK SMILES CC(C)C[C@@H](NS(=O)(=O)/C=C/c1ccc(Cl)cc1)C(=O)NCCCNC(=O)c1ccc(-c2c3nc(c(-c4c(F)c(F)c(F)c(F)c4F)c4ccc([nH]4)c(-c4c(F)c(F)c(F)c(F)c4F)c4nc(c(-c5c(F)c(F)c(F)c(F)c5F)c5ccc2[nH]5)C=C4)C=C3)cc1
REMARK SMILES IDX 22 1 21 2 19 3 20 4 5 6 4 7 2 8 1 9 3 10 6 11 7 13 8 14 9 15
REMARK SMILES IDX 10 16 11 17 12 18 13 19 18 20 14 21 17 22 15 23 16 24 23 25
REMARK SMILES IDX 24 26 25 27 26 28 27 30 28 31 29 32 90 33 30 34 89 35 31 36
REMARK SMILES IDX 32 37 33 38 83 39 34 40 88 41 82 42 84 43 35 44 87 45 81 46
REMARK SMILES IDX 80 47 36 49 68 50 48 51 67 52 49 53 52 54 66 55 85 56 50 57
REMARK SMILES IDX 51 58 65 60 86 61 53 62 37 63 38 64 46 65 39 66 40 67 44 68
REMARK SMILES IDX 47 69 41 70 42 71 45 72 43 73 69 74 70 75 78 76 71 77 72 78
REMARK SMILES IDX 76 79 79 80 73 81 74 82 77 83 75 84 54 85 55 86 63 87 56 88
REMARK SMILES IDX 57 89 61 90 64 91 58 92 59 93 62 94 60 95
REMARK H PARENT 21 5 6 12 25 29 84 48 52 59
REMARK Flexibility Score: inf
ROOT
ATOM      1  C   UNL A   1      31.581  30.735  25.739  1.00  0.00     0.117 C 
ENDROOT
BRANCH   1   2
ATOM      2  N   UNL A   1      30.641  30.792  24.626  1.00  0.00    -0.355 N 
ATOM      3  C   UNL A   1      30.311  29.834  23.704  1.00  0.00     0.238 C 
ATOM      4  O   UNL A   1      29.418  30.085  22.891  1.00  0.00    -0.273 OA
ATOM      5  H   UNL A   1      30.172  31.650  24.520  1.00  0.00     0.163 HD
BRANCH   3   6
ATOM      6  C   UNL A   1      31.062  28.504  23.668  1.00  0.00     0.159 C 
BRANCH   6   7
ATOM      7  C   UNL A   1      29.981  27.413  23.562  1.00  0.00     0.033 C 
BRANCH   7   8
ATOM      8  C   UNL A   1      29.959  26.315  24.630  1.00  0.00    -0.015 C 
ATOM      9  C   UNL A   1      30.358  24.958  24.060  1.00  0.00     0.007 C 
ATOM     10  C   UNL A   1      30.924  26.719  25.752  1.00  0.00     0.007 C 
ENDBRANCH   7   8
ENDBRANCH   6   7
BRANCH   6  11
ATOM     11  N   UNL A   1      32.032  28.501  22.535  1.00  0.00    -0.199 NA
ATOM     12  H   UNL A   1      32.107  29.458  22.190  1.00  0.00     0.142 HD
BRANCH  11  13
ATOM     13  S   UNL A   1      33.614  27.948  22.874  1.00  0.00     0.234 S 
ATOM     14  O   UNL A   1      34.374  28.236  21.674  1.00  0.00    -0.208 OA
ATOM     15  O   UNL A   1      33.960  28.604  24.117  1.00  0.00    -0.208 OA
BRANCH  13  16
ATOM     16  C   UNL A   1      33.586  26.233  23.117  1.00  0.00     0.123 C 
ATOM     17  C   UNL A   1      34.020  25.713  24.274  1.00  0.00     0.021 C 
BRANCH  17  18
ATOM     18  C   UNL A   1      33.942  24.288  24.611  1.00  0.00    -0.025 A 
ATOM     19  C   UNL A   1      33.930  23.901  25.955  1.00  0.00     0.009 A 
ATOM     20  C   UNL A   1      33.783  23.304  23.623  1.00  0.00     0.009 A 
ATOM     21  C   UNL A   1      33.747  22.559  26.306  1.00  0.00     0.021 A 
ATOM     22  C   UNL A   1      33.570  21.967  23.973  1.00  0.00     0.021 A 
ATOM     23  C   UNL A   1      33.551  21.600  25.315  1.00  0.00     0.041 A 
ATOM     24  Cl  UNL A   1      33.277  19.959  25.748  1.00  0.00    -0.084 Cl
ENDBRANCH  17  18
ENDBRANCH  13  16
ENDBRANCH  11  13
ENDBRANCH   6  11
ENDBRANCH   3   6
ENDBRANCH   1   2
BRANCH   1  25
ATOM     25  C   UNL A   1      31.340  31.863  26.726  1.00  0.00     0.042 C 
BRANCH  25  26
ATOM     26  C   UNL A   1      32.620  32.585  27.115  1.00  0.00     0.118 C 
BRANCH  26  27
ATOM     27  N   UNL A   1      32.393  33.982  27.460  1.00  0.00    -0.352 N 
ATOM     28  C   UNL A   1      32.965  34.729  28.458  1.00  0.00     0.251 C 
ATOM     29  H   UNL A   1      31.738  34.455  26.899  1.00  0.00     0.163 HD
ATOM     30  O   UNL A   1      32.527  35.844  28.721  1.00  0.00    -0.269 OA
BRANCH  28  31
ATOM     31  C   UNL A   1      34.089  34.170  29.234  1.00  0.00     0.039 A 
ATOM     32  C   UNL A   1      33.809  33.383  30.350  1.00  0.00     0.014 A 
ATOM     33  C   UNL A   1      35.413  34.403  28.849  1.00  0.00     0.014 A 
ATOM     34  C   UNL A   1      34.858  32.785  31.047  1.00  0.00     0.010 A 
ATOM     35  C   UNL A   1      36.447  33.720  29.478  1.00  0.00     0.010 A 
ATOM     36  C   UNL A   1      36.183  32.916  30.595  1.00  0.00    -0.014 A 
BRANCH  36  37
ATOM     37  C   UNL A   1      37.289  32.214  31.291  1.00  0.00     0.031 A 
ATOM     38  C   UNL A   1      38.023  31.087  30.619  1.00  0.00     0.074 A 
ATOM     39  C   UNL A   1      37.617  32.584  32.545  1.00  0.00     0.049 A 
ATOM     40  N   UNL A   1      39.048  30.395  31.051  1.00  0.00    -0.248 NA
ATOM     41  C   UNL A   1      37.527  30.658  29.302  1.00  0.00     0.031 C 
ATOM     42  C   UNL A   1      36.927  33.610  33.329  1.00  0.00     0.029 A 
ATOM     43  N   UNL A   1      38.618  32.150  33.374  1.00  0.00    -0.354 N 
ATOM     44  C   UNL A   1      39.314  29.455  30.063  1.00  0.00     0.074 A 
ATOM     45  C   UNL A   1      38.300  29.614  29.045  1.00  0.00     0.031 C 
ATOM     46  C   UNL A   1      37.558  33.764  34.504  1.00  0.00     0.029 A 
ATOM     47  C   UNL A   1      38.672  32.825  34.570  1.00  0.00     0.049 A 
ATOM     48  H   UNL A   1      39.239  31.423  33.137  1.00  0.00     0.167 HD
ATOM     49  C   UNL A   1      40.332  28.565  29.995  1.00  0.00     0.037 A 
ATOM     50  C   UNL A   1      39.534  32.706  35.597  1.00  0.00     0.037 A 
ATOM     51  C   UNL A   1      41.346  28.421  31.008  1.00  0.00     0.049 A 
ATOM     52  C   UNL A   1      40.662  31.718  35.490  1.00  0.00     0.074 A 
ATOM     53  C   UNL A   1      42.450  27.587  31.012  1.00  0.00     0.029 A 
ATOM     54  N   UNL A   1      41.374  29.128  32.202  1.00  0.00    -0.354 N 
ATOM     55  N   UNL A   1      40.958  30.896  34.512  1.00  0.00    -0.248 NA
ATOM     56  C   UNL A   1      41.589  31.653  36.627  1.00  0.00     0.031 C 
ATOM     57  C   UNL A   1      43.113  27.747  32.233  1.00  0.00     0.029 A 
ATOM     58  C   UNL A   1      42.465  28.730  32.961  1.00  0.00     0.049 A 
ATOM     59  H   UNL A   1      40.718  29.810  32.470  1.00  0.00     0.167 HD
ATOM     60  C   UNL A   1      42.118  30.241  34.900  1.00  0.00     0.074 A 
ATOM     61  C   UNL A   1      42.487  30.782  36.192  1.00  0.00     0.031 C 
ATOM     62  C   UNL A   1      42.816  29.277  34.248  1.00  0.00     0.037 A 
BRANCH  49  63
ATOM     63  C   UNL A   1      40.400  27.679  28.782  1.00  0.00     0.064 A 
ATOM     64  C   UNL A   1      41.123  28.051  27.636  1.00  0.00     0.173 A 
ATOM     65  C   UNL A   1      39.762  26.430  28.774  1.00  0.00     0.173 A 
ATOM     66  F   UNL A   1      41.742  29.240  27.584  1.00  0.00    -0.203 F 
ATOM     67  C   UNL A   1      41.177  27.220  26.519  1.00  0.00     0.198 A 
ATOM     68  C   UNL A   1      39.849  25.586  27.670  1.00  0.00     0.198 A 
ATOM     69  F   UNL A   1      39.060  26.021  29.841  1.00  0.00    -0.203 F 
ATOM     70  F   UNL A   1      41.826  27.622  25.418  1.00  0.00    -0.200 F 
ATOM     71  C   UNL A   1      40.548  25.985  26.540  1.00  0.00     0.200 A 
ATOM     72  F   UNL A   1      39.251  24.387  27.696  1.00  0.00    -0.200 F 
ATOM     73  F   UNL A   1      40.609  25.183  25.469  1.00  0.00    -0.200 F 
ENDBRANCH  49  63
BRANCH  50  74
ATOM     74  C   UNL A   1      39.388  33.574  36.797  1.00  0.00     0.064 A 
ATOM     75  C   UNL A   1      39.977  34.845  36.845  1.00  0.00     0.173 A 
ATOM     76  C   UNL A   1      38.665  33.148  37.921  1.00  0.00     0.173 A 
ATOM     77  F   UNL A   1      40.693  35.293  35.803  1.00  0.00    -0.203 F 
ATOM     78  C   UNL A   1      39.877  35.643  37.984  1.00  0.00     0.198 A 
ATOM     79  C   UNL A   1      38.537  33.961  39.045  1.00  0.00     0.198 A 
ATOM     80  F   UNL A   1      38.073  31.945  37.923  1.00  0.00    -0.203 F 
ATOM     81  F   UNL A   1      40.499  36.830  38.024  1.00  0.00    -0.200 F 
ATOM     82  C   UNL A   1      39.152  35.203  39.080  1.00  0.00     0.200 A 
ATOM     83  F   UNL A   1      37.819  33.539  40.094  1.00  0.00    -0.200 F 
ATOM     84  F   UNL A   1      39.052  35.971  40.173  1.00  0.00    -0.200 F 
ENDBRANCH  50  74
BRANCH  62  85
ATOM     85  C   UNL A   1      44.070  28.778  34.911  1.00  0.00     0.064 A 
ATOM     86  C   UNL A   1      44.063  27.666  35.769  1.00  0.00     0.173 A 
ATOM     87  C   UNL A   1      45.295  29.425  34.688  1.00  0.00     0.173 A 
ATOM     88  F   UNL A   1      42.917  27.017  36.025  1.00  0.00    -0.203 F 
ATOM     89  C   UNL A   1      45.224  27.257  36.420  1.00  0.00     0.198 A 
ATOM     90  C   UNL A   1      46.461  28.987  35.309  1.00  0.00     0.198 A 
ATOM     91  F   UNL A   1      45.362  30.484  33.869  1.00  0.00    -0.203 F 
ATOM     92  F   UNL A   1      45.176  26.243  37.296  1.00  0.00    -0.200 F 
ATOM     93  C   UNL A   1      46.422  27.914  36.186  1.00  0.00     0.200 A 
ATOM     94  F   UNL A   1      47.621  29.612  35.068  1.00  0.00    -0.200 F 
ATOM     95  F   UNL A   1      47.536  27.523  36.818  1.00  0.00    -0.200 F 
ENDBRANCH  62  85
ENDBRANCH  36  37
ENDBRANCH  28  31
ENDBRANCH  26  27
ENDBRANCH  25  26
ENDBRANCH   1  25
TORSDOF 16
ENDMDL
