MODEL 1
REMARK VINA RESULT:     -11.5      0.000      0.000
REMARK SMILES CCC1(CC)C[NH+]([C@H](CCS(C)(=O)=O)C(=O)NCCCNC(=O)c2ccc(-c3c4nc(c(-c5c(F)c(F)c(F)c(F)c5F)c5ccc([nH]5)c(-c5c(F)c(F)c(F)c(F)c5F)c5nc(c(-c6c(F)c(F)c(F)c(F)c6F)c6ccc3[nH]6)C=C5)C=C4)cc2)C1
REMARK SMILES IDX 18 1 17 2 15 3 16 4 8 6 7 7 3 8 6 9 87 10 2 12 1 13 4 14
REMARK SMILES IDX 5 15 9 16 10 17 11 18 12 19 13 20 14 21 19 22 20 23 21 24
REMARK SMILES IDX 22 25 23 27 24 28 25 29 86 30 26 31 85 32 27 33 28 34 29 35
REMARK SMILES IDX 79 36 30 37 84 38 78 39 80 40 31 41 83 42 77 43 76 44 32 46
REMARK SMILES IDX 64 47 44 48 63 49 45 50 48 51 62 52 81 53 46 54 47 55 61 57
REMARK SMILES IDX 82 58 49 59 33 60 34 61 42 62 35 63 36 64 40 65 43 66 37 67
REMARK SMILES IDX 38 68 41 69 39 70 65 71 66 72 74 73 67 74 68 75 72 76 75 77
REMARK SMILES IDX 69 78 70 79 73 80 71 81 50 82 51 83 59 84 52 85 53 86 57 87
REMARK SMILES IDX 60 88 54 89 55 90 58 91 56 92
REMARK H PARENT 17 5 7 11 21 26 80 45 48 56
REMARK Flexibility Score: inf
ROOT
ATOM      1  C   UNL A   1      31.562  30.760  26.510  1.00  0.00     0.118 C 
ENDROOT
BRANCH   1   2
ATOM      2  N   UNL A   1      32.536  30.312  25.551  1.00  0.00    -0.351 N 
ATOM      3  C   UNL A   1      32.407  29.301  24.642  1.00  0.00     0.278 C 
ATOM      4  O   UNL A   1      33.300  29.224  23.789  1.00  0.00    -0.268 OA
ATOM      5  H   UNL A   1      33.396  30.790  25.550  1.00  0.00     0.163 HD
BRANCH   3   6
ATOM      6  C   UNL A   1      31.278  28.230  24.712  1.00  0.00     0.275 C 
BRANCH   6   7
ATOM      7  N   UNL A   1      31.661  26.948  25.346  1.00  0.00    -0.323 N 
ATOM      8  C   UNL A   1      33.073  25.344  25.377  1.00  0.00     0.068 C 
ATOM      9  C   UNL A   1      32.927  26.761  26.029  1.00  0.00     0.275 C 
ATOM     10  C   UNL A   1      31.910  25.830  24.442  1.00  0.00     0.275 C 
ATOM     11  H   UNL A   1      30.838  26.978  25.950  1.00  0.00     0.348 HD
BRANCH   8  12
ATOM     12  C   UNL A   1      34.416  25.090  24.652  1.00  0.00     0.015 C 
ATOM     13  C   UNL A   1      35.431  24.319  25.487  1.00  0.00     0.005 C 
ENDBRANCH   8  12
BRANCH   8  14
ATOM     14  C   UNL A   1      32.703  24.180  26.318  1.00  0.00     0.015 C 
ATOM     15  C   UNL A   1      32.297  22.921  25.556  1.00  0.00     0.005 C 
ENDBRANCH   8  14
ENDBRANCH   6   7
BRANCH   6  16
ATOM     16  C   UNL A   1      30.098  28.456  23.715  1.00  0.00     0.092 C 
BRANCH  16  17
ATOM     17  C   UNL A   1      29.603  29.804  23.207  1.00  0.00     0.143 C 
BRANCH  17  18
ATOM     18  S   UNL A   1      27.937  29.990  22.621  1.00  0.00     0.147 S 
ATOM     19  C   UNL A   1      27.034  28.559  23.185  1.00  0.00     0.158 C 
ATOM     20  O   UNL A   1      27.383  31.142  23.303  1.00  0.00    -0.229 OA
ATOM     21  O   UNL A   1      27.968  29.980  21.173  1.00  0.00    -0.229 OA
ENDBRANCH  17  18
ENDBRANCH  16  17
ENDBRANCH   6  16
ENDBRANCH   3   6
ENDBRANCH   1   2
BRANCH   1  22
ATOM     22  C   UNL A   1      31.438  32.263  26.638  1.00  0.00     0.042 C 
BRANCH  22  23
ATOM     23  C   UNL A   1      32.683  32.925  27.187  1.00  0.00     0.118 C 
BRANCH  23  24
ATOM     24  N   UNL A   1      32.451  34.290  27.649  1.00  0.00    -0.352 N 
ATOM     25  C   UNL A   1      33.009  35.026  28.668  1.00  0.00     0.251 C 
ATOM     26  H   UNL A   1      31.765  34.776  27.134  1.00  0.00     0.163 HD
ATOM     27  O   UNL A   1      32.519  36.114  28.958  1.00  0.00    -0.269 OA
BRANCH  25  28
ATOM     28  C   UNL A   1      34.168  34.520  29.437  1.00  0.00     0.039 A 
ATOM     29  C   UNL A   1      33.953  33.914  30.679  1.00  0.00     0.014 A 
ATOM     30  C   UNL A   1      35.469  34.656  28.961  1.00  0.00     0.014 A 
ATOM     31  C   UNL A   1      35.030  33.371  31.387  1.00  0.00     0.010 A 
ATOM     32  C   UNL A   1      36.513  33.985  29.584  1.00  0.00     0.010 A 
ATOM     33  C   UNL A   1      36.313  33.354  30.818  1.00  0.00    -0.014 A 
BRANCH  33  34
ATOM     34  C   UNL A   1      37.473  32.721  31.499  1.00  0.00     0.031 A 
ATOM     35  C   UNL A   1      38.188  31.565  30.846  1.00  0.00     0.074 A 
ATOM     36  C   UNL A   1      37.827  33.124  32.736  1.00  0.00     0.049 A 
ATOM     37  N   UNL A   1      39.140  30.801  31.321  1.00  0.00    -0.248 NA
ATOM     38  C   UNL A   1      37.744  31.186  29.494  1.00  0.00     0.031 C 
ATOM     39  C   UNL A   1      37.173  34.187  33.501  1.00  0.00     0.029 A 
ATOM     40  N   UNL A   1      38.817  32.675  33.574  1.00  0.00    -0.354 N 
ATOM     41  C   UNL A   1      39.378  29.843  30.345  1.00  0.00     0.074 A 
ATOM     42  C   UNL A   1      38.429  30.075  29.280  1.00  0.00     0.031 C 
ATOM     43  C   UNL A   1      37.797  34.330  34.679  1.00  0.00     0.029 A 
ATOM     44  C   UNL A   1      38.861  33.336  34.778  1.00  0.00     0.049 A 
ATOM     45  H   UNL A   1      39.437  31.949  33.336  1.00  0.00     0.167 HD
ATOM     46  C   UNL A   1      40.325  28.875  30.322  1.00  0.00     0.037 A 
ATOM     47  C   UNL A   1      39.661  33.152  35.845  1.00  0.00     0.037 A 
ATOM     48  C   UNL A   1      41.297  28.682  31.364  1.00  0.00     0.049 A 
ATOM     49  C   UNL A   1      40.714  32.078  35.790  1.00  0.00     0.074 A 
ATOM     50  C   UNL A   1      42.352  27.788  31.403  1.00  0.00     0.029 A 
ATOM     51  N   UNL A   1      41.332  29.396  32.553  1.00  0.00    -0.354 N 
ATOM     52  N   UNL A   1      40.984  31.231  34.826  1.00  0.00    -0.248 NA
ATOM     53  C   UNL A   1      41.578  31.937  36.970  1.00  0.00     0.031 C 
ATOM     54  C   UNL A   1      42.987  27.919  32.641  1.00  0.00     0.029 A 
ATOM     55  C   UNL A   1      42.372  28.940  33.346  1.00  0.00     0.049 A 
ATOM     56  H   UNL A   1      40.710  30.119  32.797  1.00  0.00     0.167 HD
ATOM     57  C   UNL A   1      42.062  30.478  35.269  1.00  0.00     0.074 A 
ATOM     58  C   UNL A   1      42.411  30.982  36.582  1.00  0.00     0.031 C 
ATOM     59  C   UNL A   1      42.707  29.461  34.647  1.00  0.00     0.037 A 
BRANCH  46  60
ATOM     60  C   UNL A   1      40.361  27.956  29.134  1.00  0.00     0.064 A 
ATOM     61  C   UNL A   1      39.607  26.773  29.087  1.00  0.00     0.173 A 
ATOM     62  C   UNL A   1      41.132  28.283  28.007  1.00  0.00     0.173 A 
ATOM     63  F   UNL A   1      38.862  26.406  30.140  1.00  0.00    -0.203 F 
ATOM     64  C   UNL A   1      39.648  25.938  27.974  1.00  0.00     0.198 A 
ATOM     65  C   UNL A   1      41.143  27.464  26.881  1.00  0.00     0.198 A 
ATOM     66  F   UNL A   1      41.870  29.404  27.993  1.00  0.00    -0.203 F 
ATOM     67  F   UNL A   1      38.964  24.786  27.977  1.00  0.00    -0.200 F 
ATOM     68  C   UNL A   1      40.408  26.288  26.868  1.00  0.00     0.200 A 
ATOM     69  F   UNL A   1      41.866  27.812  25.808  1.00  0.00    -0.200 F 
ATOM     70  F   UNL A   1      40.439  25.489  25.794  1.00  0.00    -0.200 F 
ENDBRANCH  46  60
BRANCH  47  71
ATOM     71  C   UNL A   1      39.508  34.013  37.050  1.00  0.00     0.064 A 
ATOM     72  C   UNL A   1      40.137  35.265  37.128  1.00  0.00     0.173 A 
ATOM     73  C   UNL A   1      38.743  33.602  38.150  1.00  0.00     0.173 A 
ATOM     74  F   UNL A   1      40.898  35.696  36.110  1.00  0.00    -0.203 F 
ATOM     75  C   UNL A   1      40.028  36.057  38.268  1.00  0.00     0.198 A 
ATOM     76  C   UNL A   1      38.607  34.411  39.277  1.00  0.00     0.198 A 
ATOM     77  F   UNL A   1      38.117  32.416  38.128  1.00  0.00    -0.203 F 
ATOM     78  F   UNL A   1      40.688  37.223  38.337  1.00  0.00    -0.200 F 
ATOM     79  C   UNL A   1      39.259  35.632  39.339  1.00  0.00     0.200 A 
ATOM     80  F   UNL A   1      37.849  34.003  40.305  1.00  0.00    -0.200 F 
ATOM     81  F   UNL A   1      39.153  36.395  40.436  1.00  0.00    -0.200 F 
ENDBRANCH  47  71
BRANCH  59  82
ATOM     82  C   UNL A   1      43.879  28.848  35.358  1.00  0.00     0.064 A 
ATOM     83  C   UNL A   1      45.187  29.319  35.171  1.00  0.00     0.173 A 
ATOM     84  C   UNL A   1      43.682  27.807  36.279  1.00  0.00     0.173 A 
ATOM     85  F   UNL A   1      45.430  30.305  34.294  1.00  0.00    -0.203 F 
ATOM     86  C   UNL A   1      46.256  28.753  35.859  1.00  0.00     0.198 A 
ATOM     87  C   UNL A   1      44.749  27.268  36.991  1.00  0.00     0.198 A 
ATOM     88  F   UNL A   1      42.450  27.325  36.502  1.00  0.00    -0.203 F 
ATOM     89  F   UNL A   1      47.503  29.186  35.627  1.00  0.00    -0.200 F 
ATOM     90  C   UNL A   1      46.036  27.735  36.775  1.00  0.00     0.200 A 
ATOM     91  F   UNL A   1      44.530  26.297  37.889  1.00  0.00    -0.200 F 
ATOM     92  F   UNL A   1      47.065  27.200  37.445  1.00  0.00    -0.200 F 
ENDBRANCH  59  82
ENDBRANCH  33  34
ENDBRANCH  25  28
ENDBRANCH  23  24
ENDBRANCH  22  23
ENDBRANCH   1  22
TORSDOF 16
ENDMDL
MODEL 2
REMARK VINA RESULT:     -11.4      2.511      3.861
REMARK SMILES CCC1(CC)C[NH+]([C@H](CCS(C)(=O)=O)C(=O)NCCCNC(=O)c2ccc(-c3c4nc(c(-c5c(F)c(F)c(F)c(F)c5F)c5ccc([nH]5)c(-c5c(F)c(F)c(F)c(F)c5F)c5nc(c(-c6c(F)c(F)c(F)c(F)c6F)c6ccc3[nH]6)C=C5)C=C4)cc2)C1
REMARK SMILES IDX 18 1 17 2 15 3 16 4 8 6 7 7 3 8 6 9 87 10 2 12 1 13 4 14
REMARK SMILES IDX 5 15 9 16 10 17 11 18 12 19 13 20 14 21 19 22 20 23 21 24
REMARK SMILES IDX 22 25 23 27 24 28 25 29 86 30 26 31 85 32 27 33 28 34 29 35
REMARK SMILES IDX 79 36 30 37 84 38 78 39 80 40 31 41 83 42 77 43 76 44 32 46
REMARK SMILES IDX 64 47 44 48 63 49 45 50 48 51 62 52 81 53 46 54 47 55 61 57
REMARK SMILES IDX 82 58 49 59 33 60 34 61 42 62 35 63 36 64 40 65 43 66 37 67
REMARK SMILES IDX 38 68 41 69 39 70 65 71 66 72 74 73 67 74 68 75 72 76 75 77
REMARK SMILES IDX 69 78 70 79 73 80 71 81 50 82 51 83 59 84 52 85 53 86 57 87
REMARK SMILES IDX 60 88 54 89 55 90 58 91 56 92
REMARK H PARENT 17 5 7 11 21 26 80 45 48 56
REMARK Flexibility Score: inf
ROOT
ATOM      1  C   UNL A   1      32.159  28.196  23.086  1.00  0.00     0.118 C 
ENDROOT
BRANCH   1   2
ATOM      2  N   UNL A   1      32.687  27.363  22.039  1.00  0.00    -0.351 N 
ATOM      3  C   UNL A   1      32.992  26.033  22.106  1.00  0.00     0.278 C 
ATOM      4  O   UNL A   1      33.247  25.481  21.028  1.00  0.00    -0.268 OA
ATOM      5  H   UNL A   1      32.847  27.801  21.173  1.00  0.00     0.163 HD
BRANCH   3   6
ATOM      6  C   UNL A   1      33.126  25.256  23.450  1.00  0.00     0.275 C 
BRANCH   6   7
ATOM      7  N   UNL A   1      34.482  24.741  23.751  1.00  0.00    -0.323 N 
ATOM      8  C   UNL A   1      35.617  23.238  24.761  1.00  0.00     0.068 C 
ATOM      9  C   UNL A   1      34.914  23.409  23.371  1.00  0.00     0.275 C 
ATOM     10  C   UNL A   1      34.786  24.508  25.158  1.00  0.00     0.275 C 
ATOM     11  H   UNL A   1      34.910  25.506  23.228  1.00  0.00     0.348 HD
BRANCH   8  12
ATOM     12  C   UNL A   1      35.238  21.953  25.534  1.00  0.00     0.015 C 
ATOM     13  C   UNL A   1      36.150  20.767  25.246  1.00  0.00     0.005 C 
ENDBRANCH   8  12
BRANCH   8  14
ATOM     14  C   UNL A   1      37.143  23.450  24.720  1.00  0.00     0.015 C 
ATOM     15  C   UNL A   1      37.709  23.876  26.073  1.00  0.00     0.005 C 
ENDBRANCH   8  14
ENDBRANCH   6   7
BRANCH   6  16
ATOM     16  C   UNL A   1      31.781  24.722  24.035  1.00  0.00     0.092 C 
BRANCH  16  17
ATOM     17  C   UNL A   1      31.625  23.527  24.967  1.00  0.00     0.143 C 
BRANCH  17  18
ATOM     18  S   UNL A   1      31.265  23.768  26.690  1.00  0.00     0.147 S 
ATOM     19  C   UNL A   1      29.727  22.926  27.013  1.00  0.00     0.158 C 
ATOM     20  O   UNL A   1      32.298  23.072  27.430  1.00  0.00    -0.229 OA
ATOM     21  O   UNL A   1      31.075  25.186  26.914  1.00  0.00    -0.229 OA
ENDBRANCH  17  18
ENDBRANCH  16  17
ENDBRANCH   6  16
ENDBRANCH   3   6
ENDBRANCH   1   2
BRANCH   1  22
ATOM     22  C   UNL A   1      33.193  29.005  23.838  1.00  0.00     0.042 C 
BRANCH  22  23
ATOM     23  C   UNL A   1      32.998  28.986  25.339  1.00  0.00     0.118 C 
BRANCH  23  24
ATOM     24  N   UNL A   1      32.544  30.265  25.875  1.00  0.00    -0.352 N 
ATOM     25  C   UNL A   1      33.037  31.073  26.873  1.00  0.00     0.251 C 
ATOM     26  H   UNL A   1      31.733  30.616  25.440  1.00  0.00     0.163 HD
ATOM     27  O   UNL A   1      32.371  32.034  27.248  1.00  0.00    -0.269 OA
BRANCH  25  28
ATOM     28  C   UNL A   1      34.338  30.791  27.520  1.00  0.00     0.039 A 
ATOM     29  C   UNL A   1      35.262  31.829  27.682  1.00  0.00     0.014 A 
ATOM     30  C   UNL A   1      34.670  29.510  27.951  1.00  0.00     0.014 A 
ATOM     31  C   UNL A   1      36.466  31.593  28.352  1.00  0.00     0.010 A 
ATOM     32  C   UNL A   1      35.790  29.311  28.748  1.00  0.00     0.010 A 
ATOM     33  C   UNL A   1      36.716  30.343  28.939  1.00  0.00    -0.014 A 
BRANCH  33  34
ATOM     34  C   UNL A   1      37.948  30.070  29.725  1.00  0.00     0.031 A 
ATOM     35  C   UNL A   1      38.996  29.135  29.177  1.00  0.00     0.074 A 
ATOM     36  C   UNL A   1      38.085  30.589  30.961  1.00  0.00     0.049 A 
ATOM     37  N   UNL A   1      40.080  28.673  29.749  1.00  0.00    -0.248 NA
ATOM     38  C   UNL A   1      38.775  28.610  27.818  1.00  0.00     0.031 C 
ATOM     39  C   UNL A   1      37.112  31.455  31.630  1.00  0.00     0.029 A 
ATOM     40  N   UNL A   1      39.093  30.452  31.884  1.00  0.00    -0.354 N 
ATOM     41  C   UNL A   1      40.641  27.789  28.838  1.00  0.00     0.074 A 
ATOM     42  C   UNL A   1      39.749  27.722  27.704  1.00  0.00     0.031 C 
ATOM     43  C   UNL A   1      37.582  31.797  32.838  1.00  0.00     0.029 A 
ATOM     44  C   UNL A   1      38.864  31.134  33.054  1.00  0.00     0.049 A 
ATOM     45  H   UNL A   1      39.902  29.915  31.721  1.00  0.00     0.167 HD
ATOM     46  C   UNL A   1      41.814  27.116  28.924  1.00  0.00     0.037 A 
ATOM     47  C   UNL A   1      39.601  31.206  34.179  1.00  0.00     0.037 A 
ATOM     48  C   UNL A   1      42.719  27.224  30.036  1.00  0.00     0.049 A 
ATOM     49  C   UNL A   1      40.905  30.457  34.245  1.00  0.00     0.074 A 
ATOM     50  C   UNL A   1      43.970  26.653  30.187  1.00  0.00     0.029 A 
ATOM     51  N   UNL A   1      42.469  27.955  31.188  1.00  0.00    -0.354 N 
ATOM     52  N   UNL A   1      41.467  29.689  33.343  1.00  0.00    -0.248 NA
ATOM     53  C   UNL A   1      41.683  30.592  35.485  1.00  0.00     0.031 C 
ATOM     54  C   UNL A   1      44.450  26.988  31.456  1.00  0.00     0.029 A 
ATOM     55  C   UNL A   1      43.530  27.822  32.070  1.00  0.00     0.049 A 
ATOM     56  H   UNL A   1      41.658  28.488  31.356  1.00  0.00     0.167 HD
ATOM     57  C   UNL A   1      42.671  29.272  33.891  1.00  0.00     0.074 A 
ATOM     58  C   UNL A   1      42.769  29.889  35.198  1.00  0.00     0.031 C 
ATOM     59  C   UNL A   1      43.612  28.452  33.363  1.00  0.00     0.037 A 
BRANCH  46  60
ATOM     60  C   UNL A   1      42.187  26.208  27.787  1.00  0.00     0.064 A 
ATOM     61  C   UNL A   1      43.114  26.591  26.805  1.00  0.00     0.173 A 
ATOM     62  C   UNL A   1      41.637  24.919  27.697  1.00  0.00     0.173 A 
ATOM     63  F   UNL A   1      43.662  27.814  26.835  1.00  0.00    -0.203 F 
ATOM     64  C   UNL A   1      43.453  25.733  25.762  1.00  0.00     0.198 A 
ATOM     65  C   UNL A   1      42.004  24.051  26.673  1.00  0.00     0.198 A 
ATOM     66  F   UNL A   1      40.748  24.498  28.609  1.00  0.00    -0.203 F 
ATOM     67  F   UNL A   1      44.298  26.142  24.806  1.00  0.00    -0.200 F 
ATOM     68  C   UNL A   1      42.905  24.460  25.701  1.00  0.00     0.200 A 
ATOM     69  F   UNL A   1      41.486  22.816  26.626  1.00  0.00    -0.200 F 
ATOM     70  F   UNL A   1      43.239  23.632  24.703  1.00  0.00    -0.200 F 
ENDBRANCH  46  60
BRANCH  47  71
ATOM     71  C   UNL A   1      39.130  32.026  35.328  1.00  0.00     0.064 A 
ATOM     72  C   UNL A   1      39.425  33.395  35.407  1.00  0.00     0.173 A 
ATOM     73  C   UNL A   1      38.386  31.462  36.375  1.00  0.00     0.173 A 
ATOM     74  F   UNL A   1      40.151  33.980  34.442  1.00  0.00    -0.203 F 
ATOM     75  C   UNL A   1      39.019  34.159  36.499  1.00  0.00     0.198 A 
ATOM     76  C   UNL A   1      37.952  32.234  37.450  1.00  0.00     0.198 A 
ATOM     77  F   UNL A   1      38.072  30.158  36.349  1.00  0.00    -0.203 F 
ATOM     78  F   UNL A   1      39.366  35.452  36.575  1.00  0.00    -0.200 F 
ATOM     79  C   UNL A   1      38.279  33.579  37.517  1.00  0.00     0.200 A 
ATOM     80  F   UNL A   1      37.222  31.673  38.424  1.00  0.00    -0.200 F 
ATOM     81  F   UNL A   1      37.887  34.315  38.567  1.00  0.00    -0.200 F 
ENDBRANCH  47  71
BRANCH  59  82
ATOM     82  C   UNL A   1      44.848  28.202  34.178  1.00  0.00     0.064 A 
ATOM     83  C   UNL A   1      45.956  29.060  34.123  1.00  0.00     0.173 A 
ATOM     84  C   UNL A   1      44.902  27.116  35.066  1.00  0.00     0.173 A 
ATOM     85  F   UNL A   1      45.960  30.106  33.282  1.00  0.00    -0.203 F 
ATOM     86  C   UNL A   1      47.083  28.824  34.905  1.00  0.00     0.198 A 
ATOM     87  C   UNL A   1      46.016  26.904  35.872  1.00  0.00     0.198 A 
ATOM     88  F   UNL A   1      43.866  26.270  35.164  1.00  0.00    -0.203 F 
ATOM     89  F   UNL A   1      48.150  29.628  34.799  1.00  0.00    -0.200 F 
ATOM     90  C   UNL A   1      47.108  27.753  35.786  1.00  0.00     0.200 A 
ATOM     91  F   UNL A   1      46.030  25.879  36.736  1.00  0.00    -0.200 F 
ATOM     92  F   UNL A   1      48.189  27.535  36.548  1.00  0.00    -0.200 F 
ENDBRANCH  59  82
ENDBRANCH  33  34
ENDBRANCH  25  28
ENDBRANCH  23  24
ENDBRANCH  22  23
ENDBRANCH   1  22
TORSDOF 16
ENDMDL
MODEL 3
REMARK VINA RESULT:     -11.4      6.257     11.550
REMARK SMILES CCC1(CC)C[NH+]([C@H](CCS(C)(=O)=O)C(=O)NCCCNC(=O)c2ccc(-c3c4nc(c(-c5c(F)c(F)c(F)c(F)c5F)c5ccc([nH]5)c(-c5c(F)c(F)c(F)c(F)c5F)c5nc(c(-c6c(F)c(F)c(F)c(F)c6F)c6ccc3[nH]6)C=C5)C=C4)cc2)C1
REMARK SMILES IDX 18 1 17 2 15 3 16 4 8 6 7 7 3 8 6 9 87 10 2 12 1 13 4 14
REMARK SMILES IDX 5 15 9 16 10 17 11 18 12 19 13 20 14 21 19 22 20 23 21 24
REMARK SMILES IDX 22 25 23 27 24 28 25 29 86 30 26 31 85 32 27 33 28 34 29 35
REMARK SMILES IDX 79 36 30 37 84 38 78 39 80 40 31 41 83 42 77 43 76 44 32 46
REMARK SMILES IDX 64 47 44 48 63 49 45 50 48 51 62 52 81 53 46 54 47 55 61 57
REMARK SMILES IDX 82 58 49 59 33 60 34 61 42 62 35 63 36 64 40 65 43 66 37 67
REMARK SMILES IDX 38 68 41 69 39 70 65 71 66 72 74 73 67 74 68 75 72 76 75 77
REMARK SMILES IDX 69 78 70 79 73 80 71 81 50 82 51 83 59 84 52 85 53 86 57 87
REMARK SMILES IDX 60 88 54 89 55 90 58 91 56 92
REMARK H PARENT 17 5 7 11 21 26 80 45 48 56
REMARK Flexibility Score: inf
ROOT
ATOM      1  C   UNL A   1      37.101  21.160  24.595  1.00  0.00     0.118 C 
ENDROOT
BRANCH   1   2
ATOM      2  N   UNL A   1      36.392  21.775  25.685  1.00  0.00    -0.351 N 
ATOM      3  C   UNL A   1      35.115  21.521  26.097  1.00  0.00     0.278 C 
ATOM      4  O   UNL A   1      34.784  22.027  27.177  1.00  0.00    -0.268 OA
ATOM      5  H   UNL A   1      36.884  22.458  26.193  1.00  0.00     0.163 HD
BRANCH   3   6
ATOM      6  C   UNL A   1      34.080  20.738  25.234  1.00  0.00     0.275 C 
BRANCH   6   7
ATOM      7  N   UNL A   1      34.072  19.270  25.433  1.00  0.00    -0.323 N 
ATOM      8  C   UNL A   1      33.667  17.369  24.544  1.00  0.00     0.068 C 
ATOM      9  C   UNL A   1      34.872  18.368  24.625  1.00  0.00     0.275 C 
ATOM     10  C   UNL A   1      32.833  18.580  25.093  1.00  0.00     0.275 C 
ATOM     11  H   UNL A   1      34.379  19.380  26.400  1.00  0.00     0.348 HD
BRANCH   8  12
ATOM     12  C   UNL A   1      33.283  16.918  23.115  1.00  0.00     0.015 C 
ATOM     13  C   UNL A   1      32.370  17.895  22.384  1.00  0.00     0.005 C 
ENDBRANCH   8  12
BRANCH   8  14
ATOM     14  C   UNL A   1      33.781  16.172  25.509  1.00  0.00     0.015 C 
ATOM     15  C   UNL A   1      32.640  15.172  25.336  1.00  0.00     0.005 C 
ENDBRANCH   8  14
ENDBRANCH   6   7
BRANCH   6  16
ATOM     16  C   UNL A   1      33.557  21.506  23.980  1.00  0.00     0.092 C 
BRANCH  16  17
ATOM     17  C   UNL A   1      33.086  22.955  23.953  1.00  0.00     0.143 C 
BRANCH  17  18
ATOM     18  S   UNL A   1      34.039  24.196  23.112  1.00  0.00     0.147 S 
ATOM     19  C   UNL A   1      33.791  25.720  24.004  1.00  0.00     0.158 C 
ATOM     20  O   UNL A   1      35.431  23.829  23.271  1.00  0.00    -0.229 OA
ATOM     21  O   UNL A   1      33.501  24.346  21.776  1.00  0.00    -0.229 OA
ENDBRANCH  17  18
ENDBRANCH  16  17
ENDBRANCH   6  16
ENDBRANCH   3   6
ENDBRANCH   1   2
BRANCH   1  22
ATOM     22  C   UNL A   1      37.919  19.944  24.971  1.00  0.00     0.042 C 
BRANCH  22  23
ATOM     23  C   UNL A   1      38.969  20.227  26.023  1.00  0.00     0.118 C 
BRANCH  23  24
ATOM     24  N   UNL A   1      40.048  19.244  26.035  1.00  0.00    -0.352 N 
ATOM     25  C   UNL A   1      41.414  19.375  26.126  1.00  0.00     0.251 C 
ATOM     26  H   UNL A   1      39.740  18.311  25.964  1.00  0.00     0.163 HD
ATOM     27  O   UNL A   1      42.124  18.389  25.948  1.00  0.00    -0.269 OA
BRANCH  25  28
ATOM     28  C   UNL A   1      42.045  20.685  26.406  1.00  0.00     0.039 A 
ATOM     29  C   UNL A   1      42.365  21.533  25.341  1.00  0.00     0.014 A 
ATOM     30  C   UNL A   1      42.346  21.081  27.706  1.00  0.00     0.014 A 
ATOM     31  C   UNL A   1      42.899  22.800  25.593  1.00  0.00     0.010 A 
ATOM     32  C   UNL A   1      42.728  22.390  27.965  1.00  0.00     0.010 A 
ATOM     33  C   UNL A   1      43.033  23.261  26.912  1.00  0.00    -0.014 A 
BRANCH  33  34
ATOM     34  C   UNL A   1      43.525  24.628  27.227  1.00  0.00     0.031 A 
ATOM     35  C   UNL A   1      42.574  25.658  27.783  1.00  0.00     0.074 A 
ATOM     36  C   UNL A   1      44.795  24.970  26.933  1.00  0.00     0.049 A 
ATOM     37  N   UNL A   1      42.770  26.932  28.012  1.00  0.00    -0.248 NA
ATOM     38  C   UNL A   1      41.203  25.207  28.079  1.00  0.00     0.031 C 
ATOM     39  C   UNL A   1      45.794  24.083  26.332  1.00  0.00     0.029 A 
ATOM     40  N   UNL A   1      45.461  26.161  27.087  1.00  0.00    -0.354 N 
ATOM     41  C   UNL A   1      41.547  27.431  28.443  1.00  0.00     0.074 A 
ATOM     42  C   UNL A   1      40.598  26.344  28.380  1.00  0.00     0.031 C 
ATOM     43  C   UNL A   1      46.950  24.749  26.199  1.00  0.00     0.029 A 
ATOM     44  C   UNL A   1      46.764  26.123  26.653  1.00  0.00     0.049 A 
ATOM     45  H   UNL A   1      45.043  26.965  27.471  1.00  0.00     0.167 HD
ATOM     46  C   UNL A   1      41.249  28.677  28.884  1.00  0.00     0.037 A 
ATOM     47  C   UNL A   1      47.698  27.092  26.615  1.00  0.00     0.037 A 
ATOM     48  C   UNL A   1      42.212  29.740  28.989  1.00  0.00     0.049 A 
ATOM     49  C   UNL A   1      47.345  28.465  27.122  1.00  0.00     0.074 A 
ATOM     50  C   UNL A   1      42.036  31.013  29.501  1.00  0.00     0.029 A 
ATOM     51  N   UNL A   1      43.533  29.652  28.574  1.00  0.00    -0.354 N 
ATOM     52  N   UNL A   1      46.208  28.903  27.605  1.00  0.00    -0.248 NA
ATOM     53  C   UNL A   1      48.409  29.478  27.083  1.00  0.00     0.031 C 
ATOM     54  C   UNL A   1      43.233  31.715  29.339  1.00  0.00     0.029 A 
ATOM     55  C   UNL A   1      44.175  30.861  28.788  1.00  0.00     0.049 A 
ATOM     56  H   UNL A   1      43.951  28.851  28.183  1.00  0.00     0.167 HD
ATOM     57  C   UNL A   1      46.425  30.229  27.953  1.00  0.00     0.074 A 
ATOM     58  C   UNL A   1      47.810  30.519  27.644  1.00  0.00     0.031 C 
ATOM     59  C   UNL A   1      45.557  31.126  28.481  1.00  0.00     0.037 A 
BRANCH  46  60
ATOM     60  C   UNL A   1      39.830  28.956  29.290  1.00  0.00     0.064 A 
ATOM     61  C   UNL A   1      38.873  29.418  28.373  1.00  0.00     0.173 A 
ATOM     62  C   UNL A   1      39.410  28.723  30.609  1.00  0.00     0.173 A 
ATOM     63  F   UNL A   1      39.221  29.669  27.102  1.00  0.00    -0.203 F 
ATOM     64  C   UNL A   1      37.560  29.665  28.767  1.00  0.00     0.198 A 
ATOM     65  C   UNL A   1      38.089  28.937  30.991  1.00  0.00     0.198 A 
ATOM     66  F   UNL A   1      40.281  28.278  31.528  1.00  0.00    -0.203 F 
ATOM     67  F   UNL A   1      36.680  30.158  27.886  1.00  0.00    -0.200 F 
ATOM     68  C   UNL A   1      37.166  29.416  30.073  1.00  0.00     0.200 A 
ATOM     69  F   UNL A   1      37.707  28.680  32.250  1.00  0.00    -0.200 F 
ATOM     70  F   UNL A   1      35.901  29.643  30.449  1.00  0.00    -0.200 F 
ENDBRANCH  46  60
BRANCH  47  71
ATOM     71  C   UNL A   1      49.059  26.796  26.092  1.00  0.00     0.064 A 
ATOM     72  C   UNL A   1      49.378  27.014  24.744  1.00  0.00     0.173 A 
ATOM     73  C   UNL A   1      50.065  26.278  26.921  1.00  0.00     0.173 A 
ATOM     74  F   UNL A   1      48.446  27.488  23.904  1.00  0.00    -0.203 F 
ATOM     75  C   UNL A   1      50.640  26.702  24.241  1.00  0.00     0.198 A 
ATOM     76  C   UNL A   1      51.337  25.999  26.424  1.00  0.00     0.198 A 
ATOM     77  F   UNL A   1      49.816  26.053  28.219  1.00  0.00    -0.203 F 
ATOM     78  F   UNL A   1      50.897  26.868  22.936  1.00  0.00    -0.200 F 
ATOM     79  C   UNL A   1      51.619  26.200  25.082  1.00  0.00     0.200 A 
ATOM     80  F   UNL A   1      52.286  25.528  27.244  1.00  0.00    -0.200 F 
ATOM     81  F   UNL A   1      52.832  25.901  24.598  1.00  0.00    -0.200 F 
ENDBRANCH  47  71
BRANCH  59  82
ATOM     82  C   UNL A   1      46.086  32.497  28.795  1.00  0.00     0.064 A 
ATOM     83  C   UNL A   1      46.024  33.544  27.864  1.00  0.00     0.173 A 
ATOM     84  C   UNL A   1      46.617  32.776  30.064  1.00  0.00     0.173 A 
ATOM     85  F   UNL A   1      45.536  33.326  26.634  1.00  0.00    -0.203 F 
ATOM     86  C   UNL A   1      46.497  34.813  28.184  1.00  0.00     0.198 A 
ATOM     87  C   UNL A   1      47.056  34.056  30.391  1.00  0.00     0.198 A 
ATOM     88  F   UNL A   1      46.692  31.812  30.994  1.00  0.00    -0.203 F 
ATOM     89  F   UNL A   1      46.473  35.786  27.262  1.00  0.00    -0.200 F 
ATOM     90  C   UNL A   1      47.004  35.071  29.449  1.00  0.00     0.200 A 
ATOM     91  F   UNL A   1      47.527  34.306  31.621  1.00  0.00    -0.200 F 
ATOM     92  F   UNL A   1      47.447  36.297  29.758  1.00  0.00    -0.200 F 
ENDBRANCH  59  82
ENDBRANCH  33  34
ENDBRANCH  25  28
ENDBRANCH  23  24
ENDBRANCH  22  23
ENDBRANCH   1  22
TORSDOF 16
ENDMDL
