MODEL 1
REMARK VINA RESULT:     -12.0      0.000      0.000
REMARK SMILES CCNC(=O)NC(=O)[C@@H](C)[NH2+][C@](C)(CC)C(=O)NCCCNC(=O)c1ccc(-c2c3nc(c(-c4c(F)c(F)c(F)c(F)c4F)c4ccc([nH]4)c(-c4c(F)c(F)c(F)c(F)c4F)c4nc(c(-c5c(F)c(F)c(F)c(F)c5F)c5ccc2[nH]5)C=C4)C=C3)cc1
REMARK SMILES IDX 19 1 18 2 16 3 17 4 12 6 13 7 11 8 9 11 10 12 7 13 3 14 4 15
REMARK SMILES IDX 5 17 6 18 8 20 2 21 1 22 14 23 15 24 20 25 21 26 22 27 23 28
REMARK SMILES IDX 24 30 25 31 26 32 87 33 27 34 86 35 28 36 29 37 30 38 80 39
REMARK SMILES IDX 31 40 85 41 79 42 81 43 32 44 84 45 78 46 77 47 33 49 65 50
REMARK SMILES IDX 45 51 64 52 46 53 49 54 63 55 82 56 47 57 48 58 62 60 83 61
REMARK SMILES IDX 50 62 34 63 35 64 43 65 36 66 37 67 41 68 44 69 38 70 39 71
REMARK SMILES IDX 42 72 40 73 66 74 67 75 75 76 68 77 69 78 73 79 76 80 70 81
REMARK SMILES IDX 71 82 74 83 72 84 51 85 52 86 60 87 53 88 54 89 58 90 61 91
REMARK SMILES IDX 55 92 56 93 59 94 57 95
REMARK H PARENT 18 5 11 9 11 10 3 16 6 19 22 29 81 48 49 59
REMARK Flexibility Score: inf
ROOT
ATOM      1  C   UNL A   1      31.934  30.662  26.170  1.00  0.00     0.118 C 
ENDROOT
BRANCH   1   2
ATOM      2  N   UNL A   1      31.830  29.681  27.235  1.00  0.00    -0.351 N 
ATOM      3  C   UNL A   1      31.508  28.358  27.201  1.00  0.00     0.281 C 
ATOM      4  O   UNL A   1      31.318  27.819  28.296  1.00  0.00    -0.268 OA
ATOM      5  H   UNL A   1      32.025  30.032  28.134  1.00  0.00     0.163 HD
BRANCH   3   6
ATOM      6  C   UNL A   1      31.504  27.545  25.849  1.00  0.00     0.173 C 
ATOM      7  C   UNL A   1      30.669  26.273  26.125  1.00  0.00     0.090 C 
BRANCH   6   8
ATOM      8  N   UNL A   1      32.929  27.236  25.620  1.00  0.00    -0.324 N 
ATOM      9  H   UNL A   1      33.353  28.117  25.327  1.00  0.00     0.347 HD
ATOM     10  H   UNL A   1      33.162  26.792  26.508  1.00  0.00     0.347 HD
BRANCH   8  11
ATOM     11  C   UNL A   1      33.436  26.235  24.692  1.00  0.00     0.270 C 
ATOM     12  C   UNL A   1      34.633  25.346  25.022  1.00  0.00     0.086 C 
BRANCH  11  13
ATOM     13  C   UNL A   1      33.681  26.901  23.328  1.00  0.00     0.285 C 
ATOM     14  N   UNL A   1      32.368  24.171  21.647  1.00  0.00    -0.338 N 
ATOM     15  C   UNL A   1      32.969  25.301  21.274  1.00  0.00     0.321 C 
ATOM     16  H   UNL A   1      32.065  23.636  20.879  1.00  0.00     0.165 HD
ATOM     17  O   UNL A   1      33.122  25.461  20.057  1.00  0.00    -0.248 OA
ATOM     18  N   UNL A   1      33.431  26.309  22.083  1.00  0.00    -0.273 N 
ATOM     19  H   UNL A   1      33.769  26.976  21.443  1.00  0.00     0.175 HD
ATOM     20  O   UNL A   1      34.115  28.063  23.291  1.00  0.00    -0.268 OA
BRANCH  14  21
ATOM     21  C   UNL A   1      32.059  23.550  22.899  1.00  0.00     0.114 C 
ATOM     22  C   UNL A   1      30.642  23.767  23.384  1.00  0.00     0.027 C 
ENDBRANCH  14  21
ENDBRANCH  11  13
ENDBRANCH   8  11
ENDBRANCH   6   8
BRANCH   6  23
ATOM     23  C   UNL A   1      30.851  28.330  24.687  1.00  0.00     0.075 C 
ATOM     24  C   UNL A   1      30.018  27.475  23.731  1.00  0.00     0.011 C 
ENDBRANCH   6  23
ENDBRANCH   3   6
ENDBRANCH   1   2
BRANCH   1  25
ATOM     25  C   UNL A   1      31.551  32.044  26.687  1.00  0.00     0.042 C 
BRANCH  25  26
ATOM     26  C   UNL A   1      32.697  32.754  27.399  1.00  0.00     0.118 C 
BRANCH  26  27
ATOM     27  N   UNL A   1      32.411  34.161  27.643  1.00  0.00    -0.352 N 
ATOM     28  C   UNL A   1      32.954  35.017  28.570  1.00  0.00     0.251 C 
ATOM     29  H   UNL A   1      31.729  34.559  27.055  1.00  0.00     0.163 HD
ATOM     30  O   UNL A   1      32.445  36.109  28.779  1.00  0.00    -0.269 OA
BRANCH  28  31
ATOM     31  C   UNL A   1      34.145  34.595  29.337  1.00  0.00     0.039 A 
ATOM     32  C   UNL A   1      33.979  34.117  30.638  1.00  0.00     0.014 A 
ATOM     33  C   UNL A   1      35.417  34.652  28.762  1.00  0.00     0.014 A 
ATOM     34  C   UNL A   1      35.080  33.609  31.330  1.00  0.00     0.010 A 
ATOM     35  C   UNL A   1      36.494  34.068  29.416  1.00  0.00     0.010 A 
ATOM     36  C   UNL A   1      36.335  33.531  30.703  1.00  0.00    -0.014 A 
BRANCH  36  37
ATOM     37  C   UNL A   1      37.492  32.871  31.358  1.00  0.00     0.031 A 
ATOM     38  C   UNL A   1      38.135  31.674  30.717  1.00  0.00     0.074 A 
ATOM     39  C   UNL A   1      37.905  33.300  32.567  1.00  0.00     0.049 A 
ATOM     40  N   UNL A   1      39.066  30.883  31.189  1.00  0.00    -0.248 NA
ATOM     41  C   UNL A   1      37.651  31.300  29.379  1.00  0.00     0.031 C 
ATOM     42  C   UNL A   1      37.342  34.434  33.302  1.00  0.00     0.029 A 
ATOM     43  N   UNL A   1      38.887  32.822  33.401  1.00  0.00    -0.354 N 
ATOM     44  C   UNL A   1      39.276  29.922  30.208  1.00  0.00     0.074 A 
ATOM     45  C   UNL A   1      38.334  30.190  29.143  1.00  0.00     0.031 C 
ATOM     46  C   UNL A   1      37.997  34.576  34.465  1.00  0.00     0.029 A 
ATOM     47  C   UNL A   1      38.988  33.512  34.585  1.00  0.00     0.049 A 
ATOM     48  H   UNL A   1      39.462  32.058  33.172  1.00  0.00     0.167 HD
ATOM     49  C   UNL A   1      40.190  28.923  30.189  1.00  0.00     0.037 A 
ATOM     50  C   UNL A   1      39.775  33.295  35.656  1.00  0.00     0.037 A 
ATOM     51  C   UNL A   1      41.130  28.668  31.249  1.00  0.00     0.049 A 
ATOM     52  C   UNL A   1      40.732  32.131  35.635  1.00  0.00     0.074 A 
ATOM     53  C   UNL A   1      42.119  27.702  31.309  1.00  0.00     0.029 A 
ATOM     54  N   UNL A   1      41.195  29.383  32.436  1.00  0.00    -0.354 N 
ATOM     55  N   UNL A   1      40.963  31.265  34.678  1.00  0.00    -0.248 NA
ATOM     56  C   UNL A   1      41.533  31.911  36.846  1.00  0.00     0.031 C 
ATOM     57  C   UNL A   1      42.748  27.799  32.553  1.00  0.00     0.029 A 
ATOM     58  C   UNL A   1      42.189  28.858  33.248  1.00  0.00     0.049 A 
ATOM     59  H   UNL A   1      40.621  30.148  32.668  1.00  0.00     0.167 HD
ATOM     60  C   UNL A   1      41.954  30.420  35.158  1.00  0.00     0.074 A 
ATOM     61  C   UNL A   1      42.296  30.888  36.485  1.00  0.00     0.031 C 
ATOM     62  C   UNL A   1      42.526  29.349  34.559  1.00  0.00     0.037 A 
BRANCH  49  63
ATOM     63  C   UNL A   1      40.231  28.038  28.978  1.00  0.00     0.064 A 
ATOM     64  C   UNL A   1      40.967  28.393  27.838  1.00  0.00     0.173 A 
ATOM     65  C   UNL A   1      39.578  26.795  28.977  1.00  0.00     0.173 A 
ATOM     66  F   UNL A   1      41.600  29.574  27.783  1.00  0.00    -0.203 F 
ATOM     67  C   UNL A   1      41.031  27.547  26.733  1.00  0.00     0.198 A 
ATOM     68  C   UNL A   1      39.671  25.939  27.885  1.00  0.00     0.198 A 
ATOM     69  F   UNL A   1      38.867  26.404  30.045  1.00  0.00    -0.203 F 
ATOM     70  F   UNL A   1      41.706  27.926  25.640  1.00  0.00    -0.200 F 
ATOM     71  C   UNL A   1      40.391  26.317  26.762  1.00  0.00     0.200 A 
ATOM     72  F   UNL A   1      39.066  24.743  27.919  1.00  0.00    -0.200 F 
ATOM     73  F   UNL A   1      40.467  25.497  25.704  1.00  0.00    -0.200 F 
ENDBRANCH  49  63
BRANCH  50  74
ATOM     74  C   UNL A   1      39.697  34.185  36.845  1.00  0.00     0.064 A 
ATOM     75  C   UNL A   1      40.465  35.357  36.916  1.00  0.00     0.173 A 
ATOM     76  C   UNL A   1      38.892  33.868  37.950  1.00  0.00     0.173 A 
ATOM     77  F   UNL A   1      41.267  35.695  35.896  1.00  0.00    -0.203 F 
ATOM     78  C   UNL A   1      40.458  36.156  38.059  1.00  0.00     0.198 A 
ATOM     79  C   UNL A   1      38.860  34.686  39.077  1.00  0.00     0.198 A 
ATOM     80  F   UNL A   1      38.135  32.761  37.934  1.00  0.00    -0.203 F 
ATOM     81  F   UNL A   1      41.253  37.233  38.125  1.00  0.00    -0.200 F 
ATOM     82  C   UNL A   1      39.652  35.821  39.137  1.00  0.00     0.200 A 
ATOM     83  F   UNL A   1      38.067  34.367  40.110  1.00  0.00    -0.200 F 
ATOM     84  F   UNL A   1      39.651  36.586  40.238  1.00  0.00    -0.200 F 
ENDBRANCH  50  74
BRANCH  62  85
ATOM     85  C   UNL A   1      43.606  28.627  35.312  1.00  0.00     0.064 A 
ATOM     86  C   UNL A   1      44.960  28.953  35.145  1.00  0.00     0.173 A 
ATOM     87  C   UNL A   1      43.277  27.643  36.257  1.00  0.00     0.173 A 
ATOM     88  F   UNL A   1      45.326  29.876  34.243  1.00  0.00    -0.203 F 
ATOM     89  C   UNL A   1      45.947  28.307  35.885  1.00  0.00     0.198 A 
ATOM     90  C   UNL A   1      44.264  27.023  37.017  1.00  0.00     0.198 A 
ATOM     91  F   UNL A   1      41.997  27.298  36.458  1.00  0.00    -0.203 F 
ATOM     92  F   UNL A   1      47.237  28.606  35.681  1.00  0.00    -0.200 F 
ATOM     93  C   UNL A   1      45.598  27.351  36.827  1.00  0.00     0.200 A 
ATOM     94  F   UNL A   1      43.924  26.110  37.938  1.00  0.00    -0.200 F 
ATOM     95  F   UNL A   1      46.549  26.743  37.550  1.00  0.00    -0.200 F 
ENDBRANCH  62  85
ENDBRANCH  36  37
ENDBRANCH  28  31
ENDBRANCH  26  27
ENDBRANCH  25  26
ENDBRANCH   1  25
TORSDOF 15
ENDMDL
MODEL 2
REMARK VINA RESULT:     -12.0      1.443      2.295
REMARK SMILES CCNC(=O)NC(=O)[C@@H](C)[NH2+][C@](C)(CC)C(=O)NCCCNC(=O)c1ccc(-c2c3nc(c(-c4c(F)c(F)c(F)c(F)c4F)c4ccc([nH]4)c(-c4c(F)c(F)c(F)c(F)c4F)c4nc(c(-c5c(F)c(F)c(F)c(F)c5F)c5ccc2[nH]5)C=C4)C=C3)cc1
REMARK SMILES IDX 19 1 18 2 16 3 17 4 12 6 13 7 11 8 9 11 10 12 7 13 3 14 4 15
REMARK SMILES IDX 5 17 6 18 8 20 2 21 1 22 14 23 15 24 20 25 21 26 22 27 23 28
REMARK SMILES IDX 24 30 25 31 26 32 87 33 27 34 86 35 28 36 29 37 30 38 80 39
REMARK SMILES IDX 31 40 85 41 79 42 81 43 32 44 84 45 78 46 77 47 33 49 65 50
REMARK SMILES IDX 45 51 64 52 46 53 49 54 63 55 82 56 47 57 48 58 62 60 83 61
REMARK SMILES IDX 50 62 34 63 35 64 43 65 36 66 37 67 41 68 44 69 38 70 39 71
REMARK SMILES IDX 42 72 40 73 66 74 67 75 75 76 68 77 69 78 73 79 76 80 70 81
REMARK SMILES IDX 71 82 74 83 72 84 51 85 52 86 60 87 53 88 54 89 58 90 61 91
REMARK SMILES IDX 55 92 56 93 59 94 57 95
REMARK H PARENT 18 5 11 9 11 10 3 16 6 19 22 29 81 48 49 59
REMARK Flexibility Score: inf
ROOT
ATOM      1  C   UNL A   1      31.912  30.625  26.145  1.00  0.00     0.118 C 
ENDROOT
BRANCH   1   2
ATOM      2  N   UNL A   1      31.805  29.682  27.243  1.00  0.00    -0.351 N 
ATOM      3  C   UNL A   1      31.648  28.329  27.245  1.00  0.00     0.281 C 
ATOM      4  O   UNL A   1      31.401  27.814  28.341  1.00  0.00    -0.268 OA
ATOM      5  H   UNL A   1      31.855  30.090  28.138  1.00  0.00     0.163 HD
BRANCH   3   6
ATOM      6  C   UNL A   1      31.894  27.468  25.946  1.00  0.00     0.173 C 
ATOM      7  C   UNL A   1      31.091  28.163  24.823  1.00  0.00     0.090 C 
BRANCH   6   8
ATOM      8  N   UNL A   1      31.339  26.144  26.291  1.00  0.00    -0.324 N 
ATOM      9  H   UNL A   1      31.565  26.005  27.276  1.00  0.00     0.347 HD
ATOM     10  H   UNL A   1      30.380  26.261  25.966  1.00  0.00     0.347 HD
BRANCH   8  11
ATOM     11  C   UNL A   1      31.682  24.890  25.634  1.00  0.00     0.270 C 
ATOM     12  C   UNL A   1      31.009  24.434  24.342  1.00  0.00     0.086 C 
BRANCH  11  13
ATOM     13  C   UNL A   1      31.594  23.751  26.663  1.00  0.00     0.285 C 
ATOM     14  N   UNL A   1      34.967  23.041  26.313  1.00  0.00    -0.338 N 
ATOM     15  C   UNL A   1      33.955  22.478  26.973  1.00  0.00     0.321 C 
ATOM     16  H   UNL A   1      35.826  22.594  26.493  1.00  0.00     0.165 HD
ATOM     17  O   UNL A   1      34.225  21.462  27.625  1.00  0.00    -0.248 OA
ATOM     18  N   UNL A   1      32.649  22.899  27.018  1.00  0.00    -0.273 N 
ATOM     19  H   UNL A   1      32.224  22.256  27.630  1.00  0.00     0.175 HD
ATOM     20  O   UNL A   1      30.524  23.555  27.259  1.00  0.00    -0.268 OA
BRANCH  14  21
ATOM     21  C   UNL A   1      35.103  24.140  25.406  1.00  0.00     0.114 C 
ATOM     22  C   UNL A   1      34.879  23.794  23.950  1.00  0.00     0.027 C 
ENDBRANCH  14  21
ENDBRANCH  11  13
ENDBRANCH   8  11
ENDBRANCH   6   8
BRANCH   6  23
ATOM     23  C   UNL A   1      33.386  27.422  25.540  1.00  0.00     0.075 C 
ATOM     24  C   UNL A   1      33.651  27.712  24.061  1.00  0.00     0.011 C 
ENDBRANCH   6  23
ENDBRANCH   3   6
ENDBRANCH   1   2
BRANCH   1  25
ATOM     25  C   UNL A   1      31.552  32.029  26.618  1.00  0.00     0.042 C 
BRANCH  25  26
ATOM     26  C   UNL A   1      32.684  32.712  27.375  1.00  0.00     0.118 C 
BRANCH  26  27
ATOM     27  N   UNL A   1      32.420  34.124  27.613  1.00  0.00    -0.352 N 
ATOM     28  C   UNL A   1      32.974  34.976  28.538  1.00  0.00     0.251 C 
ATOM     29  H   UNL A   1      31.744  34.530  27.023  1.00  0.00     0.163 HD
ATOM     30  O   UNL A   1      32.481  36.077  28.741  1.00  0.00    -0.269 OA
BRANCH  28  31
ATOM     31  C   UNL A   1      34.158  34.539  29.308  1.00  0.00     0.039 A 
ATOM     32  C   UNL A   1      33.979  34.037  30.598  1.00  0.00     0.014 A 
ATOM     33  C   UNL A   1      35.434  34.607  28.747  1.00  0.00     0.014 A 
ATOM     34  C   UNL A   1      35.073  33.516  31.291  1.00  0.00     0.010 A 
ATOM     35  C   UNL A   1      36.506  34.011  29.400  1.00  0.00     0.010 A 
ATOM     36  C   UNL A   1      36.334  33.450  30.675  1.00  0.00    -0.014 A 
BRANCH  36  37
ATOM     37  C   UNL A   1      37.485  32.777  31.329  1.00  0.00     0.031 A 
ATOM     38  C   UNL A   1      38.146  31.604  30.663  1.00  0.00     0.074 A 
ATOM     39  C   UNL A   1      37.875  33.171  32.557  1.00  0.00     0.049 A 
ATOM     40  N   UNL A   1      39.074  30.805  31.125  1.00  0.00    -0.248 NA
ATOM     41  C   UNL A   1      37.686  31.269  29.305  1.00  0.00     0.031 C 
ATOM     42  C   UNL A   1      37.292  34.279  33.316  1.00  0.00     0.029 A 
ATOM     43  N   UNL A   1      38.846  32.675  33.392  1.00  0.00    -0.354 N 
ATOM     44  C   UNL A   1      39.307  29.876  30.120  1.00  0.00     0.074 A 
ATOM     45  C   UNL A   1      38.381  30.170  29.048  1.00  0.00     0.031 C 
ATOM     46  C   UNL A   1      37.927  34.390  34.494  1.00  0.00     0.029 A 
ATOM     47  C   UNL A   1      38.923  33.328  34.598  1.00  0.00     0.049 A 
ATOM     48  H   UNL A   1      39.430  31.921  33.149  1.00  0.00     0.167 HD
ATOM     49  C   UNL A   1      40.228  28.884  30.085  1.00  0.00     0.037 A 
ATOM     50  C   UNL A   1      39.695  33.084  35.675  1.00  0.00     0.037 A 
ATOM     51  C   UNL A   1      41.152  28.603  31.152  1.00  0.00     0.049 A 
ATOM     52  C   UNL A   1      40.659  31.927  35.633  1.00  0.00     0.074 A 
ATOM     53  C   UNL A   1      42.146  27.641  31.199  1.00  0.00     0.029 A 
ATOM     54  N   UNL A   1      41.193  29.281  32.361  1.00  0.00    -0.354 N 
ATOM     55  N   UNL A   1      40.911  31.092  34.655  1.00  0.00    -0.248 NA
ATOM     56  C   UNL A   1      41.442  31.675  36.851  1.00  0.00     0.031 C 
ATOM     57  C   UNL A   1      42.754  27.703  32.456  1.00  0.00     0.029 A 
ATOM     58  C   UNL A   1      42.177  28.738  33.173  1.00  0.00     0.049 A 
ATOM     59  H   UNL A   1      40.610  30.035  32.606  1.00  0.00     0.167 HD
ATOM     60  C   UNL A   1      41.900  30.239  35.126  1.00  0.00     0.074 A 
ATOM     61  C   UNL A   1      42.218  30.669  36.471  1.00  0.00     0.031 C 
ATOM     62  C   UNL A   1      42.490  29.190  34.504  1.00  0.00     0.037 A 
BRANCH  49  63
ATOM     63  C   UNL A   1      40.294  28.037  28.848  1.00  0.00     0.064 A 
ATOM     64  C   UNL A   1      41.058  28.423  27.737  1.00  0.00     0.173 A 
ATOM     65  C   UNL A   1      39.638  26.797  28.794  1.00  0.00     0.173 A 
ATOM     66  F   UNL A   1      41.696  29.603  27.734  1.00  0.00    -0.203 F 
ATOM     67  C   UNL A   1      41.145  27.611  26.609  1.00  0.00     0.198 A 
ATOM     68  C   UNL A   1      39.754  25.974  27.678  1.00  0.00     0.198 A 
ATOM     69  F   UNL A   1      38.900  26.375  29.832  1.00  0.00    -0.203 F 
ATOM     70  F   UNL A   1      41.847  28.021  25.544  1.00  0.00    -0.200 F 
ATOM     71  C   UNL A   1      40.502  26.383  26.584  1.00  0.00     0.200 A 
ATOM     72  F   UNL A   1      39.144  24.780  27.661  1.00  0.00    -0.200 F 
ATOM     73  F   UNL A   1      40.600  25.596  25.504  1.00  0.00    -0.200 F 
ENDBRANCH  49  63
BRANCH  50  74
ATOM     74  C   UNL A   1      39.590  33.937  36.888  1.00  0.00     0.064 A 
ATOM     75  C   UNL A   1      38.780  33.555  37.968  1.00  0.00     0.173 A 
ATOM     76  C   UNL A   1      40.258  35.168  36.982  1.00  0.00     0.173 A 
ATOM     77  F   UNL A   1      38.104  32.397  37.919  1.00  0.00    -0.203 F 
ATOM     78  C   UNL A   1      38.613  34.385  39.075  1.00  0.00     0.198 A 
ATOM     79  C   UNL A   1      40.118  35.980  38.105  1.00  0.00     0.198 A 
ATOM     80  F   UNL A   1      41.048  35.582  35.980  1.00  0.00    -0.203 F 
ATOM     81  F   UNL A   1      37.780  34.023  40.060  1.00  0.00    -0.200 F 
ATOM     82  C   UNL A   1      39.286  35.596  39.144  1.00  0.00     0.200 A 
ATOM     83  F   UNL A   1      40.782  37.143  38.174  1.00  0.00    -0.200 F 
ATOM     84  F   UNL A   1      39.120  36.396  40.206  1.00  0.00    -0.200 F 
ENDBRANCH  50  74
BRANCH  62  85
ATOM     85  C   UNL A   1      43.562  28.453  35.253  1.00  0.00     0.064 A 
ATOM     86  C   UNL A   1      44.914  28.802  35.130  1.00  0.00     0.173 A 
ATOM     87  C   UNL A   1      43.225  27.428  36.150  1.00  0.00     0.173 A 
ATOM     88  F   UNL A   1      45.289  29.764  34.273  1.00  0.00    -0.203 F 
ATOM     89  C   UNL A   1      45.893  28.139  35.865  1.00  0.00     0.198 A 
ATOM     90  C   UNL A   1      44.203  26.790  36.908  1.00  0.00     0.198 A 
ATOM     91  F   UNL A   1      41.945  27.060  36.307  1.00  0.00    -0.203 F 
ATOM     92  F   UNL A   1      47.183  28.462  35.703  1.00  0.00    -0.200 F 
ATOM     93  C   UNL A   1      45.536  27.142  36.761  1.00  0.00     0.200 A 
ATOM     94  F   UNL A   1      43.854  25.838  37.783  1.00  0.00    -0.200 F 
ATOM     95  F   UNL A   1      46.478  26.518  37.481  1.00  0.00    -0.200 F 
ENDBRANCH  62  85
ENDBRANCH  36  37
ENDBRANCH  28  31
ENDBRANCH  26  27
ENDBRANCH  25  26
ENDBRANCH   1  25
TORSDOF 15
ENDMDL
MODEL 3
REMARK VINA RESULT:     -11.9      1.459      2.312
REMARK SMILES CCNC(=O)NC(=O)[C@@H](C)[NH2+][C@](C)(CC)C(=O)NCCCNC(=O)c1ccc(-c2c3nc(c(-c4c(F)c(F)c(F)c(F)c4F)c4ccc([nH]4)c(-c4c(F)c(F)c(F)c(F)c4F)c4nc(c(-c5c(F)c(F)c(F)c(F)c5F)c5ccc2[nH]5)C=C4)C=C3)cc1
REMARK SMILES IDX 19 1 18 2 16 3 17 4 12 6 13 7 11 8 9 11 10 12 7 13 3 14 4 15
REMARK SMILES IDX 5 17 6 18 8 20 2 21 1 22 14 23 15 24 20 25 21 26 22 27 23 28
REMARK SMILES IDX 24 30 25 31 26 32 87 33 27 34 86 35 28 36 29 37 30 38 80 39
REMARK SMILES IDX 31 40 85 41 79 42 81 43 32 44 84 45 78 46 77 47 33 49 65 50
REMARK SMILES IDX 45 51 64 52 46 53 49 54 63 55 82 56 47 57 48 58 62 60 83 61
REMARK SMILES IDX 50 62 34 63 35 64 43 65 36 66 37 67 41 68 44 69 38 70 39 71
REMARK SMILES IDX 42 72 40 73 66 74 67 75 75 76 68 77 69 78 73 79 76 80 70 81
REMARK SMILES IDX 71 82 74 83 72 84 51 85 52 86 60 87 53 88 54 89 58 90 61 91
REMARK SMILES IDX 55 92 56 93 59 94 57 95
REMARK H PARENT 18 5 11 9 11 10 3 16 6 19 22 29 81 48 49 59
REMARK Flexibility Score: inf
ROOT
ATOM      1  C   UNL A   1      32.041  30.566  26.131  1.00  0.00     0.118 C 
ENDROOT
BRANCH   1   2
ATOM      2  N   UNL A   1      31.841  29.658  27.246  1.00  0.00    -0.351 N 
ATOM      3  C   UNL A   1      31.618  28.314  27.274  1.00  0.00     0.281 C 
ATOM      4  O   UNL A   1      31.299  27.841  28.369  1.00  0.00    -0.268 OA
ATOM      5  H   UNL A   1      31.872  30.086  28.132  1.00  0.00     0.163 HD
BRANCH   3   6
ATOM      6  C   UNL A   1      31.877  27.409  26.008  1.00  0.00     0.173 C 
ATOM      7  C   UNL A   1      31.038  28.029  24.867  1.00  0.00     0.090 C 
BRANCH   6   8
ATOM      8  N   UNL A   1      31.371  26.083  26.414  1.00  0.00    -0.324 N 
ATOM      9  H   UNL A   1      31.710  25.944  27.367  1.00  0.00     0.347 HD
ATOM     10  H   UNL A   1      30.380  26.196  26.203  1.00  0.00     0.347 HD
BRANCH   8  11
ATOM     11  C   UNL A   1      31.641  24.830  25.722  1.00  0.00     0.270 C 
ATOM     12  C   UNL A   1      30.873  24.405  24.473  1.00  0.00     0.086 C 
BRANCH  11  13
ATOM     13  C   UNL A   1      31.596  23.680  26.741  1.00  0.00     0.285 C 
ATOM     14  N   UNL A   1      34.995  23.107  26.395  1.00  0.00    -0.338 N 
ATOM     15  C   UNL A   1      34.004  22.499  27.048  1.00  0.00     0.321 C 
ATOM     16  H   UNL A   1      35.870  22.693  26.574  1.00  0.00     0.165 HD
ATOM     17  O   UNL A   1      34.313  21.489  27.693  1.00  0.00    -0.248 OA
ATOM     18  N   UNL A   1      32.682  22.868  27.093  1.00  0.00    -0.273 N 
ATOM     19  H   UNL A   1      32.282  22.203  27.698  1.00  0.00     0.175 HD
ATOM     20  O   UNL A   1      30.533  23.437  27.333  1.00  0.00    -0.268 OA
BRANCH  14  21
ATOM     21  C   UNL A   1      35.089  24.217  25.497  1.00  0.00     0.114 C 
ATOM     22  C   UNL A   1      34.875  23.875  24.039  1.00  0.00     0.027 C 
ENDBRANCH  14  21
ENDBRANCH  11  13
ENDBRANCH   8  11
ENDBRANCH   6   8
BRANCH   6  23
ATOM     23  C   UNL A   1      33.366  27.395  25.584  1.00  0.00     0.075 C 
ATOM     24  C   UNL A   1      33.600  27.571  24.083  1.00  0.00     0.011 C 
ENDBRANCH   6  23
ENDBRANCH   3   6
ENDBRANCH   1   2
BRANCH   1  25
ATOM     25  C   UNL A   1      31.666  31.987  26.534  1.00  0.00     0.042 C 
BRANCH  25  26
ATOM     26  C   UNL A   1      32.717  32.655  27.412  1.00  0.00     0.118 C 
BRANCH  26  27
ATOM     27  N   UNL A   1      32.424  34.061  27.656  1.00  0.00    -0.352 N 
ATOM     28  C   UNL A   1      32.964  34.920  28.581  1.00  0.00     0.251 C 
ATOM     29  H   UNL A   1      31.737  34.454  27.070  1.00  0.00     0.163 HD
ATOM     30  O   UNL A   1      32.448  36.010  28.791  1.00  0.00    -0.269 OA
BRANCH  28  31
ATOM     31  C   UNL A   1      34.160  34.507  29.345  1.00  0.00     0.039 A 
ATOM     32  C   UNL A   1      33.993  33.940  30.609  1.00  0.00     0.014 A 
ATOM     33  C   UNL A   1      35.437  34.659  28.802  1.00  0.00     0.014 A 
ATOM     34  C   UNL A   1      35.104  33.441  31.291  1.00  0.00     0.010 A 
ATOM     35  C   UNL A   1      36.529  34.085  29.441  1.00  0.00     0.010 A 
ATOM     36  C   UNL A   1      36.373  33.461  30.687  1.00  0.00    -0.014 A 
BRANCH  36  37
ATOM     37  C   UNL A   1      37.548  32.815  31.324  1.00  0.00     0.031 A 
ATOM     38  C   UNL A   1      38.193  31.624  30.674  1.00  0.00     0.074 A 
ATOM     39  C   UNL A   1      37.976  33.249  32.526  1.00  0.00     0.049 A 
ATOM     40  N   UNL A   1      39.141  30.845  31.131  1.00  0.00    -0.248 NA
ATOM     41  C   UNL A   1      37.692  31.244  29.344  1.00  0.00     0.031 C 
ATOM     42  C   UNL A   1      37.411  34.378  33.268  1.00  0.00     0.029 A 
ATOM     43  N   UNL A   1      38.976  32.784  33.344  1.00  0.00    -0.354 N 
ATOM     44  C   UNL A   1      39.346  29.885  30.148  1.00  0.00     0.074 A 
ATOM     45  C   UNL A   1      38.384  30.141  29.098  1.00  0.00     0.031 C 
ATOM     46  C   UNL A   1      38.084  34.529  34.420  1.00  0.00     0.029 A 
ATOM     47  C   UNL A   1      39.089  33.476  34.525  1.00  0.00     0.049 A 
ATOM     48  H   UNL A   1      39.556  32.026  33.106  1.00  0.00     0.167 HD
ATOM     49  C   UNL A   1      40.271  28.897  30.115  1.00  0.00     0.037 A 
ATOM     50  C   UNL A   1      39.896  33.270  35.584  1.00  0.00     0.037 A 
ATOM     51  C   UNL A   1      41.231  28.654  31.159  1.00  0.00     0.049 A 
ATOM     52  C   UNL A   1      40.865  32.117  35.547  1.00  0.00     0.074 A 
ATOM     53  C   UNL A   1      42.232  27.699  31.204  1.00  0.00     0.029 A 
ATOM     54  N   UNL A   1      41.308  29.370  32.345  1.00  0.00    -0.354 N 
ATOM     55  N   UNL A   1      41.090  31.253  34.588  1.00  0.00    -0.248 NA
ATOM     56  C   UNL A   1      41.689  31.907  36.746  1.00  0.00     0.031 C 
ATOM     57  C   UNL A   1      42.880  27.804  32.438  1.00  0.00     0.029 A 
ATOM     58  C   UNL A   1      42.320  28.858  33.140  1.00  0.00     0.049 A 
ATOM     59  H   UNL A   1      40.728  30.129  32.585  1.00  0.00     0.167 HD
ATOM     60  C   UNL A   1      42.099  30.420  35.053  1.00  0.00     0.074 A 
ATOM     61  C   UNL A   1      42.457  30.893  36.373  1.00  0.00     0.031 C 
ATOM     62  C   UNL A   1      42.674  29.354  34.445  1.00  0.00     0.037 A 
BRANCH  49  63
ATOM     63  C   UNL A   1      40.302  28.011  28.904  1.00  0.00     0.064 A 
ATOM     64  C   UNL A   1      41.061  28.345  27.773  1.00  0.00     0.173 A 
ATOM     65  C   UNL A   1      39.616  26.786  28.895  1.00  0.00     0.173 A 
ATOM     66  F   UNL A   1      41.727  29.509  27.726  1.00  0.00    -0.203 F 
ATOM     67  C   UNL A   1      41.115  27.497  26.669  1.00  0.00     0.198 A 
ATOM     68  C   UNL A   1      39.698  25.927  27.803  1.00  0.00     0.198 A 
ATOM     69  F   UNL A   1      38.881  26.415  29.954  1.00  0.00    -0.203 F 
ATOM     70  F   UNL A   1      41.814  27.858  25.584  1.00  0.00    -0.200 F 
ATOM     71  C   UNL A   1      40.442  26.285  26.689  1.00  0.00     0.200 A 
ATOM     72  F   UNL A   1      39.060  24.749  27.830  1.00  0.00    -0.200 F 
ATOM     73  F   UNL A   1      40.508  25.464  25.632  1.00  0.00    -0.200 F 
ENDBRANCH  49  63
BRANCH  50  74
ATOM     74  C   UNL A   1      39.827  34.161  36.773  1.00  0.00     0.064 A 
ATOM     75  C   UNL A   1      40.616  35.318  36.850  1.00  0.00     0.173 A 
ATOM     76  C   UNL A   1      39.010  33.857  37.872  1.00  0.00     0.173 A 
ATOM     77  F   UNL A   1      41.430  35.641  35.835  1.00  0.00    -0.203 F 
ATOM     78  C   UNL A   1      40.617  36.116  37.993  1.00  0.00     0.198 A 
ATOM     79  C   UNL A   1      38.985  34.675  39.000  1.00  0.00     0.198 A 
ATOM     80  F   UNL A   1      38.232  32.764  37.851  1.00  0.00    -0.203 F 
ATOM     81  F   UNL A   1      41.431  37.177  38.065  1.00  0.00    -0.200 F 
ATOM     82  C   UNL A   1      39.799  35.795  39.066  1.00  0.00     0.200 A 
ATOM     83  F   UNL A   1      38.181  34.370  40.028  1.00  0.00    -0.200 F 
ATOM     84  F   UNL A   1      39.805  36.559  40.167  1.00  0.00    -0.200 F 
ENDBRANCH  50  74
BRANCH  62  85
ATOM     85  C   UNL A   1      43.774  28.646  35.182  1.00  0.00     0.064 A 
ATOM     86  C   UNL A   1      43.506  27.573  36.044  1.00  0.00     0.173 A 
ATOM     87  C   UNL A   1      45.114  29.005  34.974  1.00  0.00     0.173 A 
ATOM     88  F   UNL A   1      42.240  27.202  36.288  1.00  0.00    -0.203 F 
ATOM     89  C   UNL A   1      44.540  26.896  36.685  1.00  0.00     0.198 A 
ATOM     90  C   UNL A   1      46.147  28.305  35.591  1.00  0.00     0.198 A 
ATOM     91  F   UNL A   1      45.423  30.021  34.155  1.00  0.00    -0.203 F 
ATOM     92  F   UNL A   1      44.260  25.900  37.536  1.00  0.00    -0.200 F 
ATOM     93  C   UNL A   1      45.859  27.255  36.450  1.00  0.00     0.200 A 
ATOM     94  F   UNL A   1      47.421  28.644  35.350  1.00  0.00    -0.200 F 
ATOM     95  F   UNL A   1      46.854  26.591  37.054  1.00  0.00    -0.200 F 
ENDBRANCH  62  85
ENDBRANCH  36  37
ENDBRANCH  28  31
ENDBRANCH  26  27
ENDBRANCH  25  26
ENDBRANCH   1  25
TORSDOF 15
ENDMDL
