MODEL 1
REMARK VINA RESULT:     -13.2      0.000      0.000
REMARK SMILES Cc1cc(Cl)c(C)c2c1O[C@H](C(F)(F)F)C(C(=O)NCCCNC(=O)c1ccc(-c3c4nc(c(-c5c(F)c(F)c(F)c(F)c5F)c5ccc([nH]5)c(-c5c(F)c(F)c(F)c(F)c5F)c5nc(c(-c6c(F)c(F)c(F)c(F)c6F)c6ccc3[nH]6)C=C5)C=C4)cc1)=C2
REMARK SMILES IDX 21 1 20 2 19 3 17 4 18 5 16 7 1 8 2 9 3 10 9 11 4 12 8 13
REMARK SMILES IDX 10 14 5 15 6 16 89 17 11 18 7 19 12 20 13 21 14 22 15 23
REMARK SMILES IDX 22 24 23 25 24 26 25 28 26 29 27 30 88 31 28 32 87 33 29 34
REMARK SMILES IDX 30 35 31 36 81 37 32 38 86 39 80 40 82 41 33 42 85 43 79 44
REMARK SMILES IDX 78 45 34 47 66 48 46 49 65 50 47 51 50 52 64 53 83 54 48 55
REMARK SMILES IDX 49 56 63 58 84 59 51 60 35 61 36 62 44 63 37 64 38 65 42 66
REMARK SMILES IDX 45 67 39 68 40 69 43 70 41 71 67 72 68 73 76 74 69 75 70 76
REMARK SMILES IDX 74 77 77 78 71 79 72 80 75 81 73 82 52 83 53 84 61 85 54 86
REMARK SMILES IDX 55 87 59 88 62 89 56 90 57 91 60 92 58 93
REMARK H PARENT 19 6 23 27 82 46 50 57
REMARK Flexibility Score: inf
ROOT
ATOM      1  C   UNL A   1      33.630  28.799  23.624  1.00  0.00     0.042 C 
ENDROOT
BRANCH   1   2
ATOM      2  C   UNL A   1      32.313  28.292  23.057  1.00  0.00     0.118 C 
BRANCH   2   3
ATOM      3  N   UNL A   1      32.522  27.320  21.994  1.00  0.00    -0.352 N 
ATOM      4  C   UNL A   1      32.859  26.014  21.895  1.00  0.00     0.251 C 
ATOM      5  O   UNL A   1      32.936  25.577  20.742  1.00  0.00    -0.270 OA
ATOM      6  H   UNL A   1      32.380  27.723  21.106  1.00  0.00     0.163 HD
BRANCH   4   7
ATOM      7  C   UNL A   1      33.130  25.111  23.050  1.00  0.00     0.067 C 
ATOM      8  C   UNL A   1      33.080  22.665  27.517  1.00  0.00     0.048 C 
ATOM      9  C   UNL A   1      34.042  22.713  26.364  1.00  0.00    -0.007 A 
ATOM     10  C   UNL A   1      35.182  21.911  26.350  1.00  0.00     0.028 A 
ATOM     11  C   UNL A   1      33.804  23.553  25.272  1.00  0.00     0.131 A 
ATOM     12  C   UNL A   1      36.067  21.946  25.266  1.00  0.00     0.045 A 
ATOM     13  C   UNL A   1      34.674  23.599  24.169  1.00  0.00     0.022 A 
ATOM     14  O   UNL A   1      32.703  24.358  25.369  1.00  0.00    -0.475 OA
ATOM     15  Cl  UNL A   1      37.452  20.915  25.375  1.00  0.00    -0.084 Cl
ATOM     16  C   UNL A   1      35.830  22.782  24.155  1.00  0.00    -0.021 A 
ATOM     17  C   UNL A   1      34.344  24.531  23.084  1.00  0.00     0.026 C 
ATOM     18  C   UNL A   1      32.131  24.816  24.124  1.00  0.00     0.314 C 
ATOM     19  C   UNL A   1      36.769  22.817  22.975  1.00  0.00     0.047 C 
BRANCH  18  20
ATOM     20  C   UNL A   1      31.025  23.843  23.673  1.00  0.00     0.429 C 
ATOM     21  F   UNL A   1      29.988  24.530  23.131  1.00  0.00    -0.167 F 
ATOM     22  F   UNL A   1      31.449  22.978  22.721  1.00  0.00    -0.167 F 
ATOM     23  F   UNL A   1      30.534  23.099  24.687  1.00  0.00    -0.167 F 
ENDBRANCH  18  20
ENDBRANCH   4   7
ENDBRANCH   2   3
ENDBRANCH   1   2
BRANCH   1  24
ATOM     24  C   UNL A   1      33.607  28.856  25.145  1.00  0.00     0.118 C 
BRANCH  24  25
ATOM     25  N   UNL A   1      33.026  30.108  25.629  1.00  0.00    -0.352 N 
ATOM     26  C   UNL A   1      33.311  30.839  26.752  1.00  0.00     0.251 C 
ATOM     27  H   UNL A   1      32.319  30.485  25.057  1.00  0.00     0.163 HD
ATOM     28  O   UNL A   1      32.523  31.699  27.143  1.00  0.00    -0.269 OA
BRANCH  26  29
ATOM     29  C   UNL A   1      34.561  30.594  27.492  1.00  0.00     0.039 A 
ATOM     30  C   UNL A   1      35.492  31.625  27.633  1.00  0.00     0.014 A 
ATOM     31  C   UNL A   1      34.822  29.329  28.025  1.00  0.00     0.014 A 
ATOM     32  C   UNL A   1      36.657  31.401  28.366  1.00  0.00     0.010 A 
ATOM     33  C   UNL A   1      35.926  29.139  28.841  1.00  0.00     0.010 A 
ATOM     34  C   UNL A   1      36.865  30.167  29.003  1.00  0.00    -0.014 A 
BRANCH  34  35
ATOM     35  C   UNL A   1      38.077  29.909  29.815  1.00  0.00     0.031 A 
ATOM     36  C   UNL A   1      39.149  29.001  29.282  1.00  0.00     0.074 A 
ATOM     37  C   UNL A   1      38.179  30.443  31.047  1.00  0.00     0.049 A 
ATOM     38  N   UNL A   1      40.248  28.592  29.861  1.00  0.00    -0.248 NA
ATOM     39  C   UNL A   1      38.946  28.453  27.929  1.00  0.00     0.031 C 
ATOM     40  C   UNL A   1      37.175  31.300  31.681  1.00  0.00     0.029 A 
ATOM     41  N   UNL A   1      39.171  30.339  31.987  1.00  0.00    -0.354 N 
ATOM     42  C   UNL A   1      40.855  27.736  28.951  1.00  0.00     0.074 A 
ATOM     43  C   UNL A   1      39.974  27.628  27.811  1.00  0.00     0.031 C 
ATOM     44  C   UNL A   1      37.620  31.673  32.891  1.00  0.00     0.029 A 
ATOM     45  C   UNL A   1      38.917  31.049  33.135  1.00  0.00     0.049 A 
ATOM     46  H   UNL A   1      39.988  29.808  31.852  1.00  0.00     0.167 HD
ATOM     47  C   UNL A   1      42.058  27.125  29.046  1.00  0.00     0.037 A 
ATOM     48  C   UNL A   1      39.650  31.177  34.258  1.00  0.00     0.037 A 
ATOM     49  C   UNL A   1      42.943  27.269  30.170  1.00  0.00     0.049 A 
ATOM     50  C   UNL A   1      40.978  30.475  34.344  1.00  0.00     0.074 A 
ATOM     51  C   UNL A   1      44.209  26.740  30.341  1.00  0.00     0.029 A 
ATOM     52  N   UNL A   1      42.652  27.998  31.314  1.00  0.00    -0.354 N 
ATOM     53  N   UNL A   1      41.572  29.721  33.451  1.00  0.00    -0.248 NA
ATOM     54  C   UNL A   1      41.739  30.643  35.589  1.00  0.00     0.031 C 
ATOM     55  C   UNL A   1      44.664  27.107  31.610  1.00  0.00     0.029 A 
ATOM     56  C   UNL A   1      43.706  27.911  32.207  1.00  0.00     0.049 A 
ATOM     57  H   UNL A   1      41.821  28.502  31.467  1.00  0.00     0.167 HD
ATOM     58  C   UNL A   1      42.783  29.343  34.014  1.00  0.00     0.074 A 
ATOM     59  C   UNL A   1      42.848  29.967  35.320  1.00  0.00     0.031 C 
ATOM     60  C   UNL A   1      43.752  28.546  33.500  1.00  0.00     0.037 A 
BRANCH  47  61
ATOM     61  C   UNL A   1      42.502  26.266  27.899  1.00  0.00     0.064 A 
ATOM     62  C   UNL A   1      42.057  24.943  27.758  1.00  0.00     0.173 A 
ATOM     63  C   UNL A   1      43.328  26.790  26.893  1.00  0.00     0.173 A 
ATOM     64  F   UNL A   1      41.277  24.389  28.700  1.00  0.00    -0.203 F 
ATOM     65  C   UNL A   1      42.434  24.171  26.663  1.00  0.00     0.198 A 
ATOM     66  C   UNL A   1      43.677  26.026  25.783  1.00  0.00     0.198 A 
ATOM     67  F   UNL A   1      43.781  28.050  26.977  1.00  0.00    -0.203 F 
ATOM     68  F   UNL A   1      42.026  22.898  26.570  1.00  0.00    -0.200 F 
ATOM     69  C   UNL A   1      43.234  24.717  25.670  1.00  0.00     0.200 A 
ATOM     70  F   UNL A   1      44.439  26.559  24.817  1.00  0.00    -0.200 F 
ATOM     71  F   UNL A   1      43.578  23.980  24.606  1.00  0.00    -0.200 F 
ENDBRANCH  47  61
BRANCH  48  72
ATOM     72  C   UNL A   1      39.155  32.032  35.370  1.00  0.00     0.064 A 
ATOM     73  C   UNL A   1      38.411  31.481  36.422  1.00  0.00     0.173 A 
ATOM     74  C   UNL A   1      39.433  33.406  35.418  1.00  0.00     0.173 A 
ATOM     75  F   UNL A   1      38.104  30.175  36.413  1.00  0.00    -0.203 F 
ATOM     76  C   UNL A   1      37.954  32.272  37.474  1.00  0.00     0.198 A 
ATOM     77  C   UNL A   1      39.000  34.192  36.485  1.00  0.00     0.198 A 
ATOM     78  F   UNL A   1      40.146  33.983  34.439  1.00  0.00    -0.203 F 
ATOM     79  F   UNL A   1      37.215  31.726  38.449  1.00  0.00    -0.200 F 
ATOM     80  C   UNL A   1      38.256  33.625  37.508  1.00  0.00     0.200 A 
ATOM     81  F   UNL A   1      39.310  35.495  36.523  1.00  0.00    -0.200 F 
ATOM     82  F   UNL A   1      37.829  34.384  38.527  1.00  0.00    -0.200 F 
ENDBRANCH  48  72
BRANCH  60  83
ATOM     83  C   UNL A   1      44.976  28.311  34.335  1.00  0.00     0.064 A 
ATOM     84  C   UNL A   1      45.071  27.209  35.196  1.00  0.00     0.173 A 
ATOM     85  C   UNL A   1      46.097  29.145  34.205  1.00  0.00     0.173 A 
ATOM     86  F   UNL A   1      44.023  26.389  35.363  1.00  0.00    -0.203 F 
ATOM     87  C   UNL A   1      46.241  26.957  35.907  1.00  0.00     0.198 A 
ATOM     88  C   UNL A   1      47.275  28.872  34.892  1.00  0.00     0.198 A 
ATOM     89  F   UNL A   1      46.058  30.207  33.385  1.00  0.00    -0.203 F 
ATOM     90  F   UNL A   1      46.300  25.917  36.749  1.00  0.00    -0.200 F 
ATOM     91  C   UNL A   1      47.345  27.781  35.744  1.00  0.00     0.200 A 
ATOM     92  F   UNL A   1      48.347  29.657  34.718  1.00  0.00    -0.200 F 
ATOM     93  F   UNL A   1      48.479  27.523  36.411  1.00  0.00    -0.200 F 
ENDBRANCH  60  83
ENDBRANCH  34  35
ENDBRANCH  26  29
ENDBRANCH  24  25
ENDBRANCH   1  24
TORSDOF 11
ENDMDL
MODEL 2
REMARK VINA RESULT:     -13.2      4.026      6.807
REMARK SMILES Cc1cc(Cl)c(C)c2c1O[C@H](C(F)(F)F)C(C(=O)NCCCNC(=O)c1ccc(-c3c4nc(c(-c5c(F)c(F)c(F)c(F)c5F)c5ccc([nH]5)c(-c5c(F)c(F)c(F)c(F)c5F)c5nc(c(-c6c(F)c(F)c(F)c(F)c6F)c6ccc3[nH]6)C=C5)C=C4)cc1)=C2
REMARK SMILES IDX 21 1 20 2 19 3 17 4 18 5 16 7 1 8 2 9 3 10 9 11 4 12 8 13
REMARK SMILES IDX 10 14 5 15 6 16 89 17 11 18 7 19 12 20 13 21 14 22 15 23
REMARK SMILES IDX 22 24 23 25 24 26 25 28 26 29 27 30 88 31 28 32 87 33 29 34
REMARK SMILES IDX 30 35 31 36 81 37 32 38 86 39 80 40 82 41 33 42 85 43 79 44
REMARK SMILES IDX 78 45 34 47 66 48 46 49 65 50 47 51 50 52 64 53 83 54 48 55
REMARK SMILES IDX 49 56 63 58 84 59 51 60 35 61 36 62 44 63 37 64 38 65 42 66
REMARK SMILES IDX 45 67 39 68 40 69 43 70 41 71 67 72 68 73 76 74 69 75 70 76
REMARK SMILES IDX 74 77 77 78 71 79 72 80 75 81 73 82 52 83 53 84 61 85 54 86
REMARK SMILES IDX 55 87 59 88 62 89 56 90 57 91 60 92 58 93
REMARK H PARENT 19 6 23 27 82 46 50 57
REMARK Flexibility Score: inf
ROOT
ATOM      1  C   UNL A   1      34.998  23.098  26.735  1.00  0.00     0.042 C 
ENDROOT
BRANCH   1   2
ATOM      2  C   UNL A   1      33.770  23.409  25.894  1.00  0.00     0.118 C 
BRANCH   2   3
ATOM      3  N   UNL A   1      34.117  23.648  24.501  1.00  0.00    -0.352 N 
ATOM      4  C   UNL A   1      33.882  24.601  23.569  1.00  0.00     0.251 C 
ATOM      5  O   UNL A   1      34.383  24.386  22.461  1.00  0.00    -0.270 OA
ATOM      6  H   UNL A   1      34.672  22.920  24.138  1.00  0.00     0.163 HD
BRANCH   4   7
ATOM      7  C   UNL A   1      33.087  25.841  23.796  1.00  0.00     0.067 C 
ATOM      8  C   UNL A   1      29.790  29.711  23.499  1.00  0.00     0.048 C 
ATOM      9  C   UNL A   1      31.009  29.440  24.335  1.00  0.00    -0.007 A 
ATOM     10  C   UNL A   1      31.401  30.327  25.335  1.00  0.00     0.028 A 
ATOM     11  C   UNL A   1      31.766  28.282  24.137  1.00  0.00     0.131 A 
ATOM     12  C   UNL A   1      32.527  30.063  26.124  1.00  0.00     0.045 A 
ATOM     13  C   UNL A   1      32.896  27.991  24.921  1.00  0.00     0.022 A 
ATOM     14  O   UNL A   1      31.367  27.480  23.103  1.00  0.00    -0.475 OA
ATOM     15  Cl  UNL A   1      32.918  31.248  27.323  1.00  0.00    -0.084 Cl
ATOM     16  C   UNL A   1      33.291  28.892  25.939  1.00  0.00    -0.021 A 
ATOM     17  C   UNL A   1      33.633  26.759  24.617  1.00  0.00     0.026 C 
ATOM     18  C   UNL A   1      31.744  26.088  23.189  1.00  0.00     0.314 C 
ATOM     19  C   UNL A   1      34.497  28.589  26.793  1.00  0.00     0.047 C 
BRANCH  18  20
ATOM     20  C   UNL A   1      30.615  25.287  23.867  1.00  0.00     0.429 C 
ATOM     21  F   UNL A   1      30.398  24.125  23.200  1.00  0.00    -0.167 F 
ATOM     22  F   UNL A   1      30.913  24.946  25.143  1.00  0.00    -0.167 F 
ATOM     23  F   UNL A   1      29.444  25.959  23.905  1.00  0.00    -0.167 F 
ENDBRANCH  18  20
ENDBRANCH   4   7
ENDBRANCH   2   3
ENDBRANCH   1   2
BRANCH   1  24
ATOM     24  C   UNL A   1      36.273  23.636  26.099  1.00  0.00     0.118 C 
BRANCH  24  25
ATOM     25  N   UNL A   1      37.348  22.646  26.126  1.00  0.00    -0.352 N 
ATOM     26  C   UNL A   1      38.696  22.810  26.304  1.00  0.00     0.251 C 
ATOM     27  H   UNL A   1      37.057  21.714  25.996  1.00  0.00     0.163 HD
ATOM     28  O   UNL A   1      39.471  21.904  26.003  1.00  0.00    -0.269 OA
BRANCH  26  29
ATOM     29  C   UNL A   1      39.217  24.072  26.856  1.00  0.00     0.039 A 
ATOM     30  C   UNL A   1      39.856  24.983  26.011  1.00  0.00     0.014 A 
ATOM     31  C   UNL A   1      39.095  24.343  28.222  1.00  0.00     0.014 A 
ATOM     32  C   UNL A   1      40.315  26.193  26.529  1.00  0.00     0.010 A 
ATOM     33  C   UNL A   1      39.455  25.588  28.713  1.00  0.00     0.010 A 
ATOM     34  C   UNL A   1      40.086  26.517  27.877  1.00  0.00    -0.014 A 
BRANCH  34  35
ATOM     35  C   UNL A   1      40.534  27.808  28.449  1.00  0.00     0.031 A 
ATOM     36  C   UNL A   1      41.982  28.004  28.800  1.00  0.00     0.074 A 
ATOM     37  C   UNL A   1      39.629  28.772  28.704  1.00  0.00     0.049 A 
ATOM     38  N   UNL A   1      42.562  29.026  29.373  1.00  0.00    -0.248 NA
ATOM     39  C   UNL A   1      42.898  26.890  28.494  1.00  0.00     0.031 C 
ATOM     40  C   UNL A   1      38.191  28.669  28.449  1.00  0.00     0.029 A 
ATOM     41  N   UNL A   1      39.783  30.023  29.243  1.00  0.00    -0.354 N 
ATOM     42  C   UNL A   1      43.899  28.673  29.504  1.00  0.00     0.074 A 
ATOM     43  C   UNL A   1      44.035  27.320  29.017  1.00  0.00     0.031 C 
ATOM     44  C   UNL A   1      37.601  29.824  28.795  1.00  0.00     0.029 A 
ATOM     45  C   UNL A   1      38.609  30.730  29.336  1.00  0.00     0.049 A 
ATOM     46  H   UNL A   1      40.652  30.382  29.533  1.00  0.00     0.167 HD
ATOM     47  C   UNL A   1      44.926  29.427  29.957  1.00  0.00     0.037 A 
ATOM     48  C   UNL A   1      38.376  31.969  29.810  1.00  0.00     0.037 A 
ATOM     49  C   UNL A   1      44.785  30.786  30.407  1.00  0.00     0.049 A 
ATOM     50  C   UNL A   1      39.535  32.782  30.323  1.00  0.00     0.074 A 
ATOM     51  C   UNL A   1      45.771  31.657  30.831  1.00  0.00     0.029 A 
ATOM     52  N   UNL A   1      43.580  31.469  30.485  1.00  0.00    -0.354 N 
ATOM     53  N   UNL A   1      40.804  32.462  30.382  1.00  0.00    -0.248 NA
ATOM     54  C   UNL A   1      39.229  34.126  30.831  1.00  0.00     0.031 C 
ATOM     55  C   UNL A   1      45.156  32.852  31.216  1.00  0.00     0.029 A 
ATOM     56  C   UNL A   1      43.795  32.745  30.978  1.00  0.00     0.049 A 
ATOM     57  H   UNL A   1      42.704  31.102  30.229  1.00  0.00     0.167 HD
ATOM     58  C   UNL A   1      41.453  33.570  30.911  1.00  0.00     0.074 A 
ATOM     59  C   UNL A   1      40.438  34.578  31.139  1.00  0.00     0.031 C 
ATOM     60  C   UNL A   1      42.770  33.735  31.190  1.00  0.00     0.037 A 
BRANCH  47  61
ATOM     61  C   UNL A   1      46.295  28.815  29.970  1.00  0.00     0.064 A 
ATOM     62  C   UNL A   1      46.778  28.122  31.091  1.00  0.00     0.173 A 
ATOM     63  C   UNL A   1      47.109  28.861  28.829  1.00  0.00     0.173 A 
ATOM     64  F   UNL A   1      46.046  28.060  32.214  1.00  0.00    -0.203 F 
ATOM     65  C   UNL A   1      48.030  27.512  31.074  1.00  0.00     0.198 A 
ATOM     66  C   UNL A   1      48.346  28.224  28.804  1.00  0.00     0.198 A 
ATOM     67  F   UNL A   1      46.695  29.509  27.729  1.00  0.00    -0.203 F 
ATOM     68  F   UNL A   1      48.484  26.889  32.170  1.00  0.00    -0.200 F 
ATOM     69  C   UNL A   1      48.808  27.553  29.927  1.00  0.00     0.200 A 
ATOM     70  F   UNL A   1      49.091  28.253  27.690  1.00  0.00    -0.200 F 
ATOM     71  F   UNL A   1      50.003  26.949  29.905  1.00  0.00    -0.200 F 
ENDBRANCH  47  61
BRANCH  48  72
ATOM     72  C   UNL A   1      36.996  32.522  29.784  1.00  0.00     0.064 A 
ATOM     73  C   UNL A   1      36.134  32.350  30.876  1.00  0.00     0.173 A 
ATOM     74  C   UNL A   1      36.518  33.253  28.687  1.00  0.00     0.173 A 
ATOM     75  F   UNL A   1      36.537  31.644  31.943  1.00  0.00    -0.203 F 
ATOM     76  C   UNL A   1      34.843  32.875  30.865  1.00  0.00     0.198 A 
ATOM     77  C   UNL A   1      35.238  33.803  28.688  1.00  0.00     0.198 A 
ATOM     78  F   UNL A   1      37.305  33.453  27.619  1.00  0.00    -0.203 F 
ATOM     79  F   UNL A   1      34.028  32.664  31.908  1.00  0.00    -0.200 F 
ATOM     80  C   UNL A   1      34.400  33.608  29.775  1.00  0.00     0.200 A 
ATOM     81  F   UNL A   1      34.820  34.526  27.641  1.00  0.00    -0.200 F 
ATOM     82  F   UNL A   1      33.163  34.126  29.771  1.00  0.00    -0.200 F 
ENDBRANCH  48  72
BRANCH  60  83
ATOM     83  C   UNL A   1      43.200  35.056  31.757  1.00  0.00     0.064 A 
ATOM     84  C   UNL A   1      43.596  36.114  30.925  1.00  0.00     0.173 A 
ATOM     85  C   UNL A   1      43.129  35.294  33.138  1.00  0.00     0.173 A 
ATOM     86  F   UNL A   1      43.689  35.931  29.600  1.00  0.00    -0.203 F 
ATOM     87  C   UNL A   1      43.917  37.358  31.458  1.00  0.00     0.198 A 
ATOM     88  C   UNL A   1      43.420  36.549  33.663  1.00  0.00     0.198 A 
ATOM     89  F   UNL A   1      42.746  34.316  33.974  1.00  0.00    -0.203 F 
ATOM     90  F   UNL A   1      44.324  38.346  30.649  1.00  0.00    -0.200 F 
ATOM     91  C   UNL A   1      43.817  37.578  32.824  1.00  0.00     0.200 A 
ATOM     92  F   UNL A   1      43.303  36.765  34.981  1.00  0.00    -0.200 F 
ATOM     93  F   UNL A   1      44.104  38.785  33.333  1.00  0.00    -0.200 F 
ENDBRANCH  60  83
ENDBRANCH  34  35
ENDBRANCH  26  29
ENDBRANCH  24  25
ENDBRANCH   1  24
TORSDOF 11
ENDMDL
MODEL 3
REMARK VINA RESULT:     -13.2      0.174      1.207
REMARK SMILES Cc1cc(Cl)c(C)c2c1O[C@H](C(F)(F)F)C(C(=O)NCCCNC(=O)c1ccc(-c3c4nc(c(-c5c(F)c(F)c(F)c(F)c5F)c5ccc([nH]5)c(-c5c(F)c(F)c(F)c(F)c5F)c5nc(c(-c6c(F)c(F)c(F)c(F)c6F)c6ccc3[nH]6)C=C5)C=C4)cc1)=C2
REMARK SMILES IDX 21 1 20 2 19 3 17 4 18 5 16 7 1 8 2 9 3 10 9 11 4 12 8 13
REMARK SMILES IDX 10 14 5 15 6 16 89 17 11 18 7 19 12 20 13 21 14 22 15 23
REMARK SMILES IDX 22 24 23 25 24 26 25 28 26 29 27 30 88 31 28 32 87 33 29 34
REMARK SMILES IDX 30 35 31 36 81 37 32 38 86 39 80 40 82 41 33 42 85 43 79 44
REMARK SMILES IDX 78 45 34 47 66 48 46 49 65 50 47 51 50 52 64 53 83 54 48 55
REMARK SMILES IDX 49 56 63 58 84 59 51 60 35 61 36 62 44 63 37 64 38 65 42 66
REMARK SMILES IDX 45 67 39 68 40 69 43 70 41 71 67 72 68 73 76 74 69 75 70 76
REMARK SMILES IDX 74 77 77 78 71 79 72 80 75 81 73 82 52 83 53 84 61 85 54 86
REMARK SMILES IDX 55 87 59 88 62 89 56 90 57 91 60 92 58 93
REMARK H PARENT 19 6 23 27 82 46 50 57
REMARK Flexibility Score: inf
ROOT
ATOM      1  C   UNL A   1      33.592  28.831  23.602  1.00  0.00     0.042 C 
ENDROOT
BRANCH   1   2
ATOM      2  C   UNL A   1      32.273  28.321  23.045  1.00  0.00     0.118 C 
BRANCH   2   3
ATOM      3  N   UNL A   1      32.476  27.335  21.995  1.00  0.00    -0.352 N 
ATOM      4  C   UNL A   1      32.809  26.026  21.911  1.00  0.00     0.251 C 
ATOM      5  O   UNL A   1      32.881  25.575  20.764  1.00  0.00    -0.270 OA
ATOM      6  H   UNL A   1      32.332  27.726  21.102  1.00  0.00     0.163 HD
BRANCH   4   7
ATOM      7  C   UNL A   1      33.081  25.138  23.077  1.00  0.00     0.067 C 
ATOM      8  C   UNL A   1      33.012  22.720  27.559  1.00  0.00     0.048 C 
ATOM      9  C   UNL A   1      33.993  22.785  26.423  1.00  0.00    -0.007 A 
ATOM     10  C   UNL A   1      35.153  22.012  26.435  1.00  0.00     0.028 A 
ATOM     11  C   UNL A   1      33.754  23.611  25.321  1.00  0.00     0.131 A 
ATOM     12  C   UNL A   1      36.056  22.062  25.366  1.00  0.00     0.045 A 
ATOM     13  C   UNL A   1      34.643  23.673  24.233  1.00  0.00     0.022 A 
ATOM     14  O   UNL A   1      32.631  24.389  25.393  1.00  0.00    -0.475 OA
ATOM     15  Cl  UNL A   1      37.464  21.067  25.507  1.00  0.00    -0.084 Cl
ATOM     16  C   UNL A   1      35.819  22.885  24.246  1.00  0.00    -0.021 A 
ATOM     17  C   UNL A   1      34.309  24.589  23.136  1.00  0.00     0.026 C 
ATOM     18  C   UNL A   1      32.071  24.825  24.135  1.00  0.00     0.314 C 
ATOM     19  C   UNL A   1      36.777  22.936  23.082  1.00  0.00     0.047 C 
BRANCH  18  20
ATOM     20  C   UNL A   1      30.998  23.822  23.670  1.00  0.00     0.429 C 
ATOM     21  F   UNL A   1      30.541  23.102  24.726  1.00  0.00    -0.167 F 
ATOM     22  F   UNL A   1      29.917  24.429  23.126  1.00  0.00    -0.167 F 
ATOM     23  F   UNL A   1      31.460  22.947  22.750  1.00  0.00    -0.167 F 
ENDBRANCH  18  20
ENDBRANCH   4   7
ENDBRANCH   2   3
ENDBRANCH   1   2
BRANCH   1  24
ATOM     24  C   UNL A   1      33.580  28.890  25.124  1.00  0.00     0.118 C 
BRANCH  24  25
ATOM     25  N   UNL A   1      33.017  30.149  25.609  1.00  0.00    -0.352 N 
ATOM     26  C   UNL A   1      33.304  30.868  26.738  1.00  0.00     0.251 C 
ATOM     27  H   UNL A   1      32.321  30.541  25.034  1.00  0.00     0.163 HD
ATOM     28  O   UNL A   1      32.528  31.740  27.128  1.00  0.00    -0.269 OA
BRANCH  26  29
ATOM     29  C   UNL A   1      34.544  30.599  27.487  1.00  0.00     0.039 A 
ATOM     30  C   UNL A   1      35.495  31.611  27.635  1.00  0.00     0.014 A 
ATOM     31  C   UNL A   1      34.776  29.329  28.022  1.00  0.00     0.014 A 
ATOM     32  C   UNL A   1      36.650  31.364  28.376  1.00  0.00     0.010 A 
ATOM     33  C   UNL A   1      35.870  29.117  28.846  1.00  0.00     0.010 A 
ATOM     34  C   UNL A   1      36.828  30.126  29.015  1.00  0.00    -0.014 A 
BRANCH  34  35
ATOM     35  C   UNL A   1      38.029  29.844  29.835  1.00  0.00     0.031 A 
ATOM     36  C   UNL A   1      39.091  28.922  29.305  1.00  0.00     0.074 A 
ATOM     37  C   UNL A   1      38.129  30.369  31.071  1.00  0.00     0.049 A 
ATOM     38  N   UNL A   1      40.179  28.492  29.891  1.00  0.00    -0.248 NA
ATOM     39  C   UNL A   1      38.891  28.386  27.947  1.00  0.00     0.031 C 
ATOM     40  C   UNL A   1      37.134  31.237  31.702  1.00  0.00     0.029 A 
ATOM     41  N   UNL A   1      39.111  30.244  32.019  1.00  0.00    -0.354 N 
ATOM     42  C   UNL A   1      40.780  27.633  28.980  1.00  0.00     0.074 A 
ATOM     43  C   UNL A   1      39.907  27.545  27.832  1.00  0.00     0.031 C 
ATOM     44  C   UNL A   1      37.574  31.596  32.918  1.00  0.00     0.029 A 
ATOM     45  C   UNL A   1      38.859  30.951  33.169  1.00  0.00     0.049 A 
ATOM     46  H   UNL A   1      39.921  29.700  31.887  1.00  0.00     0.167 HD
ATOM     47  C   UNL A   1      41.972  27.002  29.081  1.00  0.00     0.037 A 
ATOM     48  C   UNL A   1      39.584  31.059  34.298  1.00  0.00     0.037 A 
ATOM     49  C   UNL A   1      42.850  27.125  30.213  1.00  0.00     0.049 A 
ATOM     50  C   UNL A   1      40.901  30.336  34.391  1.00  0.00     0.074 A 
ATOM     51  C   UNL A   1      44.106  26.575  30.391  1.00  0.00     0.029 A 
ATOM     52  N   UNL A   1      42.561  27.852  31.360  1.00  0.00    -0.354 N 
ATOM     53  N   UNL A   1      41.490  29.578  33.498  1.00  0.00    -0.248 NA
ATOM     54  C   UNL A   1      41.654  30.484  35.643  1.00  0.00     0.031 C 
ATOM     55  C   UNL A   1      44.556  26.927  31.666  1.00  0.00     0.029 A 
ATOM     56  C   UNL A   1      43.606  27.742  32.261  1.00  0.00     0.049 A 
ATOM     57  H   UNL A   1      41.736  28.368  31.509  1.00  0.00     0.167 HD
ATOM     58  C   UNL A   1      42.690  29.178  34.069  1.00  0.00     0.074 A 
ATOM     59  C   UNL A   1      42.754  29.793  35.379  1.00  0.00     0.031 C 
ATOM     60  C   UNL A   1      43.651  28.369  33.558  1.00  0.00     0.037 A 
BRANCH  47  61
ATOM     61  C   UNL A   1      42.412  26.144  27.933  1.00  0.00     0.064 A 
ATOM     62  C   UNL A   1      43.298  26.623  26.956  1.00  0.00     0.173 A 
ATOM     63  C   UNL A   1      41.999  24.806  27.842  1.00  0.00     0.173 A 
ATOM     64  F   UNL A   1      43.712  27.900  26.987  1.00  0.00    -0.203 F 
ATOM     65  C   UNL A   1      43.741  25.802  25.923  1.00  0.00     0.198 A 
ATOM     66  C   UNL A   1      42.469  23.978  26.827  1.00  0.00     0.198 A 
ATOM     67  F   UNL A   1      41.154  24.296  28.751  1.00  0.00    -0.203 F 
ATOM     68  F   UNL A   1      44.558  26.294  24.981  1.00  0.00    -0.200 F 
ATOM     69  C   UNL A   1      43.336  24.476  25.866  1.00  0.00     0.200 A 
ATOM     70  F   UNL A   1      42.087  22.693  26.781  1.00  0.00    -0.200 F 
ATOM     71  F   UNL A   1      43.780  23.681  24.884  1.00  0.00    -0.200 F 
ENDBRANCH  47  61
BRANCH  48  72
ATOM     72  C   UNL A   1      39.094  31.916  35.411  1.00  0.00     0.064 A 
ATOM     73  C   UNL A   1      38.315  31.374  36.443  1.00  0.00     0.173 A 
ATOM     74  C   UNL A   1      39.410  33.280  35.482  1.00  0.00     0.173 A 
ATOM     75  F   UNL A   1      37.970  30.078  36.412  1.00  0.00    -0.203 F 
ATOM     76  C   UNL A   1      37.862  32.166  37.496  1.00  0.00     0.198 A 
ATOM     77  C   UNL A   1      38.981  34.065  36.550  1.00  0.00     0.198 A 
ATOM     78  F   UNL A   1      40.159  33.847  34.524  1.00  0.00    -0.203 F 
ATOM     79  F   UNL A   1      37.088  31.630  38.451  1.00  0.00    -0.200 F 
ATOM     80  C   UNL A   1      38.202  33.509  37.552  1.00  0.00     0.200 A 
ATOM     81  F   UNL A   1      39.328  35.358  36.610  1.00  0.00    -0.200 F 
ATOM     82  F   UNL A   1      37.778  34.267  38.573  1.00  0.00    -0.200 F 
ENDBRANCH  48  72
BRANCH  60  83
ATOM     83  C   UNL A   1      44.864  28.109  34.402  1.00  0.00     0.064 A 
ATOM     84  C   UNL A   1      44.929  27.009  35.268  1.00  0.00     0.173 A 
ATOM     85  C   UNL A   1      46.004  28.917  34.275  1.00  0.00     0.173 A 
ATOM     86  F   UNL A   1      43.861  26.214  35.431  1.00  0.00    -0.203 F 
ATOM     87  C   UNL A   1      46.088  26.733  35.987  1.00  0.00     0.198 A 
ATOM     88  C   UNL A   1      47.172  28.620  34.971  1.00  0.00     0.198 A 
ATOM     89  F   UNL A   1      45.995  29.976  33.451  1.00  0.00    -0.203 F 
ATOM     90  F   UNL A   1      46.118  25.695  36.833  1.00  0.00    -0.200 F 
ATOM     91  C   UNL A   1      47.212  27.531  35.828  1.00  0.00     0.200 A 
ATOM     92  F   UNL A   1      48.263  29.380  34.801  1.00  0.00    -0.200 F 
ATOM     93  F   UNL A   1      48.336  27.250  36.503  1.00  0.00    -0.200 F 
ENDBRANCH  60  83
ENDBRANCH  34  35
ENDBRANCH  26  29
ENDBRANCH  24  25
ENDBRANCH   1  24
TORSDOF 11
ENDMDL
