MODEL 1
REMARK VINA RESULT:     -12.8      0.000      0.000
REMARK SMILES CC(C)COC(=O)c1ccc(NC(=O)[C@H]2[C@@H](C(=O)NCCCNC(=O)c3ccc(-c4c5nc(c(-c6c(F)c(F)c(F)c(F)c6F)c6ccc([nH]6)c(-c6c(F)c(F)c(F)c(F)c6F)c6nc(c(-c7c(F)c(F)c(F)c(F)c7F)c7ccc4[nH]7)C=C6)C=C5)cc3)[C@@H]3C=C[C@H]2C3)cc1
REMARK SMILES IDX 17 1 18 2 19 3 16 5 15 6 92 7 89 8 91 9 93 10 90 11 13 12
REMARK SMILES IDX 12 13 14 15 11 16 8 17 9 18 95 19 10 20 94 21 6 22 7 23 5 24
REMARK SMILES IDX 4 25 2 26 1 27 3 28 20 29 21 30 22 31 23 32 24 33 25 35
REMARK SMILES IDX 26 36 27 37 88 38 28 39 87 40 29 41 30 42 31 43 81 44 32 45
REMARK SMILES IDX 86 46 80 47 82 48 33 49 85 50 79 51 78 52 34 54 66 55 46 56
REMARK SMILES IDX 65 57 47 58 50 59 64 60 83 61 48 62 49 63 63 65 84 66 51 67
REMARK SMILES IDX 35 68 36 69 44 70 37 71 38 72 42 73 45 74 39 75 40 76 43 77
REMARK SMILES IDX 41 78 67 79 68 80 76 81 69 82 70 83 74 84 77 85 71 86 72 87
REMARK SMILES IDX 75 88 73 89 52 90 53 91 61 92 54 93 55 94 59 95 62 96 56 97
REMARK SMILES IDX 57 98 60 99 58 100
REMARK H PARENT 19 4 12 14 23 34 82 53 50 64
REMARK Flexibility Score: inf
ROOT
ATOM      1  C   UNL A   1      33.605  25.220  25.522  1.00  0.00     0.224 C 
ATOM      2  O   UNL A   1      33.014  24.776  26.509  1.00  0.00    -0.275 OA
ATOM      3  N   UNL A   1      33.267  26.477  25.122  1.00  0.00    -0.356 N 
ATOM      4  H   UNL A   1      32.361  26.764  25.380  1.00  0.00     0.163 HD
ENDROOT
BRANCH   1   5
ATOM      5  C   UNL A   1      34.733  24.447  24.858  1.00  0.00     0.098 C 
ATOM      6  C   UNL A   1      34.471  23.492  23.681  1.00  0.00     0.099 C 
ATOM      7  C   UNL A   1      35.541  22.375  23.863  1.00  0.00     0.025 C 
ATOM      8  C   UNL A   1      35.648  23.544  25.771  1.00  0.00     0.025 C 
ATOM      9  C   UNL A   1      36.939  22.969  23.960  1.00  0.00    -0.027 C 
ATOM     10  C   UNL A   1      35.389  22.082  25.343  1.00  0.00     0.017 C 
ATOM     11  C   UNL A   1      37.021  23.622  25.133  1.00  0.00    -0.027 C 
BRANCH   6  12
ATOM     12  C   UNL A   1      33.094  22.934  23.318  1.00  0.00     0.228 C 
ATOM     13  N   UNL A   1      31.934  23.515  22.930  1.00  0.00    -0.326 N 
ATOM     14  H   UNL A   1      31.266  22.820  22.731  1.00  0.00     0.169 HD
ATOM     15  O   UNL A   1      32.959  21.706  23.505  1.00  0.00    -0.274 OA
BRANCH  13  16
ATOM     16  C   UNL A   1      31.372  24.787  22.719  1.00  0.00     0.041 A 
ATOM     17  C   UNL A   1      30.490  27.460  22.821  1.00  0.00     0.060 A 
ATOM     18  C   UNL A   1      31.367  27.054  21.830  1.00  0.00     0.018 A 
ATOM     19  C   UNL A   1      29.928  26.513  23.676  1.00  0.00     0.018 A 
ATOM     20  C   UNL A   1      31.786  25.725  21.789  1.00  0.00     0.027 A 
ATOM     21  C   UNL A   1      30.350  25.174  23.601  1.00  0.00     0.027 A 
BRANCH  17  22
ATOM     22  C   UNL A   1      30.265  28.910  22.955  1.00  0.00     0.338 C 
ATOM     23  O   UNL A   1      30.251  29.491  24.021  1.00  0.00    -0.246 OA
BRANCH  22  24
ATOM     24  O   UNL A   1      29.899  29.395  21.740  1.00  0.00    -0.462 OA
BRANCH  24  25
ATOM     25  C   UNL A   1      28.628  30.061  21.703  1.00  0.00     0.236 C 
BRANCH  25  26
ATOM     26  C   UNL A   1      28.781  31.593  21.664  1.00  0.00     0.021 C 
ATOM     27  C   UNL A   1      28.035  32.247  20.499  1.00  0.00     0.011 C 
ATOM     28  C   UNL A   1      28.300  32.186  22.989  1.00  0.00     0.011 C 
ENDBRANCH  25  26
ENDBRANCH  24  25
ENDBRANCH  22  24
ENDBRANCH  17  22
ENDBRANCH  13  16
ENDBRANCH   6  12
ENDBRANCH   1   5
BRANCH   3  29
ATOM     29  C   UNL A   1      34.029  27.465  24.372  1.00  0.00     0.117 C 
BRANCH  29  30
ATOM     30  C   UNL A   1      33.564  28.903  24.588  1.00  0.00     0.042 C 
BRANCH  30  31
ATOM     31  C   UNL A   1      32.807  29.168  25.883  1.00  0.00     0.118 C 
BRANCH  31  32
ATOM     32  N   UNL A   1      32.626  30.586  26.131  1.00  0.00    -0.352 N 
ATOM     33  C   UNL A   1      33.267  31.422  27.012  1.00  0.00     0.251 C 
ATOM     34  H   UNL A   1      31.934  31.018  25.579  1.00  0.00     0.163 HD
ATOM     35  O   UNL A   1      32.767  32.518  27.256  1.00  0.00    -0.269 OA
BRANCH  33  36
ATOM     36  C   UNL A   1      34.540  31.044  27.680  1.00  0.00     0.039 A 
ATOM     37  C   UNL A   1      34.696  29.722  28.112  1.00  0.00     0.014 A 
ATOM     38  C   UNL A   1      35.532  31.980  27.986  1.00  0.00     0.014 A 
ATOM     39  C   UNL A   1      35.843  29.338  28.816  1.00  0.00     0.010 A 
ATOM     40  C   UNL A   1      36.714  31.578  28.616  1.00  0.00     0.010 A 
ATOM     41  C   UNL A   1      36.875  30.258  29.059  1.00  0.00    -0.014 A 
BRANCH  41  42
ATOM     42  C   UNL A   1      38.104  29.850  29.800  1.00  0.00     0.031 A 
ATOM     43  C   UNL A   1      38.370  30.368  31.191  1.00  0.00     0.074 A 
ATOM     44  C   UNL A   1      38.999  29.030  29.215  1.00  0.00     0.049 A 
ATOM     45  N   UNL A   1      39.392  30.141  31.980  1.00  0.00    -0.248 NA
ATOM     46  C   UNL A   1      37.368  31.281  31.763  1.00  0.00     0.031 C 
ATOM     47  C   UNL A   1      38.887  28.488  27.862  1.00  0.00     0.029 A 
ATOM     48  N   UNL A   1      40.183  28.510  29.683  1.00  0.00    -0.354 N 
ATOM     49  C   UNL A   1      39.160  30.888  33.130  1.00  0.00     0.074 A 
ATOM     50  C   UNL A   1      37.931  31.620  32.913  1.00  0.00     0.031 C 
ATOM     51  C   UNL A   1      39.940  27.691  27.617  1.00  0.00     0.029 A 
ATOM     52  C   UNL A   1      40.822  27.695  28.780  1.00  0.00     0.049 A 
ATOM     53  H   UNL A   1      40.539  28.705  30.580  1.00  0.00     0.167 HD
ATOM     54  C   UNL A   1      39.889  30.942  34.271  1.00  0.00     0.037 A 
ATOM     55  C   UNL A   1      41.990  27.030  28.876  1.00  0.00     0.037 A 
ATOM     56  C   UNL A   1      41.102  30.196  34.498  1.00  0.00     0.049 A 
ATOM     57  C   UNL A   1      42.787  27.116  30.149  1.00  0.00     0.074 A 
ATOM     58  C   UNL A   1      41.881  30.141  35.641  1.00  0.00     0.029 A 
ATOM     59  N   UNL A   1      41.714  29.378  33.559  1.00  0.00    -0.354 N 
ATOM     60  N   UNL A   1      42.521  27.772  31.252  1.00  0.00    -0.248 NA
ATOM     61  C   UNL A   1      44.047  26.359  30.193  1.00  0.00     0.031 C 
ATOM     62  C   UNL A   1      42.993  29.335  35.376  1.00  0.00     0.029 A 
ATOM     63  C   UNL A   1      42.876  28.837  34.089  1.00  0.00     0.049 A 
ATOM     64  H   UNL A   1      41.375  29.207  32.651  1.00  0.00     0.167 HD
ATOM     65  C   UNL A   1      43.560  27.486  32.128  1.00  0.00     0.074 A 
ATOM     66  C   UNL A   1      44.451  26.580  31.435  1.00  0.00     0.031 C 
ATOM     67  C   UNL A   1      43.756  27.933  33.393  1.00  0.00     0.037 A 
BRANCH  54  68
ATOM     68  C   UNL A   1      39.398  31.840  35.373  1.00  0.00     0.064 A 
ATOM     69  C   UNL A   1      38.566  31.364  36.398  1.00  0.00     0.173 A 
ATOM     70  C   UNL A   1      39.799  33.184  35.428  1.00  0.00     0.173 A 
ATOM     71  F   UNL A   1      38.147  30.090  36.390  1.00  0.00    -0.203 F 
ATOM     72  C   UNL A   1      38.130  32.206  37.418  1.00  0.00     0.198 A 
ATOM     73  C   UNL A   1      39.388  34.014  36.468  1.00  0.00     0.198 A 
ATOM     74  F   UNL A   1      40.601  33.691  34.481  1.00  0.00    -0.203 F 
ATOM     75  F   UNL A   1      37.294  31.741  38.357  1.00  0.00    -0.200 F 
ATOM     76  C   UNL A   1      38.547  33.527  37.457  1.00  0.00     0.200 A 
ATOM     77  F   UNL A   1      39.806  35.287  36.513  1.00  0.00    -0.200 F 
ATOM     78  F   UNL A   1      38.133  34.334  38.444  1.00  0.00    -0.200 F 
ENDBRANCH  54  68
BRANCH  55  79
ATOM     79  C   UNL A   1      42.469  26.205  27.735  1.00  0.00     0.064 A 
ATOM     80  C   UNL A   1      42.007  24.894  27.547  1.00  0.00     0.173 A 
ATOM     81  C   UNL A   1      43.406  26.702  26.816  1.00  0.00     0.173 A 
ATOM     82  F   UNL A   1      41.127  24.364  28.411  1.00  0.00    -0.203 F 
ATOM     83  C   UNL A   1      42.479  24.105  26.501  1.00  0.00     0.198 A 
ATOM     84  C   UNL A   1      43.853  25.923  25.751  1.00  0.00     0.198 A 
ATOM     85  F   UNL A   1      43.878  27.950  26.949  1.00  0.00    -0.203 F 
ATOM     86  F   UNL A   1      42.061  22.839  26.377  1.00  0.00    -0.200 F 
ATOM     87  C   UNL A   1      43.398  24.623  25.599  1.00  0.00     0.200 A 
ATOM     88  F   UNL A   1      44.730  26.433  24.874  1.00  0.00    -0.200 F 
ATOM     89  F   UNL A   1      43.850  23.865  24.591  1.00  0.00    -0.200 F 
ENDBRANCH  55  79
BRANCH  67  90
ATOM     90  C   UNL A   1      44.965  27.421  34.126  1.00  0.00     0.064 A 
ATOM     91  C   UNL A   1      46.190  28.104  34.099  1.00  0.00     0.173 A 
ATOM     92  C   UNL A   1      44.887  26.246  34.888  1.00  0.00     0.173 A 
ATOM     93  F   UNL A   1      46.322  29.225  33.373  1.00  0.00    -0.203 F 
ATOM     94  C   UNL A   1      47.300  27.612  34.781  1.00  0.00     0.198 A 
ATOM     95  C   UNL A   1      45.988  25.775  35.597  1.00  0.00     0.198 A 
ATOM     96  F   UNL A   1      43.736  25.557  34.956  1.00  0.00    -0.203 F 
ATOM     97  F   UNL A   1      48.474  28.250  34.694  1.00  0.00    -0.200 F 
ATOM     98  C   UNL A   1      47.196  26.452  35.535  1.00  0.00     0.200 A 
ATOM     99  F   UNL A   1      45.882  24.663  36.338  1.00  0.00    -0.200 F 
ATOM    100  F   UNL A   1      48.264  25.983  36.194  1.00  0.00    -0.200 F 
ENDBRANCH  67  90
ENDBRANCH  41  42
ENDBRANCH  33  36
ENDBRANCH  31  32
ENDBRANCH  30  31
ENDBRANCH  29  30
ENDBRANCH   3  29
TORSDOF 16
ENDMDL
MODEL 2
REMARK VINA RESULT:     -12.4      1.940      4.210
REMARK SMILES CC(C)COC(=O)c1ccc(NC(=O)[C@H]2[C@@H](C(=O)NCCCNC(=O)c3ccc(-c4c5nc(c(-c6c(F)c(F)c(F)c(F)c6F)c6ccc([nH]6)c(-c6c(F)c(F)c(F)c(F)c6F)c6nc(c(-c7c(F)c(F)c(F)c(F)c7F)c7ccc4[nH]7)C=C6)C=C5)cc3)[C@@H]3C=C[C@H]2C3)cc1
REMARK SMILES IDX 17 1 18 2 19 3 16 5 15 6 92 7 89 8 91 9 93 10 90 11 13 12
REMARK SMILES IDX 12 13 14 15 11 16 8 17 9 18 95 19 10 20 94 21 6 22 7 23 5 24
REMARK SMILES IDX 4 25 2 26 1 27 3 28 20 29 21 30 22 31 23 32 24 33 25 35
REMARK SMILES IDX 26 36 27 37 88 38 28 39 87 40 29 41 30 42 31 43 81 44 32 45
REMARK SMILES IDX 86 46 80 47 82 48 33 49 85 50 79 51 78 52 34 54 66 55 46 56
REMARK SMILES IDX 65 57 47 58 50 59 64 60 83 61 48 62 49 63 63 65 84 66 51 67
REMARK SMILES IDX 35 68 36 69 44 70 37 71 38 72 42 73 45 74 39 75 40 76 43 77
REMARK SMILES IDX 41 78 67 79 68 80 76 81 69 82 70 83 74 84 77 85 71 86 72 87
REMARK SMILES IDX 75 88 73 89 52 90 53 91 61 92 54 93 55 94 59 95 62 96 56 97
REMARK SMILES IDX 57 98 60 99 58 100
REMARK H PARENT 19 4 12 14 23 34 82 53 50 64
REMARK Flexibility Score: inf
ROOT
ATOM      1  C   UNL A   1      31.749  28.148  26.572  1.00  0.00     0.224 C 
ATOM      2  O   UNL A   1      31.016  27.311  27.104  1.00  0.00    -0.275 OA
ATOM      3  N   UNL A   1      32.230  29.138  27.376  1.00  0.00    -0.356 N 
ATOM      4  H   UNL A   1      31.679  29.331  28.168  1.00  0.00     0.163 HD
ENDROOT
BRANCH   1   5
ATOM      5  C   UNL A   1      32.182  28.017  25.121  1.00  0.00     0.098 C 
ATOM      6  C   UNL A   1      31.276  27.357  24.066  1.00  0.00     0.099 C 
ATOM      7  C   UNL A   1      32.279  26.684  23.084  1.00  0.00     0.025 C 
ATOM      8  C   UNL A   1      33.553  27.300  24.820  1.00  0.00     0.025 C 
ATOM      9  C   UNL A   1      33.299  27.691  22.571  1.00  0.00    -0.027 C 
ATOM     10  C   UNL A   1      33.211  25.997  24.063  1.00  0.00     0.017 C 
ATOM     11  C   UNL A   1      34.100  28.016  23.601  1.00  0.00    -0.027 C 
BRANCH   6  12
ATOM     12  C   UNL A   1      30.086  26.456  24.400  1.00  0.00     0.228 C 
ATOM     13  N   UNL A   1      29.984  25.230  24.963  1.00  0.00    -0.326 N 
ATOM     14  H   UNL A   1      29.035  24.990  25.067  1.00  0.00     0.169 HD
ATOM     15  O   UNL A   1      28.981  26.873  23.990  1.00  0.00    -0.274 OA
BRANCH  13  16
ATOM     16  C   UNL A   1      30.792  24.185  25.450  1.00  0.00     0.041 A 
ATOM     17  C   UNL A   1      32.796  22.291  26.020  1.00  0.00     0.060 A 
ATOM     18  C   UNL A   1      32.409  23.206  26.983  1.00  0.00     0.018 A 
ATOM     19  C   UNL A   1      32.091  22.211  24.820  1.00  0.00     0.018 A 
ATOM     20  C   UNL A   1      31.408  24.130  26.687  1.00  0.00     0.027 A 
ATOM     21  C   UNL A   1      31.071  23.140  24.553  1.00  0.00     0.027 A 
BRANCH  17  22
ATOM     22  C   UNL A   1      34.006  21.499  26.305  1.00  0.00     0.338 C 
ATOM     23  O   UNL A   1      34.538  21.458  27.396  1.00  0.00    -0.246 OA
BRANCH  22  24
ATOM     24  O   UNL A   1      34.486  21.021  25.128  1.00  0.00    -0.462 OA
BRANCH  24  25
ATOM     25  C   UNL A   1      35.866  21.314  24.864  1.00  0.00     0.236 C 
BRANCH  25  26
ATOM     26  C   UNL A   1      36.101  22.817  24.629  1.00  0.00     0.021 C 
ATOM     27  C   UNL A   1      37.154  23.421  25.561  1.00  0.00     0.011 C 
ATOM     28  C   UNL A   1      36.504  23.047  23.171  1.00  0.00     0.011 C 
ENDBRANCH  25  26
ENDBRANCH  24  25
ENDBRANCH  22  24
ENDBRANCH  17  22
ENDBRANCH  13  16
ENDBRANCH   6  12
ENDBRANCH   1   5
BRANCH   3  29
ATOM     29  C   UNL A   1      33.428  29.955  27.250  1.00  0.00     0.117 C 
BRANCH  29  30
ATOM     30  C   UNL A   1      33.172  31.346  26.673  1.00  0.00     0.042 C 
BRANCH  30  31
ATOM     31  C   UNL A   1      31.932  32.061  27.192  1.00  0.00     0.118 C 
BRANCH  31  32
ATOM     32  N   UNL A   1      32.150  33.486  27.354  1.00  0.00    -0.352 N 
ATOM     33  C   UNL A   1      33.080  34.162  28.107  1.00  0.00     0.251 C 
ATOM     34  H   UNL A   1      31.535  34.061  26.844  1.00  0.00     0.163 HD
ATOM     35  O   UNL A   1      32.909  35.361  28.319  1.00  0.00    -0.269 OA
BRANCH  33  36
ATOM     36  C   UNL A   1      34.280  33.492  28.673  1.00  0.00     0.039 A 
ATOM     37  C   UNL A   1      34.105  32.617  29.751  1.00  0.00     0.014 A 
ATOM     38  C   UNL A   1      35.576  33.786  28.240  1.00  0.00     0.014 A 
ATOM     39  C   UNL A   1      35.213  32.024  30.369  1.00  0.00     0.010 A 
ATOM     40  C   UNL A   1      36.676  33.130  28.802  1.00  0.00     0.010 A 
ATOM     41  C   UNL A   1      36.511  32.258  29.889  1.00  0.00    -0.014 A 
BRANCH  41  42
ATOM     42  C   UNL A   1      37.692  31.620  30.537  1.00  0.00     0.031 A 
ATOM     43  C   UNL A   1      38.114  32.018  31.930  1.00  0.00     0.074 A 
ATOM     44  C   UNL A   1      38.408  30.696  29.867  1.00  0.00     0.049 A 
ATOM     45  N   UNL A   1      39.124  31.589  32.646  1.00  0.00    -0.248 NA
ATOM     46  C   UNL A   1      37.307  33.051  32.597  1.00  0.00     0.031 C 
ATOM     47  C   UNL A   1      38.138  30.247  28.501  1.00  0.00     0.029 A 
ATOM     48  N   UNL A   1      39.513  29.969  30.241  1.00  0.00    -0.354 N 
ATOM     49  C   UNL A   1      39.079  32.306  33.837  1.00  0.00     0.074 A 
ATOM     50  C   UNL A   1      37.977  33.237  33.724  1.00  0.00     0.031 C 
ATOM     51  C   UNL A   1      39.030  29.304  28.162  1.00  0.00     0.029 A 
ATOM     52  C   UNL A   1      39.961  29.107  29.269  1.00  0.00     0.049 A 
ATOM     53  H   UNL A   1      39.943  30.058  31.123  1.00  0.00     0.167 HD
ATOM     54  C   UNL A   1      39.866  32.183  34.934  1.00  0.00     0.037 A 
ATOM     55  C   UNL A   1      41.006  28.257  29.267  1.00  0.00     0.037 A 
ATOM     56  C   UNL A   1      40.949  31.240  35.056  1.00  0.00     0.049 A 
ATOM     57  C   UNL A   1      41.873  28.149  30.493  1.00  0.00     0.074 A 
ATOM     58  C   UNL A   1      41.767  31.002  36.148  1.00  0.00     0.029 A 
ATOM     59  N   UNL A   1      41.368  30.381  34.051  1.00  0.00    -0.354 N 
ATOM     60  N   UNL A   1      41.777  28.783  31.635  1.00  0.00    -0.248 NA
ATOM     61  C   UNL A   1      42.992  27.196  30.430  1.00  0.00     0.031 C 
ATOM     62  C   UNL A   1      42.716  30.041  35.784  1.00  0.00     0.029 A 
ATOM     63  C   UNL A   1      42.451  29.633  34.487  1.00  0.00     0.049 A 
ATOM     64  H   UNL A   1      40.959  30.314  33.158  1.00  0.00     0.167 HD
ATOM     65  C   UNL A   1      42.799  28.289  32.435  1.00  0.00     0.074 A 
ATOM     66  C   UNL A   1      43.491  27.287  31.654  1.00  0.00     0.031 C 
ATOM     67  C   UNL A   1      43.132  28.635  33.703  1.00  0.00     0.037 A 
BRANCH  54  68
ATOM     68  C   UNL A   1      39.588  33.093  36.098  1.00  0.00     0.064 A 
ATOM     69  C   UNL A   1      40.237  34.329  36.241  1.00  0.00     0.173 A 
ATOM     70  C   UNL A   1      38.628  32.744  37.061  1.00  0.00     0.173 A 
ATOM     71  F   UNL A   1      41.169  34.709  35.353  1.00  0.00    -0.203 F 
ATOM     72  C   UNL A   1      39.959  35.166  37.319  1.00  0.00     0.198 A 
ATOM     73  C   UNL A   1      38.329  33.599  38.119  1.00  0.00     0.198 A 
ATOM     74  F   UNL A   1      37.970  31.579  36.971  1.00  0.00    -0.203 F 
ATOM     75  F   UNL A   1      40.630  36.318  37.461  1.00  0.00    -0.200 F 
ATOM     76  C   UNL A   1      39.001  34.804  38.252  1.00  0.00     0.200 A 
ATOM     77  F   UNL A   1      37.389  33.255  39.012  1.00  0.00    -0.200 F 
ATOM     78  F   UNL A   1      38.728  35.615  39.285  1.00  0.00    -0.200 F 
ENDBRANCH  54  68
BRANCH  55  79
ATOM     79  C   UNL A   1      41.282  27.423  28.067  1.00  0.00     0.064 A 
ATOM     80  C   UNL A   1      40.601  26.215  27.854  1.00  0.00     0.173 A 
ATOM     81  C   UNL A   1      42.239  27.806  27.115  1.00  0.00     0.173 A 
ATOM     82  F   UNL A   1      39.693  25.793  28.747  1.00  0.00    -0.203 F 
ATOM     83  C   UNL A   1      40.881  25.414  26.750  1.00  0.00     0.198 A 
ATOM     84  C   UNL A   1      42.496  27.019  25.994  1.00  0.00     0.198 A 
ATOM     85  F   UNL A   1      42.918  28.953  27.270  1.00  0.00    -0.203 F 
ATOM     86  F   UNL A   1      40.253  24.240  26.599  1.00  0.00    -0.200 F 
ATOM     87  C   UNL A   1      41.824  25.820  25.817  1.00  0.00     0.200 A 
ATOM     88  F   UNL A   1      43.397  27.423  25.088  1.00  0.00    -0.200 F 
ATOM     89  F   UNL A   1      42.092  25.050  24.753  1.00  0.00    -0.200 F 
ENDBRANCH  55  79
BRANCH  67  90
ATOM     90  C   UNL A   1      44.277  27.897  34.340  1.00  0.00     0.064 A 
ATOM     91  C   UNL A   1      45.592  28.383  34.286  1.00  0.00     0.173 A 
ATOM     92  C   UNL A   1      44.049  26.702  35.040  1.00  0.00     0.173 A 
ATOM     93  F   UNL A   1      45.866  29.514  33.617  1.00  0.00    -0.203 F 
ATOM     94  C   UNL A   1      46.640  27.684  34.879  1.00  0.00     0.198 A 
ATOM     95  C   UNL A   1      45.094  26.024  35.662  1.00  0.00     0.198 A 
ATOM     96  F   UNL A   1      42.809  26.197  35.132  1.00  0.00    -0.203 F 
ATOM     97  F   UNL A   1      47.895  28.138  34.764  1.00  0.00    -0.200 F 
ATOM     98  C   UNL A   1      46.389  26.509  35.573  1.00  0.00     0.200 A 
ATOM     99  F   UNL A   1      44.847  24.897  36.345  1.00  0.00    -0.200 F 
ATOM    100  F   UNL A   1      47.398  25.840  36.147  1.00  0.00    -0.200 F 
ENDBRANCH  67  90
ENDBRANCH  41  42
ENDBRANCH  33  36
ENDBRANCH  31  32
ENDBRANCH  30  31
ENDBRANCH  29  30
ENDBRANCH   3  29
TORSDOF 16
ENDMDL
MODEL 3
REMARK VINA RESULT:     -12.4      0.774      7.224
REMARK SMILES CC(C)COC(=O)c1ccc(NC(=O)[C@H]2[C@@H](C(=O)NCCCNC(=O)c3ccc(-c4c5nc(c(-c6c(F)c(F)c(F)c(F)c6F)c6ccc([nH]6)c(-c6c(F)c(F)c(F)c(F)c6F)c6nc(c(-c7c(F)c(F)c(F)c(F)c7F)c7ccc4[nH]7)C=C6)C=C5)cc3)[C@@H]3C=C[C@H]2C3)cc1
REMARK SMILES IDX 17 1 18 2 19 3 16 5 15 6 92 7 89 8 91 9 93 10 90 11 13 12
REMARK SMILES IDX 12 13 14 15 11 16 8 17 9 18 95 19 10 20 94 21 6 22 7 23 5 24
REMARK SMILES IDX 4 25 2 26 1 27 3 28 20 29 21 30 22 31 23 32 24 33 25 35
REMARK SMILES IDX 26 36 27 37 88 38 28 39 87 40 29 41 30 42 31 43 81 44 32 45
REMARK SMILES IDX 86 46 80 47 82 48 33 49 85 50 79 51 78 52 34 54 66 55 46 56
REMARK SMILES IDX 65 57 47 58 50 59 64 60 83 61 48 62 49 63 63 65 84 66 51 67
REMARK SMILES IDX 35 68 36 69 44 70 37 71 38 72 42 73 45 74 39 75 40 76 43 77
REMARK SMILES IDX 41 78 67 79 68 80 76 81 69 82 70 83 74 84 77 85 71 86 72 87
REMARK SMILES IDX 75 88 73 89 52 90 53 91 61 92 54 93 55 94 59 95 62 96 56 97
REMARK SMILES IDX 57 98 60 99 58 100
REMARK H PARENT 19 4 12 14 23 34 82 53 50 64
REMARK Flexibility Score: inf
ROOT
ATOM      1  C   UNL A   1      33.153  24.957  25.777  1.00  0.00     0.224 C 
ATOM      2  O   UNL A   1      32.492  24.209  26.502  1.00  0.00    -0.275 OA
ATOM      3  N   UNL A   1      32.818  26.278  25.796  1.00  0.00    -0.356 N 
ATOM      4  H   UNL A   1      31.887  26.464  26.055  1.00  0.00     0.163 HD
ENDROOT
BRANCH   1   5
ATOM      5  C   UNL A   1      34.351  24.447  24.993  1.00  0.00     0.098 C 
ATOM      6  C   UNL A   1      34.205  23.908  23.559  1.00  0.00     0.099 C 
ATOM      7  C   UNL A   1      35.300  22.805  23.464  1.00  0.00     0.025 C 
ATOM      8  C   UNL A   1      35.235  23.316  25.644  1.00  0.00     0.025 C 
ATOM      9  C   UNL A   1      36.666  23.358  23.847  1.00  0.00    -0.027 C 
ATOM     10  C   UNL A   1      35.059  22.059  24.761  1.00  0.00     0.017 C 
ATOM     11  C   UNL A   1      36.644  23.609  25.168  1.00  0.00    -0.027 C 
BRANCH   6  12
ATOM     12  C   UNL A   1      32.877  23.474  22.936  1.00  0.00     0.228 C 
ATOM     13  N   UNL A   1      31.690  24.100  22.760  1.00  0.00    -0.326 N 
ATOM     14  H   UNL A   1      31.075  23.512  22.266  1.00  0.00     0.169 HD
ATOM     15  O   UNL A   1      32.821  22.270  22.607  1.00  0.00    -0.274 OA
BRANCH  13  16
ATOM     16  C   UNL A   1      31.049  25.318  23.051  1.00  0.00     0.041 A 
ATOM     17  C   UNL A   1      29.586  27.725  23.069  1.00  0.00     0.060 A 
ATOM     18  C   UNL A   1      29.207  26.674  23.886  1.00  0.00     0.018 A 
ATOM     19  C   UNL A   1      30.778  27.645  22.350  1.00  0.00     0.018 A 
ATOM     20  C   UNL A   1      29.949  25.494  23.871  1.00  0.00     0.027 A 
ATOM     21  C   UNL A   1      31.520  26.452  22.368  1.00  0.00     0.027 A 
BRANCH  17  22
ATOM     22  C   UNL A   1      28.641  28.850  22.954  1.00  0.00     0.338 C 
ATOM     23  O   UNL A   1      27.440  28.708  22.839  1.00  0.00    -0.246 OA
BRANCH  22  24
ATOM     24  O   UNL A   1      29.360  29.993  22.808  1.00  0.00    -0.462 OA
BRANCH  24  25
ATOM     25  C   UNL A   1      28.975  31.074  23.670  1.00  0.00     0.236 C 
BRANCH  25  26
ATOM     26  C   UNL A   1      28.348  32.241  22.884  1.00  0.00     0.021 C 
ATOM     27  C   UNL A   1      29.041  33.583  23.134  1.00  0.00     0.011 C 
ATOM     28  C   UNL A   1      28.367  31.916  21.389  1.00  0.00     0.011 C 
ENDBRANCH  25  26
ENDBRANCH  24  25
ENDBRANCH  22  24
ENDBRANCH  17  22
ENDBRANCH  13  16
ENDBRANCH   6  12
ENDBRANCH   1   5
BRANCH   3  29
ATOM     29  C   UNL A   1      33.616  27.456  25.492  1.00  0.00     0.117 C 
BRANCH  29  30
ATOM     30  C   UNL A   1      32.796  28.730  25.305  1.00  0.00     0.042 C 
BRANCH  30  31
ATOM     31  C   UNL A   1      32.263  29.369  26.581  1.00  0.00     0.118 C 
BRANCH  31  32
ATOM     32  N   UNL A   1      32.240  30.818  26.498  1.00  0.00    -0.352 N 
ATOM     33  C   UNL A   1      33.013  31.757  27.137  1.00  0.00     0.251 C 
ATOM     34  H   UNL A   1      31.562  31.187  25.886  1.00  0.00     0.163 HD
ATOM     35  O   UNL A   1      32.640  32.928  27.137  1.00  0.00    -0.269 OA
BRANCH  33  36
ATOM     36  C   UNL A   1      34.279  31.402  27.829  1.00  0.00     0.039 A 
ATOM     37  C   UNL A   1      34.437  30.092  28.295  1.00  0.00     0.014 A 
ATOM     38  C   UNL A   1      35.262  32.351  28.124  1.00  0.00     0.014 A 
ATOM     39  C   UNL A   1      35.578  29.732  29.022  1.00  0.00     0.010 A 
ATOM     40  C   UNL A   1      36.439  31.971  28.778  1.00  0.00     0.010 A 
ATOM     41  C   UNL A   1      36.602  30.663  29.255  1.00  0.00    -0.014 A 
BRANCH  41  42
ATOM     42  C   UNL A   1      37.824  30.280  30.020  1.00  0.00     0.031 A 
ATOM     43  C   UNL A   1      38.842  29.340  29.423  1.00  0.00     0.074 A 
ATOM     44  C   UNL A   1      38.012  30.755  31.266  1.00  0.00     0.049 A 
ATOM     45  N   UNL A   1      39.952  28.879  29.944  1.00  0.00    -0.248 NA
ATOM     46  C   UNL A   1      38.565  28.835  28.070  1.00  0.00     0.031 C 
ATOM     47  C   UNL A   1      37.089  31.638  31.980  1.00  0.00     0.029 A 
ATOM     48  N   UNL A   1      39.041  30.562  32.157  1.00  0.00    -0.354 N 
ATOM     49  C   UNL A   1      40.496  28.025  28.991  1.00  0.00     0.074 A 
ATOM     50  C   UNL A   1      39.566  27.988  27.883  1.00  0.00     0.031 C 
ATOM     51  C   UNL A   1      37.604  31.933  33.184  1.00  0.00     0.029 A 
ATOM     52  C   UNL A   1      38.874  31.231  33.346  1.00  0.00     0.049 A 
ATOM     53  H   UNL A   1      39.823  29.997  31.962  1.00  0.00     0.167 HD
ATOM     54  C   UNL A   1      41.672  27.353  29.023  1.00  0.00     0.037 A 
ATOM     55  C   UNL A   1      39.653  31.271  34.445  1.00  0.00     0.037 A 
ATOM     56  C   UNL A   1      42.611  27.407  30.116  1.00  0.00     0.049 A 
ATOM     57  C   UNL A   1      40.949  30.506  34.460  1.00  0.00     0.074 A 
ATOM     58  C   UNL A   1      43.854  26.806  30.217  1.00  0.00     0.029 A 
ATOM     59  N   UNL A   1      42.406  28.100  31.300  1.00  0.00    -0.354 N 
ATOM     60  N   UNL A   1      41.481  29.758  33.525  1.00  0.00    -0.248 NA
ATOM     61  C   UNL A   1      41.757  30.598  35.685  1.00  0.00     0.031 C 
ATOM     62  C   UNL A   1      44.377  27.089  31.483  1.00  0.00     0.029 A 
ATOM     63  C   UNL A   1      43.488  27.918  32.148  1.00  0.00     0.049 A 
ATOM     64  H   UNL A   1      41.610  28.640  31.509  1.00  0.00     0.167 HD
ATOM     65  C   UNL A   1      42.695  29.315  34.034  1.00  0.00     0.074 A 
ATOM     66  C   UNL A   1      42.830  29.896  35.353  1.00  0.00     0.031 C 
ATOM     67  C   UNL A   1      43.615  28.502  33.459  1.00  0.00     0.037 A 
BRANCH  54  68
ATOM     68  C   UNL A   1      42.019  26.494  27.838  1.00  0.00     0.064 A 
ATOM     69  C   UNL A   1      42.898  26.937  26.838  1.00  0.00     0.173 A 
ATOM     70  C   UNL A   1      41.500  25.195  27.723  1.00  0.00     0.173 A 
ATOM     71  F   UNL A   1      43.418  28.172  26.894  1.00  0.00    -0.203 F 
ATOM     72  C   UNL A   1      43.219  26.125  25.753  1.00  0.00     0.198 A 
ATOM     73  C   UNL A   1      41.850  24.374  26.655  1.00  0.00     0.198 A 
ATOM     74  F   UNL A   1      40.662  24.716  28.654  1.00  0.00    -0.203 F 
ATOM     75  F   UNL A   1      44.020  26.589  24.783  1.00  0.00    -0.200 F 
ATOM     76  C   UNL A   1      42.701  24.842  25.666  1.00  0.00     0.200 A 
ATOM     77  F   UNL A   1      41.361  23.127  26.580  1.00  0.00    -0.200 F 
ATOM     78  F   UNL A   1      43.018  24.058  24.625  1.00  0.00    -0.200 F 
ENDBRANCH  54  68
BRANCH  55  79
ATOM     79  C   UNL A   1      39.237  32.083  35.620  1.00  0.00     0.064 A 
ATOM     80  C   UNL A   1      38.416  31.541  36.619  1.00  0.00     0.173 A 
ATOM     81  C   UNL A   1      39.639  33.420  35.762  1.00  0.00     0.173 A 
ATOM     82  F   UNL A   1      37.985  30.274  36.517  1.00  0.00    -0.203 F 
ATOM     83  C   UNL A   1      37.997  32.309  37.703  1.00  0.00     0.198 A 
ATOM     84  C   UNL A   1      39.245  34.177  36.864  1.00  0.00     0.198 A 
ATOM     85  F   UNL A   1      40.426  33.986  34.836  1.00  0.00    -0.203 F 
ATOM     86  F   UNL A   1      37.169  31.781  38.615  1.00  0.00    -0.200 F 
ATOM     87  C   UNL A   1      38.416  33.625  37.827  1.00  0.00     0.200 A 
ATOM     88  F   UNL A   1      39.665  35.444  36.987  1.00  0.00    -0.200 F 
ATOM     89  F   UNL A   1      38.014  34.362  38.872  1.00  0.00    -0.200 F 
ENDBRANCH  55  79
BRANCH  67  90
ATOM     90  C   UNL A   1      44.869  28.220  34.239  1.00  0.00     0.064 A 
ATOM     91  C   UNL A   1      44.975  27.113  35.094  1.00  0.00     0.173 A 
ATOM     92  C   UNL A   1      45.991  29.052  34.105  1.00  0.00     0.173 A 
ATOM     93  F   UNL A   1      43.926  26.293  35.270  1.00  0.00    -0.203 F 
ATOM     94  C   UNL A   1      46.143  26.870  35.812  1.00  0.00     0.198 A 
ATOM     95  C   UNL A   1      47.169  28.787  34.796  1.00  0.00     0.198 A 
ATOM     96  F   UNL A   1      45.949  30.120  33.292  1.00  0.00    -0.203 F 
ATOM     97  F   UNL A   1      46.200  25.840  36.667  1.00  0.00    -0.200 F 
ATOM     98  C   UNL A   1      47.241  27.702  35.656  1.00  0.00     0.200 A 
ATOM     99  F   UNL A   1      48.235  29.583  34.633  1.00  0.00    -0.200 F 
ATOM    100  F   UNL A   1      48.367  27.464  36.344  1.00  0.00    -0.200 F 
ENDBRANCH  67  90
ENDBRANCH  41  42
ENDBRANCH  33  36
ENDBRANCH  31  32
ENDBRANCH  30  31
ENDBRANCH  29  30
ENDBRANCH   3  29
TORSDOF 16
ENDMDL
