MODEL 1
REMARK VINA RESULT:     -13.9      0.000      0.000
REMARK SMILES C[C@H](C(=O)NCCCNC(=O)c1ccc(-c2c3nc(c(-c4c(F)c(F)c(F)c(F)c4F)c4ccc([nH]4)c(-c4c(F)c(F)c(F)c(F)c4F)c4nc(c(-c5c(F)c(F)c(F)c(F)c5F)c5ccc2[nH]5)C=C4)C=C3)cc1)N1C(=O)C[C@@H](N2C(=O)/C(=C/c3ccccc3)SC2=S)C1=O
REMARK SMILES IDX 6 1 5 2 3 3 4 4 2 6 1 7 75 8 76 9 94 10 77 11 78 12 79 13
REMARK SMILES IDX 95 14 80 15 81 16 92 17 82 18 83 19 91 20 93 21 84 22 85 23
REMARK SMILES IDX 86 24 90 25 87 26 89 27 88 28 7 29 8 30 9 31 10 32 11 34
REMARK SMILES IDX 12 35 13 36 74 37 14 38 73 39 15 40 16 41 17 42 67 43 18 44
REMARK SMILES IDX 72 45 66 46 68 47 19 48 71 49 65 50 64 51 20 53 52 54 32 55
REMARK SMILES IDX 51 56 33 57 36 58 50 59 69 60 34 61 35 62 49 64 70 65 37 66
REMARK SMILES IDX 21 67 22 68 30 69 23 70 24 71 28 72 31 73 25 74 26 75 29 76
REMARK SMILES IDX 27 77 53 78 54 79 62 80 55 81 56 82 60 83 63 84 57 85 58 86
REMARK SMILES IDX 61 87 59 88 38 89 39 90 47 91 40 92 41 93 45 94 48 95 42 96
REMARK SMILES IDX 43 97 46 98 44 99
REMARK H PARENT 5 5 9 33 68 52 36 63
REMARK Flexibility Score: inf
ROOT
ATOM      1  C   UNL A   1      31.371  30.830  25.964  1.00  0.00     0.117 C 
ENDROOT
BRANCH   1   2
ATOM      2  N   UNL A   1      32.585  30.158  26.378  1.00  0.00    -0.354 N 
ATOM      3  C   UNL A   1      33.328  29.198  25.746  1.00  0.00     0.243 C 
ATOM      4  O   UNL A   1      34.432  28.961  26.240  1.00  0.00    -0.273 OA
ATOM      5  H   UNL A   1      32.931  30.435  27.257  1.00  0.00     0.163 HD
BRANCH   3   6
ATOM      6  C   UNL A   1      32.865  28.593  24.399  1.00  0.00     0.179 C 
ATOM      7  C   UNL A   1      34.029  28.186  23.485  1.00  0.00     0.042 C 
BRANCH   6   8
ATOM      8  N   UNL A   1      31.904  27.506  24.582  1.00  0.00    -0.268 N 
ATOM      9  C   UNL A   1      30.709  27.431  23.923  1.00  0.00     0.232 C 
ATOM     10  C   UNL A   1      32.161  26.384  25.322  1.00  0.00     0.253 C 
ATOM     11  O   UNL A   1      30.246  28.253  23.147  1.00  0.00    -0.274 OA
ATOM     12  C   UNL A   1      29.963  26.211  24.375  1.00  0.00     0.136 C 
ATOM     13  C   UNL A   1      31.000  25.421  25.158  1.00  0.00     0.191 C 
ATOM     14  O   UNL A   1      33.173  26.141  25.964  1.00  0.00    -0.272 OA
BRANCH  13  15
ATOM     15  N   UNL A   1      31.443  24.180  24.507  1.00  0.00    -0.280 N 
ATOM     16  C   UNL A   1      31.383  22.993  25.219  1.00  0.00     0.266 C 
ATOM     17  C   UNL A   1      31.939  24.093  23.223  1.00  0.00     0.149 C 
ATOM     18  O   UNL A   1      30.933  22.865  26.346  1.00  0.00    -0.268 OA
ATOM     19  C   UNL A   1      31.983  21.886  24.441  1.00  0.00     0.081 C 
ATOM     20  S   UNL A   1      32.423  22.436  22.880  1.00  0.00    -0.054 SA
ATOM     21  S   UNL A   1      32.150  25.322  22.116  1.00  0.00    -0.052 S 
ATOM     22  C   UNL A   1      32.149  20.676  24.990  1.00  0.00     0.029 C 
BRANCH  22  23
ATOM     23  C   UNL A   1      32.815  19.530  24.370  1.00  0.00    -0.024 A 
ATOM     24  C   UNL A   1      32.167  18.822  23.353  1.00  0.00     0.008 A 
ATOM     25  C   UNL A   1      34.065  19.094  24.825  1.00  0.00     0.008 A 
ATOM     26  C   UNL A   1      32.777  17.705  22.780  1.00  0.00     0.001 A 
ATOM     27  C   UNL A   1      34.673  17.978  24.250  1.00  0.00     0.001 A 
ATOM     28  C   UNL A   1      34.029  17.285  23.227  1.00  0.00     0.000 A 
ENDBRANCH  22  23
ENDBRANCH  13  15
ENDBRANCH   6   8
ENDBRANCH   3   6
ENDBRANCH   1   2
BRANCH   1  29
ATOM     29  C   UNL A   1      31.304  32.258  26.498  1.00  0.00     0.042 C 
BRANCH  29  30
ATOM     30  C   UNL A   1      32.622  32.753  27.085  1.00  0.00     0.118 C 
BRANCH  30  31
ATOM     31  N   UNL A   1      32.505  34.090  27.643  1.00  0.00    -0.352 N 
ATOM     32  C   UNL A   1      33.167  34.693  28.679  1.00  0.00     0.251 C 
ATOM     33  H   UNL A   1      31.835  34.660  27.201  1.00  0.00     0.163 HD
ATOM     34  O   UNL A   1      32.742  35.760  29.114  1.00  0.00    -0.269 OA
BRANCH  32  35
ATOM     35  C   UNL A   1      34.371  34.083  29.288  1.00  0.00     0.039 A 
ATOM     36  C   UNL A   1      34.186  33.099  30.263  1.00  0.00     0.014 A 
ATOM     37  C   UNL A   1      35.664  34.508  28.969  1.00  0.00     0.014 A 
ATOM     38  C   UNL A   1      35.291  32.517  30.884  1.00  0.00     0.010 A 
ATOM     39  C   UNL A   1      36.769  33.870  29.530  1.00  0.00     0.010 A 
ATOM     40  C   UNL A   1      36.594  32.874  30.501  1.00  0.00    -0.014 A 
BRANCH  40  41
ATOM     41  C   UNL A   1      37.764  32.187  31.105  1.00  0.00     0.031 A 
ATOM     42  C   UNL A   1      38.232  32.529  32.492  1.00  0.00     0.074 A 
ATOM     43  C   UNL A   1      38.416  31.254  30.385  1.00  0.00     0.049 A 
ATOM     44  N   UNL A   1      39.210  32.003  33.188  1.00  0.00    -0.248 NA
ATOM     45  C   UNL A   1      37.527  33.620  33.183  1.00  0.00     0.031 C 
ATOM     46  C   UNL A   1      38.094  30.878  29.007  1.00  0.00     0.029 A 
ATOM     47  N   UNL A   1      39.477  30.448  30.708  1.00  0.00    -0.354 N 
ATOM     48  C   UNL A   1      39.234  32.692  34.392  1.00  0.00     0.074 A 
ATOM     49  C   UNL A   1      38.217  33.718  34.310  1.00  0.00     0.031 C 
ATOM     50  C   UNL A   1      38.911  29.889  28.618  1.00  0.00     0.029 A 
ATOM     51  C   UNL A   1      39.840  29.587  29.702  1.00  0.00     0.049 A 
ATOM     52  H   UNL A   1      39.935  30.483  31.579  1.00  0.00     0.167 HD
ATOM     53  C   UNL A   1      40.016  32.472  35.478  1.00  0.00     0.037 A 
ATOM     54  C   UNL A   1      40.810  28.654  29.658  1.00  0.00     0.037 A 
ATOM     55  C   UNL A   1      41.024  31.446  35.557  1.00  0.00     0.049 A 
ATOM     56  C   UNL A   1      41.665  28.434  30.875  1.00  0.00     0.074 A 
ATOM     57  C   UNL A   1      41.835  31.111  36.626  1.00  0.00     0.029 A 
ATOM     58  N   UNL A   1      41.365  30.592  34.516  1.00  0.00    -0.354 N 
ATOM     59  N   UNL A   1      41.625  29.040  32.038  1.00  0.00    -0.248 NA
ATOM     60  C   UNL A   1      42.694  27.391  30.778  1.00  0.00     0.031 C 
ATOM     61  C   UNL A   1      42.704  30.093  36.217  1.00  0.00     0.029 A 
ATOM     62  C   UNL A   1      42.394  29.750  34.911  1.00  0.00     0.049 A 
ATOM     63  H   UNL A   1      40.940  30.587  33.628  1.00  0.00     0.167 HD
ATOM     64  C   UNL A   1      42.606  28.440  32.814  1.00  0.00     0.074 A 
ATOM     65  C   UNL A   1      43.202  27.400  32.001  1.00  0.00     0.031 C 
ATOM     66  C   UNL A   1      42.985  28.728  34.085  1.00  0.00     0.037 A 
BRANCH  53  67
ATOM     67  C   UNL A   1      39.809  33.359  36.676  1.00  0.00     0.064 A 
ATOM     68  C   UNL A   1      40.517  34.562  36.832  1.00  0.00     0.173 A 
ATOM     69  C   UNL A   1      38.866  33.026  37.658  1.00  0.00     0.173 A 
ATOM     70  F   UNL A   1      41.439  34.925  35.926  1.00  0.00    -0.203 F 
ATOM     71  C   UNL A   1      40.309  35.380  37.939  1.00  0.00     0.198 A 
ATOM     72  C   UNL A   1      38.636  33.862  38.748  1.00  0.00     0.198 A 
ATOM     73  F   UNL A   1      38.155  31.892  37.558  1.00  0.00    -0.203 F 
ATOM     74  F   UNL A   1      41.034  36.497  38.090  1.00  0.00    -0.200 F 
ATOM     75  C   UNL A   1      39.363  35.034  38.892  1.00  0.00     0.200 A 
ATOM     76  F   UNL A   1      37.710  33.535  39.660  1.00  0.00    -0.200 F 
ATOM     77  F   UNL A   1      39.157  35.828  39.952  1.00  0.00    -0.200 F 
ENDBRANCH  53  67
BRANCH  54  78
ATOM     78  C   UNL A   1      41.006  27.845  28.427  1.00  0.00     0.064 A 
ATOM     79  C   UNL A   1      40.329  26.630  28.244  1.00  0.00     0.173 A 
ATOM     80  C   UNL A   1      41.873  28.267  27.409  1.00  0.00     0.173 A 
ATOM     81  F   UNL A   1      39.502  26.175  29.196  1.00  0.00    -0.203 F 
ATOM     82  C   UNL A   1      40.533  25.857  27.103  1.00  0.00     0.198 A 
ATOM     83  C   UNL A   1      42.050  27.510  26.253  1.00  0.00     0.198 A 
ATOM     84  F   UNL A   1      42.537  29.426  27.530  1.00  0.00    -0.203 F 
ATOM     85  F   UNL A   1      39.913  24.677  26.977  1.00  0.00    -0.200 F 
ATOM     86  C   UNL A   1      41.388  26.301  26.106  1.00  0.00     0.200 A 
ATOM     87  F   UNL A   1      42.861  27.952  25.282  1.00  0.00    -0.200 F 
ATOM     88  F   UNL A   1      41.578  25.561  25.005  1.00  0.00    -0.200 F 
ENDBRANCH  54  78
BRANCH  66  89
ATOM     89  C   UNL A   1      44.086  27.889  34.672  1.00  0.00     0.064 A 
ATOM     90  C   UNL A   1      43.819  26.672  35.321  1.00  0.00     0.173 A 
ATOM     91  C   UNL A   1      45.423  28.304  34.584  1.00  0.00     0.173 A 
ATOM     92  F   UNL A   1      42.556  26.237  35.446  1.00  0.00    -0.203 F 
ATOM     93  C   UNL A   1      44.845  25.929  35.899  1.00  0.00     0.198 A 
ATOM     94  C   UNL A   1      46.450  27.538  35.129  1.00  0.00     0.198 A 
ATOM     95  F   UNL A   1      45.736  29.453  33.967  1.00  0.00    -0.203 F 
ATOM     96  F   UNL A   1      44.558  24.807  36.575  1.00  0.00    -0.200 F 
ATOM     97  C   UNL A   1      46.159  26.359  35.798  1.00  0.00     0.200 A 
ATOM     98  F   UNL A   1      47.721  27.948  35.018  1.00  0.00    -0.200 F 
ATOM     99  F   UNL A   1      47.145  25.643  36.356  1.00  0.00    -0.200 F 
ENDBRANCH  66  89
ENDBRANCH  40  41
ENDBRANCH  32  35
ENDBRANCH  30  31
ENDBRANCH  29  30
ENDBRANCH   1  29
TORSDOF 13
ENDMDL
MODEL 2
REMARK VINA RESULT:     -13.6      5.182     10.981
REMARK SMILES C[C@H](C(=O)NCCCNC(=O)c1ccc(-c2c3nc(c(-c4c(F)c(F)c(F)c(F)c4F)c4ccc([nH]4)c(-c4c(F)c(F)c(F)c(F)c4F)c4nc(c(-c5c(F)c(F)c(F)c(F)c5F)c5ccc2[nH]5)C=C4)C=C3)cc1)N1C(=O)C[C@@H](N2C(=O)/C(=C/c3ccccc3)SC2=S)C1=O
REMARK SMILES IDX 6 1 5 2 3 3 4 4 2 6 1 7 75 8 76 9 94 10 77 11 78 12 79 13
REMARK SMILES IDX 95 14 80 15 81 16 92 17 82 18 83 19 91 20 93 21 84 22 85 23
REMARK SMILES IDX 86 24 90 25 87 26 89 27 88 28 7 29 8 30 9 31 10 32 11 34
REMARK SMILES IDX 12 35 13 36 74 37 14 38 73 39 15 40 16 41 17 42 67 43 18 44
REMARK SMILES IDX 72 45 66 46 68 47 19 48 71 49 65 50 64 51 20 53 52 54 32 55
REMARK SMILES IDX 51 56 33 57 36 58 50 59 69 60 34 61 35 62 49 64 70 65 37 66
REMARK SMILES IDX 21 67 22 68 30 69 23 70 24 71 28 72 31 73 25 74 26 75 29 76
REMARK SMILES IDX 27 77 53 78 54 79 62 80 55 81 56 82 60 83 63 84 57 85 58 86
REMARK SMILES IDX 61 87 59 88 38 89 39 90 47 91 40 92 41 93 45 94 48 95 42 96
REMARK SMILES IDX 43 97 46 98 44 99
REMARK H PARENT 5 5 9 33 68 52 36 63
REMARK Flexibility Score: inf
ROOT
ATOM      1  C   UNL A   1      36.831  20.274  24.666  1.00  0.00     0.117 C 
ENDROOT
BRANCH   1   2
ATOM      2  N   UNL A   1      37.125  21.623  25.102  1.00  0.00    -0.354 N 
ATOM      3  C   UNL A   1      36.331  22.548  25.722  1.00  0.00     0.243 C 
ATOM      4  O   UNL A   1      36.910  23.542  26.168  1.00  0.00    -0.273 OA
ATOM      5  H   UNL A   1      38.045  21.924  24.921  1.00  0.00     0.163 HD
BRANCH   3   6
ATOM      6  C   UNL A   1      34.835  22.258  25.993  1.00  0.00     0.179 C 
ATOM      7  C   UNL A   1      34.300  22.955  27.251  1.00  0.00     0.042 C 
BRANCH   6   8
ATOM      8  N   UNL A   1      34.000  22.524  24.821  1.00  0.00    -0.268 N 
ATOM      9  C   UNL A   1      33.061  21.652  24.346  1.00  0.00     0.232 C 
ATOM     10  C   UNL A   1      33.974  23.725  24.166  1.00  0.00     0.253 C 
ATOM     11  O   UNL A   1      32.815  20.534  24.774  1.00  0.00    -0.274 OA
ATOM     12  C   UNL A   1      32.420  22.226  23.118  1.00  0.00     0.136 C 
ATOM     13  C   UNL A   1      32.888  23.673  23.107  1.00  0.00     0.191 C 
ATOM     14  O   UNL A   1      34.650  24.713  24.412  1.00  0.00    -0.272 OA
BRANCH  13  15
ATOM     15  N   UNL A   1      31.836  24.659  23.393  1.00  0.00    -0.280 N 
ATOM     16  C   UNL A   1      31.668  25.727  22.528  1.00  0.00     0.266 C 
ATOM     17  C   UNL A   1      30.991  24.620  24.482  1.00  0.00     0.149 C 
ATOM     18  O   UNL A   1      32.288  25.904  21.492  1.00  0.00    -0.268 OA
ATOM     19  C   UNL A   1      30.650  26.667  23.049  1.00  0.00     0.081 C 
ATOM     20  S   UNL A   1      29.944  26.035  24.476  1.00  0.00    -0.054 SA
ATOM     21  S   UNL A   1      30.938  23.487  25.704  1.00  0.00    -0.052 S 
ATOM     22  C   UNL A   1      30.422  27.836  22.438  1.00  0.00     0.029 C 
BRANCH  22  23
ATOM     23  C   UNL A   1      29.522  28.892  22.902  1.00  0.00    -0.024 A 
ATOM     24  C   UNL A   1      28.143  28.755  22.717  1.00  0.00     0.008 A 
ATOM     25  C   UNL A   1      30.027  30.067  23.471  1.00  0.00     0.008 A 
ATOM     26  C   UNL A   1      27.278  29.773  23.122  1.00  0.00     0.001 A 
ATOM     27  C   UNL A   1      29.161  31.082  23.876  1.00  0.00     0.001 A 
ATOM     28  C   UNL A   1      27.786  30.933  23.703  1.00  0.00     0.000 A 
ENDBRANCH  22  23
ENDBRANCH  13  15
ENDBRANCH   6   8
ENDBRANCH   3   6
ENDBRANCH   1   2
BRANCH   1  29
ATOM     29  C   UNL A   1      37.969  19.311  24.996  1.00  0.00     0.042 C 
BRANCH  29  30
ATOM     30  C   UNL A   1      39.107  19.956  25.782  1.00  0.00     0.118 C 
BRANCH  30  31
ATOM     31  N   UNL A   1      40.271  19.091  25.867  1.00  0.00    -0.352 N 
ATOM     32  C   UNL A   1      41.599  19.386  26.029  1.00  0.00     0.251 C 
ATOM     33  H   UNL A   1      40.072  18.130  25.797  1.00  0.00     0.163 HD
ATOM     34  O   UNL A   1      42.430  18.498  25.851  1.00  0.00    -0.269 OA
BRANCH  32  35
ATOM     35  C   UNL A   1      42.051  20.745  26.403  1.00  0.00     0.039 A 
ATOM     36  C   UNL A   1      42.279  21.666  25.376  1.00  0.00     0.014 A 
ATOM     37  C   UNL A   1      42.320  21.103  27.727  1.00  0.00     0.014 A 
ATOM     38  C   UNL A   1      42.732  22.949  25.680  1.00  0.00     0.010 A 
ATOM     39  C   UNL A   1      42.695  22.410  28.037  1.00  0.00     0.010 A 
ATOM     40  C   UNL A   1      42.914  23.344  27.015  1.00  0.00    -0.014 A 
BRANCH  40  41
ATOM     41  C   UNL A   1      43.314  24.739  27.333  1.00  0.00     0.031 A 
ATOM     42  C   UNL A   1      44.707  25.229  27.053  1.00  0.00     0.074 A 
ATOM     43  C   UNL A   1      42.408  25.565  27.893  1.00  0.00     0.049 A 
ATOM     44  N   UNL A   1      45.215  26.424  27.231  1.00  0.00    -0.248 NA
ATOM     45  C   UNL A   1      45.665  24.246  26.524  1.00  0.00     0.031 C 
ATOM     46  C   UNL A   1      41.044  25.188  28.267  1.00  0.00     0.029 A 
ATOM     47  N   UNL A   1      42.493  26.889  28.239  1.00  0.00    -0.354 N 
ATOM     48  C   UNL A   1      46.542  26.336  26.836  1.00  0.00     0.074 A 
ATOM     49  C   UNL A   1      46.782  24.957  26.469  1.00  0.00     0.031 C 
ATOM     50  C   UNL A   1      40.408  26.264  28.753  1.00  0.00     0.029 A 
ATOM     51  C   UNL A   1      41.329  27.396  28.761  1.00  0.00     0.049 A 
ATOM     52  H   UNL A   1      43.312  27.425  28.125  1.00  0.00     0.167 HD
ATOM     53  C   UNL A   1      47.470  27.322  26.760  1.00  0.00     0.037 A 
ATOM     54  C   UNL A   1      41.033  28.636  29.194  1.00  0.00     0.037 A 
ATOM     55  C   UNL A   1      47.225  28.695  27.123  1.00  0.00     0.049 A 
ATOM     56  C   UNL A   1      42.082  29.709  29.103  1.00  0.00     0.074 A 
ATOM     57  C   UNL A   1      48.082  29.778  27.038  1.00  0.00     0.029 A 
ATOM     58  N   UNL A   1      46.032  29.173  27.649  1.00  0.00    -0.354 N 
ATOM     59  N   UNL A   1      43.311  29.632  28.651  1.00  0.00    -0.248 NA
ATOM     60  C   UNL A   1      41.698  31.047  29.570  1.00  0.00     0.031 C 
ATOM     61  C   UNL A   1      47.428  30.898  27.563  1.00  0.00     0.029 A 
ATOM     62  C   UNL A   1      46.141  30.529  27.919  1.00  0.00     0.049 A 
ATOM     63  H   UNL A   1      45.228  28.628  27.808  1.00  0.00     0.167 HD
ATOM     64  C   UNL A   1      43.840  30.911  28.763  1.00  0.00     0.074 A 
ATOM     65  C   UNL A   1      42.786  31.751  29.292  1.00  0.00     0.031 C 
ATOM     66  C   UNL A   1      45.087  31.349  28.458  1.00  0.00     0.037 A 
BRANCH  53  67
ATOM     67  C   UNL A   1      48.840  26.952  26.262  1.00  0.00     0.064 A 
ATOM     68  C   UNL A   1      49.177  27.038  24.902  1.00  0.00     0.173 A 
ATOM     69  C   UNL A   1      49.842  26.547  27.157  1.00  0.00     0.173 A 
ATOM     70  F   UNL A   1      48.255  27.411  24.000  1.00  0.00    -0.203 F 
ATOM     71  C   UNL A   1      50.453  26.704  24.454  1.00  0.00     0.198 A 
ATOM     72  C   UNL A   1      51.126  26.246  26.711  1.00  0.00     0.198 A 
ATOM     73  F   UNL A   1      49.578  26.453  28.470  1.00  0.00    -0.203 F 
ATOM     74  F   UNL A   1      50.733  26.746  23.145  1.00  0.00    -0.200 F 
ATOM     75  C   UNL A   1      51.429  26.316  25.360  1.00  0.00     0.200 A 
ATOM     76  F   UNL A   1      52.072  25.886  27.590  1.00  0.00    -0.200 F 
ATOM     77  F   UNL A   1      52.659  26.004  24.929  1.00  0.00    -0.200 F 
ENDBRANCH  53  67
BRANCH  54  78
ATOM     78  C   UNL A   1      39.678  28.932  29.729  1.00  0.00     0.064 A 
ATOM     79  C   UNL A   1      38.670  29.449  28.903  1.00  0.00     0.173 A 
ATOM     80  C   UNL A   1      39.363  28.705  31.077  1.00  0.00     0.173 A 
ATOM     81  F   UNL A   1      38.927  29.699  27.610  1.00  0.00    -0.203 F 
ATOM     82  C   UNL A   1      37.408  29.752  29.409  1.00  0.00     0.198 A 
ATOM     83  C   UNL A   1      38.091  28.977  31.575  1.00  0.00     0.198 A 
ATOM     84  F   UNL A   1      40.289  28.203  31.908  1.00  0.00    -0.203 F 
ATOM     85  F   UNL A   1      36.480  30.292  28.610  1.00  0.00    -0.200 F 
ATOM     86  C   UNL A   1      37.118  29.509  30.743  1.00  0.00     0.200 A 
ATOM     87  F   UNL A   1      37.808  28.722  32.860  1.00  0.00    -0.200 F 
ATOM     88  F   UNL A   1      35.902  29.794  31.229  1.00  0.00    -0.200 F 
ENDBRANCH  54  78
BRANCH  66  89
ATOM     89  C   UNL A   1      45.366  32.810  28.680  1.00  0.00     0.064 A 
ATOM     90  C   UNL A   1      45.907  33.282  29.886  1.00  0.00     0.173 A 
ATOM     91  C   UNL A   1      45.092  33.749  27.674  1.00  0.00     0.173 A 
ATOM     92  F   UNL A   1      46.174  32.428  30.887  1.00  0.00    -0.203 F 
ATOM     93  C   UNL A   1      46.118  34.643  30.092  1.00  0.00     0.198 A 
ATOM     94  C   UNL A   1      45.340  35.104  27.869  1.00  0.00     0.198 A 
ATOM     95  F   UNL A   1      44.583  33.352  26.498  1.00  0.00    -0.203 F 
ATOM     96  F   UNL A   1      46.568  35.077  31.278  1.00  0.00    -0.200 F 
ATOM     97  C   UNL A   1      45.840  35.551  29.083  1.00  0.00     0.200 A 
ATOM     98  F   UNL A   1      45.084  35.979  26.888  1.00  0.00    -0.200 F 
ATOM     99  F   UNL A   1      46.041  36.861  29.284  1.00  0.00    -0.200 F 
ENDBRANCH  66  89
ENDBRANCH  40  41
ENDBRANCH  32  35
ENDBRANCH  30  31
ENDBRANCH  29  30
ENDBRANCH   1  29
TORSDOF 13
ENDMDL
MODEL 3
REMARK VINA RESULT:     -13.6      5.205     10.989
REMARK SMILES C[C@H](C(=O)NCCCNC(=O)c1ccc(-c2c3nc(c(-c4c(F)c(F)c(F)c(F)c4F)c4ccc([nH]4)c(-c4c(F)c(F)c(F)c(F)c4F)c4nc(c(-c5c(F)c(F)c(F)c(F)c5F)c5ccc2[nH]5)C=C4)C=C3)cc1)N1C(=O)C[C@@H](N2C(=O)/C(=C/c3ccccc3)SC2=S)C1=O
REMARK SMILES IDX 6 1 5 2 3 3 4 4 2 6 1 7 75 8 76 9 94 10 77 11 78 12 79 13
REMARK SMILES IDX 95 14 80 15 81 16 92 17 82 18 83 19 91 20 93 21 84 22 85 23
REMARK SMILES IDX 86 24 90 25 87 26 89 27 88 28 7 29 8 30 9 31 10 32 11 34
REMARK SMILES IDX 12 35 13 36 74 37 14 38 73 39 15 40 16 41 17 42 67 43 18 44
REMARK SMILES IDX 72 45 66 46 68 47 19 48 71 49 65 50 64 51 20 53 52 54 32 55
REMARK SMILES IDX 51 56 33 57 36 58 50 59 69 60 34 61 35 62 49 64 70 65 37 66
REMARK SMILES IDX 21 67 22 68 30 69 23 70 24 71 28 72 31 73 25 74 26 75 29 76
REMARK SMILES IDX 27 77 53 78 54 79 62 80 55 81 56 82 60 83 63 84 57 85 58 86
REMARK SMILES IDX 61 87 59 88 38 89 39 90 47 91 40 92 41 93 45 94 48 95 42 96
REMARK SMILES IDX 43 97 46 98 44 99
REMARK H PARENT 5 5 9 33 68 52 36 63
REMARK Flexibility Score: inf
ROOT
ATOM      1  C   UNL A   1      36.984  20.315  24.627  1.00  0.00     0.117 C 
ENDROOT
BRANCH   1   2
ATOM      2  N   UNL A   1      37.284  21.652  25.096  1.00  0.00    -0.354 N 
ATOM      3  C   UNL A   1      36.483  22.579  25.706  1.00  0.00     0.243 C 
ATOM      4  O   UNL A   1      37.062  23.555  26.188  1.00  0.00    -0.273 OA
ATOM      5  H   UNL A   1      38.214  21.941  24.952  1.00  0.00     0.163 HD
BRANCH   3   6
ATOM      6  C   UNL A   1      34.975  22.308  25.921  1.00  0.00     0.179 C 
ATOM      7  C   UNL A   1      34.403  23.010  27.160  1.00  0.00     0.042 C 
BRANCH   6   8
ATOM      8  N   UNL A   1      34.187  22.586  24.720  1.00  0.00    -0.268 N 
ATOM      9  C   UNL A   1      33.307  21.697  24.169  1.00  0.00     0.232 C 
ATOM     10  C   UNL A   1      34.145  23.809  24.107  1.00  0.00     0.253 C 
ATOM     11  O   UNL A   1      33.084  20.556  24.544  1.00  0.00    -0.274 OA
ATOM     12  C   UNL A   1      32.703  22.293  22.932  1.00  0.00     0.136 C 
ATOM     13  C   UNL A   1      33.114  23.755  22.995  1.00  0.00     0.191 C 
ATOM     14  O   UNL A   1      34.770  24.811  24.421  1.00  0.00    -0.272 OA
BRANCH  13  15
ATOM     15  N   UNL A   1      32.012  24.690  23.264  1.00  0.00    -0.280 N 
ATOM     16  C   UNL A   1      31.853  25.791  22.439  1.00  0.00     0.266 C 
ATOM     17  C   UNL A   1      31.109  24.572  24.300  1.00  0.00     0.149 C 
ATOM     18  O   UNL A   1      32.523  26.037  21.449  1.00  0.00    -0.268 OA
ATOM     19  C   UNL A   1      30.773  26.670  22.943  1.00  0.00     0.081 C 
ATOM     20  S   UNL A   1      30.012  25.948  24.297  1.00  0.00    -0.054 SA
ATOM     21  S   UNL A   1      31.031  23.382  25.466  1.00  0.00    -0.052 S 
ATOM     22  C   UNL A   1      30.537  27.858  22.372  1.00  0.00     0.029 C 
BRANCH  22  23
ATOM     23  C   UNL A   1      29.573  28.859  22.830  1.00  0.00    -0.024 A 
ATOM     24  C   UNL A   1      28.203  28.597  22.731  1.00  0.00     0.008 A 
ATOM     25  C   UNL A   1      30.003  30.103  23.307  1.00  0.00     0.008 A 
ATOM     26  C   UNL A   1      27.275  29.560  23.130  1.00  0.00     0.001 A 
ATOM     27  C   UNL A   1      29.074  31.063  23.707  1.00  0.00     0.001 A 
ATOM     28  C   UNL A   1      27.711  30.790  23.620  1.00  0.00     0.000 A 
ENDBRANCH  22  23
ENDBRANCH  13  15
ENDBRANCH   6   8
ENDBRANCH   3   6
ENDBRANCH   1   2
BRANCH   1  29
ATOM     29  C   UNL A   1      38.083  19.324  25.001  1.00  0.00     0.042 C 
BRANCH  29  30
ATOM     30  C   UNL A   1      39.206  19.940  25.830  1.00  0.00     0.118 C 
BRANCH  30  31
ATOM     31  N   UNL A   1      40.380  19.086  25.882  1.00  0.00    -0.352 N 
ATOM     32  C   UNL A   1      41.708  19.391  26.018  1.00  0.00     0.251 C 
ATOM     33  H   UNL A   1      40.189  18.123  25.805  1.00  0.00     0.163 HD
ATOM     34  O   UNL A   1      42.544  18.514  25.812  1.00  0.00    -0.269 OA
BRANCH  32  35
ATOM     35  C   UNL A   1      42.156  20.751  26.396  1.00  0.00     0.039 A 
ATOM     36  C   UNL A   1      42.368  21.680  25.374  1.00  0.00     0.014 A 
ATOM     37  C   UNL A   1      42.434  21.102  27.721  1.00  0.00     0.014 A 
ATOM     38  C   UNL A   1      42.816  22.964  25.682  1.00  0.00     0.010 A 
ATOM     39  C   UNL A   1      42.804  22.410  28.035  1.00  0.00     0.010 A 
ATOM     40  C   UNL A   1      43.008  23.352  27.017  1.00  0.00    -0.014 A 
BRANCH  40  41
ATOM     41  C   UNL A   1      43.402  24.747  27.341  1.00  0.00     0.031 A 
ATOM     42  C   UNL A   1      44.800  25.236  27.085  1.00  0.00     0.074 A 
ATOM     43  C   UNL A   1      42.487  25.573  27.884  1.00  0.00     0.049 A 
ATOM     44  N   UNL A   1      45.304  26.432  27.270  1.00  0.00    -0.248 NA
ATOM     45  C   UNL A   1      45.767  24.253  26.574  1.00  0.00     0.031 C 
ATOM     46  C   UNL A   1      41.116  25.196  28.235  1.00  0.00     0.029 A 
ATOM     47  N   UNL A   1      42.565  26.898  28.230  1.00  0.00    -0.354 N 
ATOM     48  C   UNL A   1      46.639  26.344  26.899  1.00  0.00     0.074 A 
ATOM     49  C   UNL A   1      46.885  24.965  26.538  1.00  0.00     0.031 C 
ATOM     50  C   UNL A   1      40.472  26.273  28.708  1.00  0.00     0.029 A 
ATOM     51  C   UNL A   1      41.392  27.405  28.731  1.00  0.00     0.049 A 
ATOM     52  H   UNL A   1      43.386  27.434  28.130  1.00  0.00     0.167 HD
ATOM     53  C   UNL A   1      47.567  27.329  26.838  1.00  0.00     0.037 A 
ATOM     54  C   UNL A   1      41.089  28.646  29.157  1.00  0.00     0.037 A 
ATOM     55  C   UNL A   1      47.316  28.703  27.195  1.00  0.00     0.049 A 
ATOM     56  C   UNL A   1      42.139  29.719  29.083  1.00  0.00     0.074 A 
ATOM     57  C   UNL A   1      48.174  29.786  27.124  1.00  0.00     0.029 A 
ATOM     58  N   UNL A   1      46.113  29.181  27.699  1.00  0.00    -0.354 N 
ATOM     59  N   UNL A   1      43.376  29.641  28.653  1.00  0.00    -0.248 NA
ATOM     60  C   UNL A   1      41.747  31.057  29.543  1.00  0.00     0.031 C 
ATOM     61  C   UNL A   1      47.511  30.906  27.636  1.00  0.00     0.029 A 
ATOM     62  C   UNL A   1      46.218  30.537  27.969  1.00  0.00     0.049 A 
ATOM     63  H   UNL A   1      45.307  28.636  27.845  1.00  0.00     0.167 HD
ATOM     64  C   UNL A   1      43.902  30.920  28.773  1.00  0.00     0.074 A 
ATOM     65  C   UNL A   1      42.839  31.760  29.283  1.00  0.00     0.031 C 
ATOM     66  C   UNL A   1      45.154  31.358  28.490  1.00  0.00     0.037 A 
BRANCH  53  67
ATOM     67  C   UNL A   1      48.946  26.959  26.365  1.00  0.00     0.064 A 
ATOM     68  C   UNL A   1      49.925  26.481  27.251  1.00  0.00     0.173 A 
ATOM     69  C   UNL A   1      49.283  27.043  25.006  1.00  0.00     0.173 A 
ATOM     70  F   UNL A   1      49.660  26.389  28.564  1.00  0.00    -0.203 F 
ATOM     71  C   UNL A   1      51.195  26.130  26.799  1.00  0.00     0.198 A 
ATOM     72  C   UNL A   1      50.542  26.661  24.552  1.00  0.00     0.198 A 
ATOM     73  F   UNL A   1      48.385  27.487  24.113  1.00  0.00    -0.203 F 
ATOM     74  F   UNL A   1      52.126  25.725  27.673  1.00  0.00    -0.200 F 
ATOM     75  C   UNL A   1      51.500  26.213  25.449  1.00  0.00     0.200 A 
ATOM     76  F   UNL A   1      50.831  26.726  23.245  1.00  0.00    -0.200 F 
ATOM     77  F   UNL A   1      52.719  25.865  25.014  1.00  0.00    -0.200 F 
ENDBRANCH  53  67
BRANCH  54  78
ATOM     78  C   UNL A   1      39.724  28.942  29.669  1.00  0.00     0.064 A 
ATOM     79  C   UNL A   1      39.393  28.726  31.014  1.00  0.00     0.173 A 
ATOM     80  C   UNL A   1      38.724  29.444  28.824  1.00  0.00     0.173 A 
ATOM     81  F   UNL A   1      40.311  28.231  31.858  1.00  0.00    -0.203 F 
ATOM     82  C   UNL A   1      38.107  28.977  31.488  1.00  0.00     0.198 A 
ATOM     83  C   UNL A   1      37.448  29.726  29.307  1.00  0.00     0.198 A 
ATOM     84  F   UNL A   1      38.992  29.677  27.530  1.00  0.00    -0.203 F 
ATOM     85  F   UNL A   1      37.804  28.714  32.766  1.00  0.00    -0.200 F 
ATOM     86  C   UNL A   1      37.138  29.483  30.636  1.00  0.00     0.200 A 
ATOM     87  F   UNL A   1      36.520  30.235  28.484  1.00  0.00    -0.200 F 
ATOM     88  F   UNL A   1      35.904  29.731  31.093  1.00  0.00    -0.200 F 
ENDBRANCH  54  78
BRANCH  66  89
ATOM     89  C   UNL A   1      45.429  32.819  28.714  1.00  0.00     0.064 A 
ATOM     90  C   UNL A   1      45.181  33.778  27.718  1.00  0.00     0.173 A 
ATOM     91  C   UNL A   1      45.945  33.268  29.940  1.00  0.00     0.173 A 
ATOM     92  F   UNL A   1      44.702  33.400  26.523  1.00  0.00    -0.203 F 
ATOM     93  C   UNL A   1      45.483  35.120  27.926  1.00  0.00     0.198 A 
ATOM     94  C   UNL A   1      46.209  34.617  30.157  1.00  0.00     0.198 A 
ATOM     95  F   UNL A   1      46.192  32.397  30.929  1.00  0.00    -0.203 F 
ATOM     96  F   UNL A   1      45.305  36.006  26.935  1.00  0.00    -0.200 F 
ATOM     97  C   UNL A   1      45.992  35.540  29.145  1.00  0.00     0.200 A 
ATOM     98  F   UNL A   1      46.687  35.023  31.341  1.00  0.00    -0.200 F 
ATOM     99  F   UNL A   1      46.284  36.833  29.342  1.00  0.00    -0.200 F 
ENDBRANCH  66  89
ENDBRANCH  40  41
ENDBRANCH  32  35
ENDBRANCH  30  31
ENDBRANCH  29  30
ENDBRANCH   1  29
TORSDOF 13
ENDMDL
