MODEL 1
REMARK VINA RESULT:     -10.9      0.000      0.000
REMARK SMILES O=C(COc1ccc(N2C[C@@H](C(=O)NCCCNC(=O)c3ccc(-c4c5nc(c(-c6c(F)c(F)c(F)c(F)c6F)c6ccc([nH]6)c(-c6c(F)c(F)c(F)c(F)c6F)c6nc(c(-c7c(F)c(F)c(F)c(F)c7F)c7ccc4[nH]7)C=C6)C=C5)cc3)CC2=O)cc1)Nc1ccc(Cl)cc1Cl
REMARK SMILES IDX 12 1 13 2 14 3 11 5 9 6 10 7 85 8 84 9 86 10 8 11 5 12 6 13
REMARK SMILES IDX 88 14 7 15 87 16 4 17 3 18 2 19 1 20 89 21 90 23 91 24 96 25
REMARK SMILES IDX 92 26 95 27 97 28 93 29 94 30 15 31 16 32 17 33 18 34 19 35
REMARK SMILES IDX 20 37 21 38 22 39 83 40 23 41 82 42 24 43 25 44 26 45 76 46
REMARK SMILES IDX 27 47 81 48 75 49 77 50 28 51 80 52 74 53 73 54 29 56 61 57
REMARK SMILES IDX 41 58 60 59 42 60 45 61 59 62 78 63 43 64 44 65 58 67 79 68
REMARK SMILES IDX 46 69 30 70 31 71 39 72 32 73 33 74 37 75 40 76 34 77 35 78
REMARK SMILES IDX 38 79 36 80 62 81 63 82 71 83 64 84 65 85 69 86 72 87 66 88
REMARK SMILES IDX 67 89 70 90 68 91 47 92 48 93 56 94 49 95 50 96 54 97 57 98
REMARK SMILES IDX 51 99 52 100 55 101 53 102
REMARK H PARENT 14 4 89 22 18 36 77 55 45 66
REMARK Flexibility Score: inf
ROOT
ATOM      1  C   UNL A   1      33.534  35.037  31.650  1.00  0.00     0.225 C 
ATOM      2  O   UNL A   1      32.485  34.870  32.279  1.00  0.00    -0.275 OA
ATOM      3  N   UNL A   1      33.423  35.243  30.313  1.00  0.00    -0.356 N 
ATOM      4  H   UNL A   1      32.495  35.237  29.986  1.00  0.00     0.163 HD
ENDROOT
BRANCH   1   5
ATOM      5  C   UNL A   1      34.856  35.027  32.385  1.00  0.00     0.107 C 
ATOM      6  N   UNL A   1      36.221  33.347  33.317  1.00  0.00    -0.312 N 
ATOM      7  C   UNL A   1      35.705  33.812  32.055  1.00  0.00     0.139 C 
ATOM      8  C   UNL A   1      35.676  34.032  34.404  1.00  0.00     0.227 C 
ATOM      9  C   UNL A   1      34.743  35.093  33.895  1.00  0.00     0.116 C 
ATOM     10  O   UNL A   1      35.892  33.868  35.598  1.00  0.00    -0.274 OA
BRANCH   6  11
ATOM     11  C   UNL A   1      37.111  32.250  33.416  1.00  0.00     0.044 A 
ATOM     12  C   UNL A   1      38.832  30.025  33.628  1.00  0.00     0.120 A 
ATOM     13  C   UNL A   1      39.212  31.252  34.162  1.00  0.00     0.048 A 
ATOM     14  C   UNL A   1      37.594  29.905  33.007  1.00  0.00     0.048 A 
ATOM     15  C   UNL A   1      38.366  32.367  34.032  1.00  0.00     0.030 A 
ATOM     16  C   UNL A   1      36.744  31.005  32.901  1.00  0.00     0.030 A 
BRANCH  12  17
ATOM     17  O   UNL A   1      39.629  28.931  33.838  1.00  0.00    -0.484 OA
BRANCH  17  18
ATOM     18  C   UNL A   1      41.002  29.278  34.048  1.00  0.00     0.329 C 
BRANCH  18  19
ATOM     19  C   UNL A   1      41.989  28.118  33.868  1.00  0.00     0.262 C 
ATOM     20  O   UNL A   1      42.425  27.827  32.759  1.00  0.00    -0.271 OA
ATOM     21  N   UNL A   1      42.200  27.417  35.051  1.00  0.00    -0.322 N 
ATOM     22  H   UNL A   1      41.866  27.819  35.886  1.00  0.00     0.170 HD
BRANCH  21  23
ATOM     23  C   UNL A   1      42.858  26.167  35.140  1.00  0.00     0.060 A 
ATOM     24  C   UNL A   1      42.012  25.047  35.220  1.00  0.00     0.029 A 
ATOM     25  C   UNL A   1      44.248  25.961  35.108  1.00  0.00     0.066 A 
ATOM     26  C   UNL A   1      42.533  23.752  35.166  1.00  0.00     0.023 A 
ATOM     27  C   UNL A   1      44.766  24.660  35.051  1.00  0.00     0.043 A 
ATOM     28  Cl  UNL A   1      45.401  27.231  35.335  1.00  0.00    -0.082 Cl
ATOM     29  C   UNL A   1      43.907  23.566  35.061  1.00  0.00     0.042 A 
ATOM     30  Cl  UNL A   1      44.547  21.972  34.972  1.00  0.00    -0.084 Cl
ENDBRANCH  21  23
ENDBRANCH  18  19
ENDBRANCH  17  18
ENDBRANCH  12  17
ENDBRANCH   6  11
ENDBRANCH   1   5
BRANCH   3  31
ATOM     31  C   UNL A   1      34.412  35.472  29.271  1.00  0.00     0.117 C 
BRANCH  31  32
ATOM     32  C   UNL A   1      34.295  34.464  28.131  1.00  0.00     0.042 C 
BRANCH  32  33
ATOM     33  C   UNL A   1      34.884  33.090  28.440  1.00  0.00     0.118 C 
BRANCH  33  34
ATOM     34  N   UNL A   1      34.041  31.994  27.985  1.00  0.00    -0.352 N 
ATOM     35  C   UNL A   1      34.353  30.679  27.730  1.00  0.00     0.251 C 
ATOM     36  H   UNL A   1      33.096  32.231  27.836  1.00  0.00     0.163 HD
ATOM     37  O   UNL A   1      33.526  29.952  27.189  1.00  0.00    -0.269 OA
BRANCH  35  38
ATOM     38  C   UNL A   1      35.686  30.142  28.076  1.00  0.00     0.039 A 
ATOM     39  C   UNL A   1      36.714  30.228  27.133  1.00  0.00     0.014 A 
ATOM     40  C   UNL A   1      35.927  29.550  29.318  1.00  0.00     0.014 A 
ATOM     41  C   UNL A   1      38.002  29.804  27.468  1.00  0.00     0.010 A 
ATOM     42  C   UNL A   1      37.225  29.203  29.679  1.00  0.00     0.010 A 
ATOM     43  C   UNL A   1      38.279  29.336  28.763  1.00  0.00    -0.014 A 
BRANCH  43  44
ATOM     44  C   UNL A   1      39.666  29.014  29.192  1.00  0.00     0.031 A 
ATOM     45  C   UNL A   1      40.464  30.005  29.992  1.00  0.00     0.074 A 
ATOM     46  C   UNL A   1      40.234  27.861  28.785  1.00  0.00     0.049 A 
ATOM     47  N   UNL A   1      41.718  29.950  30.364  1.00  0.00    -0.248 NA
ATOM     48  C   UNL A   1      39.768  31.232  30.407  1.00  0.00     0.031 C 
ATOM     49  C   UNL A   1      39.577  26.835  27.974  1.00  0.00     0.029 A 
ATOM     50  N   UNL A   1      41.499  27.366  28.984  1.00  0.00    -0.354 N 
ATOM     51  C   UNL A   1      41.962  31.136  31.044  1.00  0.00     0.074 A 
ATOM     52  C   UNL A   1      40.743  31.914  30.988  1.00  0.00     0.031 C 
ATOM     53  C   UNL A   1      40.436  25.827  27.759  1.00  0.00     0.029 A 
ATOM     54  C   UNL A   1      41.719  26.156  28.371  1.00  0.00     0.049 A 
ATOM     55  H   UNL A   1      42.184  27.833  29.514  1.00  0.00     0.167 HD
ATOM     56  C   UNL A   1      43.095  31.529  31.675  1.00  0.00     0.037 A 
ATOM     57  C   UNL A   1      42.834  25.403  28.294  1.00  0.00     0.037 A 
ATOM     58  C   UNL A   1      44.300  30.744  31.740  1.00  0.00     0.049 A 
ATOM     59  C   UNL A   1      44.091  25.884  28.968  1.00  0.00     0.074 A 
ATOM     60  C   UNL A   1      45.480  31.028  32.405  1.00  0.00     0.029 A 
ATOM     61  N   UNL A   1      44.484  29.523  31.107  1.00  0.00    -0.354 N 
ATOM     62  N   UNL A   1      44.289  26.974  29.669  1.00  0.00    -0.248 NA
ATOM     63  C   UNL A   1      45.280  25.030  28.840  1.00  0.00     0.031 C 
ATOM     64  C   UNL A   1      46.397  30.011  32.125  1.00  0.00     0.029 A 
ATOM     65  C   UNL A   1      45.770  29.060  31.337  1.00  0.00     0.049 A 
ATOM     66  H   UNL A   1      43.801  29.054  30.573  1.00  0.00     0.167 HD
ATOM     67  C   UNL A   1      45.613  26.924  30.086  1.00  0.00     0.074 A 
ATOM     68  C   UNL A   1      46.166  25.688  29.575  1.00  0.00     0.031 C 
ATOM     69  C   UNL A   1      46.307  27.824  30.825  1.00  0.00     0.037 A 
BRANCH  56  70
ATOM     70  C   UNL A   1      43.089  32.872  32.347  1.00  0.00     0.064 A 
ATOM     71  C   UNL A   1      43.339  34.056  31.633  1.00  0.00     0.173 A 
ATOM     72  C   UNL A   1      42.785  32.985  33.712  1.00  0.00     0.173 A 
ATOM     73  F   UNL A   1      43.642  34.006  30.328  1.00  0.00    -0.203 F 
ATOM     74  C   UNL A   1      43.314  35.295  32.267  1.00  0.00     0.198 A 
ATOM     75  C   UNL A   1      42.728  34.228  34.336  1.00  0.00     0.198 A 
ATOM     76  F   UNL A   1      42.530  31.887  34.441  1.00  0.00    -0.203 F 
ATOM     77  F   UNL A   1      43.606  36.406  31.577  1.00  0.00    -0.200 F 
ATOM     78  C   UNL A   1      43.001  35.381  33.616  1.00  0.00     0.200 A 
ATOM     79  F   UNL A   1      42.410  34.311  35.635  1.00  0.00    -0.200 F 
ATOM     80  F   UNL A   1      42.968  36.576  34.223  1.00  0.00    -0.200 F 
ENDBRANCH  56  70
BRANCH  57  81
ATOM     81  C   UNL A   1      42.813  24.115  27.551  1.00  0.00     0.064 A 
ATOM     82  C   UNL A   1      43.099  24.069  26.180  1.00  0.00     0.173 A 
ATOM     83  C   UNL A   1      42.499  22.906  28.192  1.00  0.00     0.173 A 
ATOM     84  F   UNL A   1      43.383  25.200  25.518  1.00  0.00    -0.203 F 
ATOM     85  C   UNL A   1      43.049  22.870  25.472  1.00  0.00     0.198 A 
ATOM     86  C   UNL A   1      42.481  21.703  27.490  1.00  0.00     0.198 A 
ATOM     87  F   UNL A   1      42.219  22.893  29.503  1.00  0.00    -0.203 F 
ATOM     88  F   UNL A   1      43.276  22.864  24.152  1.00  0.00    -0.200 F 
ATOM     89  C   UNL A   1      42.746  21.687  26.130  1.00  0.00     0.200 A 
ATOM     90  F   UNL A   1      42.203  20.560  28.132  1.00  0.00    -0.200 F 
ATOM     91  F   UNL A   1      42.702  20.533  25.449  1.00  0.00    -0.200 F 
ENDBRANCH  57  81
BRANCH  69  92
ATOM     92  C   UNL A   1      47.736  27.496  31.153  1.00  0.00     0.064 A 
ATOM     93  C   UNL A   1      48.803  28.059  30.439  1.00  0.00     0.173 A 
ATOM     94  C   UNL A   1      48.039  26.651  32.233  1.00  0.00     0.173 A 
ATOM     95  F   UNL A   1      48.566  28.860  29.390  1.00  0.00    -0.203 F 
ATOM     96  C   UNL A   1      50.122  27.774  30.782  1.00  0.00     0.198 A 
ATOM     97  C   UNL A   1      49.360  26.394  32.592  1.00  0.00     0.198 A 
ATOM     98  F   UNL A   1      47.055  26.091  32.952  1.00  0.00    -0.203 F 
ATOM     99  F   UNL A   1      51.126  28.289  30.059  1.00  0.00    -0.200 F 
ATOM    100  C   UNL A   1      50.400  26.951  31.864  1.00  0.00     0.200 A 
ATOM    101  F   UNL A   1      49.625  25.612  33.648  1.00  0.00    -0.200 F 
ATOM    102  F   UNL A   1      51.670  26.691  32.202  1.00  0.00    -0.200 F 
ENDBRANCH  69  92
ENDBRANCH  43  44
ENDBRANCH  35  38
ENDBRANCH  33  34
ENDBRANCH  32  33
ENDBRANCH  31  32
ENDBRANCH   3  31
TORSDOF 15
ENDMDL
MODEL 2
REMARK VINA RESULT:     -10.7      0.976      1.921
REMARK SMILES O=C(COc1ccc(N2C[C@@H](C(=O)NCCCNC(=O)c3ccc(-c4c5nc(c(-c6c(F)c(F)c(F)c(F)c6F)c6ccc([nH]6)c(-c6c(F)c(F)c(F)c(F)c6F)c6nc(c(-c7c(F)c(F)c(F)c(F)c7F)c7ccc4[nH]7)C=C6)C=C5)cc3)CC2=O)cc1)Nc1ccc(Cl)cc1Cl
REMARK SMILES IDX 12 1 13 2 14 3 11 5 9 6 10 7 85 8 84 9 86 10 8 11 5 12 6 13
REMARK SMILES IDX 88 14 7 15 87 16 4 17 3 18 2 19 1 20 89 21 90 23 91 24 96 25
REMARK SMILES IDX 92 26 95 27 97 28 93 29 94 30 15 31 16 32 17 33 18 34 19 35
REMARK SMILES IDX 20 37 21 38 22 39 83 40 23 41 82 42 24 43 25 44 26 45 76 46
REMARK SMILES IDX 27 47 81 48 75 49 77 50 28 51 80 52 74 53 73 54 29 56 61 57
REMARK SMILES IDX 41 58 60 59 42 60 45 61 59 62 78 63 43 64 44 65 58 67 79 68
REMARK SMILES IDX 46 69 30 70 31 71 39 72 32 73 33 74 37 75 40 76 34 77 35 78
REMARK SMILES IDX 38 79 36 80 62 81 63 82 71 83 64 84 65 85 69 86 72 87 66 88
REMARK SMILES IDX 67 89 70 90 68 91 47 92 48 93 56 94 49 95 50 96 54 97 57 98
REMARK SMILES IDX 51 99 52 100 55 101 53 102
REMARK H PARENT 14 4 89 22 18 36 77 55 45 66
REMARK Flexibility Score: inf
ROOT
ATOM      1  C   UNL A   1      34.056  33.792  32.662  1.00  0.00     0.225 C 
ATOM      2  O   UNL A   1      33.215  33.278  33.403  1.00  0.00    -0.275 OA
ATOM      3  N   UNL A   1      33.612  34.296  31.483  1.00  0.00    -0.356 N 
ATOM      4  H   UNL A   1      32.643  34.194  31.347  1.00  0.00     0.163 HD
ENDROOT
BRANCH   1   5
ATOM      5  C   UNL A   1      35.503  33.853  33.101  1.00  0.00     0.107 C 
ATOM      6  N   UNL A   1      37.133  32.247  33.664  1.00  0.00    -0.312 N 
ATOM      7  C   UNL A   1      36.334  32.706  32.556  1.00  0.00     0.139 C 
ATOM      8  C   UNL A   1      36.790  32.869  34.865  1.00  0.00     0.227 C 
ATOM      9  C   UNL A   1      35.708  33.876  34.604  1.00  0.00     0.116 C 
ATOM     10  O   UNL A   1      37.264  32.691  35.981  1.00  0.00    -0.274 OA
BRANCH   6  11
ATOM     11  C   UNL A   1      38.089  31.209  33.533  1.00  0.00     0.044 A 
ATOM     12  C   UNL A   1      39.944  29.100  33.290  1.00  0.00     0.120 A 
ATOM     13  C   UNL A   1      40.324  30.293  33.896  1.00  0.00     0.048 A 
ATOM     14  C   UNL A   1      38.643  28.954  32.824  1.00  0.00     0.048 A 
ATOM     15  C   UNL A   1      39.407  31.354  33.991  1.00  0.00     0.030 A 
ATOM     16  C   UNL A   1      37.727  29.997  32.944  1.00  0.00     0.030 A 
BRANCH  12  17
ATOM     17  O   UNL A   1      40.823  28.048  33.282  1.00  0.00    -0.484 OA
BRANCH  17  18
ATOM     18  C   UNL A   1      41.513  27.893  34.527  1.00  0.00     0.329 C 
BRANCH  18  19
ATOM     19  C   UNL A   1      41.905  26.449  34.864  1.00  0.00     0.262 C 
ATOM     20  O   UNL A   1      41.210  25.765  35.609  1.00  0.00    -0.271 OA
ATOM     21  N   UNL A   1      43.145  26.103  34.338  1.00  0.00    -0.322 N 
ATOM     22  H   UNL A   1      43.547  26.712  33.677  1.00  0.00     0.170 HD
BRANCH  21  23
ATOM     23  C   UNL A   1      43.869  24.938  34.684  1.00  0.00     0.060 A 
ATOM     24  C   UNL A   1      44.185  24.810  36.048  1.00  0.00     0.029 A 
ATOM     25  C   UNL A   1      44.246  23.907  33.805  1.00  0.00     0.066 A 
ATOM     26  C   UNL A   1      44.769  23.639  36.541  1.00  0.00     0.023 A 
ATOM     27  C   UNL A   1      44.828  22.733  34.304  1.00  0.00     0.043 A 
ATOM     28  Cl  UNL A   1      44.216  24.069  32.083  1.00  0.00    -0.082 Cl
ATOM     29  C   UNL A   1      45.068  22.599  35.668  1.00  0.00     0.042 A 
ATOM     30  Cl  UNL A   1      45.766  21.150  36.278  1.00  0.00    -0.084 Cl
ENDBRANCH  21  23
ENDBRANCH  18  19
ENDBRANCH  17  18
ENDBRANCH  12  17
ENDBRANCH   6  11
ENDBRANCH   1   5
BRANCH   3  31
ATOM     31  C   UNL A   1      34.292  34.960  30.382  1.00  0.00     0.117 C 
BRANCH  31  32
ATOM     32  C   UNL A   1      34.325  34.101  29.120  1.00  0.00     0.042 C 
BRANCH  32  33
ATOM     33  C   UNL A   1      34.675  32.635  29.363  1.00  0.00     0.118 C 
BRANCH  33  34
ATOM     34  N   UNL A   1      33.993  31.728  28.452  1.00  0.00    -0.352 N 
ATOM     35  C   UNL A   1      34.460  30.621  27.784  1.00  0.00     0.251 C 
ATOM     36  H   UNL A   1      33.045  31.942  28.287  1.00  0.00     0.163 HD
ATOM     37  O   UNL A   1      33.763  30.089  26.926  1.00  0.00    -0.269 OA
BRANCH  35  38
ATOM     38  C   UNL A   1      35.807  30.082  28.072  1.00  0.00     0.039 A 
ATOM     39  C   UNL A   1      36.821  30.259  27.126  1.00  0.00     0.014 A 
ATOM     40  C   UNL A   1      36.073  29.400  29.262  1.00  0.00     0.014 A 
ATOM     41  C   UNL A   1      38.120  29.833  27.412  1.00  0.00     0.010 A 
ATOM     42  C   UNL A   1      37.382  29.049  29.579  1.00  0.00     0.010 A 
ATOM     43  C   UNL A   1      38.422  29.272  28.663  1.00  0.00    -0.014 A 
BRANCH  43  44
ATOM     44  C   UNL A   1      39.819  28.943  29.050  1.00  0.00     0.031 A 
ATOM     45  C   UNL A   1      40.657  29.940  29.798  1.00  0.00     0.074 A 
ATOM     46  C   UNL A   1      40.359  27.774  28.649  1.00  0.00     0.049 A 
ATOM     47  N   UNL A   1      41.923  29.879  30.126  1.00  0.00    -0.248 NA
ATOM     48  C   UNL A   1      39.990  31.184  30.211  1.00  0.00     0.031 C 
ATOM     49  C   UNL A   1      39.662  26.739  27.885  1.00  0.00     0.029 A 
ATOM     50  N   UNL A   1      41.625  27.268  28.814  1.00  0.00    -0.354 N 
ATOM     51  C   UNL A   1      42.205  31.076  30.771  1.00  0.00     0.074 A 
ATOM     52  C   UNL A   1      40.994  31.867  30.741  1.00  0.00     0.031 C 
ATOM     53  C   UNL A   1      40.500  25.715  27.662  1.00  0.00     0.029 A 
ATOM     54  C   UNL A   1      41.808  26.041  28.220  1.00  0.00     0.049 A 
ATOM     55  H   UNL A   1      42.334  27.738  29.308  1.00  0.00     0.167 HD
ATOM     56  C   UNL A   1      43.364  31.469  31.352  1.00  0.00     0.037 A 
ATOM     57  C   UNL A   1      42.911  25.274  28.120  1.00  0.00     0.037 A 
ATOM     58  C   UNL A   1      44.562  30.670  31.391  1.00  0.00     0.049 A 
ATOM     59  C   UNL A   1      44.197  25.754  28.738  1.00  0.00     0.074 A 
ATOM     60  C   UNL A   1      45.768  30.954  32.007  1.00  0.00     0.029 A 
ATOM     61  N   UNL A   1      44.709  29.433  30.779  1.00  0.00    -0.354 N 
ATOM     62  N   UNL A   1      44.433  26.857  29.406  1.00  0.00    -0.248 NA
ATOM     63  C   UNL A   1      45.371  24.883  28.586  1.00  0.00     0.031 C 
ATOM     64  C   UNL A   1      46.663  29.920  31.718  1.00  0.00     0.029 A 
ATOM     65  C   UNL A   1      45.997  28.960  30.974  1.00  0.00     0.049 A 
ATOM     66  H   UNL A   1      44.002  28.962  30.281  1.00  0.00     0.167 HD
ATOM     67  C   UNL A   1      45.770  26.800  29.778  1.00  0.00     0.074 A 
ATOM     68  C   UNL A   1      46.290  25.546  29.274  1.00  0.00     0.031 C 
ATOM     69  C   UNL A   1      46.501  27.707  30.470  1.00  0.00     0.037 A 
BRANCH  56  70
ATOM     70  C   UNL A   1      43.398  32.826  31.993  1.00  0.00     0.064 A 
ATOM     71  C   UNL A   1      43.579  33.995  31.237  1.00  0.00     0.173 A 
ATOM     72  C   UNL A   1      43.202  32.966  33.376  1.00  0.00     0.173 A 
ATOM     73  F   UNL A   1      43.779  33.920  29.913  1.00  0.00    -0.203 F 
ATOM     74  C   UNL A   1      43.592  35.249  31.845  1.00  0.00     0.198 A 
ATOM     75  C   UNL A   1      43.182  34.222  33.975  1.00  0.00     0.198 A 
ATOM     76  F   UNL A   1      43.016  31.883  34.146  1.00  0.00    -0.203 F 
ATOM     77  F   UNL A   1      43.817  36.346  31.110  1.00  0.00    -0.200 F 
ATOM     78  C   UNL A   1      43.386  35.362  33.212  1.00  0.00     0.200 A 
ATOM     79  F   UNL A   1      42.966  34.331  35.293  1.00  0.00    -0.200 F 
ATOM     80  F   UNL A   1      43.389  36.569  33.794  1.00  0.00    -0.200 F 
ENDBRANCH  56  70
BRANCH  57  81
ATOM     81  C   UNL A   1      42.848  23.970  27.408  1.00  0.00     0.064 A 
ATOM     82  C   UNL A   1      42.504  22.794  28.088  1.00  0.00     0.173 A 
ATOM     83  C   UNL A   1      43.138  23.869  26.039  1.00  0.00     0.173 A 
ATOM     84  F   UNL A   1      42.240  22.834  29.402  1.00  0.00    -0.203 F 
ATOM     85  C   UNL A   1      42.476  21.564  27.434  1.00  0.00     0.198 A 
ATOM     86  C   UNL A   1      43.078  22.644  25.378  1.00  0.00     0.198 A 
ATOM     87  F   UNL A   1      43.471  24.964  25.339  1.00  0.00    -0.203 F 
ATOM     88  F   UNL A   1      42.195  20.449  28.121  1.00  0.00    -0.200 F 
ATOM     89  C   UNL A   1      42.757  21.491  26.077  1.00  0.00     0.200 A 
ATOM     90  F   UNL A   1      43.335  22.580  24.065  1.00  0.00    -0.200 F 
ATOM     91  F   UNL A   1      42.726  20.309  25.448  1.00  0.00    -0.200 F 
ENDBRANCH  57  81
BRANCH  69  92
ATOM     92  C   UNL A   1      47.937  27.368  30.755  1.00  0.00     0.064 A 
ATOM     93  C   UNL A   1      48.300  26.561  31.843  1.00  0.00     0.173 A 
ATOM     94  C   UNL A   1      48.954  27.809  29.894  1.00  0.00     0.173 A 
ATOM     95  F   UNL A   1      47.368  26.127  32.704  1.00  0.00    -0.203 F 
ATOM     96  C   UNL A   1      49.632  26.225  32.069  1.00  0.00     0.198 A 
ATOM     97  C   UNL A   1      50.280  27.443  30.105  1.00  0.00     0.198 A 
ATOM     98  F   UNL A   1      48.658  28.578  28.835  1.00  0.00    -0.203 F 
ATOM     99  F   UNL A   1      49.963  25.489  33.139  1.00  0.00    -0.200 F 
ATOM    100  C   UNL A   1      50.619  26.656  31.195  1.00  0.00     0.200 A 
ATOM    101  F   UNL A   1      51.229  27.848  29.250  1.00  0.00    -0.200 F 
ATOM    102  F   UNL A   1      51.899  26.318  31.406  1.00  0.00    -0.200 F 
ENDBRANCH  69  92
ENDBRANCH  43  44
ENDBRANCH  35  38
ENDBRANCH  33  34
ENDBRANCH  32  33
ENDBRANCH  31  32
ENDBRANCH   3  31
TORSDOF 15
ENDMDL
MODEL 3
REMARK VINA RESULT:     -10.4      4.171     10.956
REMARK SMILES O=C(COc1ccc(N2C[C@@H](C(=O)NCCCNC(=O)c3ccc(-c4c5nc(c(-c6c(F)c(F)c(F)c(F)c6F)c6ccc([nH]6)c(-c6c(F)c(F)c(F)c(F)c6F)c6nc(c(-c7c(F)c(F)c(F)c(F)c7F)c7ccc4[nH]7)C=C6)C=C5)cc3)CC2=O)cc1)Nc1ccc(Cl)cc1Cl
REMARK SMILES IDX 12 1 13 2 14 3 11 5 9 6 10 7 85 8 84 9 86 10 8 11 5 12 6 13
REMARK SMILES IDX 88 14 7 15 87 16 4 17 3 18 2 19 1 20 89 21 90 23 91 24 96 25
REMARK SMILES IDX 92 26 95 27 97 28 93 29 94 30 15 31 16 32 17 33 18 34 19 35
REMARK SMILES IDX 20 37 21 38 22 39 83 40 23 41 82 42 24 43 25 44 26 45 76 46
REMARK SMILES IDX 27 47 81 48 75 49 77 50 28 51 80 52 74 53 73 54 29 56 61 57
REMARK SMILES IDX 41 58 60 59 42 60 45 61 59 62 78 63 43 64 44 65 58 67 79 68
REMARK SMILES IDX 46 69 30 70 31 71 39 72 32 73 33 74 37 75 40 76 34 77 35 78
REMARK SMILES IDX 38 79 36 80 62 81 63 82 71 83 64 84 65 85 69 86 72 87 66 88
REMARK SMILES IDX 67 89 70 90 68 91 47 92 48 93 56 94 49 95 50 96 54 97 57 98
REMARK SMILES IDX 51 99 52 100 55 101 53 102
REMARK H PARENT 14 4 89 22 18 36 77 55 45 66
REMARK Flexibility Score: inf
ROOT
ATOM      1  C   UNL A   1      44.414  21.571  24.413  1.00  0.00     0.225 C 
ATOM      2  O   UNL A   1      44.450  21.567  23.180  1.00  0.00    -0.275 OA
ATOM      3  N   UNL A   1      43.638  20.631  25.008  1.00  0.00    -0.356 N 
ATOM      4  H   UNL A   1      43.179  20.035  24.374  1.00  0.00     0.163 HD
ENDROOT
BRANCH   1   5
ATOM      5  C   UNL A   1      45.233  22.584  25.182  1.00  0.00     0.107 C 
ATOM      6  N   UNL A   1      45.227  24.934  25.354  1.00  0.00    -0.312 N 
ATOM      7  C   UNL A   1      44.416  23.778  25.640  1.00  0.00     0.139 C 
ATOM      8  C   UNL A   1      46.381  24.614  24.638  1.00  0.00     0.227 C 
ATOM      9  C   UNL A   1      46.435  23.128  24.434  1.00  0.00     0.116 C 
ATOM     10  O   UNL A   1      47.260  25.363  24.229  1.00  0.00    -0.274 OA
BRANCH   6  11
ATOM     11  C   UNL A   1      44.823  26.249  25.693  1.00  0.00     0.044 A 
ATOM     12  C   UNL A   1      43.989  28.872  26.308  1.00  0.00     0.120 A 
ATOM     13  C   UNL A   1      45.265  28.446  26.663  1.00  0.00     0.048 A 
ATOM     14  C   UNL A   1      43.141  28.000  25.635  1.00  0.00     0.048 A 
ATOM     15  C   UNL A   1      45.670  27.130  26.382  1.00  0.00     0.030 A 
ATOM     16  C   UNL A   1      43.553  26.704  25.332  1.00  0.00     0.030 A 
BRANCH  12  17
ATOM     17  O   UNL A   1      43.643  30.181  26.514  1.00  0.00    -0.484 OA
BRANCH  17  18
ATOM     18  C   UNL A   1      44.628  30.905  27.259  1.00  0.00     0.329 C 
BRANCH  18  19
ATOM     19  C   UNL A   1      44.154  32.260  27.798  1.00  0.00     0.262 C 
ATOM     20  O   UNL A   1      43.371  32.324  28.740  1.00  0.00    -0.271 OA
ATOM     21  N   UNL A   1      44.615  33.324  27.030  1.00  0.00    -0.322 N 
ATOM     22  H   UNL A   1      45.316  33.136  26.364  1.00  0.00     0.170 HD
BRANCH  21  23
ATOM     23  C   UNL A   1      44.148  34.655  27.136  1.00  0.00     0.060 A 
ATOM     24  C   UNL A   1      43.004  34.953  26.376  1.00  0.00     0.029 A 
ATOM     25  C   UNL A   1      44.695  35.661  27.953  1.00  0.00     0.066 A 
ATOM     26  C   UNL A   1      42.360  36.187  26.504  1.00  0.00     0.023 A 
ATOM     27  C   UNL A   1      44.044  36.895  28.082  1.00  0.00     0.043 A 
ATOM     28  Cl  UNL A   1      46.260  35.545  28.681  1.00  0.00    -0.082 Cl
ATOM     29  C   UNL A   1      42.873  37.144  27.373  1.00  0.00     0.042 A 
ATOM     30  Cl  UNL A   1      42.068  38.654  27.548  1.00  0.00    -0.084 Cl
ENDBRANCH  21  23
ENDBRANCH  18  19
ENDBRANCH  17  18
ENDBRANCH  12  17
ENDBRANCH   6  11
ENDBRANCH   1   5
BRANCH   3  31
ATOM     31  C   UNL A   1      43.353  20.333  26.404  1.00  0.00     0.117 C 
BRANCH  31  32
ATOM     32  C   UNL A   1      41.871  20.480  26.736  1.00  0.00     0.042 C 
BRANCH  32  33
ATOM     33  C   UNL A   1      41.319  21.891  26.552  1.00  0.00     0.118 C 
BRANCH  33  34
ATOM     34  N   UNL A   1      39.962  21.907  26.025  1.00  0.00    -0.352 N 
ATOM     35  C   UNL A   1      38.970  22.850  26.155  1.00  0.00     0.251 C 
ATOM     36  H   UNL A   1      39.716  21.118  25.490  1.00  0.00     0.163 HD
ATOM     37  O   UNL A   1      37.833  22.593  25.770  1.00  0.00    -0.269 OA
BRANCH  35  38
ATOM     38  C   UNL A   1      39.253  24.160  26.778  1.00  0.00     0.039 A 
ATOM     39  C   UNL A   1      38.921  24.354  28.122  1.00  0.00     0.014 A 
ATOM     40  C   UNL A   1      39.838  25.197  26.047  1.00  0.00     0.014 A 
ATOM     41  C   UNL A   1      39.255  25.554  28.755  1.00  0.00     0.010 A 
ATOM     42  C   UNL A   1      40.243  26.359  26.698  1.00  0.00     0.010 A 
ATOM     43  C   UNL A   1      39.967  26.546  28.061  1.00  0.00    -0.014 A 
BRANCH  43  44
ATOM     44  C   UNL A   1      40.462  27.769  28.746  1.00  0.00     0.031 A 
ATOM     45  C   UNL A   1      41.872  27.834  29.261  1.00  0.00     0.074 A 
ATOM     46  C   UNL A   1      39.611  28.788  28.978  1.00  0.00     0.049 A 
ATOM     47  N   UNL A   1      42.451  28.766  29.976  1.00  0.00    -0.248 NA
ATOM     48  C   UNL A   1      42.741  26.687  28.955  1.00  0.00     0.031 C 
ATOM     49  C   UNL A   1      38.209  28.830  28.562  1.00  0.00     0.029 A 
ATOM     50  N   UNL A   1      39.797  29.979  29.636  1.00  0.00    -0.354 N 
ATOM     51  C   UNL A   1      43.742  28.313  30.213  1.00  0.00     0.074 A 
ATOM     52  C   UNL A   1      43.847  27.001  29.613  1.00  0.00     0.031 C 
ATOM     53  C   UNL A   1      37.666  29.992  28.958  1.00  0.00     0.029 A 
ATOM     54  C   UNL A   1      38.664  30.754  29.700  1.00  0.00     0.049 A 
ATOM     55  H   UNL A   1      40.658  30.251  30.026  1.00  0.00     0.167 HD
ATOM     56  C   UNL A   1      44.753  28.946  30.856  1.00  0.00     0.037 A 
ATOM     57  C   UNL A   1      38.447  31.938  30.306  1.00  0.00     0.037 A 
ATOM     58  C   UNL A   1      44.647  30.259  31.438  1.00  0.00     0.049 A 
ATOM     59  C   UNL A   1      39.576  32.600  31.050  1.00  0.00     0.074 A 
ATOM     60  C   UNL A   1      45.631  31.009  32.058  1.00  0.00     0.029 A 
ATOM     61  N   UNL A   1      43.483  31.013  31.483  1.00  0.00    -0.354 N 
ATOM     62  N   UNL A   1      40.813  32.194  31.207  1.00  0.00    -0.248 NA
ATOM     63  C   UNL A   1      39.279  33.883  31.703  1.00  0.00     0.031 C 
ATOM     64  C   UNL A   1      45.049  32.189  32.531  1.00  0.00     0.029 A 
ATOM     65  C   UNL A   1      43.717  32.204  32.152  1.00  0.00     0.049 A 
ATOM     66  H   UNL A   1      42.619  30.742  31.096  1.00  0.00     0.167 HD
ATOM     67  C   UNL A   1      41.447  33.181  31.950  1.00  0.00     0.074 A 
ATOM     68  C   UNL A   1      40.463  34.214  32.199  1.00  0.00     0.031 C 
ATOM     69  C   UNL A   1      42.729  33.226  32.389  1.00  0.00     0.037 A 
BRANCH  56  70
ATOM     70  C   UNL A   1      46.067  28.226  30.968  1.00  0.00     0.064 A 
ATOM     71  C   UNL A   1      47.124  28.478  30.079  1.00  0.00     0.173 A 
ATOM     72  C   UNL A   1      46.289  27.306  32.003  1.00  0.00     0.173 A 
ATOM     73  F   UNL A   1      46.964  29.342  29.065  1.00  0.00    -0.203 F 
ATOM     74  C   UNL A   1      48.342  27.814  30.205  1.00  0.00     0.198 A 
ATOM     75  C   UNL A   1      47.518  26.669  32.147  1.00  0.00     0.198 A 
ATOM     76  F   UNL A   1      45.316  27.033  32.887  1.00  0.00    -0.203 F 
ATOM     77  F   UNL A   1      49.318  28.032  29.314  1.00  0.00    -0.200 F 
ATOM     78  C   UNL A   1      48.540  26.916  31.243  1.00  0.00     0.200 A 
ATOM     79  F   UNL A   1      47.714  25.814  33.160  1.00  0.00    -0.200 F 
ATOM     80  F   UNL A   1      49.716  26.284  31.369  1.00  0.00    -0.200 F 
ENDBRANCH  56  70
BRANCH  57  81
ATOM     81  C   UNL A   1      37.106  32.577  30.233  1.00  0.00     0.064 A 
ATOM     82  C   UNL A   1      36.160  32.385  31.250  1.00  0.00     0.173 A 
ATOM     83  C   UNL A   1      36.738  33.384  29.146  1.00  0.00     0.173 A 
ATOM     84  F   UNL A   1      36.456  31.604  32.299  1.00  0.00    -0.203 F 
ATOM     85  C   UNL A   1      34.891  32.954  31.171  1.00  0.00     0.198 A 
ATOM     86  C   UNL A   1      35.480  33.980  29.084  1.00  0.00     0.198 A 
ATOM     87  F   UNL A   1      37.605  33.603  28.147  1.00  0.00    -0.203 F 
ATOM     88  F   UNL A   1      33.989  32.710  32.132  1.00  0.00    -0.200 F 
ATOM     89  C   UNL A   1      34.554  33.756  30.091  1.00  0.00     0.200 A 
ATOM     90  F   UNL A   1      35.164  34.766  28.046  1.00  0.00    -0.200 F 
ATOM     91  F   UNL A   1      33.335  34.306  30.018  1.00  0.00    -0.200 F 
ENDBRANCH  57  81
BRANCH  69  92
ATOM     92  C   UNL A   1      43.155  34.443  33.159  1.00  0.00     0.064 A 
ATOM     93  C   UNL A   1      43.601  35.605  32.511  1.00  0.00     0.173 A 
ATOM     94  C   UNL A   1      43.061  34.466  34.559  1.00  0.00     0.173 A 
ATOM     95  F   UNL A   1      43.723  35.629  31.176  1.00  0.00    -0.203 F 
ATOM     96  C   UNL A   1      43.955  36.738  33.239  1.00  0.00     0.198 A 
ATOM     97  C   UNL A   1      43.386  35.612  35.281  1.00  0.00     0.198 A 
ATOM     98  F   UNL A   1      42.635  33.384  35.227  1.00  0.00    -0.203 F 
ATOM     99  F   UNL A   1      44.419  37.822  32.602  1.00  0.00    -0.200 F 
ATOM    100  C   UNL A   1      43.837  36.745  34.621  1.00  0.00     0.200 A 
ATOM    101  F   UNL A   1      43.255  35.621  36.615  1.00  0.00    -0.200 F 
ATOM    102  F   UNL A   1      44.164  37.841  35.318  1.00  0.00    -0.200 F 
ENDBRANCH  69  92
ENDBRANCH  43  44
ENDBRANCH  35  38
ENDBRANCH  33  34
ENDBRANCH  32  33
ENDBRANCH  31  32
ENDBRANCH   3  31
TORSDOF 15
ENDMDL
