MODEL 1
REMARK VINA RESULT:     -11.6      0.000      0.000
REMARK SMILES COC[C@@H](C)CC(=O)N1[C@@H](C2CC2)SC[C@H]1C(=O)NCCCNC(=O)c1ccc(-c2c3nc(c(-c4c(F)c(F)c(F)c(F)c4F)c4ccc([nH]4)c(-c4c(F)c(F)c(F)c(F)c4F)c4nc(c(-c5c(F)c(F)c(F)c(F)c5F)c5ccc2[nH]5)C=C4)C=C3)cc1
REMARK SMILES IDX 17 1 18 2 19 3 16 5 9 6 10 7 14 8 15 9 7 10 8 11 6 12 4 13
REMARK SMILES IDX 5 14 3 15 2 16 1 17 11 18 12 19 13 20 20 21 21 22 22 23
REMARK SMILES IDX 23 24 24 25 25 27 26 28 27 29 88 30 28 31 87 32 29 33 30 34
REMARK SMILES IDX 31 35 81 36 32 37 86 38 80 39 82 40 33 41 85 42 79 43 78 44
REMARK SMILES IDX 34 46 66 47 46 48 65 49 47 50 50 51 64 52 83 53 48 54 49 55
REMARK SMILES IDX 63 57 84 58 51 59 35 60 36 61 44 62 37 63 38 64 42 65 45 66
REMARK SMILES IDX 39 67 40 68 43 69 41 70 67 71 68 72 76 73 69 74 70 75 74 76
REMARK SMILES IDX 77 77 71 78 72 79 75 80 73 81 52 82 53 83 61 84 54 85 55 86
REMARK SMILES IDX 59 87 62 88 56 89 57 90 60 91 58 92
REMARK H PARENT 19 4 23 26 82 45 50 56
REMARK Flexibility Score: inf
ROOT
ATOM      1  C   UNL A   1      33.445  28.992  26.516  1.00  0.00     0.243 C 
ATOM      2  O   UNL A   1      34.523  28.847  27.105  1.00  0.00    -0.273 OA
ATOM      3  N   UNL A   1      32.707  30.087  26.850  1.00  0.00    -0.354 N 
ATOM      4  H   UNL A   1      32.943  30.513  27.706  1.00  0.00     0.163 HD
ENDROOT
BRANCH   1   5
ATOM      5  C   UNL A   1      33.093  28.083  25.318  1.00  0.00     0.185 C 
ATOM      6  N   UNL A   1      31.677  27.784  25.047  1.00  0.00    -0.318 N 
ATOM      7  C   UNL A   1      31.278  27.869  23.646  1.00  0.00     0.147 C 
ATOM      8  S   UNL A   1      32.783  28.008  22.679  1.00  0.00    -0.134 SA
ATOM      9  C   UNL A   1      33.762  28.633  24.060  1.00  0.00     0.107 C 
BRANCH   6  10
ATOM     10  C   UNL A   1      31.014  27.054  26.021  1.00  0.00     0.224 C 
ATOM     11  O   UNL A   1      31.203  27.279  27.217  1.00  0.00    -0.275 OA
BRANCH  10  12
ATOM     12  C   UNL A   1      30.224  25.819  25.599  1.00  0.00     0.106 C 
BRANCH  12  13
ATOM     13  C   UNL A   1      31.042  24.563  25.265  1.00  0.00     0.021 C 
ATOM     14  C   UNL A   1      30.754  24.133  23.819  1.00  0.00     0.010 C 
BRANCH  13  15
ATOM     15  C   UNL A   1      30.726  23.420  26.236  1.00  0.00     0.163 C 
BRANCH  15  16
ATOM     16  O   UNL A   1      31.456  23.558  27.448  1.00  0.00    -0.384 OA
ATOM     17  C   UNL A   1      32.625  22.751  27.508  1.00  0.00     0.194 C 
ENDBRANCH  15  16
ENDBRANCH  13  15
ENDBRANCH  12  13
ENDBRANCH  10  12
ENDBRANCH   6  10
BRANCH   7  18
ATOM     18  C   UNL A   1      30.281  28.993  23.485  1.00  0.00     0.022 C 
ATOM     19  C   UNL A   1      29.750  29.550  22.174  1.00  0.00     0.007 C 
ATOM     20  C   UNL A   1      28.845  28.757  23.070  1.00  0.00     0.007 C 
ENDBRANCH   7  18
ENDBRANCH   1   5
BRANCH   3  21
ATOM     21  C   UNL A   1      31.629  30.708  26.123  1.00  0.00     0.117 C 
BRANCH  21  22
ATOM     22  C   UNL A   1      31.402  32.161  26.505  1.00  0.00     0.042 C 
BRANCH  22  23
ATOM     23  C   UNL A   1      32.574  32.771  27.254  1.00  0.00     0.118 C 
BRANCH  23  24
ATOM     24  N   UNL A   1      32.339  34.158  27.654  1.00  0.00    -0.352 N 
ATOM     25  C   UNL A   1      32.957  34.955  28.585  1.00  0.00     0.251 C 
ATOM     26  H   UNL A   1      31.606  34.600  27.167  1.00  0.00     0.163 HD
ATOM     27  O   UNL A   1      32.489  36.069  28.819  1.00  0.00    -0.269 OA
BRANCH  25  28
ATOM     28  C   UNL A   1      34.144  34.487  29.334  1.00  0.00     0.039 A 
ATOM     29  C   UNL A   1      33.964  33.923  30.602  1.00  0.00     0.014 A 
ATOM     30  C   UNL A   1      35.430  34.601  28.810  1.00  0.00     0.014 A 
ATOM     31  C   UNL A   1      35.059  33.403  31.296  1.00  0.00     0.010 A 
ATOM     32  C   UNL A   1      36.495  33.970  29.439  1.00  0.00     0.010 A 
ATOM     33  C   UNL A   1      36.327  33.374  30.696  1.00  0.00    -0.014 A 
BRANCH  33  34
ATOM     34  C   UNL A   1      37.499  32.748  31.358  1.00  0.00     0.031 A 
ATOM     35  C   UNL A   1      38.191  31.580  30.705  1.00  0.00     0.074 A 
ATOM     36  C   UNL A   1      37.875  33.160  32.585  1.00  0.00     0.049 A 
ATOM     37  N   UNL A   1      39.138  30.807  31.177  1.00  0.00    -0.248 NA
ATOM     38  C   UNL A   1      37.726  31.198  29.361  1.00  0.00     0.031 C 
ATOM     39  C   UNL A   1      37.240  34.237  33.349  1.00  0.00     0.029 A 
ATOM     40  N   UNL A   1      38.869  32.708  33.417  1.00  0.00    -0.354 N 
ATOM     41  C   UNL A   1      39.352  29.838  30.205  1.00  0.00     0.074 A 
ATOM     42  C   UNL A   1      38.400  30.080  29.145  1.00  0.00     0.031 C 
ATOM     43  C   UNL A   1      37.872  34.375  34.524  1.00  0.00     0.029 A 
ATOM     44  C   UNL A   1      38.921  33.367  34.621  1.00  0.00     0.049 A 
ATOM     45  H   UNL A   1      39.485  31.980  33.174  1.00  0.00     0.167 HD
ATOM     46  C   UNL A   1      40.277  28.849  30.189  1.00  0.00     0.037 A 
ATOM     47  C   UNL A   1      39.716  33.167  35.690  1.00  0.00     0.037 A 
ATOM     48  C   UNL A   1      41.252  28.646  31.226  1.00  0.00     0.049 A 
ATOM     49  C   UNL A   1      40.754  32.079  35.633  1.00  0.00     0.074 A 
ATOM     50  C   UNL A   1      42.292  27.735  31.264  1.00  0.00     0.029 A 
ATOM     51  N   UNL A   1      41.308  29.368  32.410  1.00  0.00    -0.354 N 
ATOM     52  N   UNL A   1      41.004  31.222  34.673  1.00  0.00    -0.248 NA
ATOM     53  C   UNL A   1      41.626  31.932  36.807  1.00  0.00     0.031 C 
ATOM     54  C   UNL A   1      42.940  27.865  32.496  1.00  0.00     0.029 A 
ATOM     55  C   UNL A   1      42.347  28.903  33.197  1.00  0.00     0.049 A 
ATOM     56  H   UNL A   1      40.699  30.103  32.653  1.00  0.00     0.167 HD
ATOM     57  C   UNL A   1      42.077  30.458  35.111  1.00  0.00     0.074 A 
ATOM     58  C   UNL A   1      42.444  30.966  36.416  1.00  0.00     0.031 C 
ATOM     59  C   UNL A   1      42.705  29.429  34.490  1.00  0.00     0.037 A 
BRANCH  46  60
ATOM     60  C   UNL A   1      40.286  27.912  29.015  1.00  0.00     0.064 A 
ATOM     61  C   UNL A   1      41.034  28.180  27.858  1.00  0.00     0.173 A 
ATOM     62  C   UNL A   1      39.575  26.703  29.068  1.00  0.00     0.173 A 
ATOM     63  F   UNL A   1      41.723  29.327  27.750  1.00  0.00    -0.203 F 
ATOM     64  C   UNL A   1      41.051  27.287  26.790  1.00  0.00     0.198 A 
ATOM     65  C   UNL A   1      39.622  25.796  28.012  1.00  0.00     0.198 A 
ATOM     66  F   UNL A   1      38.846  26.392  30.150  1.00  0.00    -0.203 F 
ATOM     67  F   UNL A   1      41.734  27.589  25.678  1.00  0.00    -0.200 F 
ATOM     68  C   UNL A   1      40.353  26.092  26.871  1.00  0.00     0.200 A 
ATOM     69  F   UNL A   1      38.960  24.634  28.099  1.00  0.00    -0.200 F 
ATOM     70  F   UNL A   1      40.382  25.226  25.849  1.00  0.00    -0.200 F 
ENDBRANCH  46  60
BRANCH  47  71
ATOM     71  C   UNL A   1      39.572  34.022  36.900  1.00  0.00     0.064 A 
ATOM     72  C   UNL A   1      40.213  35.266  36.986  1.00  0.00     0.173 A 
ATOM     73  C   UNL A   1      38.805  33.609  37.999  1.00  0.00     0.173 A 
ATOM     74  F   UNL A   1      40.972  35.700  35.969  1.00  0.00    -0.203 F 
ATOM     75  C   UNL A   1      40.121  36.048  38.136  1.00  0.00     0.198 A 
ATOM     76  C   UNL A   1      38.685  34.407  39.136  1.00  0.00     0.198 A 
ATOM     77  F   UNL A   1      38.164  32.431  37.967  1.00  0.00    -0.203 F 
ATOM     78  F   UNL A   1      40.792  37.205  38.213  1.00  0.00    -0.200 F 
ATOM     79  C   UNL A   1      39.352  35.620  39.207  1.00  0.00     0.200 A 
ATOM     80  F   UNL A   1      37.928  33.998  40.163  1.00  0.00    -0.200 F 
ATOM     81  F   UNL A   1      39.262  36.373  40.313  1.00  0.00    -0.200 F 
ENDBRANCH  47  71
BRANCH  59  82
ATOM     82  C   UNL A   1      43.878  28.812  35.191  1.00  0.00     0.064 A 
ATOM     83  C   UNL A   1      45.186  29.281  34.997  1.00  0.00     0.173 A 
ATOM     84  C   UNL A   1      43.684  27.765  36.106  1.00  0.00     0.173 A 
ATOM     85  F   UNL A   1      45.427  30.270  34.123  1.00  0.00    -0.203 F 
ATOM     86  C   UNL A   1      46.259  28.704  35.672  1.00  0.00     0.198 A 
ATOM     87  C   UNL A   1      44.755  27.216  36.805  1.00  0.00     0.198 A 
ATOM     88  F   UNL A   1      42.453  27.285  36.335  1.00  0.00    -0.203 F 
ATOM     89  F   UNL A   1      47.506  29.133  35.432  1.00  0.00    -0.200 F 
ATOM     90  C   UNL A   1      46.042  27.679  36.581  1.00  0.00     0.200 A 
ATOM     91  F   UNL A   1      44.541  26.238  37.696  1.00  0.00    -0.200 F 
ATOM     92  F   UNL A   1      47.076  27.135  37.237  1.00  0.00    -0.200 F 
ENDBRANCH  59  82
ENDBRANCH  33  34
ENDBRANCH  25  28
ENDBRANCH  23  24
ENDBRANCH  22  23
ENDBRANCH  21  22
ENDBRANCH   3  21
TORSDOF 16
ENDMDL
MODEL 2
REMARK VINA RESULT:     -11.5      2.480      4.337
REMARK SMILES COC[C@@H](C)CC(=O)N1[C@@H](C2CC2)SC[C@H]1C(=O)NCCCNC(=O)c1ccc(-c2c3nc(c(-c4c(F)c(F)c(F)c(F)c4F)c4ccc([nH]4)c(-c4c(F)c(F)c(F)c(F)c4F)c4nc(c(-c5c(F)c(F)c(F)c(F)c5F)c5ccc2[nH]5)C=C4)C=C3)cc1
REMARK SMILES IDX 17 1 18 2 19 3 16 5 9 6 10 7 14 8 15 9 7 10 8 11 6 12 4 13
REMARK SMILES IDX 5 14 3 15 2 16 1 17 11 18 12 19 13 20 20 21 21 22 22 23
REMARK SMILES IDX 23 24 24 25 25 27 26 28 27 29 88 30 28 31 87 32 29 33 30 34
REMARK SMILES IDX 31 35 81 36 32 37 86 38 80 39 82 40 33 41 85 42 79 43 78 44
REMARK SMILES IDX 34 46 66 47 46 48 65 49 47 50 50 51 64 52 83 53 48 54 49 55
REMARK SMILES IDX 63 57 84 58 51 59 35 60 36 61 44 62 37 63 38 64 42 65 45 66
REMARK SMILES IDX 39 67 40 68 43 69 41 70 67 71 68 72 76 73 69 74 70 75 74 76
REMARK SMILES IDX 77 77 71 78 72 79 75 80 73 81 52 82 53 83 61 84 54 85 55 86
REMARK SMILES IDX 59 87 62 88 56 89 57 90 60 91 58 92
REMARK H PARENT 19 4 23 26 82 45 50 56
REMARK Flexibility Score: inf
ROOT
ATOM      1  C   UNL A   1      31.600  24.269  26.350  1.00  0.00     0.243 C 
ATOM      2  O   UNL A   1      31.372  23.548  27.328  1.00  0.00    -0.273 OA
ATOM      3  N   UNL A   1      31.275  25.586  26.469  1.00  0.00    -0.354 N 
ATOM      4  H   UNL A   1      30.643  25.803  27.193  1.00  0.00     0.163 HD
ENDROOT
BRANCH   1   5
ATOM      5  C   UNL A   1      32.415  23.716  25.160  1.00  0.00     0.185 C 
ATOM      6  N   UNL A   1      33.227  22.503  25.360  1.00  0.00    -0.318 N 
ATOM      7  C   UNL A   1      33.135  21.509  24.295  1.00  0.00     0.147 C 
ATOM      8  S   UNL A   1      32.279  22.286  22.924  1.00  0.00    -0.134 SA
ATOM      9  C   UNL A   1      31.489  23.533  23.961  1.00  0.00     0.107 C 
BRANCH   6  10
ATOM     10  C   UNL A   1      34.279  22.617  26.255  1.00  0.00     0.224 C 
ATOM     11  O   UNL A   1      34.220  22.095  27.369  1.00  0.00    -0.275 OA
BRANCH  10  12
ATOM     12  C   UNL A   1      35.412  23.586  25.934  1.00  0.00     0.106 C 
BRANCH  12  13
ATOM     13  C   UNL A   1      36.818  22.981  25.810  1.00  0.00     0.021 C 
ATOM     14  C   UNL A   1      37.869  24.052  26.141  1.00  0.00     0.010 C 
BRANCH  13  15
ATOM     15  C   UNL A   1      37.057  22.414  24.406  1.00  0.00     0.163 C 
BRANCH  15  16
ATOM     16  O   UNL A   1      37.621  21.110  24.467  1.00  0.00    -0.384 OA
ATOM     17  C   UNL A   1      36.723  20.120  24.953  1.00  0.00     0.194 C 
ENDBRANCH  15  16
ENDBRANCH  13  15
ENDBRANCH  12  13
ENDBRANCH  10  12
ENDBRANCH   6  10
BRANCH   7  18
ATOM     18  C   UNL A   1      32.502  20.253  24.847  1.00  0.00     0.022 C 
ATOM     19  C   UNL A   1      32.353  18.924  24.125  1.00  0.00     0.007 C 
ATOM     20  C   UNL A   1      33.314  19.048  25.271  1.00  0.00     0.007 C 
ENDBRANCH   7  18
ENDBRANCH   1   5
BRANCH   3  21
ATOM     21  C   UNL A   1      31.727  26.705  25.682  1.00  0.00     0.117 C 
BRANCH  21  22
ATOM     22  C   UNL A   1      31.896  27.981  26.489  1.00  0.00     0.042 C 
BRANCH  22  23
ATOM     23  C   UNL A   1      32.744  29.025  25.784  1.00  0.00     0.118 C 
BRANCH  23  24
ATOM     24  N   UNL A   1      32.408  30.394  26.173  1.00  0.00    -0.352 N 
ATOM     25  C   UNL A   1      33.042  31.287  27.001  1.00  0.00     0.251 C 
ATOM     26  H   UNL A   1      31.579  30.738  25.768  1.00  0.00     0.163 HD
ATOM     27  O   UNL A   1      32.487  32.354  27.262  1.00  0.00    -0.269 OA
BRANCH  25  28
ATOM     28  C   UNL A   1      34.353  30.976  27.612  1.00  0.00     0.039 A 
ATOM     29  C   UNL A   1      35.285  32.006  27.774  1.00  0.00     0.014 A 
ATOM     30  C   UNL A   1      34.679  29.684  28.022  1.00  0.00     0.014 A 
ATOM     31  C   UNL A   1      36.499  31.755  28.419  1.00  0.00     0.010 A 
ATOM     32  C   UNL A   1      35.824  29.464  28.776  1.00  0.00     0.010 A 
ATOM     33  C   UNL A   1      36.755  30.492  28.973  1.00  0.00    -0.014 A 
BRANCH  33  34
ATOM     34  C   UNL A   1      37.989  30.206  29.748  1.00  0.00     0.031 A 
ATOM     35  C   UNL A   1      39.012  29.245  29.200  1.00  0.00     0.074 A 
ATOM     36  C   UNL A   1      38.141  30.728  30.981  1.00  0.00     0.049 A 
ATOM     37  N   UNL A   1      40.082  28.755  29.774  1.00  0.00    -0.248 NA
ATOM     38  C   UNL A   1      38.776  28.727  27.841  1.00  0.00     0.031 C 
ATOM     39  C   UNL A   1      37.189  31.618  31.648  1.00  0.00     0.029 A 
ATOM     40  N   UNL A   1      39.144  30.568  31.904  1.00  0.00    -0.354 N 
ATOM     41  C   UNL A   1      40.620  27.855  28.863  1.00  0.00     0.074 A 
ATOM     42  C   UNL A   1      39.731  27.818  27.724  1.00  0.00     0.031 C 
ATOM     43  C   UNL A   1      37.662  31.941  32.861  1.00  0.00     0.029 A 
ATOM     44  C   UNL A   1      38.923  31.244  33.080  1.00  0.00     0.049 A 
ATOM     45  H   UNL A   1      39.946  30.021  31.740  1.00  0.00     0.167 HD
ATOM     46  C   UNL A   1      41.766  27.140  28.959  1.00  0.00     0.037 A 
ATOM     47  C   UNL A   1      39.650  31.280  34.214  1.00  0.00     0.037 A 
ATOM     48  C   UNL A   1      42.670  27.221  30.075  1.00  0.00     0.049 A 
ATOM     49  C   UNL A   1      40.934  30.498  34.283  1.00  0.00     0.074 A 
ATOM     50  C   UNL A   1      43.903  26.612  30.231  1.00  0.00     0.029 A 
ATOM     51  N   UNL A   1      42.438  27.958  31.228  1.00  0.00    -0.354 N 
ATOM     52  N   UNL A   1      41.477  29.716  33.381  1.00  0.00    -0.248 NA
ATOM     53  C   UNL A   1      41.712  30.609  35.524  1.00  0.00     0.031 C 
ATOM     54  C   UNL A   1      44.389  26.933  31.501  1.00  0.00     0.029 A 
ATOM     55  C   UNL A   1      43.491  27.796  32.111  1.00  0.00     0.049 A 
ATOM     56  H   UNL A   1      41.641  28.513  31.393  1.00  0.00     0.167 HD
ATOM     57  C   UNL A   1      42.670  29.267  33.931  1.00  0.00     0.074 A 
ATOM     58  C   UNL A   1      42.781  29.880  35.238  1.00  0.00     0.031 C 
ATOM     59  C   UNL A   1      43.591  28.424  33.404  1.00  0.00     0.037 A 
BRANCH  46  60
ATOM     60  C   UNL A   1      42.115  26.213  27.830  1.00  0.00     0.064 A 
ATOM     61  C   UNL A   1      41.479  24.974  27.665  1.00  0.00     0.173 A 
ATOM     62  C   UNL A   1      43.066  26.593  26.870  1.00  0.00     0.173 A 
ATOM     63  F   UNL A   1      40.571  24.556  28.560  1.00  0.00    -0.203 F 
ATOM     64  C   UNL A   1      41.798  24.139  26.597  1.00  0.00     0.198 A 
ATOM     65  C   UNL A   1      43.357  25.771  25.784  1.00  0.00     0.198 A 
ATOM     66  F   UNL A   1      43.703  27.769  26.975  1.00  0.00    -0.203 F 
ATOM     67  F   UNL A   1      41.210  22.940  26.489  1.00  0.00    -0.200 F 
ATOM     68  C   UNL A   1      42.728  24.542  25.652  1.00  0.00     0.200 A 
ATOM     69  F   UNL A   1      44.246  26.170  24.863  1.00  0.00    -0.200 F 
ATOM     70  F   UNL A   1      43.024  23.745  24.617  1.00  0.00    -0.200 F 
ENDBRANCH  46  60
BRANCH  47  71
ATOM     71  C   UNL A   1      39.189  32.094  35.372  1.00  0.00     0.064 A 
ATOM     72  C   UNL A   1      39.527  33.450  35.482  1.00  0.00     0.173 A 
ATOM     73  C   UNL A   1      38.416  31.531  36.398  1.00  0.00     0.173 A 
ATOM     74  F   UNL A   1      40.279  34.032  34.536  1.00  0.00    -0.203 F 
ATOM     75  C   UNL A   1      39.139  34.203  36.588  1.00  0.00     0.198 A 
ATOM     76  C   UNL A   1      37.999  32.294  37.488  1.00  0.00     0.198 A 
ATOM     77  F   UNL A   1      38.058  30.240  36.340  1.00  0.00    -0.203 F 
ATOM     78  F   UNL A   1      39.526  35.481  36.696  1.00  0.00    -0.200 F 
ATOM     79  C   UNL A   1      38.370  33.626  37.587  1.00  0.00     0.200 A 
ATOM     80  F   UNL A   1      37.242  31.737  38.443  1.00  0.00    -0.200 F 
ATOM     81  F   UNL A   1      37.996  34.350  38.651  1.00  0.00    -0.200 F 
ENDBRANCH  47  71
BRANCH  59  82
ATOM     82  C   UNL A   1      44.821  28.148  34.218  1.00  0.00     0.064 A 
ATOM     83  C   UNL A   1      44.916  27.029  35.057  1.00  0.00     0.173 A 
ATOM     84  C   UNL A   1      45.936  28.994  34.120  1.00  0.00     0.173 A 
ATOM     85  F   UNL A   1      43.872  26.197  35.197  1.00  0.00    -0.203 F 
ATOM     86  C   UNL A   1      46.074  26.783  35.791  1.00  0.00     0.198 A 
ATOM     87  C   UNL A   1      47.105  28.725  34.827  1.00  0.00     0.198 A 
ATOM     88  F   UNL A   1      45.901  30.073  33.324  1.00  0.00    -0.203 F 
ATOM     89  F   UNL A   1      46.125  25.737  36.627  1.00  0.00    -0.200 F 
ATOM     90  C   UNL A   1      47.169  27.625  35.669  1.00  0.00     0.200 A 
ATOM     91  F   UNL A   1      48.168  29.529  34.693  1.00  0.00    -0.200 F 
ATOM     92  F   UNL A   1      48.286  27.379  36.367  1.00  0.00    -0.200 F 
ENDBRANCH  59  82
ENDBRANCH  33  34
ENDBRANCH  25  28
ENDBRANCH  23  24
ENDBRANCH  22  23
ENDBRANCH  21  22
ENDBRANCH   3  21
TORSDOF 16
ENDMDL
MODEL 3
REMARK VINA RESULT:     -11.4      6.118     11.258
REMARK SMILES COC[C@@H](C)CC(=O)N1[C@@H](C2CC2)SC[C@H]1C(=O)NCCCNC(=O)c1ccc(-c2c3nc(c(-c4c(F)c(F)c(F)c(F)c4F)c4ccc([nH]4)c(-c4c(F)c(F)c(F)c(F)c4F)c4nc(c(-c5c(F)c(F)c(F)c(F)c5F)c5ccc2[nH]5)C=C4)C=C3)cc1
REMARK SMILES IDX 17 1 18 2 19 3 16 5 9 6 10 7 14 8 15 9 7 10 8 11 6 12 4 13
REMARK SMILES IDX 5 14 3 15 2 16 1 17 11 18 12 19 13 20 20 21 21 22 22 23
REMARK SMILES IDX 23 24 24 25 25 27 26 28 27 29 88 30 28 31 87 32 29 33 30 34
REMARK SMILES IDX 31 35 81 36 32 37 86 38 80 39 82 40 33 41 85 42 79 43 78 44
REMARK SMILES IDX 34 46 66 47 46 48 65 49 47 50 50 51 64 52 83 53 48 54 49 55
REMARK SMILES IDX 63 57 84 58 51 59 35 60 36 61 44 62 37 63 38 64 42 65 45 66
REMARK SMILES IDX 39 67 40 68 43 69 41 70 67 71 68 72 76 73 69 74 70 75 74 76
REMARK SMILES IDX 77 77 71 78 72 79 75 80 73 81 52 82 53 83 61 84 54 85 55 86
REMARK SMILES IDX 59 87 62 88 56 89 57 90 60 91 58 92
REMARK H PARENT 19 4 23 26 82 45 50 56
REMARK Flexibility Score: inf
ROOT
ATOM      1  C   UNL A   1      35.570  22.533  25.301  1.00  0.00     0.243 C 
ATOM      2  O   UNL A   1      35.545  23.513  26.054  1.00  0.00    -0.273 OA
ATOM      3  N   UNL A   1      36.574  21.634  25.498  1.00  0.00    -0.354 N 
ATOM      4  H   UNL A   1      37.342  21.962  26.020  1.00  0.00     0.163 HD
ENDROOT
BRANCH   1   5
ATOM      5  C   UNL A   1      34.385  22.264  24.348  1.00  0.00     0.185 C 
ATOM      6  N   UNL A   1      33.077  21.912  24.927  1.00  0.00    -0.318 N 
ATOM      7  C   UNL A   1      31.929  22.591  24.334  1.00  0.00     0.147 C 
ATOM      8  S   UNL A   1      32.513  23.409  22.848  1.00  0.00    -0.134 SA
ATOM      9  C   UNL A   1      34.233  23.445  23.392  1.00  0.00     0.107 C 
BRANCH   6  10
ATOM     10  C   UNL A   1      33.022  20.711  25.618  1.00  0.00     0.224 C 
ATOM     11  O   UNL A   1      33.642  20.561  26.672  1.00  0.00    -0.275 OA
BRANCH  10  12
ATOM     12  C   UNL A   1      32.374  19.507  24.943  1.00  0.00     0.106 C 
BRANCH  12  13
ATOM     13  C   UNL A   1      33.247  18.725  23.951  1.00  0.00     0.021 C 
ATOM     14  C   UNL A   1      32.403  18.318  22.734  1.00  0.00     0.010 C 
BRANCH  13  15
ATOM     15  C   UNL A   1      33.864  17.487  24.611  1.00  0.00     0.163 C 
BRANCH  15  16
ATOM     16  O   UNL A   1      33.047  16.340  24.419  1.00  0.00    -0.384 OA
ATOM     17  C   UNL A   1      32.623  15.729  25.631  1.00  0.00     0.194 C 
ENDBRANCH  15  16
ENDBRANCH  13  15
ENDBRANCH  12  13
ENDBRANCH  10  12
ENDBRANCH   6  10
BRANCH   7  18
ATOM     18  C   UNL A   1      31.293  23.483  25.375  1.00  0.00     0.022 C 
ATOM     19  C   UNL A   1      30.474  23.030  26.573  1.00  0.00     0.007 C 
ATOM     20  C   UNL A   1      31.840  23.616  26.780  1.00  0.00     0.007 C 
ENDBRANCH   7  18
ENDBRANCH   1   5
BRANCH   3  21
ATOM     21  C   UNL A   1      36.667  20.268  25.048  1.00  0.00     0.117 C 
BRANCH  21  22
ATOM     22  C   UNL A   1      38.080  19.851  24.675  1.00  0.00     0.042 C 
BRANCH  22  23
ATOM     23  C   UNL A   1      39.096  20.146  25.765  1.00  0.00     0.118 C 
BRANCH  23  24
ATOM     24  N   UNL A   1      40.143  19.128  25.862  1.00  0.00    -0.352 N 
ATOM     25  C   UNL A   1      41.488  19.228  26.113  1.00  0.00     0.251 C 
ATOM     26  H   UNL A   1      39.825  18.207  25.723  1.00  0.00     0.163 HD
ATOM     27  O   UNL A   1      42.186  18.218  26.025  1.00  0.00    -0.269 OA
BRANCH  25  28
ATOM     28  C   UNL A   1      42.117  20.525  26.446  1.00  0.00     0.039 A 
ATOM     29  C   UNL A   1      42.570  21.344  25.406  1.00  0.00     0.014 A 
ATOM     30  C   UNL A   1      42.272  20.943  27.766  1.00  0.00     0.014 A 
ATOM     31  C   UNL A   1      43.096  22.606  25.690  1.00  0.00     0.010 A 
ATOM     32  C   UNL A   1      42.671  22.245  28.040  1.00  0.00     0.010 A 
ATOM     33  C   UNL A   1      43.102  23.089  27.007  1.00  0.00    -0.014 A 
BRANCH  33  34
ATOM     34  C   UNL A   1      43.564  24.459  27.344  1.00  0.00     0.031 A 
ATOM     35  C   UNL A   1      42.576  25.481  27.844  1.00  0.00     0.074 A 
ATOM     36  C   UNL A   1      44.842  24.812  27.104  1.00  0.00     0.049 A 
ATOM     37  N   UNL A   1      42.745  26.761  28.063  1.00  0.00    -0.248 NA
ATOM     38  C   UNL A   1      41.202  25.012  28.090  1.00  0.00     0.031 C 
ATOM     39  C   UNL A   1      45.877  23.932  26.557  1.00  0.00     0.029 A 
ATOM     40  N   UNL A   1      45.486  26.013  27.269  1.00  0.00    -0.354 N 
ATOM     41  C   UNL A   1      41.498  27.247  28.433  1.00  0.00     0.074 A 
ATOM     42  C   UNL A   1      40.569  26.143  28.356  1.00  0.00     0.031 C 
ATOM     43  C   UNL A   1      47.027  24.615  26.451  1.00  0.00     0.029 A 
ATOM     44  C   UNL A   1      46.802  25.992  26.874  1.00  0.00     0.049 A 
ATOM     45  H   UNL A   1      45.046  26.815  27.635  1.00  0.00     0.167 HD
ATOM     46  C   UNL A   1      41.163  28.499  28.827  1.00  0.00     0.037 A 
ATOM     47  C   UNL A   1      47.718  26.979  26.839  1.00  0.00     0.037 A 
ATOM     48  C   UNL A   1      42.104  29.580  28.949  1.00  0.00     0.049 A 
ATOM     49  C   UNL A   1      47.326  28.354  27.309  1.00  0.00     0.074 A 
ATOM     50  C   UNL A   1      41.888  30.860  29.427  1.00  0.00     0.029 A 
ATOM     51  N   UNL A   1      43.442  29.506  28.588  1.00  0.00    -0.354 N 
ATOM     52  N   UNL A   1      46.164  28.782  27.739  1.00  0.00    -0.248 NA
ATOM     53  C   UNL A   1      48.374  29.383  27.295  1.00  0.00     0.031 C 
ATOM     54  C   UNL A   1      43.081  31.578  29.301  1.00  0.00     0.029 A 
ATOM     55  C   UNL A   1      44.057  30.727  28.808  1.00  0.00     0.049 A 
ATOM     56  H   UNL A   1      43.888  28.704  28.230  1.00  0.00     0.167 HD
ATOM     57  C   UNL A   1      46.348  30.116  28.076  1.00  0.00     0.074 A 
ATOM     58  C   UNL A   1      47.739  30.422  27.818  1.00  0.00     0.031 C 
ATOM     59  C   UNL A   1      45.447  31.009  28.555  1.00  0.00     0.037 A 
BRANCH  46  60
ATOM     60  C   UNL A   1      39.724  28.772  29.161  1.00  0.00     0.064 A 
ATOM     61  C   UNL A   1      39.215  28.584  30.455  1.00  0.00     0.173 A 
ATOM     62  C   UNL A   1      38.853  29.277  28.183  1.00  0.00     0.173 A 
ATOM     63  F   UNL A   1      40.001  28.092  31.425  1.00  0.00    -0.203 F 
ATOM     64  C   UNL A   1      37.884  28.867  30.751  1.00  0.00     0.198 A 
ATOM     65  C   UNL A   1      37.532  29.591  28.492  1.00  0.00     0.198 A 
ATOM     66  F   UNL A   1      39.287  29.480  26.930  1.00  0.00    -0.203 F 
ATOM     67  F   UNL A   1      37.410  28.633  31.983  1.00  0.00    -0.200 F 
ATOM     68  C   UNL A   1      37.047  29.379  29.773  1.00  0.00     0.200 A 
ATOM     69  F   UNL A   1      36.729  30.102  27.548  1.00  0.00    -0.200 F 
ATOM     70  F   UNL A   1      35.770  29.665  30.063  1.00  0.00    -0.200 F 
ENDBRANCH  46  60
BRANCH  47  71
ATOM     71  C   UNL A   1      49.098  26.702  26.355  1.00  0.00     0.064 A 
ATOM     72  C   UNL A   1      50.078  26.193  27.218  1.00  0.00     0.173 A 
ATOM     73  C   UNL A   1      49.470  26.956  25.027  1.00  0.00     0.173 A 
ATOM     74  F   UNL A   1      49.779  25.950  28.503  1.00  0.00    -0.203 F 
ATOM     75  C   UNL A   1      51.384  25.978  26.781  1.00  0.00     0.198 A 
ATOM     76  C   UNL A   1      50.767  26.708  24.581  1.00  0.00     0.198 A 
ATOM     77  F   UNL A   1      48.570  27.436  24.156  1.00  0.00    -0.203 F 
ATOM     78  F   UNL A   1      52.314  25.546  27.643  1.00  0.00    -0.200 F 
ATOM     79  C   UNL A   1      51.726  26.231  25.462  1.00  0.00     0.200 A 
ATOM     80  F   UNL A   1      51.090  26.938  23.301  1.00  0.00    -0.200 F 
ATOM     81  F   UNL A   1      52.981  26.024  25.041  1.00  0.00    -0.200 F 
ENDBRANCH  47  71
BRANCH  59  82
ATOM     82  C   UNL A   1      45.945  32.388  28.875  1.00  0.00     0.064 A 
ATOM     83  C   UNL A   1      46.488  32.706  30.128  1.00  0.00     0.173 A 
ATOM     84  C   UNL A   1      45.920  33.393  27.895  1.00  0.00     0.173 A 
ATOM     85  F   UNL A   1      46.523  31.785  31.103  1.00  0.00    -0.203 F 
ATOM     86  C   UNL A   1      46.961  33.988  30.397  1.00  0.00     0.198 A 
ATOM     87  C   UNL A   1      46.427  34.663  28.157  1.00  0.00     0.198 A 
ATOM     88  F   UNL A   1      45.420  33.139  26.677  1.00  0.00    -0.203 F 
ATOM     89  F   UNL A   1      47.427  34.285  31.619  1.00  0.00    -0.200 F 
ATOM     90  C   UNL A   1      46.938  34.962  29.410  1.00  0.00     0.200 A 
ATOM     91  F   UNL A   1      46.420  35.596  27.195  1.00  0.00    -0.200 F 
ATOM     92  F   UNL A   1      47.404  36.191  29.669  1.00  0.00    -0.200 F 
ENDBRANCH  59  82
ENDBRANCH  33  34
ENDBRANCH  25  28
ENDBRANCH  23  24
ENDBRANCH  22  23
ENDBRANCH  21  22
ENDBRANCH   3  21
TORSDOF 16
ENDMDL
