MODEL 1
REMARK VINA RESULT:     -14.3      0.000      0.000
REMARK SMILES Cc1ccc(F)cc1-c1ccc(F)cc1C(=O)NCCCNC(=O)c1ccc(-c2c3nc(c(-c4c(F)c(F)c(F)c(F)c4F)c4ccc([nH]4)c(-c4c(F)c(F)c(F)c(F)c4F)c4nc(c(-c5c(F)c(F)c(F)c(F)c5F)c5ccc2[nH]5)C=C4)C=C3)cc1
REMARK SMILES IDX 20 1 19 2 18 3 16 4 17 5 15 7 9 8 10 9 11 10 14 11 12 12
REMARK SMILES IDX 13 13 8 14 1 15 2 16 3 17 4 18 7 19 5 20 6 21 21 22 22 23
REMARK SMILES IDX 23 24 24 26 25 27 26 28 87 29 27 30 86 31 28 32 29 33 30 34
REMARK SMILES IDX 80 35 31 36 85 37 79 38 81 39 32 40 84 41 78 42 77 43 33 45
REMARK SMILES IDX 65 46 45 47 64 48 46 49 49 50 63 51 82 52 47 53 48 54 62 56
REMARK SMILES IDX 83 57 50 58 34 59 35 60 43 61 36 62 37 63 41 64 44 65 38 66
REMARK SMILES IDX 39 67 42 68 40 69 66 70 67 71 75 72 68 73 69 74 73 75 76 76
REMARK SMILES IDX 70 77 71 78 74 79 72 80 51 81 52 82 60 83 53 84 54 85 58 86
REMARK SMILES IDX 61 87 55 88 56 89 59 90 57 91
REMARK H PARENT 18 6 22 25 81 44 49 55
REMARK Flexibility Score: inf
ROOT
ATOM      1  C   UNL A   1      33.125  30.752  27.237  1.00  0.00     0.042 C 
ENDROOT
BRANCH   1   2
ATOM      2  C   UNL A   1      32.462  29.756  26.330  1.00  0.00     0.118 C 
BRANCH   2   3
ATOM      3  N   UNL A   1      31.536  28.797  26.829  1.00  0.00    -0.352 N 
ATOM      4  C   UNL A   1      31.373  27.545  26.269  1.00  0.00     0.252 C 
ATOM      5  O   UNL A   1      30.688  26.722  26.877  1.00  0.00    -0.269 OA
ATOM      6  H   UNL A   1      30.988  29.037  27.610  1.00  0.00     0.163 HD
BRANCH   4   7
ATOM      7  C   UNL A   1      31.873  27.201  24.888  1.00  0.00     0.050 A 
ATOM      8  C   UNL A   1      31.340  27.554  23.610  1.00  0.00    -0.005 A 
ATOM      9  C   UNL A   1      32.036  27.109  22.458  1.00  0.00     0.012 A 
ATOM     10  C   UNL A   1      33.176  26.317  22.541  1.00  0.00     0.040 A 
ATOM     11  C   UNL A   1      33.043  26.413  24.944  1.00  0.00     0.053 A 
ATOM     12  C   UNL A   1      33.668  25.974  23.786  1.00  0.00     0.124 A 
ATOM     13  F   UNL A   1      34.758  25.203  23.873  1.00  0.00    -0.207 F 
BRANCH   8  14
ATOM     14  C   UNL A   1      30.116  28.339  23.322  1.00  0.00    -0.012 A 
ATOM     15  C   UNL A   1      28.530  26.353  23.878  1.00  0.00     0.045 C 
ATOM     16  C   UNL A   1      28.806  27.763  23.401  1.00  0.00    -0.043 A 
ATOM     17  C   UNL A   1      27.671  28.560  23.149  1.00  0.00     0.007 A 
ATOM     18  C   UNL A   1      27.810  29.898  22.797  1.00  0.00     0.039 A 
ATOM     19  C   UNL A   1      30.221  29.698  22.972  1.00  0.00     0.048 A 
ATOM     20  C   UNL A   1      29.079  30.458  22.724  1.00  0.00     0.123 A 
ATOM     21  F   UNL A   1      29.202  31.766  22.472  1.00  0.00    -0.207 F 
ENDBRANCH   8  14
ENDBRANCH   4   7
ENDBRANCH   2   3
ENDBRANCH   1   2
BRANCH   1  22
ATOM     22  C   UNL A   1      34.544  30.365  27.596  1.00  0.00     0.118 C 
BRANCH  22  23
ATOM     23  N   UNL A   1      35.121  30.962  28.821  1.00  0.00    -0.352 N 
ATOM     24  C   UNL A   1      36.286  30.609  29.510  1.00  0.00     0.251 C 
ATOM     25  H   UNL A   1      34.614  31.713  29.205  1.00  0.00     0.163 HD
ATOM     26  O   UNL A   1      36.623  31.109  30.561  1.00  0.00    -0.269 OA
BRANCH  24  27
ATOM     27  C   UNL A   1      37.133  29.606  28.852  1.00  0.00     0.039 A 
ATOM     28  C   UNL A   1      37.839  29.872  27.672  1.00  0.00     0.014 A 
ATOM     29  C   UNL A   1      37.476  28.577  29.698  1.00  0.00     0.014 A 
ATOM     30  C   UNL A   1      39.024  29.171  27.438  1.00  0.00     0.010 A 
ATOM     31  C   UNL A   1      38.786  28.234  29.656  1.00  0.00     0.010 A 
ATOM     32  C   UNL A   1      39.527  28.392  28.480  1.00  0.00    -0.014 A 
BRANCH  32  33
ATOM     33  C   UNL A   1      40.759  27.613  28.510  1.00  0.00     0.031 A 
ATOM     34  C   UNL A   1      40.812  26.173  28.247  1.00  0.00     0.074 A 
ATOM     35  C   UNL A   1      41.883  28.358  28.644  1.00  0.00     0.049 A 
ATOM     36  N   UNL A   1      41.771  25.422  28.661  1.00  0.00    -0.248 NA
ATOM     37  C   UNL A   1      39.796  25.447  27.498  1.00  0.00     0.031 C 
ATOM     38  C   UNL A   1      43.281  28.043  28.435  1.00  0.00     0.029 A 
ATOM     39  N   UNL A   1      41.920  29.688  29.110  1.00  0.00    -0.354 N 
ATOM     40  C   UNL A   1      41.690  24.228  27.980  1.00  0.00     0.074 A 
ATOM     41  C   UNL A   1      40.366  24.237  27.399  1.00  0.00     0.031 C 
ATOM     42  C   UNL A   1      44.021  28.989  29.053  1.00  0.00     0.029 A 
ATOM     43  C   UNL A   1      43.108  29.835  29.817  1.00  0.00     0.049 A 
ATOM     44  H   UNL A   1      41.235  30.379  28.965  1.00  0.00     0.167 HD
ATOM     45  C   UNL A   1      42.827  23.474  27.870  1.00  0.00     0.037 A 
ATOM     46  C   UNL A   1      42.988  29.946  31.173  1.00  0.00     0.037 A 
ATOM     47  C   UNL A   1      43.940  24.133  28.577  1.00  0.00     0.049 A 
ATOM     48  C   UNL A   1      43.579  28.754  31.884  1.00  0.00     0.074 A 
ATOM     49  C   UNL A   1      45.033  24.880  28.169  1.00  0.00     0.029 A 
ATOM     50  N   UNL A   1      43.836  24.343  29.941  1.00  0.00    -0.354 N 
ATOM     51  N   UNL A   1      44.006  27.681  31.281  1.00  0.00    -0.248 NA
ATOM     52  C   UNL A   1      43.649  28.648  33.335  1.00  0.00     0.031 C 
ATOM     53  C   UNL A   1      45.571  25.547  29.315  1.00  0.00     0.029 A 
ATOM     54  C   UNL A   1      44.822  25.184  30.420  1.00  0.00     0.049 A 
ATOM     55  H   UNL A   1      43.138  23.939  30.507  1.00  0.00     0.167 HD
ATOM     56  C   UNL A   1      44.370  26.747  32.202  1.00  0.00     0.074 A 
ATOM     57  C   UNL A   1      44.113  27.395  33.479  1.00  0.00     0.031 C 
ATOM     58  C   UNL A   1      44.824  25.509  31.842  1.00  0.00     0.037 A 
BRANCH  45  59
ATOM     59  C   UNL A   1      43.050  22.282  26.947  1.00  0.00     0.064 A 
ATOM     60  C   UNL A   1      42.297  21.096  27.123  1.00  0.00     0.173 A 
ATOM     61  C   UNL A   1      43.990  22.210  25.900  1.00  0.00     0.173 A 
ATOM     62  F   UNL A   1      41.291  21.028  28.006  1.00  0.00    -0.203 F 
ATOM     63  C   UNL A   1      42.532  19.926  26.389  1.00  0.00     0.198 A 
ATOM     64  C   UNL A   1      44.244  21.032  25.182  1.00  0.00     0.198 A 
ATOM     65  F   UNL A   1      44.670  23.278  25.480  1.00  0.00    -0.203 F 
ATOM     66  F   UNL A   1      41.792  18.835  26.625  1.00  0.00    -0.200 F 
ATOM     67  C   UNL A   1      43.523  19.887  25.434  1.00  0.00     0.200 A 
ATOM     68  F   UNL A   1      45.193  21.027  24.233  1.00  0.00    -0.200 F 
ATOM     69  F   UNL A   1      43.765  18.765  24.745  1.00  0.00    -0.200 F 
ENDBRANCH  45  59
BRANCH  46  70
ATOM     70  C   UNL A   1      41.704  30.637  31.575  1.00  0.00     0.064 A 
ATOM     71  C   UNL A   1      40.668  29.863  32.147  1.00  0.00     0.173 A 
ATOM     72  C   UNL A   1      41.656  32.023  31.804  1.00  0.00     0.173 A 
ATOM     73  F   UNL A   1      40.664  28.530  31.992  1.00  0.00    -0.203 F 
ATOM     74  C   UNL A   1      39.717  30.429  33.001  1.00  0.00     0.198 A 
ATOM     75  C   UNL A   1      40.687  32.586  32.641  1.00  0.00     0.198 A 
ATOM     76  F   UNL A   1      42.607  32.826  31.308  1.00  0.00    -0.203 F 
ATOM     77  F   UNL A   1      38.834  29.641  33.633  1.00  0.00    -0.200 F 
ATOM     78  C   UNL A   1      39.742  31.787  33.265  1.00  0.00     0.200 A 
ATOM     79  F   UNL A   1      40.717  33.901  32.905  1.00  0.00    -0.200 F 
ATOM     80  F   UNL A   1      38.884  32.316  34.149  1.00  0.00    -0.200 F 
ENDBRANCH  46  70
BRANCH  58  81
ATOM     81  C   UNL A   1      45.255  24.475  32.844  1.00  0.00     0.064 A 
ATOM     82  C   UNL A   1      44.428  23.408  33.228  1.00  0.00     0.173 A 
ATOM     83  C   UNL A   1      46.495  24.560  33.516  1.00  0.00     0.173 A 
ATOM     84  F   UNL A   1      43.171  23.309  32.772  1.00  0.00    -0.203 F 
ATOM     85  C   UNL A   1      44.865  22.424  34.114  1.00  0.00     0.198 A 
ATOM     86  C   UNL A   1      46.902  23.611  34.447  1.00  0.00     0.198 A 
ATOM     87  F   UNL A   1      47.369  25.547  33.282  1.00  0.00    -0.203 F 
ATOM     88  F   UNL A   1      44.077  21.373  34.376  1.00  0.00    -0.200 F 
ATOM     89  C   UNL A   1      46.103  22.524  34.721  1.00  0.00     0.200 A 
ATOM     90  F   UNL A   1      48.086  23.754  35.061  1.00  0.00    -0.200 F 
ATOM     91  F   UNL A   1      46.521  21.579  35.573  1.00  0.00    -0.200 F 
ENDBRANCH  58  81
ENDBRANCH  32  33
ENDBRANCH  24  27
ENDBRANCH  22  23
ENDBRANCH   1  22
TORSDOF 11
ENDMDL
MODEL 2
REMARK VINA RESULT:     -14.2      4.463     10.585
REMARK SMILES Cc1ccc(F)cc1-c1ccc(F)cc1C(=O)NCCCNC(=O)c1ccc(-c2c3nc(c(-c4c(F)c(F)c(F)c(F)c4F)c4ccc([nH]4)c(-c4c(F)c(F)c(F)c(F)c4F)c4nc(c(-c5c(F)c(F)c(F)c(F)c5F)c5ccc2[nH]5)C=C4)C=C3)cc1
REMARK SMILES IDX 20 1 19 2 18 3 16 4 17 5 15 7 9 8 10 9 11 10 14 11 12 12
REMARK SMILES IDX 13 13 8 14 1 15 2 16 3 17 4 18 7 19 5 20 6 21 21 22 22 23
REMARK SMILES IDX 23 24 24 26 25 27 26 28 87 29 27 30 86 31 28 32 29 33 30 34
REMARK SMILES IDX 80 35 31 36 85 37 79 38 81 39 32 40 84 41 78 42 77 43 33 45
REMARK SMILES IDX 65 46 45 47 64 48 46 49 49 50 63 51 82 52 47 53 48 54 62 56
REMARK SMILES IDX 83 57 50 58 34 59 35 60 43 61 36 62 37 63 41 64 44 65 38 66
REMARK SMILES IDX 39 67 42 68 40 69 66 70 67 71 75 72 68 73 69 74 73 75 76 76
REMARK SMILES IDX 70 77 71 78 74 79 72 80 51 81 52 82 60 83 53 84 54 85 58 86
REMARK SMILES IDX 61 87 55 88 56 89 59 90 57 91
REMARK H PARENT 18 6 22 25 81 44 49 55
REMARK Flexibility Score: inf
ROOT
ATOM      1  C   UNL A   1      38.540  21.773  25.761  1.00  0.00     0.042 C 
ENDROOT
BRANCH   1   2
ATOM      2  C   UNL A   1      37.118  21.740  25.280  1.00  0.00     0.118 C 
BRANCH   2   3
ATOM      3  N   UNL A   1      36.779  22.073  23.938  1.00  0.00    -0.352 N 
ATOM      4  C   UNL A   1      35.621  22.745  23.598  1.00  0.00     0.252 C 
ATOM      5  O   UNL A   1      35.503  23.149  22.441  1.00  0.00    -0.269 OA
ATOM      6  H   UNL A   1      37.399  21.812  23.220  1.00  0.00     0.163 HD
BRANCH   4   7
ATOM      7  C   UNL A   1      34.448  22.869  24.538  1.00  0.00     0.050 A 
ATOM      8  C   UNL A   1      33.445  21.911  24.879  1.00  0.00    -0.005 A 
ATOM      9  C   UNL A   1      32.459  22.293  25.823  1.00  0.00     0.012 A 
ATOM     10  C   UNL A   1      32.421  23.567  26.380  1.00  0.00     0.040 A 
ATOM     11  C   UNL A   1      34.398  24.149  25.133  1.00  0.00     0.053 A 
ATOM     12  C   UNL A   1      33.390  24.485  26.026  1.00  0.00     0.124 A 
ATOM     13  F   UNL A   1      33.353  25.717  26.549  1.00  0.00    -0.207 F 
BRANCH   8  14
ATOM     14  C   UNL A   1      33.290  20.532  24.355  1.00  0.00    -0.012 A 
ATOM     15  C   UNL A   1      31.758  21.290  22.394  1.00  0.00     0.045 C 
ATOM     16  C   UNL A   1      32.463  20.238  23.222  1.00  0.00    -0.043 A 
ATOM     17  C   UNL A   1      32.374  18.916  22.742  1.00  0.00     0.007 A 
ATOM     18  C   UNL A   1      33.063  17.886  23.374  1.00  0.00     0.039 A 
ATOM     19  C   UNL A   1      33.980  19.469  24.966  1.00  0.00     0.048 A 
ATOM     20  C   UNL A   1      33.866  18.171  24.469  1.00  0.00     0.123 A 
ATOM     21  F   UNL A   1      34.596  17.192  25.018  1.00  0.00    -0.207 F 
ENDBRANCH   8  14
ENDBRANCH   4   7
ENDBRANCH   2   3
ENDBRANCH   1   2
BRANCH   1  22
ATOM     22  C   UNL A   1      38.944  23.129  26.300  1.00  0.00     0.118 C 
BRANCH  22  23
ATOM     23  N   UNL A   1      40.387  23.460  26.292  1.00  0.00    -0.352 N 
ATOM     24  C   UNL A   1      41.021  24.653  26.655  1.00  0.00     0.251 C 
ATOM     25  H   UNL A   1      40.985  22.739  25.988  1.00  0.00     0.163 HD
ATOM     26  O   UNL A   1      42.210  24.849  26.525  1.00  0.00    -0.269 OA
BRANCH  24  27
ATOM     27  C   UNL A   1      40.157  25.669  27.266  1.00  0.00     0.039 A 
ATOM     28  C   UNL A   1      39.539  25.487  28.510  1.00  0.00     0.014 A 
ATOM     29  C   UNL A   1      40.350  26.917  26.718  1.00  0.00     0.014 A 
ATOM     30  C   UNL A   1      39.264  26.616  29.284  1.00  0.00     0.010 A 
ATOM     31  C   UNL A   1      40.455  27.915  27.627  1.00  0.00     0.010 A 
ATOM     32  C   UNL A   1      39.790  27.834  28.855  1.00  0.00    -0.014 A 
BRANCH  32  33
ATOM     33  C   UNL A   1      39.693  29.136  29.503  1.00  0.00     0.031 A 
ATOM     34  C   UNL A   1      38.663  30.126  29.179  1.00  0.00     0.074 A 
ATOM     35  C   UNL A   1      40.539  29.300  30.549  1.00  0.00     0.049 A 
ATOM     36  N   UNL A   1      38.801  31.382  29.420  1.00  0.00    -0.248 NA
ATOM     37  C   UNL A   1      37.388  29.797  28.557  1.00  0.00     0.031 C 
ATOM     38  C   UNL A   1      40.577  30.278  31.617  1.00  0.00     0.029 A 
ATOM     39  N   UNL A   1      41.685  28.516  30.792  1.00  0.00    -0.354 N 
ATOM     40  C   UNL A   1      37.559  31.968  29.308  1.00  0.00     0.074 A 
ATOM     41  C   UNL A   1      36.759  30.979  28.619  1.00  0.00     0.031 C 
ATOM     42  C   UNL A   1      41.806  30.239  32.177  1.00  0.00     0.029 A 
ATOM     43  C   UNL A   1      42.634  29.353  31.365  1.00  0.00     0.049 A 
ATOM     44  H   UNL A   1      41.792  27.557  30.593  1.00  0.00     0.167 HD
ATOM     45  C   UNL A   1      37.344  33.147  29.968  1.00  0.00     0.037 A 
ATOM     46  C   UNL A   1      43.701  29.676  30.575  1.00  0.00     0.037 A 
ATOM     47  C   UNL A   1      38.574  33.568  30.664  1.00  0.00     0.049 A 
ATOM     48  C   UNL A   1      43.706  31.142  30.219  1.00  0.00     0.074 A 
ATOM     49  C   UNL A   1      38.999  33.521  31.982  1.00  0.00     0.029 A 
ATOM     50  N   UNL A   1      39.708  33.831  29.917  1.00  0.00    -0.354 N 
ATOM     51  N   UNL A   1      42.734  31.965  30.494  1.00  0.00    -0.248 NA
ATOM     52  C   UNL A   1      44.769  31.769  29.445  1.00  0.00     0.031 C 
ATOM     53  C   UNL A   1      40.411  33.752  32.004  1.00  0.00     0.029 A 
ATOM     54  C   UNL A   1      40.836  33.964  30.705  1.00  0.00     0.049 A 
ATOM     55  H   UNL A   1      39.712  33.914  28.936  1.00  0.00     0.167 HD
ATOM     56  C   UNL A   1      42.988  33.183  29.942  1.00  0.00     0.074 A 
ATOM     57  C   UNL A   1      44.272  33.006  29.280  1.00  0.00     0.031 C 
ATOM     58  C   UNL A   1      42.112  34.226  30.047  1.00  0.00     0.037 A 
BRANCH  45  59
ATOM     59  C   UNL A   1      36.002  33.824  30.221  1.00  0.00     0.064 A 
ATOM     60  C   UNL A   1      35.217  34.272  29.131  1.00  0.00     0.173 A 
ATOM     61  C   UNL A   1      35.435  34.096  31.481  1.00  0.00     0.173 A 
ATOM     62  F   UNL A   1      35.558  34.005  27.863  1.00  0.00    -0.203 F 
ATOM     63  C   UNL A   1      34.034  35.005  29.293  1.00  0.00     0.198 A 
ATOM     64  C   UNL A   1      34.265  34.851  31.646  1.00  0.00     0.198 A 
ATOM     65  F   UNL A   1      35.946  33.604  32.611  1.00  0.00    -0.203 F 
ATOM     66  F   UNL A   1      33.353  35.414  28.214  1.00  0.00    -0.200 F 
ATOM     67  C   UNL A   1      33.571  35.315  30.552  1.00  0.00     0.200 A 
ATOM     68  F   UNL A   1      33.815  35.113  32.882  1.00  0.00    -0.200 F 
ATOM     69  F   UNL A   1      32.452  36.034  30.711  1.00  0.00    -0.200 F 
ENDBRANCH  45  59
BRANCH  46  70
ATOM     70  C   UNL A   1      44.061  28.559  29.622  1.00  0.00     0.064 A 
ATOM     71  C   UNL A   1      43.781  28.725  28.246  1.00  0.00     0.173 A 
ATOM     72  C   UNL A   1      45.020  27.588  29.957  1.00  0.00     0.173 A 
ATOM     73  F   UNL A   1      42.895  29.652  27.850  1.00  0.00    -0.203 F 
ATOM     74  C   UNL A   1      44.509  28.049  27.263  1.00  0.00     0.198 A 
ATOM     75  C   UNL A   1      45.730  26.898  28.969  1.00  0.00     0.198 A 
ATOM     76  F   UNL A   1      45.354  27.378  31.238  1.00  0.00    -0.203 F 
ATOM     77  F   UNL A   1      44.308  28.334  25.968  1.00  0.00    -0.200 F 
ATOM     78  C   UNL A   1      45.499  27.152  27.626  1.00  0.00     0.200 A 
ATOM     79  F   UNL A   1      46.696  26.036  29.320  1.00  0.00    -0.200 F 
ATOM     80  F   UNL A   1      46.255  26.568  26.685  1.00  0.00    -0.200 F 
ENDBRANCH  46  70
BRANCH  58  81
ATOM     81  C   UNL A   1      42.387  35.585  29.466  1.00  0.00     0.064 A 
ATOM     82  C   UNL A   1      41.892  35.984  28.215  1.00  0.00     0.173 A 
ATOM     83  C   UNL A   1      43.227  36.517  30.117  1.00  0.00     0.173 A 
ATOM     84  F   UNL A   1      41.211  35.130  27.438  1.00  0.00    -0.203 F 
ATOM     85  C   UNL A   1      42.108  37.269  27.717  1.00  0.00     0.198 A 
ATOM     86  C   UNL A   1      43.492  37.775  29.587  1.00  0.00     0.198 A 
ATOM     87  F   UNL A   1      43.804  36.258  31.298  1.00  0.00    -0.203 F 
ATOM     88  F   UNL A   1      41.535  37.635  26.563  1.00  0.00    -0.200 F 
ATOM     89  C   UNL A   1      42.905  38.164  28.405  1.00  0.00     0.200 A 
ATOM     90  F   UNL A   1      44.308  38.610  30.247  1.00  0.00    -0.200 F 
ATOM     91  F   UNL A   1      43.112  39.397  27.925  1.00  0.00    -0.200 F 
ENDBRANCH  58  81
ENDBRANCH  32  33
ENDBRANCH  24  27
ENDBRANCH  22  23
ENDBRANCH   1  22
TORSDOF 11
ENDMDL
MODEL 3
REMARK VINA RESULT:     -14.0      0.995      2.593
REMARK SMILES Cc1ccc(F)cc1-c1ccc(F)cc1C(=O)NCCCNC(=O)c1ccc(-c2c3nc(c(-c4c(F)c(F)c(F)c(F)c4F)c4ccc([nH]4)c(-c4c(F)c(F)c(F)c(F)c4F)c4nc(c(-c5c(F)c(F)c(F)c(F)c5F)c5ccc2[nH]5)C=C4)C=C3)cc1
REMARK SMILES IDX 20 1 19 2 18 3 16 4 17 5 15 7 9 8 10 9 11 10 14 11 12 12
REMARK SMILES IDX 13 13 8 14 1 15 2 16 3 17 4 18 7 19 5 20 6 21 21 22 22 23
REMARK SMILES IDX 23 24 24 26 25 27 26 28 87 29 27 30 86 31 28 32 29 33 30 34
REMARK SMILES IDX 80 35 31 36 85 37 79 38 81 39 32 40 84 41 78 42 77 43 33 45
REMARK SMILES IDX 65 46 45 47 64 48 46 49 49 50 63 51 82 52 47 53 48 54 62 56
REMARK SMILES IDX 83 57 50 58 34 59 35 60 43 61 36 62 37 63 41 64 44 65 38 66
REMARK SMILES IDX 39 67 42 68 40 69 66 70 67 71 75 72 68 73 69 74 73 75 76 76
REMARK SMILES IDX 70 77 71 78 74 79 72 80 51 81 52 82 60 83 53 84 54 85 58 86
REMARK SMILES IDX 61 87 55 88 56 89 59 90 57 91
REMARK H PARENT 18 6 22 25 81 44 49 55
REMARK Flexibility Score: inf
ROOT
ATOM      1  C   UNL A   1      33.104  30.635  27.255  1.00  0.00     0.042 C 
ENDROOT
BRANCH   1   2
ATOM      2  C   UNL A   1      32.586  29.882  26.064  1.00  0.00     0.118 C 
BRANCH   2   3
ATOM      3  N   UNL A   1      33.385  29.688  24.902  1.00  0.00    -0.352 N 
ATOM      4  C   UNL A   1      32.897  29.131  23.737  1.00  0.00     0.252 C 
ATOM      5  O   UNL A   1      33.607  29.173  22.731  1.00  0.00    -0.269 OA
ATOM      6  H   UNL A   1      34.329  29.964  24.931  1.00  0.00     0.163 HD
BRANCH   4   7
ATOM      7  C   UNL A   1      31.607  28.352  23.687  1.00  0.00     0.050 A 
ATOM      8  C   UNL A   1      31.381  26.948  23.826  1.00  0.00    -0.005 A 
ATOM      9  C   UNL A   1      30.044  26.483  23.760  1.00  0.00     0.012 A 
ATOM     10  C   UNL A   1      28.973  27.339  23.522  1.00  0.00     0.040 A 
ATOM     11  C   UNL A   1      30.500  29.201  23.466  1.00  0.00     0.053 A 
ATOM     12  C   UNL A   1      29.213  28.691  23.375  1.00  0.00     0.124 A 
ATOM     13  F   UNL A   1      28.188  29.518  23.135  1.00  0.00    -0.207 F 
BRANCH   8  14
ATOM     14  C   UNL A   1      32.391  25.882  24.029  1.00  0.00    -0.012 A 
ATOM     15  C   UNL A   1      32.978  25.748  21.499  1.00  0.00     0.045 C 
ATOM     16  C   UNL A   1      33.102  25.288  22.935  1.00  0.00    -0.043 A 
ATOM     17  C   UNL A   1      34.077  24.301  23.183  1.00  0.00     0.007 A 
ATOM     18  C   UNL A   1      34.339  23.875  24.481  1.00  0.00     0.039 A 
ATOM     19  C   UNL A   1      32.686  25.435  25.331  1.00  0.00     0.048 A 
ATOM     20  C   UNL A   1      33.653  24.452  25.541  1.00  0.00     0.123 A 
ATOM     21  F   UNL A   1      33.971  24.103  26.793  1.00  0.00    -0.207 F 
ENDBRANCH   8  14
ENDBRANCH   4   7
ENDBRANCH   2   3
ENDBRANCH   1   2
BRANCH   1  22
ATOM     22  C   UNL A   1      34.539  30.286  27.590  1.00  0.00     0.118 C 
BRANCH  22  23
ATOM     23  N   UNL A   1      35.136  30.935  28.778  1.00  0.00    -0.352 N 
ATOM     24  C   UNL A   1      36.331  30.635  29.441  1.00  0.00     0.251 C 
ATOM     25  H   UNL A   1      34.620  31.684  29.156  1.00  0.00     0.163 HD
ATOM     26  O   UNL A   1      36.686  31.176  30.466  1.00  0.00    -0.269 OA
BRANCH  24  27
ATOM     27  C   UNL A   1      37.185  29.637  28.786  1.00  0.00     0.039 A 
ATOM     28  C   UNL A   1      37.906  29.910  27.617  1.00  0.00     0.014 A 
ATOM     29  C   UNL A   1      37.518  28.601  29.629  1.00  0.00     0.014 A 
ATOM     30  C   UNL A   1      39.094  29.210  27.393  1.00  0.00     0.010 A 
ATOM     31  C   UNL A   1      38.827  28.258  29.601  1.00  0.00     0.010 A 
ATOM     32  C   UNL A   1      39.583  28.423  28.435  1.00  0.00    -0.014 A 
BRANCH  32  33
ATOM     33  C   UNL A   1      40.814  27.643  28.475  1.00  0.00     0.031 A 
ATOM     34  C   UNL A   1      40.865  26.200  28.232  1.00  0.00     0.074 A 
ATOM     35  C   UNL A   1      41.939  28.389  28.598  1.00  0.00     0.049 A 
ATOM     36  N   UNL A   1      41.824  25.454  28.656  1.00  0.00    -0.248 NA
ATOM     37  C   UNL A   1      39.848  25.464  27.495  1.00  0.00     0.031 C 
ATOM     38  C   UNL A   1      43.337  28.069  28.392  1.00  0.00     0.029 A 
ATOM     39  N   UNL A   1      41.979  29.725  29.045  1.00  0.00    -0.354 N 
ATOM     40  C   UNL A   1      41.741  24.250  27.993  1.00  0.00     0.074 A 
ATOM     41  C   UNL A   1      40.416  24.253  27.412  1.00  0.00     0.031 C 
ATOM     42  C   UNL A   1      44.079  29.024  28.996  1.00  0.00     0.029 A 
ATOM     43  C   UNL A   1      43.167  29.881  29.748  1.00  0.00     0.049 A 
ATOM     44  H   UNL A   1      41.294  30.416  28.890  1.00  0.00     0.167 HD
ATOM     45  C   UNL A   1      42.876  23.493  27.892  1.00  0.00     0.037 A 
ATOM     46  C   UNL A   1      43.048  30.012  31.103  1.00  0.00     0.037 A 
ATOM     47  C   UNL A   1      43.991  24.161  28.589  1.00  0.00     0.049 A 
ATOM     48  C   UNL A   1      43.638  28.829  31.830  1.00  0.00     0.074 A 
ATOM     49  C   UNL A   1      45.085  24.901  28.169  1.00  0.00     0.029 A 
ATOM     50  N   UNL A   1      43.889  24.391  29.950  1.00  0.00    -0.354 N 
ATOM     51  N   UNL A   1      44.064  27.747  31.242  1.00  0.00    -0.248 NA
ATOM     52  C   UNL A   1      43.710  28.743  33.282  1.00  0.00     0.031 C 
ATOM     53  C   UNL A   1      45.625  25.584  29.305  1.00  0.00     0.029 A 
ATOM     54  C   UNL A   1      44.877  25.237  30.416  1.00  0.00     0.049 A 
ATOM     55  H   UNL A   1      43.191  23.996  30.522  1.00  0.00     0.167 HD
ATOM     56  C   UNL A   1      44.428  26.826  32.176  1.00  0.00     0.074 A 
ATOM     57  C   UNL A   1      44.173  27.492  33.444  1.00  0.00     0.031 C 
ATOM     58  C   UNL A   1      44.879  25.583  31.833  1.00  0.00     0.037 A 
BRANCH  45  59
ATOM     59  C   UNL A   1      43.098  22.289  26.986  1.00  0.00     0.064 A 
ATOM     60  C   UNL A   1      42.346  21.105  27.181  1.00  0.00     0.173 A 
ATOM     61  C   UNL A   1      44.034  22.201  25.937  1.00  0.00     0.173 A 
ATOM     62  F   UNL A   1      41.343  21.049  28.068  1.00  0.00    -0.203 F 
ATOM     63  C   UNL A   1      42.579  19.924  26.464  1.00  0.00     0.198 A 
ATOM     64  C   UNL A   1      44.287  21.014  25.235  1.00  0.00     0.198 A 
ATOM     65  F   UNL A   1      44.712  23.264  25.499  1.00  0.00    -0.203 F 
ATOM     66  F   UNL A   1      41.840  18.836  26.718  1.00  0.00    -0.200 F 
ATOM     67  C   UNL A   1      43.567  19.872  25.507  1.00  0.00     0.200 A 
ATOM     68  F   UNL A   1      45.233  20.995  24.284  1.00  0.00    -0.200 F 
ATOM     69  F   UNL A   1      43.808  18.740  24.833  1.00  0.00    -0.200 F 
ENDBRANCH  45  59
BRANCH  46  70
ATOM     70  C   UNL A   1      41.765  30.709  31.496  1.00  0.00     0.064 A 
ATOM     71  C   UNL A   1      40.731  29.946  32.084  1.00  0.00     0.173 A 
ATOM     72  C   UNL A   1      41.718  32.099  31.702  1.00  0.00     0.173 A 
ATOM     73  F   UNL A   1      40.726  28.610  31.950  1.00  0.00    -0.203 F 
ATOM     74  C   UNL A   1      39.782  30.526  32.930  1.00  0.00     0.198 A 
ATOM     75  C   UNL A   1      40.752  32.677  32.532  1.00  0.00     0.198 A 
ATOM     76  F   UNL A   1      42.669  32.893  31.191  1.00  0.00    -0.203 F 
ATOM     77  F   UNL A   1      38.900  29.749  33.577  1.00  0.00    -0.200 F 
ATOM     78  C   UNL A   1      39.807  31.888  33.171  1.00  0.00     0.200 A 
ATOM     79  F   UNL A   1      40.783  33.996  32.774  1.00  0.00    -0.200 F 
ATOM     80  F   UNL A   1      38.952  32.432  34.049  1.00  0.00    -0.200 F 
ENDBRANCH  46  70
BRANCH  58  81
ATOM     81  C   UNL A   1      45.310  24.562  32.849  1.00  0.00     0.064 A 
ATOM     82  C   UNL A   1      44.482  23.504  33.252  1.00  0.00     0.173 A 
ATOM     83  C   UNL A   1      46.554  24.652  33.516  1.00  0.00     0.173 A 
ATOM     84  F   UNL A   1      43.222  23.402  32.802  1.00  0.00    -0.203 F 
ATOM     85  C   UNL A   1      44.918  22.532  34.152  1.00  0.00     0.198 A 
ATOM     86  C   UNL A   1      46.960  23.717  34.460  1.00  0.00     0.198 A 
ATOM     87  F   UNL A   1      47.430  25.633  33.264  1.00  0.00    -0.203 F 
ATOM     88  F   UNL A   1      44.127  21.487  34.432  1.00  0.00    -0.200 F 
ATOM     89  C   UNL A   1      46.158  22.637  34.752  1.00  0.00     0.200 A 
ATOM     90  F   UNL A   1      48.147  23.865  35.067  1.00  0.00    -0.200 F 
ATOM     91  F   UNL A   1      46.576  21.703  35.617  1.00  0.00    -0.200 F 
ENDBRANCH  58  81
ENDBRANCH  32  33
ENDBRANCH  24  27
ENDBRANCH  22  23
ENDBRANCH   1  22
TORSDOF 11
ENDMDL
