MODEL 1
REMARK VINA RESULT:     -11.6      0.000      0.000
REMARK SMILES O=C(C[C@H](C(=O)Nc1ccc([N+](=O)[O-])cc1)[C@H]1CCCO1)NCCCNC(=O)c1ccc(-c2c3nc(c(-c4c(F)c(F)c(F)c(F)c4F)c4ccc([nH]4)c(-c4c(F)c(F)c(F)c(F)c4F)c4nc(c(-c5c(F)c(F)c(F)c(F)c5F)c5ccc2[nH]5)C=C4)C=C3)cc1
REMARK SMILES IDX 23 1 22 2 1 3 2 4 3 6 4 7 5 8 6 9 7 10 8 12 9 13 16 14 10 15
REMARK SMILES IDX 15 16 11 17 12 18 13 19 14 20 17 21 18 22 21 23 19 24 20 25
REMARK SMILES IDX 24 26 25 27 26 28 27 29 28 31 29 32 30 33 91 34 31 35 90 36
REMARK SMILES IDX 32 37 33 38 34 39 84 40 35 41 89 42 83 43 85 44 36 45 88 46
REMARK SMILES IDX 82 47 81 48 37 50 69 51 49 52 68 53 50 54 53 55 67 56 86 57
REMARK SMILES IDX 51 58 52 59 66 61 87 62 54 63 38 64 39 65 47 66 40 67 41 68
REMARK SMILES IDX 45 69 48 70 42 71 43 72 46 73 44 74 70 75 71 76 79 77 72 78
REMARK SMILES IDX 73 79 77 80 80 81 74 82 75 83 78 84 76 85 55 86 56 87 64 88
REMARK SMILES IDX 57 89 58 90 62 91 65 92 59 93 60 94 63 95 61 96
REMARK H PARENT 22 5 7 11 26 30 85 49 53 60
REMARK Flexibility Score: inf
ROOT
ATOM      1  C   UNL A   1      32.166  26.476  26.604  1.00  0.00     0.117 C 
ENDROOT
BRANCH   1   2
ATOM      2  N   UNL A   1      32.560  25.159  26.148  1.00  0.00    -0.356 N 
ATOM      3  O   UNL A   1      30.933  24.021  27.306  1.00  0.00    -0.275 OA
ATOM      4  C   UNL A   1      31.877  24.023  26.522  1.00  0.00     0.220 C 
ATOM      5  H   UNL A   1      33.338  25.073  25.552  1.00  0.00     0.163 HD
BRANCH   4   6
ATOM      6  C   UNL A   1      32.367  22.762  25.845  1.00  0.00     0.116 C 
BRANCH   6   7
ATOM      7  C   UNL A   1      33.015  23.076  24.480  1.00  0.00     0.117 C 
BRANCH   7   8
ATOM      8  C   UNL A   1      32.084  22.537  23.399  1.00  0.00     0.230 C 
ATOM      9  O   UNL A   1      32.171  21.367  23.019  1.00  0.00    -0.274 OA
ATOM     10  N   UNL A   1      31.035  23.296  22.957  1.00  0.00    -0.326 N 
ATOM     11  H   UNL A   1      30.292  22.778  22.571  1.00  0.00     0.169 HD
BRANCH  10  12
ATOM     12  C   UNL A   1      30.833  24.685  22.959  1.00  0.00     0.041 A 
ATOM     13  C   UNL A   1      31.681  25.469  22.168  1.00  0.00     0.033 A 
ATOM     14  C   UNL A   1      29.881  25.315  23.766  1.00  0.00     0.033 A 
ATOM     15  C   UNL A   1      31.526  26.859  22.120  1.00  0.00     0.088 A 
ATOM     16  C   UNL A   1      29.717  26.704  23.732  1.00  0.00     0.088 A 
ATOM     17  C   UNL A   1      30.537  27.471  22.899  1.00  0.00     0.269 A 
BRANCH  17  18
ATOM     18  N   UNL A   1      30.377  28.929  22.863  1.00  0.00     0.062 N 
ATOM     19  O   UNL A   1      30.593  29.550  23.912  1.00  0.00    -0.258 OA
ATOM     20  O   UNL A   1      30.015  29.434  21.792  1.00  0.00    -0.258 OA
ENDBRANCH  17  18
ENDBRANCH  10  12
ENDBRANCH   7   8
BRANCH   7  21
ATOM     21  C   UNL A   1      34.404  22.424  24.392  1.00  0.00     0.131 C 
ATOM     22  C   UNL A   1      35.495  23.320  23.810  1.00  0.00     0.035 C 
ATOM     23  O   UNL A   1      34.824  22.124  25.747  1.00  0.00    -0.377 OA
ATOM     24  C   UNL A   1      36.103  23.970  25.026  1.00  0.00     0.031 C 
ATOM     25  C   UNL A   1      36.013  22.865  26.050  1.00  0.00     0.160 C 
ENDBRANCH   7  21
ENDBRANCH   6   7
ENDBRANCH   4   6
ENDBRANCH   1   2
BRANCH   1  26
ATOM     26  C   UNL A   1      32.823  27.601  25.814  1.00  0.00     0.042 C 
BRANCH  26  27
ATOM     27  C   UNL A   1      34.046  28.225  26.478  1.00  0.00     0.118 C 
BRANCH  27  28
ATOM     28  N   UNL A   1      33.781  29.528  27.064  1.00  0.00    -0.352 N 
ATOM     29  C   UNL A   1      34.567  30.323  27.856  1.00  0.00     0.251 C 
ATOM     30  H   UNL A   1      32.893  29.900  26.859  1.00  0.00     0.163 HD
ATOM     31  O   UNL A   1      34.078  31.352  28.330  1.00  0.00    -0.269 OA
BRANCH  29  32
ATOM     32  C   UNL A   1      35.972  29.974  28.162  1.00  0.00     0.039 A 
ATOM     33  C   UNL A   1      36.269  29.439  29.421  1.00  0.00     0.014 A 
ATOM     34  C   UNL A   1      37.007  30.218  27.255  1.00  0.00     0.014 A 
ATOM     35  C   UNL A   1      37.586  29.109  29.751  1.00  0.00     0.010 A 
ATOM     36  C   UNL A   1      38.311  29.825  27.558  1.00  0.00     0.010 A 
ATOM     37  C   UNL A   1      38.616  29.280  28.814  1.00  0.00    -0.014 A 
BRANCH  37  38
ATOM     38  C   UNL A   1      40.021  28.923  29.144  1.00  0.00     0.031 A 
ATOM     39  C   UNL A   1      40.871  29.865  29.952  1.00  0.00     0.074 A 
ATOM     40  C   UNL A   1      40.547  27.774  28.678  1.00  0.00     0.049 A 
ATOM     41  N   UNL A   1      42.129  29.755  30.301  1.00  0.00    -0.248 NA
ATOM     42  C   UNL A   1      40.230  31.108  30.407  1.00  0.00     0.031 C 
ATOM     43  C   UNL A   1      39.843  26.799  27.844  1.00  0.00     0.029 A 
ATOM     44  N   UNL A   1      41.800  27.236  28.834  1.00  0.00    -0.354 N 
ATOM     45  C   UNL A   1      42.433  30.919  30.994  1.00  0.00     0.074 A 
ATOM     46  C   UNL A   1      41.243  31.743  30.979  1.00  0.00     0.031 C 
ATOM     47  C   UNL A   1      40.665  25.771  27.581  1.00  0.00     0.029 A 
ATOM     48  C   UNL A   1      41.961  26.026  28.204  1.00  0.00     0.049 A 
ATOM     49  H   UNL A   1      42.515  27.675  29.348  1.00  0.00     0.167 HD
ATOM     50  C   UNL A   1      43.591  31.263  31.608  1.00  0.00     0.037 A 
ATOM     51  C   UNL A   1      43.032  25.213  28.142  1.00  0.00     0.037 A 
ATOM     52  C   UNL A   1      44.763  30.429  31.654  1.00  0.00     0.049 A 
ATOM     53  C   UNL A   1      44.294  25.599  28.866  1.00  0.00     0.074 A 
ATOM     54  C   UNL A   1      45.970  30.667  32.289  1.00  0.00     0.029 A 
ATOM     55  N   UNL A   1      44.870  29.187  31.046  1.00  0.00    -0.354 N 
ATOM     56  N   UNL A   1      44.550  26.677  29.565  1.00  0.00    -0.248 NA
ATOM     57  C   UNL A   1      45.410  24.644  28.803  1.00  0.00     0.031 C 
ATOM     58  C   UNL A   1      46.817  29.582  32.042  1.00  0.00     0.029 A 
ATOM     59  C   UNL A   1      46.125  28.649  31.286  1.00  0.00     0.049 A 
ATOM     60  H   UNL A   1      44.160  28.752  30.521  1.00  0.00     0.167 HD
ATOM     61  C   UNL A   1      45.840  26.519  30.051  1.00  0.00     0.074 A 
ATOM     62  C   UNL A   1      46.312  25.234  29.576  1.00  0.00     0.031 C 
ATOM     63  C   UNL A   1      46.569  27.361  30.822  1.00  0.00     0.037 A 
BRANCH  50  64
ATOM     64  C   UNL A   1      43.644  32.601  32.286  1.00  0.00     0.064 A 
ATOM     65  C   UNL A   1      43.281  32.757  33.632  1.00  0.00     0.173 A 
ATOM     66  C   UNL A   1      44.087  33.736  31.589  1.00  0.00     0.173 A 
ATOM     67  F   UNL A   1      42.838  31.706  34.337  1.00  0.00    -0.203 F 
ATOM     68  C   UNL A   1      43.332  34.005  34.247  1.00  0.00     0.198 A 
ATOM     69  C   UNL A   1      44.162  34.977  32.216  1.00  0.00     0.198 A 
ATOM     70  F   UNL A   1      44.449  33.642  30.301  1.00  0.00    -0.203 F 
ATOM     71  F   UNL A   1      42.932  34.139  35.521  1.00  0.00    -0.200 F 
ATOM     72  C   UNL A   1      43.777  35.111  33.542  1.00  0.00     0.200 A 
ATOM     73  F   UNL A   1      44.603  36.045  31.536  1.00  0.00    -0.200 F 
ATOM     74  F   UNL A   1      43.827  36.311  34.138  1.00  0.00    -0.200 F 
ENDBRANCH  50  64
BRANCH  51  75
ATOM     75  C   UNL A   1      42.942  23.927  27.405  1.00  0.00     0.064 A 
ATOM     76  C   UNL A   1      43.359  23.836  26.070  1.00  0.00     0.173 A 
ATOM     77  C   UNL A   1      42.441  22.769  28.014  1.00  0.00     0.173 A 
ATOM     78  F   UNL A   1      43.827  24.923  25.439  1.00  0.00    -0.203 F 
ATOM     79  C   UNL A   1      43.261  22.638  25.365  1.00  0.00     0.198 A 
ATOM     80  C   UNL A   1      42.365  21.565  27.316  1.00  0.00     0.198 A 
ATOM     81  F   UNL A   1      42.033  22.804  29.291  1.00  0.00    -0.203 F 
ATOM     82  F   UNL A   1      43.627  22.589  24.077  1.00  0.00    -0.200 F 
ATOM     83  C   UNL A   1      42.768  21.502  25.990  1.00  0.00     0.200 A 
ATOM     84  F   UNL A   1      41.900  20.466  27.926  1.00  0.00    -0.200 F 
ATOM     85  F   UNL A   1      42.676  20.350  25.313  1.00  0.00    -0.200 F 
ENDBRANCH  51  75
BRANCH  63  86
ATOM     86  C   UNL A   1      47.934  26.901  31.240  1.00  0.00     0.064 A 
ATOM     87  C   UNL A   1      48.131  26.125  32.389  1.00  0.00     0.173 A 
ATOM     88  C   UNL A   1      49.056  27.219  30.459  1.00  0.00     0.173 A 
ATOM     89  F   UNL A   1      47.091  25.807  33.176  1.00  0.00    -0.203 F 
ATOM     90  C   UNL A   1      49.406  25.703  32.758  1.00  0.00     0.198 A 
ATOM     91  C   UNL A   1      50.326  26.775  30.817  1.00  0.00     0.198 A 
ATOM     92  F   UNL A   1      48.919  27.956  29.346  1.00  0.00    -0.203 F 
ATOM     93  F   UNL A   1      49.577  25.000  33.886  1.00  0.00    -0.200 F 
ATOM     94  C   UNL A   1      50.500  26.024  31.969  1.00  0.00     0.200 A 
ATOM     95  F   UNL A   1      51.382  27.077  30.048  1.00  0.00    -0.200 F 
ATOM     96  F   UNL A   1      51.726  25.615  32.325  1.00  0.00    -0.200 F 
ENDBRANCH  63  86
ENDBRANCH  37  38
ENDBRANCH  29  32
ENDBRANCH  27  28
ENDBRANCH  26  27
ENDBRANCH   1  26
TORSDOF 15
ENDMDL
MODEL 2
REMARK VINA RESULT:     -11.5      0.350      1.313
REMARK SMILES O=C(C[C@H](C(=O)Nc1ccc([N+](=O)[O-])cc1)[C@H]1CCCO1)NCCCNC(=O)c1ccc(-c2c3nc(c(-c4c(F)c(F)c(F)c(F)c4F)c4ccc([nH]4)c(-c4c(F)c(F)c(F)c(F)c4F)c4nc(c(-c5c(F)c(F)c(F)c(F)c5F)c5ccc2[nH]5)C=C4)C=C3)cc1
REMARK SMILES IDX 23 1 22 2 1 3 2 4 3 6 4 7 5 8 6 9 7 10 8 12 9 13 16 14 10 15
REMARK SMILES IDX 15 16 11 17 12 18 13 19 14 20 17 21 18 22 21 23 19 24 20 25
REMARK SMILES IDX 24 26 25 27 26 28 27 29 28 31 29 32 30 33 91 34 31 35 90 36
REMARK SMILES IDX 32 37 33 38 34 39 84 40 35 41 89 42 83 43 85 44 36 45 88 46
REMARK SMILES IDX 82 47 81 48 37 50 69 51 49 52 68 53 50 54 53 55 67 56 86 57
REMARK SMILES IDX 51 58 52 59 66 61 87 62 54 63 38 64 39 65 47 66 40 67 41 68
REMARK SMILES IDX 45 69 48 70 42 71 43 72 46 73 44 74 70 75 71 76 79 77 72 78
REMARK SMILES IDX 73 79 77 80 80 81 74 82 75 83 78 84 76 85 55 86 56 87 64 88
REMARK SMILES IDX 57 89 58 90 62 91 65 92 59 93 60 94 63 95 61 96
REMARK H PARENT 22 5 7 11 26 30 85 49 53 60
REMARK Flexibility Score: inf
ROOT
ATOM      1  C   UNL A   1      32.128  26.480  26.593  1.00  0.00     0.117 C 
ENDROOT
BRANCH   1   2
ATOM      2  N   UNL A   1      32.599  25.192  26.125  1.00  0.00    -0.356 N 
ATOM      3  O   UNL A   1      31.030  23.951  27.257  1.00  0.00    -0.275 OA
ATOM      4  C   UNL A   1      31.978  24.016  26.480  1.00  0.00     0.220 C 
ATOM      5  H   UNL A   1      33.386  25.157  25.535  1.00  0.00     0.163 HD
BRANCH   4   6
ATOM      6  C   UNL A   1      32.543  22.792  25.794  1.00  0.00     0.116 C 
BRANCH   6   7
ATOM      7  C   UNL A   1      33.100  23.142  24.398  1.00  0.00     0.117 C 
BRANCH   7   8
ATOM      8  C   UNL A   1      32.110  22.612  23.367  1.00  0.00     0.230 C 
ATOM      9  O   UNL A   1      32.163  21.440  22.986  1.00  0.00    -0.274 OA
ATOM     10  N   UNL A   1      31.049  23.383  22.976  1.00  0.00    -0.326 N 
ATOM     11  H   UNL A   1      30.281  22.874  22.629  1.00  0.00     0.169 HD
BRANCH  10  12
ATOM     12  C   UNL A   1      30.864  24.775  22.985  1.00  0.00     0.041 A 
ATOM     13  C   UNL A   1      31.738  25.554  22.218  1.00  0.00     0.033 A 
ATOM     14  C   UNL A   1      29.903  25.410  23.777  1.00  0.00     0.033 A 
ATOM     15  C   UNL A   1      31.601  26.946  22.178  1.00  0.00     0.088 A 
ATOM     16  C   UNL A   1      29.757  26.801  23.750  1.00  0.00     0.088 A 
ATOM     17  C   UNL A   1      30.604  27.564  22.941  1.00  0.00     0.269 A 
BRANCH  17  18
ATOM     18  N   UNL A   1      30.462  29.024  22.913  1.00  0.00     0.062 N 
ATOM     19  O   UNL A   1      30.239  29.551  21.814  1.00  0.00    -0.258 OA
ATOM     20  O   UNL A   1      30.597  29.629  23.984  1.00  0.00    -0.258 OA
ENDBRANCH  17  18
ENDBRANCH  10  12
ENDBRANCH   7   8
BRANCH   7  21
ATOM     21  C   UNL A   1      34.488  22.510  24.209  1.00  0.00     0.131 C 
ATOM     22  C   UNL A   1      35.609  23.505  23.914  1.00  0.00     0.035 C 
ATOM     23  O   UNL A   1      34.846  21.877  25.464  1.00  0.00    -0.377 OA
ATOM     24  C   UNL A   1      36.165  23.824  25.278  1.00  0.00     0.031 C 
ATOM     25  C   UNL A   1      36.024  22.501  25.991  1.00  0.00     0.160 C 
ENDBRANCH   7  21
ENDBRANCH   6   7
ENDBRANCH   4   6
ENDBRANCH   1   2
BRANCH   1  26
ATOM     26  C   UNL A   1      32.816  27.651  25.903  1.00  0.00     0.042 C 
BRANCH  26  27
ATOM     27  C   UNL A   1      34.036  28.203  26.634  1.00  0.00     0.118 C 
BRANCH  27  28
ATOM     28  N   UNL A   1      33.827  29.533  27.181  1.00  0.00    -0.352 N 
ATOM     29  C   UNL A   1      34.649  30.320  27.943  1.00  0.00     0.251 C 
ATOM     30  H   UNL A   1      32.953  29.933  26.970  1.00  0.00     0.163 HD
ATOM     31  O   UNL A   1      34.204  31.382  28.388  1.00  0.00    -0.269 OA
BRANCH  29  32
ATOM     32  C   UNL A   1      36.041  29.925  28.252  1.00  0.00     0.039 A 
ATOM     33  C   UNL A   1      37.017  30.085  27.260  1.00  0.00     0.014 A 
ATOM     34  C   UNL A   1      36.391  29.348  29.475  1.00  0.00     0.014 A 
ATOM     35  C   UNL A   1      38.340  29.712  27.509  1.00  0.00     0.010 A 
ATOM     36  C   UNL A   1      37.723  29.039  29.749  1.00  0.00     0.010 A 
ATOM     37  C   UNL A   1      38.709  29.204  28.764  1.00  0.00    -0.014 A 
BRANCH  37  38
ATOM     38  C   UNL A   1      40.114  28.813  29.051  1.00  0.00     0.031 A 
ATOM     39  C   UNL A   1      41.023  29.751  29.797  1.00  0.00     0.074 A 
ATOM     40  C   UNL A   1      40.587  27.636  28.600  1.00  0.00     0.049 A 
ATOM     41  N   UNL A   1      42.290  29.613  30.101  1.00  0.00    -0.248 NA
ATOM     42  C   UNL A   1      40.438  31.027  30.239  1.00  0.00     0.031 C 
ATOM     43  C   UNL A   1      39.822  26.659  27.823  1.00  0.00     0.029 A 
ATOM     44  N   UNL A   1      41.828  27.063  28.724  1.00  0.00    -0.354 N 
ATOM     45  C   UNL A   1      42.655  30.786  30.746  1.00  0.00     0.074 A 
ATOM     46  C   UNL A   1      41.491  31.646  30.752  1.00  0.00     0.031 C 
ATOM     47  C   UNL A   1      40.602  25.599  27.560  1.00  0.00     0.029 A 
ATOM     48  C   UNL A   1      41.928  25.832  28.125  1.00  0.00     0.049 A 
ATOM     49  H   UNL A   1      42.575  27.495  29.196  1.00  0.00     0.167 HD
ATOM     50  C   UNL A   1      43.847  31.111  31.304  1.00  0.00     0.037 A 
ATOM     51  C   UNL A   1      42.971  24.983  28.047  1.00  0.00     0.037 A 
ATOM     52  C   UNL A   1      44.994  30.243  31.331  1.00  0.00     0.049 A 
ATOM     53  C   UNL A   1      44.271  25.351  28.710  1.00  0.00     0.074 A 
ATOM     54  C   UNL A   1      46.231  30.462  31.912  1.00  0.00     0.029 A 
ATOM     55  N   UNL A   1      45.040  28.981  30.757  1.00  0.00    -0.354 N 
ATOM     56  N   UNL A   1      44.587  26.441  29.365  1.00  0.00    -0.248 NA
ATOM     57  C   UNL A   1      45.355  24.361  28.633  1.00  0.00     0.031 C 
ATOM     58  C   UNL A   1      47.036  29.344  31.665  1.00  0.00     0.029 A 
ATOM     59  C   UNL A   1      46.286  28.411  30.966  1.00  0.00     0.049 A 
ATOM     60  H   UNL A   1      44.297  28.554  30.273  1.00  0.00     0.167 HD
ATOM     61  C   UNL A   1      45.890  26.256  29.807  1.00  0.00     0.074 A 
ATOM     62  C   UNL A   1      46.304  24.944  29.353  1.00  0.00     0.031 C 
ATOM     63  C   UNL A   1      46.673  27.098  30.524  1.00  0.00     0.037 A 
BRANCH  50  64
ATOM     64  C   UNL A   1      43.966  32.466  31.939  1.00  0.00     0.064 A 
ATOM     65  C   UNL A   1      44.355  33.593  31.199  1.00  0.00     0.173 A 
ATOM     66  C   UNL A   1      43.663  32.646  33.298  1.00  0.00     0.173 A 
ATOM     67  F   UNL A   1      44.668  33.470  29.901  1.00  0.00    -0.203 F 
ATOM     68  C   UNL A   1      44.464  34.843  31.802  1.00  0.00     0.198 A 
ATOM     69  C   UNL A   1      43.748  33.903  33.890  1.00  0.00     0.198 A 
ATOM     70  F   UNL A   1      43.283  31.603  34.051  1.00  0.00    -0.203 F 
ATOM     71  F   UNL A   1      44.886  35.895  31.086  1.00  0.00    -0.200 F 
ATOM     72  C   UNL A   1      44.156  34.999  33.144  1.00  0.00     0.200 A 
ATOM     73  F   UNL A   1      43.438  34.054  35.186  1.00  0.00    -0.200 F 
ATOM     74  F   UNL A   1      44.259  36.204  33.721  1.00  0.00    -0.200 F 
ENDBRANCH  50  64
BRANCH  51  75
ATOM     75  C   UNL A   1      42.813  23.680  27.353  1.00  0.00     0.064 A 
ATOM     76  C   UNL A   1      43.210  23.528  26.017  1.00  0.00     0.173 A 
ATOM     77  C   UNL A   1      42.268  22.567  28.004  1.00  0.00     0.173 A 
ATOM     78  F   UNL A   1      43.719  24.572  25.346  1.00  0.00    -0.203 F 
ATOM     79  C   UNL A   1      43.049  22.314  25.352  1.00  0.00     0.198 A 
ATOM     80  C   UNL A   1      42.129  21.346  27.347  1.00  0.00     0.198 A 
ATOM     81  F   UNL A   1      41.878  22.661  29.284  1.00  0.00    -0.203 F 
ATOM     82  F   UNL A   1      43.396  22.207  24.063  1.00  0.00    -0.200 F 
ATOM     83  C   UNL A   1      42.512  21.223  26.020  1.00  0.00     0.200 A 
ATOM     84  F   UNL A   1      41.622  20.289  27.997  1.00  0.00    -0.200 F 
ATOM     85  F   UNL A   1      42.360  20.055  25.381  1.00  0.00    -0.200 F 
ENDBRANCH  51  75
BRANCH  63  86
ATOM     86  C   UNL A   1      48.040  26.608  30.902  1.00  0.00     0.064 A 
ATOM     87  C   UNL A   1      48.251  25.826  32.046  1.00  0.00     0.173 A 
ATOM     88  C   UNL A   1      49.145  26.902  30.090  1.00  0.00     0.173 A 
ATOM     89  F   UNL A   1      47.227  25.531  32.861  1.00  0.00    -0.203 F 
ATOM     90  C   UNL A   1      49.526  25.377  32.378  1.00  0.00     0.198 A 
ATOM     91  C   UNL A   1      50.415  26.429  30.412  1.00  0.00     0.198 A 
ATOM     92  F   UNL A   1      48.993  27.642  28.982  1.00  0.00    -0.203 F 
ATOM     93  F   UNL A   1      49.714  24.668  33.500  1.00  0.00    -0.200 F 
ATOM     94  C   UNL A   1      50.605  25.674  31.558  1.00  0.00     0.200 A 
ATOM     95  F   UNL A   1      51.455  26.709  29.614  1.00  0.00    -0.200 F 
ATOM     96  F   UNL A   1      51.831  25.238  31.880  1.00  0.00    -0.200 F 
ENDBRANCH  63  86
ENDBRANCH  37  38
ENDBRANCH  29  32
ENDBRANCH  27  28
ENDBRANCH  26  27
ENDBRANCH   1  26
TORSDOF 15
ENDMDL
MODEL 3
REMARK VINA RESULT:     -11.5      2.670      3.786
REMARK SMILES O=C(C[C@H](C(=O)Nc1ccc([N+](=O)[O-])cc1)[C@H]1CCCO1)NCCCNC(=O)c1ccc(-c2c3nc(c(-c4c(F)c(F)c(F)c(F)c4F)c4ccc([nH]4)c(-c4c(F)c(F)c(F)c(F)c4F)c4nc(c(-c5c(F)c(F)c(F)c(F)c5F)c5ccc2[nH]5)C=C4)C=C3)cc1
REMARK SMILES IDX 23 1 22 2 1 3 2 4 3 6 4 7 5 8 6 9 7 10 8 12 9 13 16 14 10 15
REMARK SMILES IDX 15 16 11 17 12 18 13 19 14 20 17 21 18 22 21 23 19 24 20 25
REMARK SMILES IDX 24 26 25 27 26 28 27 29 28 31 29 32 30 33 91 34 31 35 90 36
REMARK SMILES IDX 32 37 33 38 34 39 84 40 35 41 89 42 83 43 85 44 36 45 88 46
REMARK SMILES IDX 82 47 81 48 37 50 69 51 49 52 68 53 50 54 53 55 67 56 86 57
REMARK SMILES IDX 51 58 52 59 66 61 87 62 54 63 38 64 39 65 47 66 40 67 41 68
REMARK SMILES IDX 45 69 48 70 42 71 43 72 46 73 44 74 70 75 71 76 79 77 72 78
REMARK SMILES IDX 73 79 77 80 80 81 74 82 75 83 78 84 76 85 55 86 56 87 64 88
REMARK SMILES IDX 57 89 58 90 62 91 65 92 59 93 60 94 63 95 61 96
REMARK H PARENT 22 5 7 11 26 30 85 49 53 60
REMARK Flexibility Score: inf
ROOT
ATOM      1  C   UNL A   1      33.272  26.794  26.498  1.00  0.00     0.117 C 
ENDROOT
BRANCH   1   2
ATOM      2  N   UNL A   1      33.246  25.393  26.127  1.00  0.00    -0.356 N 
ATOM      3  O   UNL A   1      31.109  24.999  26.875  1.00  0.00    -0.275 OA
ATOM      4  C   UNL A   1      32.133  24.608  26.324  1.00  0.00     0.220 C 
ATOM      5  H   UNL A   1      34.048  24.992  25.722  1.00  0.00     0.163 HD
BRANCH   4   6
ATOM      6  C   UNL A   1      32.261  23.210  25.760  1.00  0.00     0.116 C 
BRANCH   6   7
ATOM      7  C   UNL A   1      33.044  23.214  24.430  1.00  0.00     0.117 C 
BRANCH   7   8
ATOM      8  C   UNL A   1      32.111  22.673  23.351  1.00  0.00     0.230 C 
ATOM      9  O   UNL A   1      32.157  21.487  23.015  1.00  0.00    -0.274 OA
ATOM     10  N   UNL A   1      31.102  23.457  22.862  1.00  0.00    -0.326 N 
ATOM     11  H   UNL A   1      30.345  22.955  22.481  1.00  0.00     0.169 HD
BRANCH  10  12
ATOM     12  C   UNL A   1      30.957  24.852  22.810  1.00  0.00     0.041 A 
ATOM     13  C   UNL A   1      29.903  25.427  23.529  1.00  0.00     0.033 A 
ATOM     14  C   UNL A   1      31.768  25.672  22.019  1.00  0.00     0.033 A 
ATOM     15  C   UNL A   1      29.711  26.813  23.525  1.00  0.00     0.088 A 
ATOM     16  C   UNL A   1      31.585  27.059  22.001  1.00  0.00     0.088 A 
ATOM     17  C   UNL A   1      30.559  27.626  22.764  1.00  0.00     0.269 A 
BRANCH  17  18
ATOM     18  N   UNL A   1      30.357  29.078  22.745  1.00  0.00     0.062 N 
ATOM     19  O   UNL A   1      30.117  29.604  21.650  1.00  0.00    -0.258 OA
ATOM     20  O   UNL A   1      30.461  29.680  23.821  1.00  0.00    -0.258 OA
ENDBRANCH  17  18
ENDBRANCH  10  12
ENDBRANCH   7   8
BRANCH   7  21
ATOM     21  C   UNL A   1      34.306  22.347  24.557  1.00  0.00     0.131 C 
ATOM     22  C   UNL A   1      35.491  22.814  23.715  1.00  0.00     0.035 C 
ATOM     23  O   UNL A   1      34.748  22.431  25.936  1.00  0.00    -0.377 OA
ATOM     24  C   UNL A   1      36.259  23.709  24.653  1.00  0.00     0.031 C 
ATOM     25  C   UNL A   1      36.053  23.021  25.980  1.00  0.00     0.160 C 
ENDBRANCH   7  21
ENDBRANCH   6   7
ENDBRANCH   4   6
ENDBRANCH   1   2
BRANCH   1  26
ATOM     26  C   UNL A   1      32.805  27.715  25.379  1.00  0.00     0.042 C 
BRANCH  26  27
ATOM     27  C   UNL A   1      33.655  28.964  25.175  1.00  0.00     0.118 C 
BRANCH  27  28
ATOM     28  N   UNL A   1      33.077  30.158  25.768  1.00  0.00    -0.352 N 
ATOM     29  C   UNL A   1      33.453  30.875  26.873  1.00  0.00     0.251 C 
ATOM     30  H   UNL A   1      32.287  30.510  25.298  1.00  0.00     0.163 HD
ATOM     31  O   UNL A   1      32.731  31.802  27.250  1.00  0.00    -0.269 OA
BRANCH  29  32
ATOM     32  C   UNL A   1      34.687  30.557  27.626  1.00  0.00     0.039 A 
ATOM     33  C   UNL A   1      34.754  29.341  28.316  1.00  0.00     0.014 A 
ATOM     34  C   UNL A   1      35.751  31.458  27.712  1.00  0.00     0.014 A 
ATOM     35  C   UNL A   1      35.898  29.011  29.048  1.00  0.00     0.010 A 
ATOM     36  C   UNL A   1      36.919  31.101  28.385  1.00  0.00     0.010 A 
ATOM     37  C   UNL A   1      37.000  29.880  29.072  1.00  0.00    -0.014 A 
BRANCH  37  38
ATOM     38  C   UNL A   1      38.229  29.540  29.836  1.00  0.00     0.031 A 
ATOM     39  C   UNL A   1      38.451  30.118  31.207  1.00  0.00     0.074 A 
ATOM     40  C   UNL A   1      39.166  28.750  29.279  1.00  0.00     0.049 A 
ATOM     41  N   UNL A   1      39.479  29.981  32.009  1.00  0.00    -0.248 NA
ATOM     42  C   UNL A   1      37.391  30.989  31.737  1.00  0.00     0.031 C 
ATOM     43  C   UNL A   1      39.092  28.165  27.939  1.00  0.00     0.029 A 
ATOM     44  N   UNL A   1      40.369  28.308  29.769  1.00  0.00    -0.354 N 
ATOM     45  C   UNL A   1      39.197  30.761  33.122  1.00  0.00     0.074 A 
ATOM     46  C   UNL A   1      37.925  31.405  32.876  1.00  0.00     0.031 C 
ATOM     47  C   UNL A   1      40.189  27.423  27.723  1.00  0.00     0.029 A 
ATOM     48  C   UNL A   1      41.055  27.500  28.896  1.00  0.00     0.049 A 
ATOM     49  H   UNL A   1      40.708  28.547  30.661  1.00  0.00     0.167 HD
ATOM     50  C   UNL A   1      39.922  30.910  34.258  1.00  0.00     0.037 A 
ATOM     51  C   UNL A   1      42.247  26.887  29.029  1.00  0.00     0.037 A 
ATOM     52  C   UNL A   1      41.168  30.241  34.518  1.00  0.00     0.049 A 
ATOM     53  C   UNL A   1      43.012  27.036  30.316  1.00  0.00     0.074 A 
ATOM     54  C   UNL A   1      41.956  30.291  35.655  1.00  0.00     0.029 A 
ATOM     55  N   UNL A   1      41.807  29.391  33.627  1.00  0.00    -0.354 N 
ATOM     56  N   UNL A   1      42.708  27.733  31.384  1.00  0.00    -0.248 NA
ATOM     57  C   UNL A   1      44.281  26.301  30.420  1.00  0.00     0.031 C 
ATOM     58  C   UNL A   1      43.085  29.492  35.443  1.00  0.00     0.029 A 
ATOM     59  C   UNL A   1      42.981  28.913  34.188  1.00  0.00     0.049 A 
ATOM     60  H   UNL A   1      41.475  29.160  32.730  1.00  0.00     0.167 HD
ATOM     61  C   UNL A   1      43.727  27.495  32.296  1.00  0.00     0.074 A 
ATOM     62  C   UNL A   1      44.654  26.581  31.660  1.00  0.00     0.031 C 
ATOM     63  C   UNL A   1      43.881  27.989  33.548  1.00  0.00     0.037 A 
BRANCH  50  64
ATOM     64  C   UNL A   1      39.376  31.831  35.310  1.00  0.00     0.064 A 
ATOM     65  C   UNL A   1      38.528  31.365  36.326  1.00  0.00     0.173 A 
ATOM     66  C   UNL A   1      39.725  33.191  35.318  1.00  0.00     0.173 A 
ATOM     67  F   UNL A   1      38.153  30.078  36.353  1.00  0.00    -0.203 F 
ATOM     68  C   UNL A   1      38.027  32.232  37.293  1.00  0.00     0.198 A 
ATOM     69  C   UNL A   1      39.244  34.048  36.303  1.00  0.00     0.198 A 
ATOM     70  F   UNL A   1      40.536  33.687  34.372  1.00  0.00    -0.203 F 
ATOM     71  F   UNL A   1      37.177  31.774  38.225  1.00  0.00    -0.200 F 
ATOM     72  C   UNL A   1      38.389  33.569  37.285  1.00  0.00     0.200 A 
ATOM     73  F   UNL A   1      39.603  35.340  36.301  1.00  0.00    -0.200 F 
ATOM     74  F   UNL A   1      37.907  34.401  38.220  1.00  0.00    -0.200 F 
ENDBRANCH  50  64
BRANCH  51  75
ATOM     75  C   UNL A   1      42.767  26.035  27.930  1.00  0.00     0.064 A 
ATOM     76  C   UNL A   1      42.394  24.686  27.832  1.00  0.00     0.173 A 
ATOM     77  C   UNL A   1      43.639  26.544  26.960  1.00  0.00     0.173 A 
ATOM     78  F   UNL A   1      41.577  24.149  28.750  1.00  0.00    -0.203 F 
ATOM     79  C   UNL A   1      42.892  23.875  26.814  1.00  0.00     0.198 A 
ATOM     80  C   UNL A   1      44.117  25.739  25.928  1.00  0.00     0.198 A 
ATOM     81  F   UNL A   1      44.021  27.829  27.008  1.00  0.00    -0.203 F 
ATOM     82  F   UNL A   1      42.554  22.579  26.768  1.00  0.00    -0.200 F 
ATOM     83  C   UNL A   1      43.749  24.403  25.861  1.00  0.00     0.200 A 
ATOM     84  F   UNL A   1      44.936  26.254  25.001  1.00  0.00    -0.200 F 
ATOM     85  F   UNL A   1      44.225  23.622  24.881  1.00  0.00    -0.200 F 
ENDBRANCH  51  75
BRANCH  63  86
ATOM     86  C   UNL A   1      45.069  27.516  34.332  1.00  0.00     0.064 A 
ATOM     87  C   UNL A   1      46.289  28.205  34.307  1.00  0.00     0.173 A 
ATOM     88  C   UNL A   1      44.972  26.374  35.141  1.00  0.00     0.173 A 
ATOM     89  F   UNL A   1      46.435  29.294  33.537  1.00  0.00    -0.203 F 
ATOM     90  C   UNL A   1      47.380  27.752  35.045  1.00  0.00     0.198 A 
ATOM     91  C   UNL A   1      46.057  25.939  35.897  1.00  0.00     0.198 A 
ATOM     92  F   UNL A   1      43.824  25.683  35.203  1.00  0.00    -0.203 F 
ATOM     93  F   UNL A   1      48.551  28.400  34.972  1.00  0.00    -0.200 F 
ATOM     94  C   UNL A   1      47.261  26.624  35.843  1.00  0.00     0.200 A 
ATOM     95  F   UNL A   1      45.939  24.854  36.675  1.00  0.00    -0.200 F 
ATOM     96  F   UNL A   1      48.312  26.192  36.554  1.00  0.00    -0.200 F 
ENDBRANCH  63  86
ENDBRANCH  37  38
ENDBRANCH  29  32
ENDBRANCH  27  28
ENDBRANCH  26  27
ENDBRANCH   1  26
TORSDOF 15
ENDMDL
