MODEL 1
REMARK VINA RESULT:     -12.0      0.000      0.000
REMARK SMILES CC(C)(C[S@](=O)c1cccc(Cl)c1)C(=O)NCCCNC(=O)c1ccc(-c2c3nc(c(-c4c(F)c(F)c(F)c(F)c4F)c4ccc([nH]4)c(-c4c(F)c(F)c(F)c(F)c4F)c4nc(c(-c5c(F)c(F)c(F)c(F)c5F)c5ccc2[nH]5)C=C4)C=C3)cc1
REMARK SMILES IDX 17 1 16 2 14 3 15 4 2 6 1 7 3 8 4 9 5 10 6 11 7 12 8 13
REMARK SMILES IDX 13 14 9 15 11 16 10 17 12 18 18 19 19 20 20 21 21 22 22 24
REMARK SMILES IDX 23 25 24 26 85 27 25 28 84 29 26 30 27 31 28 32 78 33 29 34
REMARK SMILES IDX 83 35 77 36 79 37 30 38 82 39 76 40 75 41 31 43 63 44 43 45
REMARK SMILES IDX 62 46 44 47 47 48 61 49 80 50 45 51 46 52 60 54 81 55 48 56
REMARK SMILES IDX 32 57 33 58 41 59 34 60 35 61 39 62 42 63 36 64 37 65 40 66
REMARK SMILES IDX 38 67 64 68 65 69 73 70 66 71 67 72 71 73 74 74 68 75 69 76
REMARK SMILES IDX 72 77 70 78 49 79 50 80 58 81 51 82 52 83 56 84 59 85 53 86
REMARK SMILES IDX 54 87 57 88 55 89
REMARK H PARENT 16 5 20 23 79 42 47 53
REMARK Flexibility Score: inf
ROOT
ATOM      1  C   UNL A   1      31.482  30.841  26.271  1.00  0.00     0.117 C 
ENDROOT
BRANCH   1   2
ATOM      2  N   UNL A   1      32.765  30.250  26.624  1.00  0.00    -0.356 N 
ATOM      3  C   UNL A   1      33.369  29.062  26.353  1.00  0.00     0.226 C 
ATOM      4  O   UNL A   1      34.554  28.977  26.693  1.00  0.00    -0.274 OA
ATOM      5  H   UNL A   1      33.319  30.842  27.183  1.00  0.00     0.163 HD
BRANCH   3   6
ATOM      6  C   UNL A   1      32.659  27.872  25.682  1.00  0.00     0.055 C 
ATOM      7  C   UNL A   1      31.438  27.443  26.535  1.00  0.00     0.022 C 
ATOM      8  C   UNL A   1      33.588  26.637  25.699  1.00  0.00     0.022 C 
BRANCH   6   9
ATOM      9  C   UNL A   1      32.240  28.220  24.242  1.00  0.00     0.126 C 
BRANCH   9  10
ATOM     10  S   UNL A   1      30.960  27.172  23.450  1.00  0.00     0.054 S 
ATOM     11  O   UNL A   1      31.420  26.963  22.035  1.00  0.00    -0.254 OA
BRANCH  10  12
ATOM     12  C   UNL A   1      29.574  28.317  23.316  1.00  0.00     0.040 A 
ATOM     13  C   UNL A   1      28.256  27.860  23.216  1.00  0.00     0.018 A 
ATOM     14  C   UNL A   1      29.817  29.693  23.401  1.00  0.00     0.038 A 
ATOM     15  C   UNL A   1      27.197  28.768  23.134  1.00  0.00     0.003 A 
ATOM     16  C   UNL A   1      28.756  30.595  23.324  1.00  0.00     0.042 A 
ATOM     17  C   UNL A   1      27.448  30.138  23.176  1.00  0.00     0.020 A 
ATOM     18  Cl  UNL A   1      29.061  32.285  23.431  1.00  0.00    -0.084 Cl
ENDBRANCH  10  12
ENDBRANCH   9  10
ENDBRANCH   6   9
ENDBRANCH   3   6
ENDBRANCH   1   2
BRANCH   1  19
ATOM     19  C   UNL A   1      31.377  32.335  26.563  1.00  0.00     0.042 C 
BRANCH  19  20
ATOM     20  C   UNL A   1      32.628  32.969  27.155  1.00  0.00     0.118 C 
BRANCH  20  21
ATOM     21  N   UNL A   1      32.396  34.305  27.675  1.00  0.00    -0.352 N 
ATOM     22  C   UNL A   1      33.006  34.973  28.709  1.00  0.00     0.251 C 
ATOM     23  H   UNL A   1      31.689  34.811  27.213  1.00  0.00     0.163 HD
ATOM     24  O   UNL A   1      32.553  36.052  29.078  1.00  0.00    -0.269 OA
BRANCH  22  25
ATOM     25  C   UNL A   1      34.185  34.402  29.403  1.00  0.00     0.039 A 
ATOM     26  C   UNL A   1      33.972  33.656  30.567  1.00  0.00     0.014 A 
ATOM     27  C   UNL A   1      35.489  34.621  28.952  1.00  0.00     0.014 A 
ATOM     28  C   UNL A   1      35.054  33.083  31.239  1.00  0.00     0.010 A 
ATOM     29  C   UNL A   1      36.562  33.986  29.578  1.00  0.00     0.010 A 
ATOM     30  C   UNL A   1      36.357  33.215  30.733  1.00  0.00    -0.014 A 
BRANCH  30  31
ATOM     31  C   UNL A   1      37.505  32.550  31.403  1.00  0.00     0.031 A 
ATOM     32  C   UNL A   1      38.213  31.398  30.748  1.00  0.00     0.074 A 
ATOM     33  C   UNL A   1      37.880  32.951  32.633  1.00  0.00     0.049 A 
ATOM     34  N   UNL A   1      39.219  30.683  31.189  1.00  0.00    -0.248 NA
ATOM     35  C   UNL A   1      37.708  30.972  29.435  1.00  0.00     0.031 C 
ATOM     36  C   UNL A   1      37.234  34.013  33.405  1.00  0.00     0.029 A 
ATOM     37  N   UNL A   1      38.885  32.505  33.455  1.00  0.00    -0.354 N 
ATOM     38  C   UNL A   1      39.451  29.716  30.220  1.00  0.00     0.074 A 
ATOM     39  C   UNL A   1      38.452  29.904  29.191  1.00  0.00     0.031 C 
ATOM     40  C   UNL A   1      37.868  34.147  34.581  1.00  0.00     0.029 A 
ATOM     41  C   UNL A   1      38.945  33.164  34.658  1.00  0.00     0.049 A 
ATOM     42  H   UNL A   1      39.504  31.781  33.205  1.00  0.00     0.167 HD
ATOM     43  C   UNL A   1      40.423  28.773  30.182  1.00  0.00     0.037 A 
ATOM     44  C   UNL A   1      39.771  32.995  35.708  1.00  0.00     0.037 A 
ATOM     45  C   UNL A   1      41.435  28.607  31.194  1.00  0.00     0.049 A 
ATOM     46  C   UNL A   1      40.859  31.960  35.632  1.00  0.00     0.074 A 
ATOM     47  C   UNL A   1      42.518  27.745  31.199  1.00  0.00     0.029 A 
ATOM     48  N   UNL A   1      41.481  29.312  32.387  1.00  0.00    -0.354 N 
ATOM     49  N   UNL A   1      41.132  31.117  34.666  1.00  0.00    -0.248 NA
ATOM     50  C   UNL A   1      41.762  31.862  36.788  1.00  0.00     0.031 C 
ATOM     51  C   UNL A   1      43.189  27.892  32.418  1.00  0.00     0.029 A 
ATOM     52  C   UNL A   1      42.556  28.882  33.151  1.00  0.00     0.049 A 
ATOM     53  H   UNL A   1      40.845  30.016  32.653  1.00  0.00     0.167 HD
ATOM     54  C   UNL A   1      42.243  30.399  35.088  1.00  0.00     0.074 A 
ATOM     55  C   UNL A   1      42.606  30.920  36.390  1.00  0.00     0.031 C 
ATOM     56  C   UNL A   1      42.901  29.400  34.452  1.00  0.00     0.037 A 
BRANCH  43  57
ATOM     57  C   UNL A   1      40.433  27.837  29.006  1.00  0.00     0.064 A 
ATOM     58  C   UNL A   1      41.199  28.098  27.859  1.00  0.00     0.173 A 
ATOM     59  C   UNL A   1      39.679  26.655  29.034  1.00  0.00     0.173 A 
ATOM     60  F   UNL A   1      41.932  29.219  27.777  1.00  0.00    -0.203 F 
ATOM     61  C   UNL A   1      41.176  27.232  26.769  1.00  0.00     0.198 A 
ATOM     62  C   UNL A   1      39.684  25.775  27.954  1.00  0.00     0.198 A 
ATOM     63  F   UNL A   1      38.934  26.351  30.108  1.00  0.00    -0.203 F 
ATOM     64  F   UNL A   1      41.869  27.534  25.661  1.00  0.00    -0.200 F 
ATOM     65  C   UNL A   1      40.424  26.070  26.819  1.00  0.00     0.200 A 
ATOM     66  F   UNL A   1      38.965  24.645  28.010  1.00  0.00    -0.200 F 
ATOM     67  F   UNL A   1      40.403  25.237  25.769  1.00  0.00    -0.200 F 
ENDBRANCH  43  57
BRANCH  44  68
ATOM     68  C   UNL A   1      39.609  33.853  36.908  1.00  0.00     0.064 A 
ATOM     69  C   UNL A   1      40.198  35.122  36.974  1.00  0.00     0.173 A 
ATOM     70  C   UNL A   1      38.832  33.435  37.999  1.00  0.00     0.173 A 
ATOM     71  F   UNL A   1      40.966  35.557  35.964  1.00  0.00    -0.203 F 
ATOM     72  C   UNL A   1      40.023  35.940  38.089  1.00  0.00     0.198 A 
ATOM     73  C   UNL A   1      38.636  34.264  39.102  1.00  0.00     0.198 A 
ATOM     74  F   UNL A   1      38.242  32.232  37.981  1.00  0.00    -0.203 F 
ATOM     75  F   UNL A   1      40.621  37.138  38.139  1.00  0.00    -0.200 F 
ATOM     76  C   UNL A   1      39.235  35.514  39.148  1.00  0.00     0.200 A 
ATOM     77  F   UNL A   1      37.861  33.855  40.115  1.00  0.00    -0.200 F 
ATOM     78  F   UNL A   1      39.054  36.307  40.212  1.00  0.00    -0.200 F 
ENDBRANCH  44  68
BRANCH  56  79
ATOM     79  C   UNL A   1      44.091  28.807  35.149  1.00  0.00     0.064 A 
ATOM     80  C   UNL A   1      45.384  29.317  34.957  1.00  0.00     0.173 A 
ATOM     81  C   UNL A   1      43.933  27.739  36.047  1.00  0.00     0.173 A 
ATOM     82  F   UNL A   1      45.591  30.325  34.098  1.00  0.00    -0.203 F 
ATOM     83  C   UNL A   1      46.477  28.765  35.620  1.00  0.00     0.198 A 
ATOM     84  C   UNL A   1      45.024  27.209  36.730  1.00  0.00     0.198 A 
ATOM     85  F   UNL A   1      42.717  27.218  36.270  1.00  0.00    -0.203 F 
ATOM     86  F   UNL A   1      47.709  29.238  35.387  1.00  0.00    -0.200 F 
ATOM     87  C   UNL A   1      46.295  27.717  36.510  1.00  0.00     0.200 A 
ATOM     88  F   UNL A   1      44.845  26.205  37.599  1.00  0.00    -0.200 F 
ATOM     89  F   UNL A   1      47.348  27.191  37.153  1.00  0.00    -0.200 F 
ENDBRANCH  56  79
ENDBRANCH  30  31
ENDBRANCH  22  25
ENDBRANCH  20  21
ENDBRANCH  19  20
ENDBRANCH   1  19
TORSDOF 13
ENDMDL
MODEL 2
REMARK VINA RESULT:     -11.9      6.753     11.863
REMARK SMILES CC(C)(C[S@](=O)c1cccc(Cl)c1)C(=O)NCCCNC(=O)c1ccc(-c2c3nc(c(-c4c(F)c(F)c(F)c(F)c4F)c4ccc([nH]4)c(-c4c(F)c(F)c(F)c(F)c4F)c4nc(c(-c5c(F)c(F)c(F)c(F)c5F)c5ccc2[nH]5)C=C4)C=C3)cc1
REMARK SMILES IDX 17 1 16 2 14 3 15 4 2 6 1 7 3 8 4 9 5 10 6 11 7 12 8 13
REMARK SMILES IDX 13 14 9 15 11 16 10 17 12 18 18 19 19 20 20 21 21 22 22 24
REMARK SMILES IDX 23 25 24 26 85 27 25 28 84 29 26 30 27 31 28 32 78 33 29 34
REMARK SMILES IDX 83 35 77 36 79 37 30 38 82 39 76 40 75 41 31 43 63 44 43 45
REMARK SMILES IDX 62 46 44 47 47 48 61 49 80 50 45 51 46 52 60 54 81 55 48 56
REMARK SMILES IDX 32 57 33 58 41 59 34 60 35 61 39 62 42 63 36 64 37 65 40 66
REMARK SMILES IDX 38 67 64 68 65 69 73 70 66 71 67 72 71 73 74 74 68 75 69 76
REMARK SMILES IDX 72 77 70 78 49 79 50 80 58 81 51 82 52 83 56 84 59 85 53 86
REMARK SMILES IDX 54 87 57 88 55 89
REMARK H PARENT 16 5 20 23 79 42 47 53
REMARK Flexibility Score: inf
ROOT
ATOM      1  C   UNL A   1      37.058  20.368  24.754  1.00  0.00     0.117 C 
ENDROOT
BRANCH   1   2
ATOM      2  N   UNL A   1      37.325  21.695  25.291  1.00  0.00    -0.356 N 
ATOM      3  C   UNL A   1      36.571  22.811  25.480  1.00  0.00     0.226 C 
ATOM      4  O   UNL A   1      37.111  23.715  26.128  1.00  0.00    -0.274 OA
ATOM      5  H   UNL A   1      38.259  21.811  25.581  1.00  0.00     0.163 HD
BRANCH   3   6
ATOM      6  C   UNL A   1      35.143  22.985  24.932  1.00  0.00     0.055 C 
ATOM      7  C   UNL A   1      35.175  22.990  23.383  1.00  0.00     0.022 C 
ATOM      8  C   UNL A   1      34.611  24.388  25.307  1.00  0.00     0.022 C 
BRANCH   6   9
ATOM      9  C   UNL A   1      34.208  21.885  25.468  1.00  0.00     0.126 C 
BRANCH   9  10
ATOM     10  S   UNL A   1      32.641  21.584  24.565  1.00  0.00     0.054 S 
ATOM     11  O   UNL A   1      31.571  21.504  25.616  1.00  0.00    -0.254 OA
BRANCH  10  12
ATOM     12  C   UNL A   1      32.858  19.886  24.002  1.00  0.00     0.040 A 
ATOM     13  C   UNL A   1      32.173  19.393  22.886  1.00  0.00     0.018 A 
ATOM     14  C   UNL A   1      33.796  19.070  24.644  1.00  0.00     0.038 A 
ATOM     15  C   UNL A   1      32.373  18.078  22.457  1.00  0.00     0.003 A 
ATOM     16  C   UNL A   1      33.996  17.760  24.209  1.00  0.00     0.042 A 
ATOM     17  C   UNL A   1      33.278  17.256  23.126  1.00  0.00     0.020 A 
ATOM     18  Cl  UNL A   1      35.153  16.763  25.001  1.00  0.00    -0.084 Cl
ENDBRANCH  10  12
ENDBRANCH   9  10
ENDBRANCH   6   9
ENDBRANCH   3   6
ENDBRANCH   1   2
BRANCH   1  19
ATOM     19  C   UNL A   1      38.172  19.356  25.001  1.00  0.00     0.042 C 
BRANCH  19  20
ATOM     20  C   UNL A   1      39.298  19.838  25.904  1.00  0.00     0.118 C 
BRANCH  20  21
ATOM     21  N   UNL A   1      40.413  18.910  25.966  1.00  0.00    -0.352 N 
ATOM     22  C   UNL A   1      41.758  19.146  26.126  1.00  0.00     0.251 C 
ATOM     23  H   UNL A   1      40.167  17.961  25.881  1.00  0.00     0.163 HD
ATOM     24  O   UNL A   1      42.550  18.217  26.004  1.00  0.00    -0.269 OA
BRANCH  22  25
ATOM     25  C   UNL A   1      42.269  20.507  26.414  1.00  0.00     0.039 A 
ATOM     26  C   UNL A   1      42.701  21.295  25.342  1.00  0.00     0.014 A 
ATOM     27  C   UNL A   1      42.367  21.002  27.718  1.00  0.00     0.014 A 
ATOM     28  C   UNL A   1      43.169  22.591  25.570  1.00  0.00     0.010 A 
ATOM     29  C   UNL A   1      42.762  22.322  27.938  1.00  0.00     0.010 A 
ATOM     30  C   UNL A   1      43.174  23.129  26.867  1.00  0.00    -0.014 A 
BRANCH  30  31
ATOM     31  C   UNL A   1      43.606  24.531  27.109  1.00  0.00     0.031 A 
ATOM     32  C   UNL A   1      42.629  25.559  27.605  1.00  0.00     0.074 A 
ATOM     33  C   UNL A   1      44.872  24.894  26.828  1.00  0.00     0.049 A 
ATOM     34  N   UNL A   1      42.818  26.832  27.853  1.00  0.00    -0.248 NA
ATOM     35  C   UNL A   1      41.247  25.106  27.826  1.00  0.00     0.031 C 
ATOM     36  C   UNL A   1      45.900  24.009  26.281  1.00  0.00     0.029 A 
ATOM     37  N   UNL A   1      45.507  26.105  26.954  1.00  0.00    -0.354 N 
ATOM     38  C   UNL A   1      41.582  27.331  28.239  1.00  0.00     0.074 A 
ATOM     39  C   UNL A   1      40.639  26.238  28.145  1.00  0.00     0.031 C 
ATOM     40  C   UNL A   1      47.040  24.701  26.131  1.00  0.00     0.029 A 
ATOM     41  C   UNL A   1      46.818  26.084  26.546  1.00  0.00     0.049 A 
ATOM     42  H   UNL A   1      45.064  26.912  27.304  1.00  0.00     0.167 HD
ATOM     43  C   UNL A   1      41.266  28.582  28.654  1.00  0.00     0.037 A 
ATOM     44  C   UNL A   1      47.737  27.067  26.505  1.00  0.00     0.037 A 
ATOM     45  C   UNL A   1      42.213  29.661  28.775  1.00  0.00     0.049 A 
ATOM     46  C   UNL A   1      47.372  28.440  26.996  1.00  0.00     0.074 A 
ATOM     47  C   UNL A   1      42.011  30.935  29.277  1.00  0.00     0.029 A 
ATOM     48  N   UNL A   1      43.540  29.595  28.378  1.00  0.00    -0.354 N 
ATOM     49  N   UNL A   1      46.224  28.876  27.453  1.00  0.00    -0.248 NA
ATOM     50  C   UNL A   1      48.436  29.454  26.977  1.00  0.00     0.031 C 
ATOM     51  C   UNL A   1      43.201  31.656  29.135  1.00  0.00     0.029 A 
ATOM     52  C   UNL A   1      44.161  30.816  28.593  1.00  0.00     0.049 A 
ATOM     53  H   UNL A   1      43.978  28.798  27.999  1.00  0.00     0.167 HD
ATOM     54  C   UNL A   1      46.427  30.207  27.790  1.00  0.00     0.074 A 
ATOM     55  C   UNL A   1      47.816  30.502  27.503  1.00  0.00     0.031 C 
ATOM     56  C   UNL A   1      45.542  31.102  28.292  1.00  0.00     0.037 A 
BRANCH  43  57
ATOM     57  C   UNL A   1      39.830  28.854  29.002  1.00  0.00     0.064 A 
ATOM     58  C   UNL A   1      38.911  29.313  28.046  1.00  0.00     0.173 A 
ATOM     59  C   UNL A   1      39.362  28.635  30.306  1.00  0.00     0.173 A 
ATOM     60  F   UNL A   1      39.308  29.547  26.786  1.00  0.00    -0.203 F 
ATOM     61  C   UNL A   1      37.590  29.583  28.392  1.00  0.00     0.198 A 
ATOM     62  C   UNL A   1      38.032  28.876  30.642  1.00  0.00     0.198 A 
ATOM     63  F   UNL A   1      40.195  28.188  31.259  1.00  0.00    -0.203 F 
ATOM     64  F   UNL A   1      36.746  30.079  27.475  1.00  0.00    -0.200 F 
ATOM     65  C   UNL A   1      37.150  29.359  29.687  1.00  0.00     0.200 A 
ATOM     66  F   UNL A   1      37.606  28.646  31.892  1.00  0.00    -0.200 F 
ATOM     67  F   UNL A   1      35.878  29.619  30.020  1.00  0.00    -0.200 F 
ENDBRANCH  43  57
BRANCH  44  68
ATOM     68  C   UNL A   1      49.101  26.767  26.002  1.00  0.00     0.064 A 
ATOM     69  C   UNL A   1      50.063  26.176  26.830  1.00  0.00     0.173 A 
ATOM     70  C   UNL A   1      49.459  27.034  24.672  1.00  0.00     0.173 A 
ATOM     71  F   UNL A   1      49.774  25.920  28.115  1.00  0.00    -0.203 F 
ATOM     72  C   UNL A   1      51.335  25.868  26.351  1.00  0.00     0.198 A 
ATOM     73  C   UNL A   1      50.722  26.703  24.186  1.00  0.00     0.198 A 
ATOM     74  F   UNL A   1      48.571  27.593  23.838  1.00  0.00    -0.203 F 
ATOM     75  F   UNL A   1      52.246  25.329  27.173  1.00  0.00    -0.200 F 
ATOM     76  C   UNL A   1      51.660  26.125  25.027  1.00  0.00     0.200 A 
ATOM     77  F   UNL A   1      51.027  26.937  22.903  1.00  0.00    -0.200 F 
ATOM     78  F   UNL A   1      52.879  25.815  24.563  1.00  0.00    -0.200 F 
ENDBRANCH  44  68
BRANCH  56  79
ATOM     79  C   UNL A   1      46.049  32.487  28.574  1.00  0.00     0.064 A 
ATOM     80  C   UNL A   1      46.636  32.817  29.805  1.00  0.00     0.173 A 
ATOM     81  C   UNL A   1      45.978  33.487  27.591  1.00  0.00     0.173 A 
ATOM     82  F   UNL A   1      46.713  31.903  30.783  1.00  0.00    -0.203 F 
ATOM     83  C   UNL A   1      47.113  34.102  30.049  1.00  0.00     0.198 A 
ATOM     84  C   UNL A   1      46.483  34.762  27.828  1.00  0.00     0.198 A 
ATOM     85  F   UNL A   1      45.432  33.221  26.396  1.00  0.00    -0.203 F 
ATOM     86  F   UNL A   1      47.629  34.408  31.247  1.00  0.00    -0.200 F 
ATOM     87  C   UNL A   1      47.043  35.071  29.059  1.00  0.00     0.200 A 
ATOM     88  F   UNL A   1      46.426  35.693  26.866  1.00  0.00    -0.200 F 
ATOM     89  F   UNL A   1      47.508  36.306  29.293  1.00  0.00    -0.200 F 
ENDBRANCH  56  79
ENDBRANCH  30  31
ENDBRANCH  22  25
ENDBRANCH  20  21
ENDBRANCH  19  20
ENDBRANCH   1  19
TORSDOF 13
ENDMDL
MODEL 3
REMARK VINA RESULT:     -11.8      6.697     11.758
REMARK SMILES CC(C)(C[S@](=O)c1cccc(Cl)c1)C(=O)NCCCNC(=O)c1ccc(-c2c3nc(c(-c4c(F)c(F)c(F)c(F)c4F)c4ccc([nH]4)c(-c4c(F)c(F)c(F)c(F)c4F)c4nc(c(-c5c(F)c(F)c(F)c(F)c5F)c5ccc2[nH]5)C=C4)C=C3)cc1
REMARK SMILES IDX 17 1 16 2 14 3 15 4 2 6 1 7 3 8 4 9 5 10 6 11 7 12 8 13
REMARK SMILES IDX 13 14 9 15 11 16 10 17 12 18 18 19 19 20 20 21 21 22 22 24
REMARK SMILES IDX 23 25 24 26 85 27 25 28 84 29 26 30 27 31 28 32 78 33 29 34
REMARK SMILES IDX 83 35 77 36 79 37 30 38 82 39 76 40 75 41 31 43 63 44 43 45
REMARK SMILES IDX 62 46 44 47 47 48 61 49 80 50 45 51 46 52 60 54 81 55 48 56
REMARK SMILES IDX 32 57 33 58 41 59 34 60 35 61 39 62 42 63 36 64 37 65 40 66
REMARK SMILES IDX 38 67 64 68 65 69 73 70 66 71 67 72 71 73 74 74 68 75 69 76
REMARK SMILES IDX 72 77 70 78 49 79 50 80 58 81 51 82 52 83 56 84 59 85 53 86
REMARK SMILES IDX 54 87 57 88 55 89
REMARK H PARENT 16 5 20 23 79 42 47 53
REMARK Flexibility Score: inf
ROOT
ATOM      1  C   UNL A   1      36.910  20.407  25.002  1.00  0.00     0.117 C 
ENDROOT
BRANCH   1   2
ATOM      2  N   UNL A   1      37.152  21.771  25.451  1.00  0.00    -0.356 N 
ATOM      3  C   UNL A   1      36.386  22.892  25.535  1.00  0.00     0.226 C 
ATOM      4  O   UNL A   1      36.899  23.844  26.134  1.00  0.00    -0.274 OA
ATOM      5  H   UNL A   1      38.075  21.914  25.764  1.00  0.00     0.163 HD
BRANCH   3   6
ATOM      6  C   UNL A   1      34.977  23.016  24.928  1.00  0.00     0.055 C 
ATOM      7  C   UNL A   1      35.068  22.970  23.382  1.00  0.00     0.022 C 
ATOM      8  C   UNL A   1      34.402  24.418  25.234  1.00  0.00     0.022 C 
BRANCH   6   9
ATOM      9  C   UNL A   1      34.046  21.914  25.466  1.00  0.00     0.126 C 
BRANCH   9  10
ATOM     10  S   UNL A   1      32.508  21.567  24.529  1.00  0.00     0.054 S 
ATOM     11  O   UNL A   1      31.421  21.444  25.559  1.00  0.00    -0.254 OA
BRANCH  10  12
ATOM     12  C   UNL A   1      32.793  19.880  23.961  1.00  0.00     0.040 A 
ATOM     13  C   UNL A   1      32.156  19.375  22.823  1.00  0.00     0.018 A 
ATOM     14  C   UNL A   1      33.737  19.088  24.625  1.00  0.00     0.038 A 
ATOM     15  C   UNL A   1      32.409  18.071  22.390  1.00  0.00     0.003 A 
ATOM     16  C   UNL A   1      33.989  17.789  24.186  1.00  0.00     0.042 A 
ATOM     17  C   UNL A   1      33.318  17.271  23.080  1.00  0.00     0.020 A 
ATOM     18  Cl  UNL A   1      35.153  16.821  25.005  1.00  0.00    -0.084 Cl
ENDBRANCH  10  12
ENDBRANCH   9  10
ENDBRANCH   6   9
ENDBRANCH   3   6
ENDBRANCH   1   2
BRANCH   1  19
ATOM     19  C   UNL A   1      38.153  19.523  24.984  1.00  0.00     0.042 C 
BRANCH  19  20
ATOM     20  C   UNL A   1      39.232  19.899  25.990  1.00  0.00     0.118 C 
BRANCH  20  21
ATOM     21  N   UNL A   1      40.341  18.962  26.009  1.00  0.00    -0.352 N 
ATOM     22  C   UNL A   1      41.691  19.188  26.128  1.00  0.00     0.251 C 
ATOM     23  H   UNL A   1      40.085  18.016  25.925  1.00  0.00     0.163 HD
ATOM     24  O   UNL A   1      42.472  18.254  25.974  1.00  0.00    -0.269 OA
BRANCH  22  25
ATOM     25  C   UNL A   1      42.222  20.543  26.410  1.00  0.00     0.039 A 
ATOM     26  C   UNL A   1      42.406  21.421  25.337  1.00  0.00     0.014 A 
ATOM     27  C   UNL A   1      42.575  20.947  27.701  1.00  0.00     0.014 A 
ATOM     28  C   UNL A   1      42.883  22.713  25.563  1.00  0.00     0.010 A 
ATOM     29  C   UNL A   1      42.979  22.261  27.937  1.00  0.00     0.010 A 
ATOM     30  C   UNL A   1      43.144  23.157  26.870  1.00  0.00    -0.014 A 
BRANCH  30  31
ATOM     31  C   UNL A   1      43.586  24.553  27.126  1.00  0.00     0.031 A 
ATOM     32  C   UNL A   1      42.616  25.584  27.632  1.00  0.00     0.074 A 
ATOM     33  C   UNL A   1      44.855  24.910  26.851  1.00  0.00     0.049 A 
ATOM     34  N   UNL A   1      42.815  26.853  27.892  1.00  0.00    -0.248 NA
ATOM     35  C   UNL A   1      41.231  25.139  27.846  1.00  0.00     0.031 C 
ATOM     36  C   UNL A   1      45.877  24.022  26.296  1.00  0.00     0.029 A 
ATOM     37  N   UNL A   1      45.499  26.115  26.990  1.00  0.00    -0.354 N 
ATOM     38  C   UNL A   1      41.581  27.358  28.281  1.00  0.00     0.074 A 
ATOM     39  C   UNL A   1      40.630  26.273  28.175  1.00  0.00     0.031 C 
ATOM     40  C   UNL A   1      47.023  24.708  26.155  1.00  0.00     0.029 A 
ATOM     41  C   UNL A   1      46.810  26.088  26.583  1.00  0.00     0.049 A 
ATOM     42  H   UNL A   1      45.061  26.921  27.347  1.00  0.00     0.167 HD
ATOM     43  C   UNL A   1      41.274  28.607  28.708  1.00  0.00     0.037 A 
ATOM     44  C   UNL A   1      47.737  27.064  26.553  1.00  0.00     0.037 A 
ATOM     45  C   UNL A   1      42.229  29.677  28.841  1.00  0.00     0.049 A 
ATOM     46  C   UNL A   1      47.381  28.435  27.057  1.00  0.00     0.074 A 
ATOM     47  C   UNL A   1      42.035  30.948  29.355  1.00  0.00     0.029 A 
ATOM     48  N   UNL A   1      43.556  29.605  28.445  1.00  0.00    -0.354 N 
ATOM     49  N   UNL A   1      46.236  28.875  27.518  1.00  0.00    -0.248 NA
ATOM     50  C   UNL A   1      48.452  29.442  27.050  1.00  0.00     0.031 C 
ATOM     51  C   UNL A   1      43.232  31.661  29.222  1.00  0.00     0.029 A 
ATOM     52  C   UNL A   1      44.186  30.819  28.673  1.00  0.00     0.049 A 
ATOM     53  H   UNL A   1      43.988  28.809  28.059  1.00  0.00     0.167 HD
ATOM     54  C   UNL A   1      46.448  30.202  27.867  1.00  0.00     0.074 A 
ATOM     55  C   UNL A   1      47.840  30.489  27.585  1.00  0.00     0.031 C 
ATOM     56  C   UNL A   1      45.569  31.098  28.377  1.00  0.00     0.037 A 
BRANCH  43  57
ATOM     57  C   UNL A   1      39.840  28.886  29.057  1.00  0.00     0.064 A 
ATOM     58  C   UNL A   1      38.918  29.331  28.097  1.00  0.00     0.173 A 
ATOM     59  C   UNL A   1      39.376  28.689  30.366  1.00  0.00     0.173 A 
ATOM     60  F   UNL A   1      39.311  29.544  26.831  1.00  0.00    -0.203 F 
ATOM     61  C   UNL A   1      37.598  29.608  28.443  1.00  0.00     0.198 A 
ATOM     62  C   UNL A   1      38.047  28.936  30.702  1.00  0.00     0.198 A 
ATOM     63  F   UNL A   1      40.212  28.256  31.323  1.00  0.00    -0.203 F 
ATOM     64  F   UNL A   1      36.752  30.090  27.521  1.00  0.00    -0.200 F 
ATOM     65  C   UNL A   1      37.162  29.405  29.743  1.00  0.00     0.200 A 
ATOM     66  F   UNL A   1      37.626  28.727  31.957  1.00  0.00    -0.200 F 
ATOM     67  F   UNL A   1      35.892  29.673  30.076  1.00  0.00    -0.200 F 
ENDBRANCH  43  57
BRANCH  44  68
ATOM     68  C   UNL A   1      49.099  26.759  26.049  1.00  0.00     0.064 A 
ATOM     69  C   UNL A   1      49.439  26.977  24.708  1.00  0.00     0.173 A 
ATOM     70  C   UNL A   1      50.099  26.276  26.907  1.00  0.00     0.173 A 
ATOM     71  F   UNL A   1      48.512  27.420  23.846  1.00  0.00    -0.203 F 
ATOM     72  C   UNL A   1      50.726  26.718  24.240  1.00  0.00     0.198 A 
ATOM     73  C   UNL A   1      51.392  26.042  26.444  1.00  0.00     0.198 A 
ATOM     74  F   UNL A   1      49.825  26.058  28.200  1.00  0.00    -0.203 F 
ATOM     75  F   UNL A   1      51.017  26.908  22.946  1.00  0.00    -0.200 F 
ATOM     76  C   UNL A   1      51.703  26.258  25.111  1.00  0.00     0.200 A 
ATOM     77  F   UNL A   1      52.337  25.613  27.291  1.00  0.00    -0.200 F 
ATOM     78  F   UNL A   1      52.944  26.024  24.663  1.00  0.00    -0.200 F 
ENDBRANCH  44  68
BRANCH  56  79
ATOM     79  C   UNL A   1      46.086  32.476  28.674  1.00  0.00     0.064 A 
ATOM     80  C   UNL A   1      46.000  33.512  27.731  1.00  0.00     0.173 A 
ATOM     81  C   UNL A   1      46.642  32.774  29.928  1.00  0.00     0.173 A 
ATOM     82  F   UNL A   1      45.493  33.275  26.513  1.00  0.00    -0.203 F 
ATOM     83  C   UNL A   1      46.473  34.788  28.024  1.00  0.00     0.198 A 
ATOM     84  C   UNL A   1      47.086  34.059  30.228  1.00  0.00     0.198 A 
ATOM     85  F   UNL A   1      46.742  31.822  30.866  1.00  0.00    -0.203 F 
ATOM     86  F   UNL A   1      46.423  35.750  27.093  1.00  0.00    -0.200 F 
ATOM     87  C   UNL A   1      47.009  35.062  29.274  1.00  0.00     0.200 A 
ATOM     88  F   UNL A   1      47.592  34.326  31.440  1.00  0.00    -0.200 F 
ATOM     89  F   UNL A   1      47.457  36.294  29.557  1.00  0.00    -0.200 F 
ENDBRANCH  56  79
ENDBRANCH  30  31
ENDBRANCH  22  25
ENDBRANCH  20  21
ENDBRANCH  19  20
ENDBRANCH   1  19
TORSDOF 13
ENDMDL
