MODEL 1
REMARK VINA RESULT:     -13.3      0.000      0.000
REMARK SMILES O=C(NCCCNC(=O)c1ccc2nc(-n3cccc3)sc2c1)c1ccc(-c2c3nc(c(-c4c(F)c(F)c(F)c(F)c4F)c4ccc([nH]4)c(-c4c(F)c(F)c(F)c(F)c4F)c4nc(c(-c5c(F)c(F)c(F)c(F)c5F)c5ccc2[nH]5)C=C4)C=C3)cc1
REMARK SMILES IDX 4 1 3 2 1 3 2 4 24 6 25 7 86 8 26 9 85 10 27 11 28 12 29 13
REMARK SMILES IDX 79 14 30 15 84 16 78 17 80 18 31 19 83 20 77 21 76 22 32 24
REMARK SMILES IDX 64 25 44 26 63 27 45 28 48 29 62 30 81 31 46 32 47 33 61 35
REMARK SMILES IDX 82 36 49 37 33 38 34 39 42 40 35 41 36 42 40 43 43 44 37 45
REMARK SMILES IDX 38 46 41 47 39 48 65 49 66 50 74 51 67 52 68 53 72 54 75 55
REMARK SMILES IDX 69 56 70 57 73 58 71 59 50 60 51 61 59 62 52 63 53 64 57 65
REMARK SMILES IDX 60 66 54 67 55 68 58 69 56 70 5 71 6 72 7 73 8 74 9 76 10 77
REMARK SMILES IDX 11 78 23 79 12 80 22 81 13 82 21 83 14 84 15 85 16 86 17 87
REMARK SMILES IDX 20 88 18 89 19 90
REMARK H PARENT 3 5 80 23 48 34 7 75
REMARK Flexibility Score: inf
ROOT
ATOM      1  C   UNL A   1      34.470  28.606  26.871  1.00  0.00     0.118 C 
ENDROOT
BRANCH   1   2
ATOM      2  N   UNL A   1      34.832  29.937  27.333  1.00  0.00    -0.352 N 
ATOM      3  O   UNL A   1      36.021  31.702  28.009  1.00  0.00    -0.269 OA
ATOM      4  C   UNL A   1      36.011  30.500  27.747  1.00  0.00     0.251 C 
ATOM      5  H   UNL A   1      34.073  30.562  27.352  1.00  0.00     0.163 HD
BRANCH   4   6
ATOM      6  C   UNL A   1      37.252  29.716  27.955  1.00  0.00     0.039 A 
ATOM      7  C   UNL A   1      38.329  29.733  27.068  1.00  0.00     0.014 A 
ATOM      8  C   UNL A   1      37.345  28.958  29.136  1.00  0.00     0.014 A 
ATOM      9  C   UNL A   1      39.446  28.942  27.306  1.00  0.00     0.010 A 
ATOM     10  C   UNL A   1      38.483  28.195  29.405  1.00  0.00     0.010 A 
ATOM     11  C   UNL A   1      39.535  28.193  28.485  1.00  0.00    -0.014 A 
BRANCH  11  12
ATOM     12  C   UNL A   1      40.865  27.630  28.809  1.00  0.00     0.031 A 
ATOM     13  C   UNL A   1      41.014  26.193  28.275  1.00  0.00     0.074 A 
ATOM     14  C   UNL A   1      41.693  28.390  29.585  1.00  0.00     0.049 A 
ATOM     15  N   UNL A   1      41.746  25.210  28.707  1.00  0.00    -0.248 NA
ATOM     16  C   UNL A   1      40.168  25.765  27.125  1.00  0.00     0.031 C 
ATOM     17  C   UNL A   1      41.416  29.783  29.984  1.00  0.00     0.029 A 
ATOM     18  N   UNL A   1      42.905  28.161  30.210  1.00  0.00    -0.354 N 
ATOM     19  C   UNL A   1      41.601  24.142  27.792  1.00  0.00     0.074 A 
ATOM     20  C   UNL A   1      40.535  24.501  26.911  1.00  0.00     0.031 C 
ATOM     21  C   UNL A   1      42.365  30.241  30.827  1.00  0.00     0.029 A 
ATOM     22  C   UNL A   1      43.356  29.208  31.060  1.00  0.00     0.049 A 
ATOM     23  H   UNL A   1      43.419  27.332  30.075  1.00  0.00     0.167 HD
ATOM     24  C   UNL A   1      42.456  23.079  27.734  1.00  0.00     0.037 A 
ATOM     25  C   UNL A   1      44.426  29.227  31.918  1.00  0.00     0.037 A 
ATOM     26  C   UNL A   1      43.422  23.163  28.773  1.00  0.00     0.049 A 
ATOM     27  C   UNL A   1      45.148  27.974  31.663  1.00  0.00     0.074 A 
ATOM     28  C   UNL A   1      43.355  22.927  30.119  1.00  0.00     0.029 A 
ATOM     29  N   UNL A   1      44.585  23.831  28.491  1.00  0.00    -0.354 N 
ATOM     30  N   UNL A   1      45.885  27.751  30.617  1.00  0.00    -0.248 NA
ATOM     31  C   UNL A   1      45.005  26.863  32.614  1.00  0.00     0.031 C 
ATOM     32  C   UNL A   1      44.289  23.827  30.669  1.00  0.00     0.029 A 
ATOM     33  C   UNL A   1      44.977  24.476  29.637  1.00  0.00     0.049 A 
ATOM     34  H   UNL A   1      45.054  23.845  27.626  1.00  0.00     0.167 HD
ATOM     35  C   UNL A   1      46.009  26.382  30.635  1.00  0.00     0.074 A 
ATOM     36  C   UNL A   1      45.759  25.961  31.994  1.00  0.00     0.031 C 
ATOM     37  C   UNL A   1      45.760  25.681  29.501  1.00  0.00     0.037 A 
BRANCH  24  38
ATOM     38  C   UNL A   1      42.669  22.019  26.689  1.00  0.00     0.064 A 
ATOM     39  C   UNL A   1      42.162  20.718  26.934  1.00  0.00     0.173 A 
ATOM     40  C   UNL A   1      43.618  22.127  25.664  1.00  0.00     0.173 A 
ATOM     41  F   UNL A   1      41.216  20.513  27.865  1.00  0.00    -0.203 F 
ATOM     42  C   UNL A   1      42.669  19.591  26.291  1.00  0.00     0.198 A 
ATOM     43  C   UNL A   1      44.089  20.999  24.986  1.00  0.00     0.198 A 
ATOM     44  F   UNL A   1      44.184  23.305  25.366  1.00  0.00    -0.203 F 
ATOM     45  F   UNL A   1      42.254  18.370  26.655  1.00  0.00    -0.200 F 
ATOM     46  C   UNL A   1      43.647  19.730  25.327  1.00  0.00     0.200 A 
ATOM     47  F   UNL A   1      45.036  21.138  24.047  1.00  0.00    -0.200 F 
ATOM     48  F   UNL A   1      44.188  18.647  24.754  1.00  0.00    -0.200 F 
ENDBRANCH  24  38
BRANCH  25  49
ATOM     49  C   UNL A   1      44.998  30.106  33.017  1.00  0.00     0.064 A 
ATOM     50  C   UNL A   1      44.436  30.324  34.280  1.00  0.00     0.173 A 
ATOM     51  C   UNL A   1      46.263  30.745  32.835  1.00  0.00     0.173 A 
ATOM     52  F   UNL A   1      43.205  29.898  34.575  1.00  0.00    -0.203 F 
ATOM     53  C   UNL A   1      45.122  31.015  35.299  1.00  0.00     0.198 A 
ATOM     54  C   UNL A   1      46.963  31.389  33.856  1.00  0.00     0.198 A 
ATOM     55  F   UNL A   1      46.880  30.770  31.647  1.00  0.00    -0.203 F 
ATOM     56  F   UNL A   1      44.538  31.185  36.494  1.00  0.00    -0.200 F 
ATOM     57  C   UNL A   1      46.399  31.511  35.100  1.00  0.00     0.200 A 
ATOM     58  F   UNL A   1      48.194  31.867  33.618  1.00  0.00    -0.200 F 
ATOM     59  F   UNL A   1      47.072  32.110  36.091  1.00  0.00    -0.200 F 
ENDBRANCH  25  49
BRANCH  37  60
ATOM     60  C   UNL A   1      45.948  26.501  28.237  1.00  0.00     0.064 A 
ATOM     61  C   UNL A   1      47.233  26.926  27.863  1.00  0.00     0.173 A 
ATOM     62  C   UNL A   1      44.885  27.004  27.470  1.00  0.00     0.173 A 
ATOM     63  F   UNL A   1      48.305  26.485  28.536  1.00  0.00    -0.203 F 
ATOM     64  C   UNL A   1      47.430  27.815  26.801  1.00  0.00     0.198 A 
ATOM     65  C   UNL A   1      45.079  27.885  26.404  1.00  0.00     0.198 A 
ATOM     66  F   UNL A   1      43.631  26.653  27.739  1.00  0.00    -0.203 F 
ATOM     67  F   UNL A   1      48.672  28.204  26.481  1.00  0.00    -0.200 F 
ATOM     68  C   UNL A   1      46.354  28.296  26.075  1.00  0.00     0.200 A 
ATOM     69  F   UNL A   1      44.025  28.328  25.701  1.00  0.00    -0.200 F 
ATOM     70  F   UNL A   1      46.546  29.143  25.053  1.00  0.00    -0.200 F 
ENDBRANCH  37  60
ENDBRANCH  11  12
ENDBRANCH   4   6
ENDBRANCH   1   2
BRANCH   1  71
ATOM     71  C   UNL A   1      32.975  28.370  26.651  1.00  0.00     0.042 C 
BRANCH  71  72
ATOM     72  C   UNL A   1      32.663  27.415  25.502  1.00  0.00     0.118 C 
BRANCH  72  73
ATOM     73  N   UNL A   1      31.257  27.459  25.135  1.00  0.00    -0.352 N 
ATOM     74  C   UNL A   1      30.416  26.442  24.761  1.00  0.00     0.251 C 
ATOM     75  H   UNL A   1      30.846  28.353  25.158  1.00  0.00     0.163 HD
ATOM     76  O   UNL A   1      29.335  26.688  24.255  1.00  0.00    -0.269 OA
BRANCH  74  77
ATOM     77  C   UNL A   1      30.819  25.037  24.976  1.00  0.00     0.041 A 
ATOM     78  C   UNL A   1      30.618  24.428  26.217  1.00  0.00     0.016 A 
ATOM     79  C   UNL A   1      31.333  24.323  23.888  1.00  0.00     0.035 A 
ATOM     80  C   UNL A   1      30.941  23.080  26.397  1.00  0.00     0.031 A 
ATOM     81  C   UNL A   1      31.688  22.981  24.098  1.00  0.00     0.057 A 
ATOM     82  C   UNL A   1      31.472  22.338  25.322  1.00  0.00     0.084 A 
ATOM     83  S   UNL A   1      32.443  21.873  23.014  1.00  0.00    -0.096 S 
ATOM     84  N   UNL A   1      31.804  20.996  25.354  1.00  0.00    -0.219 NA
ATOM     85  C   UNL A   1      32.358  20.667  24.210  1.00  0.00     0.194 A 
BRANCH  85  86
ATOM     86  N   UNL A   1      32.847  19.380  23.945  1.00  0.00    -0.300 N 
ATOM     87  C   UNL A   1      32.375  18.445  23.036  1.00  0.00     0.093 A 
ATOM     88  C   UNL A   1      33.953  18.815  24.560  1.00  0.00     0.093 A 
ATOM     89  C   UNL A   1      33.175  17.323  23.079  1.00  0.00     0.020 A 
ATOM     90  C   UNL A   1      34.157  17.546  24.065  1.00  0.00     0.020 A 
ENDBRANCH  85  86
ENDBRANCH  74  77
ENDBRANCH  72  73
ENDBRANCH  71  72
ENDBRANCH   1  71
TORSDOF 11
ENDMDL
MODEL 2
REMARK VINA RESULT:     -13.3      1.125      1.744
REMARK SMILES O=C(NCCCNC(=O)c1ccc2nc(-n3cccc3)sc2c1)c1ccc(-c2c3nc(c(-c4c(F)c(F)c(F)c(F)c4F)c4ccc([nH]4)c(-c4c(F)c(F)c(F)c(F)c4F)c4nc(c(-c5c(F)c(F)c(F)c(F)c5F)c5ccc2[nH]5)C=C4)C=C3)cc1
REMARK SMILES IDX 4 1 3 2 1 3 2 4 24 6 25 7 86 8 26 9 85 10 27 11 28 12 29 13
REMARK SMILES IDX 79 14 30 15 84 16 78 17 80 18 31 19 83 20 77 21 76 22 32 24
REMARK SMILES IDX 64 25 44 26 63 27 45 28 48 29 62 30 81 31 46 32 47 33 61 35
REMARK SMILES IDX 82 36 49 37 33 38 34 39 42 40 35 41 36 42 40 43 43 44 37 45
REMARK SMILES IDX 38 46 41 47 39 48 65 49 66 50 74 51 67 52 68 53 72 54 75 55
REMARK SMILES IDX 69 56 70 57 73 58 71 59 50 60 51 61 59 62 52 63 53 64 57 65
REMARK SMILES IDX 60 66 54 67 55 68 58 69 56 70 5 71 6 72 7 73 8 74 9 76 10 77
REMARK SMILES IDX 11 78 23 79 12 80 22 81 13 82 21 83 14 84 15 85 16 86 17 87
REMARK SMILES IDX 20 88 18 89 19 90
REMARK H PARENT 3 5 80 23 48 34 7 75
REMARK Flexibility Score: inf
ROOT
ATOM      1  C   UNL A   1      34.613  28.727  26.500  1.00  0.00     0.118 C 
ENDROOT
BRANCH   1   2
ATOM      2  N   UNL A   1      34.893  29.976  27.191  1.00  0.00    -0.352 N 
ATOM      3  O   UNL A   1      35.965  31.635  28.232  1.00  0.00    -0.269 OA
ATOM      4  C   UNL A   1      36.015  30.488  27.789  1.00  0.00     0.251 C 
ATOM      5  H   UNL A   1      34.116  30.577  27.239  1.00  0.00     0.163 HD
BRANCH   4   6
ATOM      6  C   UNL A   1      37.257  29.703  27.983  1.00  0.00     0.039 A 
ATOM      7  C   UNL A   1      38.326  29.723  27.086  1.00  0.00     0.014 A 
ATOM      8  C   UNL A   1      37.362  28.941  29.160  1.00  0.00     0.014 A 
ATOM      9  C   UNL A   1      39.445  28.931  27.310  1.00  0.00     0.010 A 
ATOM     10  C   UNL A   1      38.502  28.177  29.415  1.00  0.00     0.010 A 
ATOM     11  C   UNL A   1      39.545  28.179  28.486  1.00  0.00    -0.014 A 
BRANCH  11  12
ATOM     12  C   UNL A   1      40.878  27.614  28.795  1.00  0.00     0.031 A 
ATOM     13  C   UNL A   1      41.018  26.175  28.265  1.00  0.00     0.074 A 
ATOM     14  C   UNL A   1      41.717  28.376  29.559  1.00  0.00     0.049 A 
ATOM     15  N   UNL A   1      41.754  25.192  28.692  1.00  0.00    -0.248 NA
ATOM     16  C   UNL A   1      40.157  25.744  27.128  1.00  0.00     0.031 C 
ATOM     17  C   UNL A   1      41.447  29.771  29.955  1.00  0.00     0.029 A 
ATOM     18  N   UNL A   1      42.936  28.146  30.169  1.00  0.00    -0.354 N 
ATOM     19  C   UNL A   1      41.595  24.121  27.782  1.00  0.00     0.074 A 
ATOM     20  C   UNL A   1      40.519  24.479  26.913  1.00  0.00     0.031 C 
ATOM     21  C   UNL A   1      42.408  30.230  30.784  1.00  0.00     0.029 A 
ATOM     22  C   UNL A   1      43.400  29.195  31.009  1.00  0.00     0.049 A 
ATOM     23  H   UNL A   1      43.447  27.316  30.031  1.00  0.00     0.167 HD
ATOM     24  C   UNL A   1      42.447  23.056  27.718  1.00  0.00     0.037 A 
ATOM     25  C   UNL A   1      44.481  29.216  31.853  1.00  0.00     0.037 A 
ATOM     26  C   UNL A   1      43.426  23.142  28.745  1.00  0.00     0.049 A 
ATOM     27  C   UNL A   1      45.197  27.960  31.594  1.00  0.00     0.074 A 
ATOM     28  C   UNL A   1      43.376  22.911  30.092  1.00  0.00     0.029 A 
ATOM     29  N   UNL A   1      44.587  23.806  28.445  1.00  0.00    -0.354 N 
ATOM     30  N   UNL A   1      45.920  27.732  30.540  1.00  0.00    -0.248 NA
ATOM     31  C   UNL A   1      45.063  26.854  32.551  1.00  0.00     0.031 C 
ATOM     32  C   UNL A   1      44.318  23.812  30.627  1.00  0.00     0.029 A 
ATOM     33  C   UNL A   1      44.994  24.455  29.584  1.00  0.00     0.049 A 
ATOM     34  H   UNL A   1      45.045  23.817  27.574  1.00  0.00     0.167 HD
ATOM     35  C   UNL A   1      46.043  26.363  30.562  1.00  0.00     0.074 A 
ATOM     36  C   UNL A   1      45.809  25.947  31.925  1.00  0.00     0.031 C 
ATOM     37  C   UNL A   1      45.778  25.659  29.433  1.00  0.00     0.037 A 
BRANCH  24  38
ATOM     38  C   UNL A   1      42.645  21.992  26.674  1.00  0.00     0.064 A 
ATOM     39  C   UNL A   1      42.132  20.695  26.927  1.00  0.00     0.173 A 
ATOM     40  C   UNL A   1      43.586  22.092  25.641  1.00  0.00     0.173 A 
ATOM     41  F   UNL A   1      41.194  20.497  27.867  1.00  0.00    -0.203 F 
ATOM     42  C   UNL A   1      42.628  19.563  26.283  1.00  0.00     0.198 A 
ATOM     43  C   UNL A   1      44.045  20.958  24.962  1.00  0.00     0.198 A 
ATOM     44  F   UNL A   1      44.156  23.265  25.334  1.00  0.00    -0.203 F 
ATOM     45  F   UNL A   1      42.209  18.345  26.655  1.00  0.00    -0.200 F 
ATOM     46  C   UNL A   1      43.599  19.693  25.311  1.00  0.00     0.200 A 
ATOM     47  F   UNL A   1      44.984  21.089  24.015  1.00  0.00    -0.200 F 
ATOM     48  F   UNL A   1      44.128  18.605  24.736  1.00  0.00    -0.200 F 
ENDBRANCH  24  38
BRANCH  25  49
ATOM     49  C   UNL A   1      45.068  30.098  32.942  1.00  0.00     0.064 A 
ATOM     50  C   UNL A   1      46.285  30.787  32.884  1.00  0.00     0.173 A 
ATOM     51  C   UNL A   1      44.327  30.344  34.139  1.00  0.00     0.173 A 
ATOM     52  F   UNL A   1      47.153  30.579  31.891  1.00  0.00    -0.203 F 
ATOM     53  C   UNL A   1      46.670  31.719  33.869  1.00  0.00     0.198 A 
ATOM     54  C   UNL A   1      44.684  31.300  35.091  1.00  0.00     0.198 A 
ATOM     55  F   UNL A   1      43.214  29.663  34.436  1.00  0.00    -0.203 F 
ATOM     56  F   UNL A   1      47.842  32.357  33.755  1.00  0.00    -0.200 F 
ATOM     57  C   UNL A   1      45.852  32.003  34.949  1.00  0.00     0.200 A 
ATOM     58  F   UNL A   1      43.870  31.537  36.131  1.00  0.00    -0.200 F 
ATOM     59  F   UNL A   1      46.192  32.936  35.848  1.00  0.00    -0.200 F 
ENDBRANCH  25  49
BRANCH  37  60
ATOM     60  C   UNL A   1      45.952  26.473  28.164  1.00  0.00     0.064 A 
ATOM     61  C   UNL A   1      47.233  26.890  27.769  1.00  0.00     0.173 A 
ATOM     62  C   UNL A   1      44.880  26.981  27.411  1.00  0.00     0.173 A 
ATOM     63  F   UNL A   1      48.312  26.445  28.428  1.00  0.00    -0.203 F 
ATOM     64  C   UNL A   1      47.419  27.774  26.702  1.00  0.00     0.198 A 
ATOM     65  C   UNL A   1      45.063  27.856  26.340  1.00  0.00     0.198 A 
ATOM     66  F   UNL A   1      43.628  26.638  27.700  1.00  0.00    -0.203 F 
ATOM     67  F   UNL A   1      48.659  28.155  26.362  1.00  0.00    -0.200 F 
ATOM     68  C   UNL A   1      46.335  28.259  25.990  1.00  0.00     0.200 A 
ATOM     69  F   UNL A   1      44.001  28.304  25.651  1.00  0.00    -0.200 F 
ATOM     70  F   UNL A   1      46.516  29.102  24.963  1.00  0.00    -0.200 F 
ENDBRANCH  37  60
ENDBRANCH  11  12
ENDBRANCH   4   6
ENDBRANCH   1   2
BRANCH   1  71
ATOM     71  C   UNL A   1      33.287  28.057  26.863  1.00  0.00     0.042 C 
BRANCH  71  72
ATOM     72  C   UNL A   1      33.046  26.733  26.143  1.00  0.00     0.118 C 
BRANCH  72  73
ATOM     73  N   UNL A   1      33.055  26.898  24.699  1.00  0.00    -0.352 N 
ATOM     74  C   UNL A   1      33.565  26.077  23.724  1.00  0.00     0.251 C 
ATOM     75  H   UNL A   1      32.632  27.723  24.369  1.00  0.00     0.163 HD
ATOM     76  O   UNL A   1      33.702  26.483  22.583  1.00  0.00    -0.269 OA
BRANCH  74  77
ATOM     77  C   UNL A   1      33.948  24.690  24.057  1.00  0.00     0.041 A 
ATOM     78  C   UNL A   1      35.174  24.426  24.672  1.00  0.00     0.016 A 
ATOM     79  C   UNL A   1      33.022  23.670  23.807  1.00  0.00     0.035 A 
ATOM     80  C   UNL A   1      35.505  23.120  25.044  1.00  0.00     0.031 A 
ATOM     81  C   UNL A   1      33.388  22.359  24.151  1.00  0.00     0.057 A 
ATOM     82  C   UNL A   1      34.597  22.070  24.794  1.00  0.00     0.084 A 
ATOM     83  S   UNL A   1      32.538  20.885  23.876  1.00  0.00    -0.096 S 
ATOM     84  N   UNL A   1      34.784  20.743  25.137  1.00  0.00    -0.219 NA
ATOM     85  C   UNL A   1      33.783  20.036  24.664  1.00  0.00     0.194 A 
BRANCH  85  86
ATOM     86  N   UNL A   1      33.703  18.644  24.807  1.00  0.00    -0.300 N 
ATOM     87  C   UNL A   1      34.573  17.673  24.334  1.00  0.00     0.093 A 
ATOM     88  C   UNL A   1      32.706  17.980  25.504  1.00  0.00     0.093 A 
ATOM     89  C   UNL A   1      34.130  16.431  24.734  1.00  0.00     0.020 A 
ATOM     90  C   UNL A   1      32.931  16.623  25.450  1.00  0.00     0.020 A 
ENDBRANCH  85  86
ENDBRANCH  74  77
ENDBRANCH  72  73
ENDBRANCH  71  72
ENDBRANCH   1  71
TORSDOF 11
ENDMDL
MODEL 3
REMARK VINA RESULT:     -13.2      4.645      9.784
REMARK SMILES O=C(NCCCNC(=O)c1ccc2nc(-n3cccc3)sc2c1)c1ccc(-c2c3nc(c(-c4c(F)c(F)c(F)c(F)c4F)c4ccc([nH]4)c(-c4c(F)c(F)c(F)c(F)c4F)c4nc(c(-c5c(F)c(F)c(F)c(F)c5F)c5ccc2[nH]5)C=C4)C=C3)cc1
REMARK SMILES IDX 4 1 3 2 1 3 2 4 24 6 25 7 86 8 26 9 85 10 27 11 28 12 29 13
REMARK SMILES IDX 79 14 30 15 84 16 78 17 80 18 31 19 83 20 77 21 76 22 32 24
REMARK SMILES IDX 64 25 44 26 63 27 45 28 48 29 62 30 81 31 46 32 47 33 61 35
REMARK SMILES IDX 82 36 49 37 33 38 34 39 42 40 35 41 36 42 40 43 43 44 37 45
REMARK SMILES IDX 38 46 41 47 39 48 65 49 66 50 74 51 67 52 68 53 72 54 75 55
REMARK SMILES IDX 69 56 70 57 73 58 71 59 50 60 51 61 59 62 52 63 53 64 57 65
REMARK SMILES IDX 60 66 54 67 55 68 58 69 56 70 5 71 6 72 7 73 8 74 9 76 10 77
REMARK SMILES IDX 11 78 23 79 12 80 22 81 13 82 21 83 14 84 15 85 16 86 17 87
REMARK SMILES IDX 20 88 18 89 19 90
REMARK H PARENT 3 5 80 23 48 34 7 75
REMARK Flexibility Score: inf
ROOT
ATOM      1  C   UNL A   1      37.230  24.080  25.947  1.00  0.00     0.118 C 
ENDROOT
BRANCH   1   2
ATOM      2  N   UNL A   1      38.501  23.521  26.379  1.00  0.00    -0.352 N 
ATOM      3  O   UNL A   1      40.429  23.211  27.463  1.00  0.00    -0.269 OA
ATOM      4  C   UNL A   1      39.482  23.961  27.229  1.00  0.00     0.251 C 
ATOM      5  H   UNL A   1      38.698  22.644  25.978  1.00  0.00     0.163 HD
BRANCH   4   6
ATOM      6  C   UNL A   1      39.485  25.319  27.825  1.00  0.00     0.039 A 
ATOM      7  C   UNL A   1      39.060  25.586  29.127  1.00  0.00     0.014 A 
ATOM      8  C   UNL A   1      39.988  26.368  27.036  1.00  0.00     0.014 A 
ATOM      9  C   UNL A   1      39.052  26.890  29.608  1.00  0.00     0.010 A 
ATOM     10  C   UNL A   1      40.026  27.674  27.528  1.00  0.00     0.010 A 
ATOM     11  C   UNL A   1      39.559  27.929  28.820  1.00  0.00    -0.014 A 
BRANCH  11  12
ATOM     12  C   UNL A   1      39.801  29.219  29.506  1.00  0.00     0.031 A 
ATOM     13  C   UNL A   1      38.594  30.165  29.371  1.00  0.00     0.074 A 
ATOM     14  C   UNL A   1      41.040  29.414  30.047  1.00  0.00     0.049 A 
ATOM     15  N   UNL A   1      38.541  31.464  29.380  1.00  0.00    -0.248 NA
ATOM     16  C   UNL A   1      37.248  29.577  29.120  1.00  0.00     0.031 C 
ATOM     17  C   UNL A   1      42.086  28.378  30.133  1.00  0.00     0.029 A 
ATOM     18  N   UNL A   1      41.682  30.502  30.611  1.00  0.00    -0.354 N 
ATOM     19  C   UNL A   1      37.176  31.830  29.336  1.00  0.00     0.074 A 
ATOM     20  C   UNL A   1      36.441  30.637  29.061  1.00  0.00     0.031 C 
ATOM     21  C   UNL A   1      43.232  28.890  30.628  1.00  0.00     0.029 A 
ATOM     22  C   UNL A   1      43.054  30.299  30.922  1.00  0.00     0.049 A 
ATOM     23  H   UNL A   1      41.221  31.354  30.785  1.00  0.00     0.167 HD
ATOM     24  C   UNL A   1      36.721  33.078  29.656  1.00  0.00     0.037 A 
ATOM     25  C   UNL A   1      43.990  31.208  31.348  1.00  0.00     0.037 A 
ATOM     26  C   UNL A   1      37.812  33.946  29.932  1.00  0.00     0.049 A 
ATOM     27  C   UNL A   1      43.240  32.447  31.592  1.00  0.00     0.074 A 
ATOM     28  C   UNL A   1      38.718  34.578  29.126  1.00  0.00     0.029 A 
ATOM     29  N   UNL A   1      38.243  34.011  31.232  1.00  0.00    -0.354 N 
ATOM     30  N   UNL A   1      42.463  32.645  32.614  1.00  0.00    -0.248 NA
ATOM     31  C   UNL A   1      43.318  33.534  30.607  1.00  0.00     0.031 C 
ATOM     32  C   UNL A   1      39.884  34.647  29.914  1.00  0.00     0.029 A 
ATOM     33  C   UNL A   1      39.605  34.180  31.204  1.00  0.00     0.049 A 
ATOM     34  H   UNL A   1      37.681  33.949  32.037  1.00  0.00     0.167 HD
ATOM     35  C   UNL A   1      41.722  33.730  32.210  1.00  0.00     0.074 A 
ATOM     36  C   UNL A   1      42.490  34.399  31.186  1.00  0.00     0.031 C 
ATOM     37  C   UNL A   1      40.371  33.687  32.324  1.00  0.00     0.037 A 
BRANCH  24  38
ATOM     38  C   UNL A   1      35.343  33.594  29.962  1.00  0.00     0.064 A 
ATOM     39  C   UNL A   1      34.685  34.382  28.984  1.00  0.00     0.173 A 
ATOM     40  C   UNL A   1      34.809  33.647  31.256  1.00  0.00     0.173 A 
ATOM     41  F   UNL A   1      35.090  34.369  27.703  1.00  0.00    -0.203 F 
ATOM     42  C   UNL A   1      33.655  35.261  29.310  1.00  0.00     0.198 A 
ATOM     43  C   UNL A   1      33.742  34.495  31.569  1.00  0.00     0.198 A 
ATOM     44  F   UNL A   1      35.368  32.964  32.264  1.00  0.00    -0.203 F 
ATOM     45  F   UNL A   1      33.158  36.085  28.376  1.00  0.00    -0.200 F 
ATOM     46  C   UNL A   1      33.194  35.330  30.609  1.00  0.00     0.200 A 
ATOM     47  F   UNL A   1      33.293  34.556  32.831  1.00  0.00    -0.200 F 
ATOM     48  F   UNL A   1      32.251  36.221  30.943  1.00  0.00    -0.200 F 
ENDBRANCH  24  38
BRANCH  25  49
ATOM     49  C   UNL A   1      45.490  31.291  31.570  1.00  0.00     0.064 A 
ATOM     50  C   UNL A   1      46.478  31.248  30.579  1.00  0.00     0.173 A 
ATOM     51  C   UNL A   1      46.008  31.501  32.885  1.00  0.00     0.173 A 
ATOM     52  F   UNL A   1      46.179  30.942  29.314  1.00  0.00    -0.203 F 
ATOM     53  C   UNL A   1      47.835  31.506  30.858  1.00  0.00     0.198 A 
ATOM     54  C   UNL A   1      47.343  31.802  33.156  1.00  0.00     0.198 A 
ATOM     55  F   UNL A   1      45.231  31.424  33.972  1.00  0.00    -0.203 F 
ATOM     56  F   UNL A   1      48.736  31.462  29.867  1.00  0.00    -0.200 F 
ATOM     57  C   UNL A   1      48.260  31.821  32.138  1.00  0.00     0.200 A 
ATOM     58  F   UNL A   1      47.716  32.089  34.413  1.00  0.00    -0.200 F 
ATOM     59  F   UNL A   1      49.539  32.128  32.387  1.00  0.00    -0.200 F 
ENDBRANCH  25  49
BRANCH  37  60
ATOM     60  C   UNL A   1      39.891  32.725  33.396  1.00  0.00     0.064 A 
ATOM     61  C   UNL A   1      39.206  31.556  33.031  1.00  0.00     0.173 A 
ATOM     62  C   UNL A   1      39.955  32.997  34.772  1.00  0.00     0.173 A 
ATOM     63  F   UNL A   1      39.107  31.216  31.738  1.00  0.00    -0.203 F 
ATOM     64  C   UNL A   1      38.607  30.728  33.987  1.00  0.00     0.198 A 
ATOM     65  C   UNL A   1      39.367  32.170  35.730  1.00  0.00     0.198 A 
ATOM     66  F   UNL A   1      40.591  34.076  35.220  1.00  0.00    -0.203 F 
ATOM     67  F   UNL A   1      37.953  29.625  33.597  1.00  0.00    -0.200 F 
ATOM     68  C   UNL A   1      38.685  31.037  35.334  1.00  0.00     0.200 A 
ATOM     69  F   UNL A   1      39.465  32.476  37.033  1.00  0.00    -0.200 F 
ATOM     70  F   UNL A   1      38.116  30.239  36.250  1.00  0.00    -0.200 F 
ENDBRANCH  37  60
ENDBRANCH  11  12
ENDBRANCH   4   6
ENDBRANCH   1   2
BRANCH   1  71
ATOM     71  C   UNL A   1      36.535  23.331  24.809  1.00  0.00     0.042 C 
BRANCH  71  72
ATOM     72  C   UNL A   1      35.046  23.645  24.682  1.00  0.00     0.118 C 
BRANCH  72  73
ATOM     73  N   UNL A   1      34.344  22.619  23.930  1.00  0.00    -0.352 N 
ATOM     74  C   UNL A   1      33.172  22.698  23.221  1.00  0.00     0.251 C 
ATOM     75  H   UNL A   1      34.773  21.733  23.930  1.00  0.00     0.163 HD
ATOM     76  O   UNL A   1      32.601  21.686  22.854  1.00  0.00    -0.269 OA
BRANCH  74  77
ATOM     77  C   UNL A   1      32.596  24.019  22.895  1.00  0.00     0.041 A 
ATOM     78  C   UNL A   1      32.990  24.693  21.737  1.00  0.00     0.016 A 
ATOM     79  C   UNL A   1      31.602  24.533  23.736  1.00  0.00     0.035 A 
ATOM     80  C   UNL A   1      32.397  25.912  21.399  1.00  0.00     0.031 A 
ATOM     81  C   UNL A   1      31.044  25.777  23.401  1.00  0.00     0.057 A 
ATOM     82  C   UNL A   1      31.400  26.460  22.232  1.00  0.00     0.084 A 
ATOM     83  S   UNL A   1      29.898  26.726  24.273  1.00  0.00    -0.096 S 
ATOM     84  N   UNL A   1      30.711  27.637  22.001  1.00  0.00    -0.219 NA
ATOM     85  C   UNL A   1      29.934  27.885  23.030  1.00  0.00     0.194 A 
BRANCH  85  86
ATOM     86  N   UNL A   1      29.136  29.034  23.119  1.00  0.00    -0.300 N 
ATOM     87  C   UNL A   1      29.503  30.315  23.504  1.00  0.00     0.093 A 
ATOM     88  C   UNL A   1      27.790  29.087  22.793  1.00  0.00     0.093 A 
ATOM     89  C   UNL A   1      28.409  31.149  23.414  1.00  0.00     0.020 A 
ATOM     90  C   UNL A   1      27.317  30.364  22.992  1.00  0.00     0.020 A 
ENDBRANCH  85  86
ENDBRANCH  74  77
ENDBRANCH  72  73
ENDBRANCH  71  72
ENDBRANCH   1  71
TORSDOF 11
ENDMDL
