MODEL 1
REMARK VINA RESULT:     -12.9      0.000      0.000
REMARK SMILES Cc1cc(C)c(C(N)=O)c(N[C@H]2C=C[C@H](C(=O)NCCCNC(=O)c3ccc(-c4c5nc(c(-c6c(F)c(F)c(F)c(F)c6F)c6ccc([nH]6)c(-c6c(F)c(F)c(F)c(F)c6F)c6nc(c(-c7c(F)c(F)c(F)c(F)c7F)c7ccc4[nH]7)C=C6)C=C5)cc3)C2)n1
REMARK SMILES IDX 19 1 18 2 16 3 17 4 15 6 12 7 13 8 88 9 14 10 11 11 10 13
REMARK SMILES IDX 1 14 2 15 3 16 89 17 4 18 5 19 6 20 7 21 8 22 9 23 20 26
REMARK SMILES IDX 21 27 22 28 23 29 24 31 25 32 26 33 87 34 27 35 86 36 28 37
REMARK SMILES IDX 29 38 30 39 80 40 31 41 85 42 79 43 81 44 32 45 84 46 78 47
REMARK SMILES IDX 77 48 33 50 65 51 45 52 64 53 46 54 49 55 63 56 82 57 47 58
REMARK SMILES IDX 48 59 62 61 83 62 50 63 34 64 35 65 43 66 36 67 37 68 41 69
REMARK SMILES IDX 44 70 38 71 39 72 42 73 40 74 66 75 67 76 75 77 68 78 69 79
REMARK SMILES IDX 73 80 76 81 70 82 71 83 74 84 72 85 51 86 52 87 60 88 53 89
REMARK SMILES IDX 54 90 58 91 61 92 55 93 56 94 59 95 57 96
REMARK H PARENT 18 5 11 12 8 24 8 25 22 30 81 49 49 60
REMARK Flexibility Score: inf
ROOT
ATOM      1  C   UNL A   1      31.403  30.796  26.384  1.00  0.00     0.117 C 
ENDROOT
BRANCH   1   2
ATOM      2  N   UNL A   1      31.433  30.359  25.002  1.00  0.00    -0.356 N 
ATOM      3  C   UNL A   1      31.350  29.092  24.501  1.00  0.00     0.227 C 
ATOM      4  O   UNL A   1      31.317  28.960  23.277  1.00  0.00    -0.274 OA
ATOM      5  H   UNL A   1      31.527  31.074  24.333  1.00  0.00     0.163 HD
BRANCH   3   6
ATOM      6  C   UNL A   1      31.312  27.917  25.475  1.00  0.00     0.103 C 
ATOM      7  C   UNL A   1      32.873  26.061  25.124  1.00  0.00     0.104 C 
ATOM      8  C   UNL A   1      31.511  25.720  24.631  1.00  0.00    -0.006 C 
ATOM      9  C   UNL A   1      32.721  27.412  25.831  1.00  0.00     0.046 C 
ATOM     10  C   UNL A   1      30.657  26.728  24.824  1.00  0.00    -0.016 C 
BRANCH   7  11
ATOM     11  N   UNL A   1      33.424  25.023  25.973  1.00  0.00    -0.363 N 
ATOM     12  H   UNL A   1      33.451  25.188  26.943  1.00  0.00     0.162 HD
BRANCH  11  13
ATOM     13  C   UNL A   1      33.917  23.805  25.507  1.00  0.00     0.139 A 
ATOM     14  C   UNL A   1      36.650  22.799  23.242  1.00  0.00     0.067 C 
ATOM     15  C   UNL A   1      35.490  22.687  24.185  1.00  0.00     0.040 A 
ATOM     16  C   UNL A   1      34.938  21.454  24.482  1.00  0.00     0.028 A 
ATOM     17  N   UNL A   1      35.002  23.833  24.698  1.00  0.00    -0.236 NA
ATOM     18  C   UNL A   1      33.844  21.381  25.355  1.00  0.00    -0.033 A 
ATOM     19  C   UNL A   1      33.286  20.013  25.634  1.00  0.00     0.045 C 
ATOM     20  C   UNL A   1      33.316  22.583  25.876  1.00  0.00     0.084 A 
BRANCH  20  21
ATOM     21  C   UNL A   1      32.112  22.570  26.759  1.00  0.00     0.252 C 
ATOM     22  N   UNL A   1      30.908  22.286  26.176  1.00  0.00    -0.365 N 
ATOM     23  O   UNL A   1      32.175  22.786  27.965  1.00  0.00    -0.269 OA
ATOM     24  H   UNL A   1      30.858  22.112  25.208  1.00  0.00     0.159 HD
ATOM     25  H   UNL A   1      30.091  22.254  26.724  1.00  0.00     0.159 HD
ENDBRANCH  20  21
ENDBRANCH  11  13
ENDBRANCH   7  11
ENDBRANCH   3   6
ENDBRANCH   1   2
BRANCH   1  26
ATOM     26  C   UNL A   1      31.384  32.308  26.515  1.00  0.00     0.042 C 
BRANCH  26  27
ATOM     27  C   UNL A   1      32.579  32.883  27.258  1.00  0.00     0.118 C 
BRANCH  27  28
ATOM     28  N   UNL A   1      32.395  34.274  27.650  1.00  0.00    -0.352 N 
ATOM     29  C   UNL A   1      33.024  35.009  28.628  1.00  0.00     0.251 C 
ATOM     30  H   UNL A   1      31.714  34.764  27.136  1.00  0.00     0.163 HD
ATOM     31  O   UNL A   1      32.616  36.125  28.915  1.00  0.00    -0.269 OA
BRANCH  29  32
ATOM     32  C   UNL A   1      34.175  34.431  29.357  1.00  0.00     0.039 A 
ATOM     33  C   UNL A   1      33.937  33.698  30.522  1.00  0.00     0.014 A 
ATOM     34  C   UNL A   1      35.478  34.599  28.887  1.00  0.00     0.014 A 
ATOM     35  C   UNL A   1      35.000  33.060  31.165  1.00  0.00     0.010 A 
ATOM     36  C   UNL A   1      36.519  33.883  29.469  1.00  0.00     0.010 A 
ATOM     37  C   UNL A   1      36.291  33.107  30.616  1.00  0.00    -0.014 A 
BRANCH  37  38
ATOM     38  C   UNL A   1      37.425  32.365  31.225  1.00  0.00     0.031 A 
ATOM     39  C   UNL A   1      37.926  32.749  32.589  1.00  0.00     0.074 A 
ATOM     40  C   UNL A   1      38.044  31.393  30.525  1.00  0.00     0.049 A 
ATOM     41  N   UNL A   1      38.962  32.296  33.251  1.00  0.00    -0.248 NA
ATOM     42  C   UNL A   1      37.181  33.805  33.295  1.00  0.00     0.031 C 
ATOM     43  C   UNL A   1      37.677  30.953  29.177  1.00  0.00     0.029 A 
ATOM     44  N   UNL A   1      39.122  30.607  30.847  1.00  0.00    -0.354 N 
ATOM     45  C   UNL A   1      38.993  33.015  34.439  1.00  0.00     0.074 A 
ATOM     46  C   UNL A   1      37.919  33.980  34.381  1.00  0.00     0.031 C 
ATOM     47  C   UNL A   1      38.496  29.958  28.801  1.00  0.00     0.029 A 
ATOM     48  C   UNL A   1      39.476  29.723  29.856  1.00  0.00     0.049 A 
ATOM     49  H   UNL A   1      39.598  30.671  31.706  1.00  0.00     0.167 HD
ATOM     50  C   UNL A   1      39.824  32.863  35.497  1.00  0.00     0.037 A 
ATOM     51  C   UNL A   1      40.484  28.831  29.803  1.00  0.00     0.037 A 
ATOM     52  C   UNL A   1      40.881  31.890  35.561  1.00  0.00     0.049 A 
ATOM     53  C   UNL A   1      41.420  28.714  30.978  1.00  0.00     0.074 A 
ATOM     54  C   UNL A   1      41.759  31.636  36.600  1.00  0.00     0.029 A 
ATOM     55  N   UNL A   1      41.203  31.008  34.540  1.00  0.00    -0.354 N 
ATOM     56  N   UNL A   1      41.406  29.361  32.117  1.00  0.00    -0.248 NA
ATOM     57  C   UNL A   1      42.510  27.736  30.859  1.00  0.00     0.031 C 
ATOM     58  C   UNL A   1      42.641  30.629  36.191  1.00  0.00     0.029 A 
ATOM     59  C   UNL A   1      42.277  30.218  34.919  1.00  0.00     0.049 A 
ATOM     60  H   UNL A   1      40.738  30.950  33.675  1.00  0.00     0.167 HD
ATOM     61  C   UNL A   1      42.456  28.843  32.864  1.00  0.00     0.074 A 
ATOM     62  C   UNL A   1      43.078  27.818  32.053  1.00  0.00     0.031 C 
ATOM     63  C   UNL A   1      42.868  29.185  34.109  1.00  0.00     0.037 A 
BRANCH  50  64
ATOM     64  C   UNL A   1      39.611  33.761  36.682  1.00  0.00     0.064 A 
ATOM     65  C   UNL A   1      38.808  33.368  37.764  1.00  0.00     0.173 A 
ATOM     66  C   UNL A   1      40.247  35.009  36.759  1.00  0.00     0.173 A 
ATOM     67  F   UNL A   1      38.167  32.190  37.735  1.00  0.00    -0.203 F 
ATOM     68  C   UNL A   1      38.629  34.201  38.865  1.00  0.00     0.198 A 
ATOM     69  C   UNL A   1      40.092  35.826  37.876  1.00  0.00     0.198 A 
ATOM     70  F   UNL A   1      41.030  35.433  35.755  1.00  0.00    -0.203 F 
ATOM     71  F   UNL A   1      37.818  33.823  39.862  1.00  0.00    -0.200 F 
ATOM     72  C   UNL A   1      39.277  35.424  38.924  1.00  0.00     0.200 A 
ATOM     73  F   UNL A   1      40.731  37.002  37.938  1.00  0.00    -0.200 F 
ATOM     74  F   UNL A   1      39.113  36.221  39.989  1.00  0.00    -0.200 F 
ENDBRANCH  50  64
BRANCH  51  75
ATOM     75  C   UNL A   1      40.660  27.963  28.607  1.00  0.00     0.064 A 
ATOM     76  C   UNL A   1      41.430  28.393  27.516  1.00  0.00     0.173 A 
ATOM     77  C   UNL A   1      40.037  26.711  28.511  1.00  0.00     0.173 A 
ATOM     78  F   UNL A   1      42.029  29.592  27.551  1.00  0.00    -0.203 F 
ATOM     79  C   UNL A   1      41.540  27.619  26.363  1.00  0.00     0.198 A 
ATOM     80  C   UNL A   1      40.176  25.923  27.370  1.00  0.00     0.198 A 
ATOM     81  F   UNL A   1      39.294  26.250  29.527  1.00  0.00    -0.203 F 
ATOM     82  F   UNL A   1      42.230  28.083  25.312  1.00  0.00    -0.200 F 
ATOM     83  C   UNL A   1      40.916  26.383  26.292  1.00  0.00     0.200 A 
ATOM     84  F   UNL A   1      39.583  24.722  27.311  1.00  0.00    -0.200 F 
ATOM     85  F   UNL A   1      41.019  25.642  25.181  1.00  0.00    -0.200 F 
ENDBRANCH  51  75
BRANCH  63  86
ATOM     86  C   UNL A   1      44.011  28.408  34.696  1.00  0.00     0.064 A 
ATOM     87  C   UNL A   1      45.339  28.842  34.577  1.00  0.00     0.173 A 
ATOM     88  C   UNL A   1      43.765  27.234  35.426  1.00  0.00     0.173 A 
ATOM     89  F   UNL A   1      45.628  29.948  33.877  1.00  0.00    -0.203 F 
ATOM     90  C   UNL A   1      46.382  28.114  35.144  1.00  0.00     0.198 A 
ATOM     91  C   UNL A   1      44.807  26.529  36.021  1.00  0.00     0.198 A 
ATOM     92  F   UNL A   1      42.512  26.780  35.577  1.00  0.00    -0.203 F 
ATOM     93  F   UNL A   1      47.648  28.520  34.976  1.00  0.00    -0.200 F 
ATOM     94  C   UNL A   1      46.114  26.965  35.873  1.00  0.00     0.200 A 
ATOM     95  F   UNL A   1      44.544  25.427  36.737  1.00  0.00    -0.200 F 
ATOM     96  F   UNL A   1      47.119  26.271  36.427  1.00  0.00    -0.200 F 
ENDBRANCH  63  86
ENDBRANCH  37  38
ENDBRANCH  29  32
ENDBRANCH  27  28
ENDBRANCH  26  27
ENDBRANCH   1  26
TORSDOF 13
ENDMDL
MODEL 2
REMARK VINA RESULT:     -12.8      0.779      7.369
REMARK SMILES Cc1cc(C)c(C(N)=O)c(N[C@H]2C=C[C@H](C(=O)NCCCNC(=O)c3ccc(-c4c5nc(c(-c6c(F)c(F)c(F)c(F)c6F)c6ccc([nH]6)c(-c6c(F)c(F)c(F)c(F)c6F)c6nc(c(-c7c(F)c(F)c(F)c(F)c7F)c7ccc4[nH]7)C=C6)C=C5)cc3)C2)n1
REMARK SMILES IDX 19 1 18 2 16 3 17 4 15 6 12 7 13 8 88 9 14 10 11 11 10 13
REMARK SMILES IDX 1 14 2 15 3 16 89 17 4 18 5 19 6 20 7 21 8 22 9 23 20 26
REMARK SMILES IDX 21 27 22 28 23 29 24 31 25 32 26 33 87 34 27 35 86 36 28 37
REMARK SMILES IDX 29 38 30 39 80 40 31 41 85 42 79 43 81 44 32 45 84 46 78 47
REMARK SMILES IDX 77 48 33 50 65 51 45 52 64 53 46 54 49 55 63 56 82 57 47 58
REMARK SMILES IDX 48 59 62 61 83 62 50 63 34 64 35 65 43 66 36 67 37 68 41 69
REMARK SMILES IDX 44 70 38 71 39 72 42 73 40 74 66 75 67 76 75 77 68 78 69 79
REMARK SMILES IDX 73 80 76 81 70 82 71 83 74 84 72 85 51 86 52 87 60 88 53 89
REMARK SMILES IDX 54 90 58 91 61 92 55 93 56 94 59 95 57 96
REMARK H PARENT 18 5 11 12 8 24 8 25 22 30 81 49 49 60
REMARK Flexibility Score: inf
ROOT
ATOM      1  C   UNL A   1      31.806  30.240  26.247  1.00  0.00     0.117 C 
ENDROOT
BRANCH   1   2
ATOM      2  N   UNL A   1      31.986  30.078  24.818  1.00  0.00    -0.356 N 
ATOM      3  C   UNL A   1      31.825  28.957  24.054  1.00  0.00     0.227 C 
ATOM      4  O   UNL A   1      31.956  29.070  22.835  1.00  0.00    -0.274 OA
ATOM      5  H   UNL A   1      32.261  30.887  24.330  1.00  0.00     0.163 HD
BRANCH   3   6
ATOM      6  C   UNL A   1      31.504  27.636  24.747  1.00  0.00     0.103 C 
ATOM      7  C   UNL A   1      31.422  25.598  23.390  1.00  0.00     0.104 C 
ATOM      8  C   UNL A   1      30.054  26.105  23.684  1.00  0.00    -0.006 C 
ATOM      9  C   UNL A   1      32.366  26.477  24.216  1.00  0.00     0.046 C 
ATOM     10  C   UNL A   1      30.095  27.214  24.427  1.00  0.00    -0.016 C 
BRANCH   7  11
ATOM     11  N   UNL A   1      31.553  24.182  23.674  1.00  0.00    -0.363 N 
ATOM     12  H   UNL A   1      30.887  23.571  23.284  1.00  0.00     0.162 HD
BRANCH  11  13
ATOM     13  C   UNL A   1      32.560  23.627  24.463  1.00  0.00     0.139 A 
ATOM     14  C   UNL A   1      36.051  22.591  23.876  1.00  0.00     0.067 C 
ATOM     15  C   UNL A   1      34.762  22.850  24.594  1.00  0.00     0.040 A 
ATOM     16  C   UNL A   1      34.605  22.480  25.919  1.00  0.00     0.028 A 
ATOM     17  N   UNL A   1      33.769  23.423  23.888  1.00  0.00    -0.236 NA
ATOM     18  C   UNL A   1      33.383  22.720  26.561  1.00  0.00    -0.033 A 
ATOM     19  C   UNL A   1      33.273  22.293  27.998  1.00  0.00     0.045 C 
ATOM     20  C   UNL A   1      32.333  23.302  25.815  1.00  0.00     0.084 A 
BRANCH  20  21
ATOM     21  C   UNL A   1      30.990  23.520  26.430  1.00  0.00     0.252 C 
ATOM     22  N   UNL A   1      30.148  22.445  26.500  1.00  0.00    -0.365 N 
ATOM     23  O   UNL A   1      30.637  24.607  26.876  1.00  0.00    -0.269 OA
ATOM     24  H   UNL A   1      30.432  21.573  26.142  1.00  0.00     0.159 HD
ATOM     25  H   UNL A   1      29.258  22.542  26.909  1.00  0.00     0.159 HD
ENDBRANCH  20  21
ENDBRANCH  11  13
ENDBRANCH   7  11
ENDBRANCH   3   6
ENDBRANCH   1   2
BRANCH   1  26
ATOM     26  C   UNL A   1      31.520  31.679  26.637  1.00  0.00     0.042 C 
BRANCH  26  27
ATOM     27  C   UNL A   1      32.707  32.405  27.251  1.00  0.00     0.118 C 
BRANCH  27  28
ATOM     28  N   UNL A   1      32.437  33.808  27.534  1.00  0.00    -0.352 N 
ATOM     29  C   UNL A   1      33.004  34.649  28.463  1.00  0.00     0.251 C 
ATOM     30  H   UNL A   1      31.738  34.217  26.974  1.00  0.00     0.163 HD
ATOM     31  O   UNL A   1      32.528  35.758  28.659  1.00  0.00    -0.269 OA
BRANCH  29  32
ATOM     32  C   UNL A   1      34.171  34.195  29.250  1.00  0.00     0.039 A 
ATOM     33  C   UNL A   1      33.953  33.505  30.445  1.00  0.00     0.014 A 
ATOM     34  C   UNL A   1      35.473  34.435  28.807  1.00  0.00     0.014 A 
ATOM     35  C   UNL A   1      35.040  32.981  31.148  1.00  0.00     0.010 A 
ATOM     36  C   UNL A   1      36.545  33.829  29.451  1.00  0.00     0.010 A 
ATOM     37  C   UNL A   1      36.340  33.096  30.630  1.00  0.00    -0.014 A 
BRANCH  37  38
ATOM     38  C   UNL A   1      37.506  32.471  31.306  1.00  0.00     0.031 A 
ATOM     39  C   UNL A   1      38.237  31.336  30.644  1.00  0.00     0.074 A 
ATOM     40  C   UNL A   1      37.863  32.877  32.541  1.00  0.00     0.049 A 
ATOM     41  N   UNL A   1      39.209  30.592  31.108  1.00  0.00    -0.248 NA
ATOM     42  C   UNL A   1      37.798  30.968  29.287  1.00  0.00     0.031 C 
ATOM     43  C   UNL A   1      37.210  33.941  33.306  1.00  0.00     0.029 A 
ATOM     44  N   UNL A   1      38.858  32.432  33.376  1.00  0.00    -0.354 N 
ATOM     45  C   UNL A   1      39.488  29.669  30.107  1.00  0.00     0.074 A 
ATOM     46  C   UNL A   1      38.541  29.900  29.040  1.00  0.00     0.031 C 
ATOM     47  C   UNL A   1      37.839  34.087  34.483  1.00  0.00     0.029 A 
ATOM     48  C   UNL A   1      38.906  33.096  34.579  1.00  0.00     0.049 A 
ATOM     49  H   UNL A   1      39.479  31.707  33.137  1.00  0.00     0.167 HD
ATOM     50  C   UNL A   1      40.467  28.735  30.068  1.00  0.00     0.037 A 
ATOM     51  C   UNL A   1      39.713  32.915  35.642  1.00  0.00     0.037 A 
ATOM     52  C   UNL A   1      41.421  28.519  31.123  1.00  0.00     0.049 A 
ATOM     53  C   UNL A   1      40.766  31.839  35.587  1.00  0.00     0.074 A 
ATOM     54  C   UNL A   1      42.470  27.618  31.167  1.00  0.00     0.029 A 
ATOM     55  N   UNL A   1      41.441  29.216  32.322  1.00  0.00    -0.354 N 
ATOM     56  N   UNL A   1      41.055  31.010  34.614  1.00  0.00    -0.248 NA
ATOM     57  C   UNL A   1      41.608  31.677  36.780  1.00  0.00     0.031 C 
ATOM     58  C   UNL A   1      43.098  27.739  32.411  1.00  0.00     0.029 A 
ATOM     59  C   UNL A   1      42.475  28.753  33.120  1.00  0.00     0.049 A 
ATOM     60  H   UNL A   1      40.814  29.933  32.570  1.00  0.00     0.167 HD
ATOM     61  C   UNL A   1      42.134  30.258  35.060  1.00  0.00     0.074 A 
ATOM     62  C   UNL A   1      42.456  30.738  36.387  1.00  0.00     0.031 C 
ATOM     63  C   UNL A   1      42.798  29.260  34.428  1.00  0.00     0.037 A 
BRANCH  50  64
ATOM     64  C   UNL A   1      40.566  27.885  28.834  1.00  0.00     0.064 A 
ATOM     65  C   UNL A   1      39.856  26.680  28.716  1.00  0.00     0.173 A 
ATOM     66  C   UNL A   1      41.343  28.296  27.741  1.00  0.00     0.173 A 
ATOM     67  F   UNL A   1      39.108  26.235  29.737  1.00  0.00    -0.203 F 
ATOM     68  C   UNL A   1      39.942  25.906  27.562  1.00  0.00     0.198 A 
ATOM     69  C   UNL A   1      41.401  27.536  26.575  1.00  0.00     0.198 A 
ATOM     70  F   UNL A   1      42.039  29.442  27.796  1.00  0.00    -0.203 F 
ATOM     71  F   UNL A   1      39.293  24.735  27.495  1.00  0.00    -0.200 F 
ATOM     72  C   UNL A   1      40.706  26.338  26.490  1.00  0.00     0.200 A 
ATOM     73  F   UNL A   1      42.130  27.962  25.534  1.00  0.00    -0.200 F 
ATOM     74  F   UNL A   1      40.780  25.598  25.376  1.00  0.00    -0.200 F 
ENDBRANCH  50  64
BRANCH  51  75
ATOM     75  C   UNL A   1      39.578  33.779  36.846  1.00  0.00     0.064 A 
ATOM     76  C   UNL A   1      38.784  33.378  37.931  1.00  0.00     0.173 A 
ATOM     77  C   UNL A   1      40.201  35.032  36.924  1.00  0.00     0.173 A 
ATOM     78  F   UNL A   1      38.151  32.196  37.896  1.00  0.00    -0.203 F 
ATOM     79  C   UNL A   1      38.593  34.211  39.031  1.00  0.00     0.198 A 
ATOM     80  C   UNL A   1      40.035  35.851  38.040  1.00  0.00     0.198 A 
ATOM     81  F   UNL A   1      40.974  35.463  35.917  1.00  0.00    -0.203 F 
ATOM     82  F   UNL A   1      37.779  33.827  40.024  1.00  0.00    -0.200 F 
ATOM     83  C   UNL A   1      39.221  35.445  39.087  1.00  0.00     0.200 A 
ATOM     84  F   UNL A   1      40.656  37.038  38.097  1.00  0.00    -0.200 F 
ATOM     85  F   UNL A   1      39.032  36.248  40.142  1.00  0.00    -0.200 F 
ENDBRANCH  51  75
BRANCH  63  86
ATOM     86  C   UNL A   1      43.976  28.657  35.138  1.00  0.00     0.064 A 
ATOM     87  C   UNL A   1      45.279  29.141  34.950  1.00  0.00     0.173 A 
ATOM     88  C   UNL A   1      43.789  27.608  36.051  1.00  0.00     0.173 A 
ATOM     89  F   UNL A   1      45.513  30.131  34.077  1.00  0.00    -0.203 F 
ATOM     90  C   UNL A   1      46.355  28.578  35.632  1.00  0.00     0.198 A 
ATOM     91  C   UNL A   1      44.862  27.071  36.756  1.00  0.00     0.198 A 
ATOM     92  F   UNL A   1      42.562  27.114  36.273  1.00  0.00    -0.203 F 
ATOM     93  F   UNL A   1      47.598  29.022  35.400  1.00  0.00    -0.200 F 
ATOM     94  C   UNL A   1      46.145  27.551  36.540  1.00  0.00     0.200 A 
ATOM     95  F   UNL A   1      44.654  26.089  37.644  1.00  0.00    -0.200 F 
ATOM     96  F   UNL A   1      47.181  27.017  37.202  1.00  0.00    -0.200 F 
ENDBRANCH  63  86
ENDBRANCH  37  38
ENDBRANCH  29  32
ENDBRANCH  27  28
ENDBRANCH  26  27
ENDBRANCH   1  26
TORSDOF 13
ENDMDL
MODEL 3
REMARK VINA RESULT:     -12.8      5.405      9.908
REMARK SMILES Cc1cc(C)c(C(N)=O)c(N[C@H]2C=C[C@H](C(=O)NCCCNC(=O)c3ccc(-c4c5nc(c(-c6c(F)c(F)c(F)c(F)c6F)c6ccc([nH]6)c(-c6c(F)c(F)c(F)c(F)c6F)c6nc(c(-c7c(F)c(F)c(F)c(F)c7F)c7ccc4[nH]7)C=C6)C=C5)cc3)C2)n1
REMARK SMILES IDX 19 1 18 2 16 3 17 4 15 6 12 7 13 8 88 9 14 10 11 11 10 13
REMARK SMILES IDX 1 14 2 15 3 16 89 17 4 18 5 19 6 20 7 21 8 22 9 23 20 26
REMARK SMILES IDX 21 27 22 28 23 29 24 31 25 32 26 33 87 34 27 35 86 36 28 37
REMARK SMILES IDX 29 38 30 39 80 40 31 41 85 42 79 43 81 44 32 45 84 46 78 47
REMARK SMILES IDX 77 48 33 50 65 51 45 52 64 53 46 54 49 55 63 56 82 57 47 58
REMARK SMILES IDX 48 59 62 61 83 62 50 63 34 64 35 65 43 66 36 67 37 68 41 69
REMARK SMILES IDX 44 70 38 71 39 72 42 73 40 74 66 75 67 76 75 77 68 78 69 79
REMARK SMILES IDX 73 80 76 81 70 82 71 83 74 84 72 85 51 86 52 87 60 88 53 89
REMARK SMILES IDX 54 90 58 91 61 92 55 93 56 94 59 95 57 96
REMARK H PARENT 18 5 11 12 8 24 8 25 22 30 81 49 49 60
REMARK Flexibility Score: inf
ROOT
ATOM      1  C   UNL A   1      36.815  20.995  24.893  1.00  0.00     0.117 C 
ENDROOT
BRANCH   1   2
ATOM      2  N   UNL A   1      35.679  20.703  25.746  1.00  0.00    -0.356 N 
ATOM      3  C   UNL A   1      34.417  21.220  25.700  1.00  0.00     0.227 C 
ATOM      4  O   UNL A   1      33.581  20.764  26.482  1.00  0.00    -0.274 OA
ATOM      5  H   UNL A   1      35.841  20.041  26.456  1.00  0.00     0.163 HD
BRANCH   3   6
ATOM      6  C   UNL A   1      34.113  22.331  24.698  1.00  0.00     0.103 C 
ATOM      7  C   UNL A   1      31.870  23.317  24.696  1.00  0.00     0.104 C 
ATOM      8  C   UNL A   1      32.029  22.335  23.588  1.00  0.00    -0.006 C 
ATOM      9  C   UNL A   1      33.264  23.455  25.316  1.00  0.00     0.046 C 
ATOM     10  C   UNL A   1      33.251  21.799  23.584  1.00  0.00    -0.016 C 
BRANCH   7  11
ATOM     11  N   UNL A   1      31.314  24.575  24.237  1.00  0.00    -0.363 N 
ATOM     12  H   UNL A   1      30.484  24.546  23.710  1.00  0.00     0.162 HD
BRANCH  11  13
ATOM     13  C   UNL A   1      31.878  25.824  24.492  1.00  0.00     0.139 A 
ATOM     14  C   UNL A   1      31.778  28.195  27.316  1.00  0.00     0.067 C 
ATOM     15  C   UNL A   1      32.130  27.609  25.984  1.00  0.00     0.040 A 
ATOM     16  C   UNL A   1      32.898  28.321  25.079  1.00  0.00     0.028 A 
ATOM     17  N   UNL A   1      31.646  26.384  25.703  1.00  0.00    -0.236 NA
ATOM     18  C   UNL A   1      33.199  27.754  23.834  1.00  0.00    -0.033 A 
ATOM     19  C   UNL A   1      34.033  28.579  22.894  1.00  0.00     0.045 C 
ATOM     20  C   UNL A   1      32.673  26.479  23.529  1.00  0.00     0.084 A 
BRANCH  20  21
ATOM     21  C   UNL A   1      32.909  25.854  22.194  1.00  0.00     0.252 C 
ATOM     22  N   UNL A   1      32.109  26.259  21.160  1.00  0.00    -0.365 N 
ATOM     23  O   UNL A   1      33.788  25.020  22.000  1.00  0.00    -0.269 OA
ATOM     24  H   UNL A   1      31.404  26.928  21.316  1.00  0.00     0.159 HD
ATOM     25  H   UNL A   1      32.239  25.882  20.261  1.00  0.00     0.159 HD
ENDBRANCH  20  21
ENDBRANCH  11  13
ENDBRANCH   7  11
ENDBRANCH   3   6
ENDBRANCH   1   2
BRANCH   1  26
ATOM     26  C   UNL A   1      37.887  19.923  24.967  1.00  0.00     0.042 C 
BRANCH  26  27
ATOM     27  C   UNL A   1      39.092  20.305  25.812  1.00  0.00     0.118 C 
BRANCH  27  28
ATOM     28  N   UNL A   1      40.072  19.234  25.929  1.00  0.00    -0.352 N 
ATOM     29  C   UNL A   1      41.432  19.295  26.125  1.00  0.00     0.251 C 
ATOM     30  H   UNL A   1      39.703  18.324  25.857  1.00  0.00     0.163 HD
ATOM     31  O   UNL A   1      42.112  18.283  26.036  1.00  0.00    -0.269 OA
BRANCH  29  32
ATOM     32  C   UNL A   1      42.076  20.596  26.409  1.00  0.00     0.039 A 
ATOM     33  C   UNL A   1      42.483  21.396  25.338  1.00  0.00     0.014 A 
ATOM     34  C   UNL A   1      42.264  21.033  27.721  1.00  0.00     0.014 A 
ATOM     35  C   UNL A   1      43.000  22.671  25.586  1.00  0.00     0.010 A 
ATOM     36  C   UNL A   1      42.682  22.337  27.963  1.00  0.00     0.010 A 
ATOM     37  C   UNL A   1      43.057  23.169  26.897  1.00  0.00    -0.014 A 
BRANCH  37  38
ATOM     38  C   UNL A   1      43.513  24.553  27.185  1.00  0.00     0.031 A 
ATOM     39  C   UNL A   1      42.542  25.567  27.723  1.00  0.00     0.074 A 
ATOM     40  C   UNL A   1      44.780  24.915  26.899  1.00  0.00     0.049 A 
ATOM     41  N   UNL A   1      42.714  26.846  27.943  1.00  0.00    -0.248 NA
ATOM     42  C   UNL A   1      41.184  25.085  28.028  1.00  0.00     0.031 C 
ATOM     43  C   UNL A   1      45.808  24.035  26.339  1.00  0.00     0.029 A 
ATOM     44  N   UNL A   1      45.416  26.124  27.030  1.00  0.00    -0.354 N 
ATOM     45  C   UNL A   1      41.491  27.318  28.402  1.00  0.00     0.074 A 
ATOM     46  C   UNL A   1      40.566  26.208  28.365  1.00  0.00     0.031 C 
ATOM     47  C   UNL A   1      46.951  24.724  26.202  1.00  0.00     0.029 A 
ATOM     48  C   UNL A   1      46.727  26.105  26.617  1.00  0.00     0.049 A 
ATOM     49  H   UNL A   1      44.976  26.929  27.386  1.00  0.00     0.167 HD
ATOM     50  C   UNL A   1      41.175  28.557  28.845  1.00  0.00     0.037 A 
ATOM     51  C   UNL A   1      47.639  27.095  26.568  1.00  0.00     0.037 A 
ATOM     52  C   UNL A   1      42.101  29.657  28.899  1.00  0.00     0.049 A 
ATOM     53  C   UNL A   1      47.247  28.476  27.028  1.00  0.00     0.074 A 
ATOM     54  C   UNL A   1      41.888  30.944  29.360  1.00  0.00     0.029 A 
ATOM     55  N   UNL A   1      43.422  29.596  28.478  1.00  0.00    -0.354 N 
ATOM     56  N   UNL A   1      46.104  28.895  27.510  1.00  0.00    -0.248 NA
ATOM     57  C   UNL A   1      48.278  29.519  26.938  1.00  0.00     0.031 C 
ATOM     58  C   UNL A   1      43.067  31.675  29.177  1.00  0.00     0.029 A 
ATOM     59  C   UNL A   1      44.031  30.828  28.653  1.00  0.00     0.049 A 
ATOM     60  H   UNL A   1      43.862  28.796  28.110  1.00  0.00     0.167 HD
ATOM     61  C   UNL A   1      46.288  30.236  27.818  1.00  0.00     0.074 A 
ATOM     62  C   UNL A   1      47.659  30.557  27.479  1.00  0.00     0.031 C 
ATOM     63  C   UNL A   1      45.403  31.124  28.335  1.00  0.00     0.037 A 
BRANCH  50  64
ATOM     64  C   UNL A   1      39.770  28.786  29.324  1.00  0.00     0.064 A 
ATOM     65  C   UNL A   1      39.408  28.572  30.663  1.00  0.00     0.173 A 
ATOM     66  C   UNL A   1      38.784  29.265  28.448  1.00  0.00     0.173 A 
ATOM     67  F   UNL A   1      40.311  28.103  31.539  1.00  0.00    -0.203 F 
ATOM     68  C   UNL A   1      38.107  28.802  31.101  1.00  0.00     0.198 A 
ATOM     69  C   UNL A   1      37.491  29.526  28.897  1.00  0.00     0.198 A 
ATOM     70  F   UNL A   1      39.076  29.492  27.159  1.00  0.00    -0.203 F 
ATOM     71  F   UNL A   1      37.776  28.542  32.373  1.00  0.00    -0.200 F 
ATOM     72  C   UNL A   1      37.153  29.287  30.221  1.00  0.00     0.200 A 
ATOM     73  F   UNL A   1      36.573  30.007  28.048  1.00  0.00    -0.200 F 
ATOM     74  F   UNL A   1      35.903  29.518  30.645  1.00  0.00    -0.200 F 
ENDBRANCH  50  64
BRANCH  51  75
ATOM     75  C   UNL A   1      49.020  26.824  26.083  1.00  0.00     0.064 A 
ATOM     76  C   UNL A   1      49.359  27.022  24.736  1.00  0.00     0.173 A 
ATOM     77  C   UNL A   1      50.014  26.327  26.938  1.00  0.00     0.173 A 
ATOM     78  F   UNL A   1      48.438  27.476  23.874  1.00  0.00    -0.203 F 
ATOM     79  C   UNL A   1      50.628  26.702  24.259  1.00  0.00     0.198 A 
ATOM     80  C   UNL A   1      51.293  26.038  26.465  1.00  0.00     0.198 A 
ATOM     81  F   UNL A   1      49.745  26.123  28.236  1.00  0.00    -0.203 F 
ATOM     82  F   UNL A   1      50.904  26.843  22.955  1.00  0.00    -0.200 F 
ATOM     83  C   UNL A   1      51.595  26.214  25.123  1.00  0.00     0.200 A 
ATOM     84  F   UNL A   1      52.229  25.580  27.308  1.00  0.00    -0.200 F 
ATOM     85  F   UNL A   1      52.813  25.901  24.662  1.00  0.00    -0.200 F 
ENDBRANCH  51  75
BRANCH  63  86
ATOM     86  C   UNL A   1      45.902  32.510  28.621  1.00  0.00     0.064 A 
ATOM     87  C   UNL A   1      46.503  32.843  29.844  1.00  0.00     0.173 A 
ATOM     88  C   UNL A   1      45.815  33.509  27.637  1.00  0.00     0.173 A 
ATOM     89  F   UNL A   1      46.596  31.929  30.821  1.00  0.00    -0.203 F 
ATOM     90  C   UNL A   1      46.974  34.131  30.081  1.00  0.00     0.198 A 
ATOM     91  C   UNL A   1      46.318  34.786  27.866  1.00  0.00     0.198 A 
ATOM     92  F   UNL A   1      45.256  33.240  26.448  1.00  0.00    -0.203 F 
ATOM     93  F   UNL A   1      47.500  34.441  31.275  1.00  0.00    -0.200 F 
ATOM     94  C   UNL A   1      46.890  35.098  29.090  1.00  0.00     0.200 A 
ATOM     95  F   UNL A   1      46.249  35.713  26.902  1.00  0.00    -0.200 F 
ATOM     96  F   UNL A   1      47.354  36.335  29.317  1.00  0.00    -0.200 F 
ENDBRANCH  63  86
ENDBRANCH  37  38
ENDBRANCH  29  32
ENDBRANCH  27  28
ENDBRANCH  26  27
ENDBRANCH   1  26
TORSDOF 13
ENDMDL
