MODEL 1
REMARK VINA RESULT:     -13.0      0.000      0.000
REMARK SMILES O=C(NCCCNC(=O)c1c(F)cccc1NC(=O)c1ccc(Cl)nc1)c1ccc(-c2c3nc(c(-c4c(F)c(F)c(F)c(F)c4F)c4ccc([nH]4)c(-c4c(F)c(F)c(F)c(F)c4F)c4nc(c(-c5c(F)c(F)c(F)c(F)c5F)c5ccc2[nH]5)C=C4)C=C3)cc1
REMARK SMILES IDX 5 1 4 2 3 3 1 4 2 5 27 7 28 8 89 9 29 10 88 11 30 12 31 13
REMARK SMILES IDX 32 14 82 15 33 16 87 17 81 18 83 19 34 20 86 21 80 22 79 23
REMARK SMILES IDX 35 25 67 26 47 27 66 28 48 29 51 30 65 31 84 32 49 33 50 34
REMARK SMILES IDX 64 36 85 37 52 38 36 39 37 40 45 41 38 42 39 43 43 44 46 45
REMARK SMILES IDX 40 46 41 47 44 48 42 49 68 50 69 51 77 52 70 53 71 54 75 55
REMARK SMILES IDX 78 56 72 57 73 58 76 59 74 60 53 61 54 62 62 63 55 64 56 65
REMARK SMILES IDX 60 66 63 67 57 68 58 69 61 70 59 71 6 72 7 73 8 74 9 76
REMARK SMILES IDX 10 77 11 78 16 79 12 80 13 81 15 82 14 83 17 84 18 85 19 87
REMARK SMILES IDX 20 88 21 89 26 90 22 91 25 92 23 93 24 94
REMARK H PARENT 3 6 83 24 51 35 7 75 17 86
REMARK Flexibility Score: inf
ROOT
ATOM      1  C   UNL A   1      33.481  28.881  23.581  1.00  0.00     0.042 C 
ENDROOT
BRANCH   1   2
ATOM      2  C   UNL A   1      33.458  28.897  25.101  1.00  0.00     0.118 C 
BRANCH   2   3
ATOM      3  N   UNL A   1      32.792  30.077  25.640  1.00  0.00    -0.352 N 
ATOM      4  O   UNL A   1      32.282  31.703  27.109  1.00  0.00    -0.269 OA
ATOM      5  C   UNL A   1      33.090  30.864  26.728  1.00  0.00     0.251 C 
ATOM      6  H   UNL A   1      31.992  30.360  25.138  1.00  0.00     0.163 HD
BRANCH   5   7
ATOM      7  C   UNL A   1      34.369  30.696  27.454  1.00  0.00     0.039 A 
ATOM      8  C   UNL A   1      34.755  29.449  27.941  1.00  0.00     0.014 A 
ATOM      9  C   UNL A   1      35.221  31.796  27.615  1.00  0.00     0.014 A 
ATOM     10  C   UNL A   1      35.884  29.337  28.739  1.00  0.00     0.010 A 
ATOM     11  C   UNL A   1      36.423  31.655  28.319  1.00  0.00     0.010 A 
ATOM     12  C   UNL A   1      36.749  30.430  28.916  1.00  0.00    -0.014 A 
BRANCH  12  13
ATOM     13  C   UNL A   1      38.016  30.211  29.663  1.00  0.00     0.031 A 
ATOM     14  C   UNL A   1      38.195  30.700  31.071  1.00  0.00     0.074 A 
ATOM     15  C   UNL A   1      38.978  29.473  29.073  1.00  0.00     0.049 A 
ATOM     16  N   UNL A   1      39.197  30.491  31.890  1.00  0.00    -0.248 NA
ATOM     17  C   UNL A   1      37.125  31.534  31.641  1.00  0.00     0.031 C 
ATOM     18  C   UNL A   1      38.916  28.960  27.701  1.00  0.00     0.029 A 
ATOM     19  N   UNL A   1      40.160  28.977  29.556  1.00  0.00    -0.354 N 
ATOM     20  C   UNL A   1      38.886  31.173  33.058  1.00  0.00     0.074 A 
ATOM     21  C   UNL A   1      37.613  31.826  32.840  1.00  0.00     0.031 C 
ATOM     22  C   UNL A   1      39.959  28.149  27.486  1.00  0.00     0.029 A 
ATOM     23  C   UNL A   1      40.803  28.140  28.676  1.00  0.00     0.049 A 
ATOM     24  H   UNL A   1      40.516  29.199  30.448  1.00  0.00     0.167 HD
ATOM     25  C   UNL A   1      39.600  31.238  34.207  1.00  0.00     0.037 A 
ATOM     26  C   UNL A   1      41.944  27.440  28.808  1.00  0.00     0.037 A 
ATOM     27  C   UNL A   1      40.854  30.565  34.427  1.00  0.00     0.049 A 
ATOM     28  C   UNL A   1      42.709  27.535  30.095  1.00  0.00     0.074 A 
ATOM     29  C   UNL A   1      41.639  30.555  35.568  1.00  0.00     0.029 A 
ATOM     30  N   UNL A   1      41.505  29.776  33.490  1.00  0.00    -0.354 N 
ATOM     31  N   UNL A   1      42.397  28.179  31.192  1.00  0.00    -0.248 NA
ATOM     32  C   UNL A   1      43.990  26.821  30.156  1.00  0.00     0.031 C 
ATOM     33  C   UNL A   1      42.781  29.793  35.309  1.00  0.00     0.029 A 
ATOM     34  C   UNL A   1      42.689  29.291  34.021  1.00  0.00     0.049 A 
ATOM     35  H   UNL A   1      41.174  29.589  32.581  1.00  0.00     0.167 HD
ATOM     36  C   UNL A   1      43.442  27.951  32.074  1.00  0.00     0.074 A 
ATOM     37  C   UNL A   1      44.380  27.080  31.398  1.00  0.00     0.031 C 
ATOM     38  C   UNL A   1      43.616  28.434  33.329  1.00  0.00     0.037 A 
BRANCH  25  39
ATOM     39  C   UNL A   1      39.055  32.063  35.335  1.00  0.00     0.064 A 
ATOM     40  C   UNL A   1      39.370  33.427  35.434  1.00  0.00     0.173 A 
ATOM     41  C   UNL A   1      38.319  31.482  36.377  1.00  0.00     0.173 A 
ATOM     42  F   UNL A   1      40.078  34.029  34.466  1.00  0.00    -0.203 F 
ATOM     43  C   UNL A   1      38.989  34.173  36.547  1.00  0.00     0.198 A 
ATOM     44  C   UNL A   1      37.920  32.236  37.479  1.00  0.00     0.198 A 
ATOM     45  F   UNL A   1      37.983  30.185  36.324  1.00  0.00    -0.203 F 
ATOM     46  F   UNL A   1      39.335  35.465  36.638  1.00  0.00    -0.200 F 
ATOM     47  C   UNL A   1      38.266  33.576  37.568  1.00  0.00     0.200 A 
ATOM     48  F   UNL A   1      37.208  31.663  38.458  1.00  0.00    -0.200 F 
ATOM     49  F   UNL A   1      37.903  34.292  38.642  1.00  0.00    -0.200 F 
ENDBRANCH  25  39
BRANCH  26  50
ATOM     50  C   UNL A   1      42.420  26.587  27.689  1.00  0.00     0.064 A 
ATOM     51  C   UNL A   1      43.381  27.051  26.777  1.00  0.00     0.173 A 
ATOM     52  C   UNL A   1      41.905  25.298  27.493  1.00  0.00     0.173 A 
ATOM     53  F   UNL A   1      43.902  28.278  26.918  1.00  0.00    -0.203 F 
ATOM     54  C   UNL A   1      43.789  26.268  25.700  1.00  0.00     0.198 A 
ATOM     55  C   UNL A   1      42.338  24.505  26.434  1.00  0.00     0.198 A 
ATOM     56  F   UNL A   1      40.999  24.803  28.349  1.00  0.00    -0.203 F 
ATOM     57  F   UNL A   1      44.678  26.754  24.823  1.00  0.00    -0.200 F 
ATOM     58  C   UNL A   1      43.272  24.993  25.532  1.00  0.00     0.200 A 
ATOM     59  F   UNL A   1      41.855  23.263  26.289  1.00  0.00    -0.200 F 
ATOM     60  F   UNL A   1      43.677  24.235  24.506  1.00  0.00    -0.200 F 
ENDBRANCH  26  50
BRANCH  38  61
ATOM     61  C   UNL A   1      44.870  28.035  34.044  1.00  0.00     0.064 A 
ATOM     62  C   UNL A   1      44.912  26.866  34.817  1.00  0.00     0.173 A 
ATOM     63  C   UNL A   1      46.020  28.836  33.997  1.00  0.00     0.173 A 
ATOM     64  F   UNL A   1      43.834  26.070  34.899  1.00  0.00    -0.203 F 
ATOM     65  C   UNL A   1      46.060  26.516  35.521  1.00  0.00     0.198 A 
ATOM     66  C   UNL A   1      47.174  28.470  34.681  1.00  0.00     0.198 A 
ATOM     67  F   UNL A   1      46.031  29.956  33.258  1.00  0.00    -0.203 F 
ATOM     68  F   UNL A   1      46.072  25.406  36.272  1.00  0.00    -0.200 F 
ATOM     69  C   UNL A   1      47.191  27.315  35.448  1.00  0.00     0.200 A 
ATOM     70  F   UNL A   1      48.275  29.229  34.587  1.00  0.00    -0.200 F 
ATOM     71  F   UNL A   1      48.303  26.967  36.111  1.00  0.00    -0.200 F 
ENDBRANCH  38  61
ENDBRANCH  12  13
ENDBRANCH   5   7
ENDBRANCH   2   3
ENDBRANCH   1   2
BRANCH   1  72
ATOM     72  C   UNL A   1      32.121  28.595  22.962  1.00  0.00     0.118 C 
BRANCH  72  73
ATOM     73  N   UNL A   1      32.151  27.451  22.057  1.00  0.00    -0.352 N 
ATOM     74  C   UNL A   1      32.162  26.106  22.343  1.00  0.00     0.256 C 
ATOM     75  H   UNL A   1      32.165  27.675  21.099  1.00  0.00     0.163 HD
ATOM     76  O   UNL A   1      32.375  25.288  21.454  1.00  0.00    -0.269 OA
BRANCH  74  77
ATOM     77  C   UNL A   1      32.028  25.649  23.739  1.00  0.00     0.099 A 
ATOM     78  C   UNL A   1      30.777  25.722  24.356  1.00  0.00     0.138 A 
ATOM     79  C   UNL A   1      33.144  25.183  24.458  1.00  0.00     0.057 A 
ATOM     80  F   UNL A   1      29.681  26.041  23.650  1.00  0.00    -0.206 F 
ATOM     81  C   UNL A   1      30.643  25.520  25.723  1.00  0.00     0.040 A 
ATOM     82  C   UNL A   1      33.014  25.090  25.849  1.00  0.00     0.027 A 
ATOM     83  C   UNL A   1      31.775  25.254  26.479  1.00  0.00     0.005 A 
BRANCH  79  84
ATOM     84  N   UNL A   1      34.332  24.840  23.765  1.00  0.00    -0.321 N 
ATOM     85  C   UNL A   1      34.969  23.636  23.543  1.00  0.00     0.257 C 
ATOM     86  H   UNL A   1      34.793  25.611  23.363  1.00  0.00     0.170 HD
ATOM     87  O   UNL A   1      36.091  23.604  23.042  1.00  0.00    -0.269 OA
BRANCH  85  88
ATOM     88  C   UNL A   1      34.322  22.355  23.849  1.00  0.00     0.058 A 
ATOM     89  C   UNL A   1      33.035  22.035  23.406  1.00  0.00     0.018 A 
ATOM     90  C   UNL A   1      35.001  21.438  24.641  1.00  0.00     0.126 A 
ATOM     91  C   UNL A   1      32.442  20.856  23.857  1.00  0.00     0.042 A 
ATOM     92  N   UNL A   1      34.445  20.289  25.094  1.00  0.00    -0.244 NA
ATOM     93  C   UNL A   1      33.179  20.037  24.701  1.00  0.00     0.129 A 
ATOM     94  Cl  UNL A   1      32.488  18.619  25.370  1.00  0.00    -0.062 Cl
ENDBRANCH  85  88
ENDBRANCH  79  84
ENDBRANCH  74  77
ENDBRANCH  72  73
ENDBRANCH   1  72
TORSDOF 12
ENDMDL
MODEL 2
REMARK VINA RESULT:     -12.9      0.536      1.679
REMARK SMILES O=C(NCCCNC(=O)c1c(F)cccc1NC(=O)c1ccc(Cl)nc1)c1ccc(-c2c3nc(c(-c4c(F)c(F)c(F)c(F)c4F)c4ccc([nH]4)c(-c4c(F)c(F)c(F)c(F)c4F)c4nc(c(-c5c(F)c(F)c(F)c(F)c5F)c5ccc2[nH]5)C=C4)C=C3)cc1
REMARK SMILES IDX 5 1 4 2 3 3 1 4 2 5 27 7 28 8 89 9 29 10 88 11 30 12 31 13
REMARK SMILES IDX 32 14 82 15 33 16 87 17 81 18 83 19 34 20 86 21 80 22 79 23
REMARK SMILES IDX 35 25 67 26 47 27 66 28 48 29 51 30 65 31 84 32 49 33 50 34
REMARK SMILES IDX 64 36 85 37 52 38 36 39 37 40 45 41 38 42 39 43 43 44 46 45
REMARK SMILES IDX 40 46 41 47 44 48 42 49 68 50 69 51 77 52 70 53 71 54 75 55
REMARK SMILES IDX 78 56 72 57 73 58 76 59 74 60 53 61 54 62 62 63 55 64 56 65
REMARK SMILES IDX 60 66 63 67 57 68 58 69 61 70 59 71 6 72 7 73 8 74 9 76
REMARK SMILES IDX 10 77 11 78 16 79 12 80 13 81 15 82 14 83 17 84 18 85 19 87
REMARK SMILES IDX 20 88 21 89 26 90 22 91 25 92 23 93 24 94
REMARK H PARENT 3 6 83 24 51 35 7 75 17 86
REMARK Flexibility Score: inf
ROOT
ATOM      1  C   UNL A   1      33.909  28.944  24.115  1.00  0.00     0.042 C 
ENDROOT
BRANCH   1   2
ATOM      2  C   UNL A   1      33.252  28.919  25.486  1.00  0.00     0.118 C 
BRANCH   2   3
ATOM      3  N   UNL A   1      32.771  30.231  25.902  1.00  0.00    -0.352 N 
ATOM      4  O   UNL A   1      32.544  32.065  27.186  1.00  0.00    -0.269 OA
ATOM      5  C   UNL A   1      33.218  31.087  26.882  1.00  0.00     0.251 C 
ATOM      6  H   UNL A   1      31.994  30.561  25.395  1.00  0.00     0.163 HD
BRANCH   5   7
ATOM      7  C   UNL A   1      34.496  30.830  27.584  1.00  0.00     0.039 A 
ATOM      8  C   UNL A   1      34.787  29.569  28.098  1.00  0.00     0.014 A 
ATOM      9  C   UNL A   1      35.440  31.859  27.695  1.00  0.00     0.014 A 
ATOM     10  C   UNL A   1      35.922  29.383  28.874  1.00  0.00     0.010 A 
ATOM     11  C   UNL A   1      36.644  31.635  28.377  1.00  0.00     0.010 A 
ATOM     12  C   UNL A   1      36.879  30.403  29.001  1.00  0.00    -0.014 A 
BRANCH  12  13
ATOM     13  C   UNL A   1      38.141  30.097  29.726  1.00  0.00     0.031 A 
ATOM     14  C   UNL A   1      38.378  30.573  31.130  1.00  0.00     0.074 A 
ATOM     15  C   UNL A   1      39.039  29.293  29.121  1.00  0.00     0.049 A 
ATOM     16  N   UNL A   1      39.378  30.296  31.931  1.00  0.00    -0.248 NA
ATOM     17  C   UNL A   1      37.379  31.480  31.716  1.00  0.00     0.031 C 
ATOM     18  C   UNL A   1      38.918  28.785  27.751  1.00  0.00     0.029 A 
ATOM     19  N   UNL A   1      40.192  28.717  29.584  1.00  0.00    -0.354 N 
ATOM     20  C   UNL A   1      39.136  31.000  33.103  1.00  0.00     0.074 A 
ATOM     21  C   UNL A   1      37.908  31.739  32.906  1.00  0.00     0.031 C 
ATOM     22  C   UNL A   1      39.898  27.903  27.520  1.00  0.00     0.029 A 
ATOM     23  C   UNL A   1      40.759  27.836  28.695  1.00  0.00     0.049 A 
ATOM     24  H   UNL A   1      40.578  28.914  30.469  1.00  0.00     0.167 HD
ATOM     25  C   UNL A   1      39.872  31.016  34.239  1.00  0.00     0.037 A 
ATOM     26  C   UNL A   1      41.851  27.059  28.808  1.00  0.00     0.037 A 
ATOM     27  C   UNL A   1      41.081  30.257  34.438  1.00  0.00     0.049 A 
ATOM     28  C   UNL A   1      42.644  27.101  30.081  1.00  0.00     0.074 A 
ATOM     29  C   UNL A   1      41.883  30.194  35.566  1.00  0.00     0.029 A 
ATOM     30  N   UNL A   1      41.658  29.424  33.492  1.00  0.00    -0.354 N 
ATOM     31  N   UNL A   1      42.397  27.766  31.183  1.00  0.00    -0.248 NA
ATOM     32  C   UNL A   1      43.873  26.300  30.122  1.00  0.00     0.031 C 
ATOM     33  C   UNL A   1      42.965  29.354  35.288  1.00  0.00     0.029 A 
ATOM     34  C   UNL A   1      42.815  28.858  34.004  1.00  0.00     0.049 A 
ATOM     35  H   UNL A   1      41.299  29.260  32.589  1.00  0.00     0.167 HD
ATOM     36  C   UNL A   1      43.439  27.468  32.046  1.00  0.00     0.074 A 
ATOM     37  C   UNL A   1      44.302  26.533  31.355  1.00  0.00     0.031 C 
ATOM     38  C   UNL A   1      43.668  27.939  33.296  1.00  0.00     0.037 A 
BRANCH  25  39
ATOM     39  C   UNL A   1      39.406  31.878  35.375  1.00  0.00     0.064 A 
ATOM     40  C   UNL A   1      38.514  31.369  36.332  1.00  0.00     0.173 A 
ATOM     41  C   UNL A   1      39.748  33.235  35.451  1.00  0.00     0.173 A 
ATOM     42  F   UNL A   1      38.150  30.078  36.298  1.00  0.00    -0.203 F 
ATOM     43  C   UNL A   1      37.964  32.194  37.310  1.00  0.00     0.198 A 
ATOM     44  C   UNL A   1      39.213  34.053  36.444  1.00  0.00     0.198 A 
ATOM     45  F   UNL A   1      40.605  33.766  34.567  1.00  0.00    -0.203 F 
ATOM     46  F   UNL A   1      37.085  31.695  38.190  1.00  0.00    -0.200 F 
ATOM     47  C   UNL A   1      38.313  33.535  37.364  1.00  0.00     0.200 A 
ATOM     48  F   UNL A   1      39.563  35.345  36.507  1.00  0.00    -0.200 F 
ATOM     49  F   UNL A   1      37.779  34.331  38.302  1.00  0.00    -0.200 F 
ENDBRANCH  25  39
BRANCH  26  50
ATOM     50  C   UNL A   1      42.248  26.173  27.683  1.00  0.00     0.064 A 
ATOM     51  C   UNL A   1      41.676  24.902  27.520  1.00  0.00     0.173 A 
ATOM     52  C   UNL A   1      43.226  26.571  26.762  1.00  0.00     0.173 A 
ATOM     53  F   UNL A   1      40.738  24.473  28.377  1.00  0.00    -0.203 F 
ATOM     54  C   UNL A   1      42.085  24.054  26.494  1.00  0.00     0.198 A 
ATOM     55  C   UNL A   1      43.612  25.734  25.717  1.00  0.00     0.198 A 
ATOM     56  F   UNL A   1      43.788  27.784  26.864  1.00  0.00    -0.203 F 
ATOM     57  F   UNL A   1      41.550  22.830  26.388  1.00  0.00    -0.200 F 
ATOM     58  C   UNL A   1      43.049  24.473  25.589  1.00  0.00     0.200 A 
ATOM     59  F   UNL A   1      44.525  26.152  24.830  1.00  0.00    -0.200 F 
ATOM     60  F   UNL A   1      43.431  23.663  24.593  1.00  0.00    -0.200 F 
ENDBRANCH  26  50
BRANCH  38  61
ATOM     61  C   UNL A   1      44.903  27.455  33.991  1.00  0.00     0.064 A 
ATOM     62  C   UNL A   1      44.871  26.302  34.789  1.00  0.00     0.173 A 
ATOM     63  C   UNL A   1      46.113  28.158  33.897  1.00  0.00     0.173 A 
ATOM     64  F   UNL A   1      43.735  25.599  34.916  1.00  0.00    -0.203 F 
ATOM     65  C   UNL A   1      46.005  25.875  35.473  1.00  0.00     0.198 A 
ATOM     66  C   UNL A   1      47.251  27.713  34.562  1.00  0.00     0.198 A 
ATOM     67  F   UNL A   1      46.195  29.257  33.133  1.00  0.00    -0.203 F 
ATOM     68  F   UNL A   1      45.946  24.784  36.249  1.00  0.00    -0.200 F 
ATOM     69  C   UNL A   1      47.195  26.577  35.354  1.00  0.00     0.200 A 
ATOM     70  F   UNL A   1      48.407  28.378  34.424  1.00  0.00    -0.200 F 
ATOM     71  F   UNL A   1      48.291  26.154  35.998  1.00  0.00    -0.200 F 
ENDBRANCH  38  61
ENDBRANCH  12  13
ENDBRANCH   5   7
ENDBRANCH   2   3
ENDBRANCH   1   2
BRANCH   1  72
ATOM     72  C   UNL A   1      32.917  28.801  22.971  1.00  0.00     0.118 C 
BRANCH  72  73
ATOM     73  N   UNL A   1      33.246  27.690  22.084  1.00  0.00    -0.352 N 
ATOM     74  C   UNL A   1      33.155  26.335  22.304  1.00  0.00     0.256 C 
ATOM     75  H   UNL A   1      33.584  27.949  21.197  1.00  0.00     0.163 HD
ATOM     76  O   UNL A   1      33.653  25.547  21.506  1.00  0.00    -0.269 OA
BRANCH  74  77
ATOM     77  C   UNL A   1      32.555  25.831  23.552  1.00  0.00     0.099 A 
ATOM     78  C   UNL A   1      31.177  25.964  23.742  1.00  0.00     0.138 A 
ATOM     79  C   UNL A   1      33.355  25.259  24.560  1.00  0.00     0.057 A 
ATOM     80  F   UNL A   1      30.385  26.387  22.745  1.00  0.00    -0.206 F 
ATOM     81  C   UNL A   1      30.600  25.715  24.979  1.00  0.00     0.040 A 
ATOM     82  C   UNL A   1      32.779  25.117  25.828  1.00  0.00     0.027 A 
ATOM     83  C   UNL A   1      31.413  25.339  26.039  1.00  0.00     0.005 A 
BRANCH  79  84
ATOM     84  N   UNL A   1      34.683  24.864  24.261  1.00  0.00    -0.321 N 
ATOM     85  C   UNL A   1      35.288  23.629  24.154  1.00  0.00     0.257 C 
ATOM     86  H   UNL A   1      35.294  25.619  24.099  1.00  0.00     0.170 HD
ATOM     87  O   UNL A   1      36.509  23.537  24.043  1.00  0.00    -0.269 OA
BRANCH  85  88
ATOM     88  C   UNL A   1      34.504  22.388  24.122  1.00  0.00     0.058 A 
ATOM     89  C   UNL A   1      33.306  22.272  23.412  1.00  0.00     0.018 A 
ATOM     90  C   UNL A   1      34.954  21.298  24.854  1.00  0.00     0.126 A 
ATOM     91  C   UNL A   1      32.554  21.105  23.547  1.00  0.00     0.042 A 
ATOM     92  N   UNL A   1      34.241  20.155  25.003  1.00  0.00    -0.244 NA
ATOM     93  C   UNL A   1      33.057  20.096  24.356  1.00  0.00     0.129 A 
ATOM     94  Cl  UNL A   1      32.153  18.670  24.646  1.00  0.00    -0.062 Cl
ENDBRANCH  85  88
ENDBRANCH  79  84
ENDBRANCH  74  77
ENDBRANCH  72  73
ENDBRANCH   1  72
TORSDOF 12
ENDMDL
MODEL 3
REMARK VINA RESULT:     -12.8      4.103      9.438
REMARK SMILES O=C(NCCCNC(=O)c1c(F)cccc1NC(=O)c1ccc(Cl)nc1)c1ccc(-c2c3nc(c(-c4c(F)c(F)c(F)c(F)c4F)c4ccc([nH]4)c(-c4c(F)c(F)c(F)c(F)c4F)c4nc(c(-c5c(F)c(F)c(F)c(F)c5F)c5ccc2[nH]5)C=C4)C=C3)cc1
REMARK SMILES IDX 5 1 4 2 3 3 1 4 2 5 27 7 28 8 89 9 29 10 88 11 30 12 31 13
REMARK SMILES IDX 32 14 82 15 33 16 87 17 81 18 83 19 34 20 86 21 80 22 79 23
REMARK SMILES IDX 35 25 67 26 47 27 66 28 48 29 51 30 65 31 84 32 49 33 50 34
REMARK SMILES IDX 64 36 85 37 52 38 36 39 37 40 45 41 38 42 39 43 43 44 46 45
REMARK SMILES IDX 40 46 41 47 44 48 42 49 68 50 69 51 77 52 70 53 71 54 75 55
REMARK SMILES IDX 78 56 72 57 73 58 76 59 74 60 53 61 54 62 62 63 55 64 56 65
REMARK SMILES IDX 60 66 63 67 57 68 58 69 61 70 59 71 6 72 7 73 8 74 9 76
REMARK SMILES IDX 10 77 11 78 16 79 12 80 13 81 15 82 14 83 17 84 18 85 19 87
REMARK SMILES IDX 20 88 21 89 26 90 22 91 25 92 23 93 24 94
REMARK H PARENT 3 6 83 24 51 35 7 75 17 86
REMARK Flexibility Score: inf
ROOT
ATOM      1  C   UNL A   1      34.592  22.180  26.942  1.00  0.00     0.042 C 
ENDROOT
BRANCH   1   2
ATOM      2  C   UNL A   1      35.823  22.643  26.178  1.00  0.00     0.118 C 
BRANCH   2   3
ATOM      3  N   UNL A   1      36.744  21.551  25.883  1.00  0.00    -0.352 N 
ATOM      4  O   UNL A   1      38.687  20.530  25.390  1.00  0.00    -0.269 OA
ATOM      5  C   UNL A   1      38.118  21.515  25.847  1.00  0.00     0.251 C 
ATOM      6  H   UNL A   1      36.307  20.693  25.676  1.00  0.00     0.163 HD
BRANCH   5   7
ATOM      7  C   UNL A   1      38.917  22.661  26.337  1.00  0.00     0.039 A 
ATOM      8  C   UNL A   1      38.589  23.966  25.976  1.00  0.00     0.014 A 
ATOM      9  C   UNL A   1      39.990  22.432  27.208  1.00  0.00     0.014 A 
ATOM     10  C   UNL A   1      39.429  25.013  26.327  1.00  0.00     0.010 A 
ATOM     11  C   UNL A   1      40.767  23.506  27.661  1.00  0.00     0.010 A 
ATOM     12  C   UNL A   1      40.512  24.803  27.197  1.00  0.00    -0.014 A 
BRANCH  12  13
ATOM     13  C   UNL A   1      41.290  25.987  27.650  1.00  0.00     0.031 A 
ATOM     14  C   UNL A   1      42.693  26.236  27.178  1.00  0.00     0.074 A 
ATOM     15  C   UNL A   1      40.666  26.892  28.431  1.00  0.00     0.049 A 
ATOM     16  N   UNL A   1      43.459  27.276  27.397  1.00  0.00    -0.248 NA
ATOM     17  C   UNL A   1      43.330  25.190  26.362  1.00  0.00     0.031 C 
ATOM     18  C   UNL A   1      39.308  26.743  28.963  1.00  0.00     0.029 A 
ATOM     19  N   UNL A   1      41.056  28.130  28.868  1.00  0.00    -0.354 N 
ATOM     20  C   UNL A   1      44.663  27.007  26.762  1.00  0.00     0.074 A 
ATOM     21  C   UNL A   1      44.542  25.694  26.166  1.00  0.00     0.031 C 
ATOM     22  C   UNL A   1      38.945  27.880  29.569  1.00  0.00     0.029 A 
ATOM     23  C   UNL A   1      40.067  28.812  29.536  1.00  0.00     0.049 A 
ATOM     24  H   UNL A   1      41.958  28.497  28.719  1.00  0.00     0.167 HD
ATOM     25  C   UNL A   1      45.763  27.792  26.680  1.00  0.00     0.037 A 
ATOM     26  C   UNL A   1      40.059  30.049  30.063  1.00  0.00     0.037 A 
ATOM     27  C   UNL A   1      45.868  29.110  27.253  1.00  0.00     0.049 A 
ATOM     28  C   UNL A   1      41.295  30.892  29.954  1.00  0.00     0.074 A 
ATOM     29  C   UNL A   1      46.937  29.989  27.202  1.00  0.00     0.029 A 
ATOM     30  N   UNL A   1      44.867  29.742  27.976  1.00  0.00    -0.354 N 
ATOM     31  N   UNL A   1      42.423  30.625  29.344  1.00  0.00    -0.248 NA
ATOM     32  C   UNL A   1      41.264  32.200  30.621  1.00  0.00     0.031 C 
ATOM     33  C   UNL A   1      46.598  31.136  27.926  1.00  0.00     0.029 A 
ATOM     34  C   UNL A   1      45.301  30.991  28.391  1.00  0.00     0.049 A 
ATOM     35  H   UNL A   1      43.980  29.359  28.166  1.00  0.00     0.167 HD
ATOM     36  C   UNL A   1      43.237  31.727  29.553  1.00  0.00     0.074 A 
ATOM     37  C   UNL A   1      42.461  32.683  30.316  1.00  0.00     0.031 C 
ATOM     38  C   UNL A   1      44.519  31.924  29.160  1.00  0.00     0.037 A 
BRANCH  25  39
ATOM     39  C   UNL A   1      46.959  27.265  25.943  1.00  0.00     0.064 A 
ATOM     40  C   UNL A   1      47.950  26.542  26.624  1.00  0.00     0.173 A 
ATOM     41  C   UNL A   1      47.181  27.574  24.594  1.00  0.00     0.173 A 
ATOM     42  F   UNL A   1      47.788  26.228  27.918  1.00  0.00    -0.203 F 
ATOM     43  C   UNL A   1      49.130  26.166  25.986  1.00  0.00     0.198 A 
ATOM     44  C   UNL A   1      48.352  27.178  23.953  1.00  0.00     0.198 A 
ATOM     45  F   UNL A   1      46.259  28.254  23.897  1.00  0.00    -0.203 F 
ATOM     46  F   UNL A   1      50.080  25.510  26.667  1.00  0.00    -0.200 F 
ATOM     47  C   UNL A   1      49.331  26.487  24.652  1.00  0.00     0.200 A 
ATOM     48  F   UNL A   1      48.539  27.473  22.659  1.00  0.00    -0.200 F 
ATOM     49  F   UNL A   1      50.469  26.131  24.040  1.00  0.00    -0.200 F 
ENDBRANCH  25  39
BRANCH  26  50
ATOM     50  C   UNL A   1      38.835  30.558  30.734  1.00  0.00     0.064 A 
ATOM     51  C   UNL A   1      38.685  30.487  32.127  1.00  0.00     0.173 A 
ATOM     52  C   UNL A   1      37.779  31.103  29.991  1.00  0.00     0.173 A 
ATOM     53  F   UNL A   1      39.665  29.971  32.882  1.00  0.00    -0.203 F 
ATOM     54  C   UNL A   1      37.516  30.919  32.748  1.00  0.00     0.198 A 
ATOM     55  C   UNL A   1      36.623  31.563  30.617  1.00  0.00     0.198 A 
ATOM     56  F   UNL A   1      37.883  31.210  28.658  1.00  0.00    -0.203 F 
ATOM     57  F   UNL A   1      37.385  30.802  34.077  1.00  0.00    -0.200 F 
ATOM     58  C   UNL A   1      36.488  31.463  31.994  1.00  0.00     0.200 A 
ATOM     59  F   UNL A   1      35.642  32.112  29.887  1.00  0.00    -0.200 F 
ATOM     60  F   UNL A   1      35.371  31.893  32.594  1.00  0.00    -0.200 F 
ENDBRANCH  26  50
BRANCH  38  61
ATOM     61  C   UNL A   1      45.162  33.217  29.556  1.00  0.00     0.064 A 
ATOM     62  C   UNL A   1      45.081  34.342  28.723  1.00  0.00     0.173 A 
ATOM     63  C   UNL A   1      45.896  33.329  30.746  1.00  0.00     0.173 A 
ATOM     64  F   UNL A   1      44.396  34.282  27.570  1.00  0.00    -0.203 F 
ATOM     65  C   UNL A   1      45.716  35.531  29.065  1.00  0.00     0.198 A 
ATOM     66  C   UNL A   1      46.507  34.528  31.098  1.00  0.00     0.198 A 
ATOM     67  F   UNL A   1      45.988  32.284  31.582  1.00  0.00    -0.203 F 
ATOM     68  F   UNL A   1      45.645  36.588  28.243  1.00  0.00    -0.200 F 
ATOM     69  C   UNL A   1      46.424  35.626  30.254  1.00  0.00     0.200 A 
ATOM     70  F   UNL A   1      47.168  34.625  32.260  1.00  0.00    -0.200 F 
ATOM     71  F   UNL A   1      47.019  36.778  30.591  1.00  0.00    -0.200 F 
ENDBRANCH  38  61
ENDBRANCH  12  13
ENDBRANCH   5   7
ENDBRANCH   2   3
ENDBRANCH   1   2
BRANCH   1  72
ATOM     72  C   UNL A   1      33.725  21.210  26.153  1.00  0.00     0.118 C 
BRANCH  72  73
ATOM     73  N   UNL A   1      32.308  21.550  26.220  1.00  0.00    -0.352 N 
ATOM     74  C   UNL A   1      31.616  22.558  25.590  1.00  0.00     0.256 C 
ATOM     75  H   UNL A   1      31.765  20.971  26.804  1.00  0.00     0.163 HD
ATOM     76  O   UNL A   1      30.458  22.806  25.911  1.00  0.00    -0.269 OA
BRANCH  74  77
ATOM     77  C   UNL A   1      32.300  23.415  24.604  1.00  0.00     0.099 A 
ATOM     78  C   UNL A   1      32.555  22.906  23.328  1.00  0.00     0.138 A 
ATOM     79  C   UNL A   1      32.729  24.711  24.947  1.00  0.00     0.057 A 
ATOM     80  F   UNL A   1      32.043  21.727  22.945  1.00  0.00    -0.206 F 
ATOM     81  C   UNL A   1      33.387  23.580  22.445  1.00  0.00     0.040 A 
ATOM     82  C   UNL A   1      33.651  25.325  24.091  1.00  0.00     0.027 A 
ATOM     83  C   UNL A   1      33.977  24.769  22.849  1.00  0.00     0.005 A 
BRANCH  79  84
ATOM     84  N   UNL A   1      32.228  25.328  26.121  1.00  0.00    -0.321 N 
ATOM     85  C   UNL A   1      31.561  26.516  26.339  1.00  0.00     0.257 C 
ATOM     86  H   UNL A   1      32.388  24.808  26.941  1.00  0.00     0.170 HD
ATOM     87  O   UNL A   1      31.366  26.924  27.481  1.00  0.00    -0.269 OA
BRANCH  85  88
ATOM     88  C   UNL A   1      31.020  27.310  25.229  1.00  0.00     0.058 A 
ATOM     89  C   UNL A   1      30.119  26.787  24.297  1.00  0.00     0.018 A 
ATOM     90  C   UNL A   1      31.447  28.622  25.080  1.00  0.00     0.126 A 
ATOM     91  C   UNL A   1      29.762  27.565  23.196  1.00  0.00     0.042 A 
ATOM     92  N   UNL A   1      31.118  29.397  24.018  1.00  0.00    -0.244 NA
ATOM     93  C   UNL A   1      30.296  28.843  23.101  1.00  0.00     0.129 A 
ATOM     94  Cl  UNL A   1      29.980  29.826  21.734  1.00  0.00    -0.062 Cl
ENDBRANCH  85  88
ENDBRANCH  79  84
ENDBRANCH  74  77
ENDBRANCH  72  73
ENDBRANCH   1  72
TORSDOF 12
ENDMDL
