MODEL 1
REMARK VINA RESULT:     -11.6      0.000      0.000
REMARK SMILES COc1ccccc1[C@H](C)Nc1nc(C)c(C(=O)NCCCNC(=O)c2ccc(-c3c4nc(c(-c5c(F)c(F)c(F)c(F)c5F)c5ccc([nH]5)c(-c5c(F)c(F)c(F)c(F)c5F)c5nc(c(-c6c(F)c(F)c(F)c(F)c6F)c6ccc3[nH]6)C=C5)C=C4)cc2)s1
REMARK SMILES IDX 20 1 19 2 17 3 18 4 16 6 12 7 13 8 89 9 14 10 15 11 11 12
REMARK SMILES IDX 9 14 10 15 8 16 3 17 4 18 5 19 7 20 6 21 2 22 1 23 21 24
REMARK SMILES IDX 22 25 23 26 24 27 25 29 26 30 27 31 88 32 28 33 87 34 29 35
REMARK SMILES IDX 30 36 31 37 81 38 32 39 86 40 80 41 82 42 33 43 85 44 79 45
REMARK SMILES IDX 78 46 34 48 66 49 46 50 65 51 47 52 50 53 64 54 83 55 48 56
REMARK SMILES IDX 49 57 63 59 84 60 51 61 35 62 36 63 44 64 37 65 38 66 42 67
REMARK SMILES IDX 45 68 39 69 40 70 43 71 41 72 67 73 68 74 76 75 69 76 70 77
REMARK SMILES IDX 74 78 77 79 71 80 72 81 75 82 73 83 52 84 53 85 61 86 54 87
REMARK SMILES IDX 55 88 59 89 62 90 56 91 57 92 60 93 58 94
REMARK H PARENT 19 5 11 13 23 28 82 47 50 58
REMARK Flexibility Score: inf
ROOT
ATOM      1  C   UNL A   1      37.042  20.182  24.523  1.00  0.00     0.118 C 
ENDROOT
BRANCH   1   2
ATOM      2  N   UNL A   1      35.724  20.026  25.085  1.00  0.00    -0.351 N 
ATOM      3  C   UNL A   1      34.721  20.901  25.411  1.00  0.00     0.263 C 
ATOM      4  O   UNL A   1      33.765  20.334  25.957  1.00  0.00    -0.268 OA
ATOM      5  H   UNL A   1      35.496  19.087  25.278  1.00  0.00     0.163 HD
BRANCH   3   6
ATOM      6  C   UNL A   1      34.724  22.330  25.117  1.00  0.00     0.117 A 
ATOM      7  C   UNL A   1      33.871  24.482  24.272  1.00  0.00     0.184 A 
ATOM      8  N   UNL A   1      35.099  24.602  24.689  1.00  0.00    -0.225 NA
ATOM      9  S   UNL A   1      33.223  22.921  24.428  1.00  0.00    -0.092 S 
ATOM     10  C   UNL A   1      35.569  23.430  25.260  1.00  0.00     0.063 A 
ATOM     11  C   UNL A   1      36.878  23.628  25.926  1.00  0.00     0.068 C 
BRANCH   7  12
ATOM     12  N   UNL A   1      33.256  25.541  23.727  1.00  0.00    -0.355 N 
ATOM     13  H   UNL A   1      32.462  25.370  23.172  1.00  0.00     0.163 HD
BRANCH  12  14
ATOM     14  C   UNL A   1      33.674  26.918  23.895  1.00  0.00     0.112 C 
ATOM     15  C   UNL A   1      33.284  27.718  22.642  1.00  0.00     0.036 C 
BRANCH  14  16
ATOM     16  C   UNL A   1      33.064  27.445  25.180  1.00  0.00     0.016 A 
ATOM     17  C   UNL A   1      31.718  27.257  25.535  1.00  0.00     0.124 A 
ATOM     18  C   UNL A   1      31.219  27.745  26.746  1.00  0.00     0.047 A 
ATOM     19  C   UNL A   1      32.064  28.417  27.629  1.00  0.00     0.004 A 
ATOM     20  C   UNL A   1      33.900  28.122  26.089  1.00  0.00     0.010 A 
ATOM     21  C   UNL A   1      33.404  28.609  27.299  1.00  0.00     0.001 A 
BRANCH  17  22
ATOM     22  O   UNL A   1      30.847  26.675  24.652  1.00  0.00    -0.496 OA
ATOM     23  C   UNL A   1      30.124  25.598  25.246  1.00  0.00     0.278 C 
ENDBRANCH  17  22
ENDBRANCH  14  16
ENDBRANCH  12  14
ENDBRANCH   7  12
ENDBRANCH   3   6
ENDBRANCH   1   2
BRANCH   1  24
ATOM     24  C   UNL A   1      38.023  19.223  25.194  1.00  0.00     0.042 C 
BRANCH  24  25
ATOM     25  C   UNL A   1      39.248  19.917  25.772  1.00  0.00     0.118 C 
BRANCH  25  26
ATOM     26  N   UNL A   1      40.374  19.007  25.888  1.00  0.00    -0.352 N 
ATOM     27  C   UNL A   1      41.711  19.275  26.060  1.00  0.00     0.251 C 
ATOM     28  H   UNL A   1      40.144  18.052  25.833  1.00  0.00     0.163 HD
ATOM     29  O   UNL A   1      42.531  18.383  25.870  1.00  0.00    -0.269 OA
BRANCH  27  30
ATOM     30  C   UNL A   1      42.174  20.623  26.468  1.00  0.00     0.039 A 
ATOM     31  C   UNL A   1      42.213  20.934  27.831  1.00  0.00     0.014 A 
ATOM     32  C   UNL A   1      42.501  21.600  25.525  1.00  0.00     0.014 A 
ATOM     33  C   UNL A   1      42.613  22.206  28.248  1.00  0.00     0.010 A 
ATOM     34  C   UNL A   1      42.976  22.842  25.943  1.00  0.00     0.010 A 
ATOM     35  C   UNL A   1      43.019  23.165  27.307  1.00  0.00    -0.014 A 
BRANCH  35  36
ATOM     36  C   UNL A   1      43.458  24.520  27.723  1.00  0.00     0.031 A 
ATOM     37  C   UNL A   1      42.436  25.562  28.089  1.00  0.00     0.074 A 
ATOM     38  C   UNL A   1      44.769  24.831  27.711  1.00  0.00     0.049 A 
ATOM     39  N   UNL A   1      42.610  26.824  28.395  1.00  0.00    -0.248 NA
ATOM     40  C   UNL A   1      41.026  25.139  28.082  1.00  0.00     0.031 C 
ATOM     41  C   UNL A   1      45.851  23.920  27.336  1.00  0.00     0.029 A 
ATOM     42  N   UNL A   1      45.412  26.006  28.011  1.00  0.00    -0.354 N 
ATOM     43  C   UNL A   1      41.338  27.347  28.585  1.00  0.00     0.074 A 
ATOM     44  C   UNL A   1      40.397  26.279  28.324  1.00  0.00     0.031 C 
ATOM     45  C   UNL A   1      47.025  24.562  27.448  1.00  0.00     0.029 A 
ATOM     46  C   UNL A   1      46.777  25.939  27.865  1.00  0.00     0.049 A 
ATOM     47  H   UNL A   1      44.941  26.819  28.301  1.00  0.00     0.167 HD
ATOM     48  C   UNL A   1      40.987  28.599  28.961  1.00  0.00     0.037 A 
ATOM     49  C   UNL A   1      47.718  26.884  28.043  1.00  0.00     0.037 A 
ATOM     50  C   UNL A   1      41.929  29.643  29.271  1.00  0.00     0.049 A 
ATOM     51  C   UNL A   1      47.300  28.264  28.476  1.00  0.00     0.074 A 
ATOM     52  C   UNL A   1      41.677  30.918  29.748  1.00  0.00     0.029 A 
ATOM     53  N   UNL A   1      43.304  29.529  29.137  1.00  0.00    -0.354 N 
ATOM     54  N   UNL A   1      46.097  28.724  28.725  1.00  0.00    -0.248 NA
ATOM     55  C   UNL A   1      48.371  29.254  28.656  1.00  0.00     0.031 C 
ATOM     56  C   UNL A   1      42.899  31.589  29.862  1.00  0.00     0.029 A 
ATOM     57  C   UNL A   1      43.913  30.718  29.500  1.00  0.00     0.049 A 
ATOM     58  H   UNL A   1      43.777  28.722  28.828  1.00  0.00     0.167 HD
ATOM     59  C   UNL A   1      46.269  30.043  29.122  1.00  0.00     0.074 A 
ATOM     60  C   UNL A   1      47.694  30.307  29.093  1.00  0.00     0.031 C 
ATOM     61  C   UNL A   1      45.333  30.955  29.480  1.00  0.00     0.037 A 
BRANCH  48  62
ATOM     62  C   UNL A   1      39.524  28.918  29.064  1.00  0.00     0.064 A 
ATOM     63  C   UNL A   1      38.836  28.839  30.284  1.00  0.00     0.173 A 
ATOM     64  C   UNL A   1      38.814  29.359  27.938  1.00  0.00     0.173 A 
ATOM     65  F   UNL A   1      39.467  28.412  31.388  1.00  0.00    -0.203 F 
ATOM     66  C   UNL A   1      37.486  29.170  30.367  1.00  0.00     0.198 A 
ATOM     67  C   UNL A   1      37.471  29.715  28.030  1.00  0.00     0.198 A 
ATOM     68  F   UNL A   1      39.426  29.458  26.748  1.00  0.00    -0.203 F 
ATOM     69  F   UNL A   1      36.839  29.049  31.536  1.00  0.00    -0.200 F 
ATOM     70  C   UNL A   1      36.807  29.615  29.244  1.00  0.00     0.200 A 
ATOM     71  F   UNL A   1      36.819  30.158  26.947  1.00  0.00    -0.200 F 
ATOM     72  F   UNL A   1      35.510  29.943  29.329  1.00  0.00    -0.200 F 
ENDBRANCH  48  62
BRANCH  49  73
ATOM     73  C   UNL A   1      49.154  26.558  27.838  1.00  0.00     0.064 A 
ATOM     74  C   UNL A   1      49.990  26.294  28.933  1.00  0.00     0.173 A 
ATOM     75  C   UNL A   1      49.723  26.521  26.558  1.00  0.00     0.173 A 
ATOM     76  F   UNL A   1      49.496  26.340  30.179  1.00  0.00    -0.203 F 
ATOM     77  C   UNL A   1      51.346  26.030  28.754  1.00  0.00     0.198 A 
ATOM     78  C   UNL A   1      51.073  26.229  26.379  1.00  0.00     0.198 A 
ATOM     79  F   UNL A   1      48.965  26.761  25.478  1.00  0.00    -0.203 F 
ATOM     80  F   UNL A   1      52.133  25.831  29.821  1.00  0.00    -0.200 F 
ATOM     81  C   UNL A   1      51.886  25.993  27.478  1.00  0.00     0.200 A 
ATOM     82  F   UNL A   1      51.590  26.181  25.143  1.00  0.00    -0.200 F 
ATOM     83  F   UNL A   1      53.192  25.740  27.308  1.00  0.00    -0.200 F 
ENDBRANCH  49  73
BRANCH  61  84
ATOM     84  C   UNL A   1      45.821  32.307  29.909  1.00  0.00     0.064 A 
ATOM     85  C   UNL A   1      45.949  33.365  29.000  1.00  0.00     0.173 A 
ATOM     86  C   UNL A   1      46.125  32.555  31.256  1.00  0.00     0.173 A 
ATOM     87  F   UNL A   1      45.685  33.173  27.699  1.00  0.00    -0.203 F 
ATOM     88  C   UNL A   1      46.386  34.619  29.418  1.00  0.00     0.198 A 
ATOM     89  C   UNL A   1      46.535  33.816  31.677  1.00  0.00     0.198 A 
ATOM     90  F   UNL A   1      46.012  31.576  32.167  1.00  0.00    -0.203 F 
ATOM     91  F   UNL A   1      46.546  35.604  28.524  1.00  0.00    -0.200 F 
ATOM     92  C   UNL A   1      46.673  34.844  30.757  1.00  0.00     0.200 A 
ATOM     93  F   UNL A   1      46.799  34.036  32.972  1.00  0.00    -0.200 F 
ATOM     94  F   UNL A   1      47.088  36.053  31.160  1.00  0.00    -0.200 F 
ENDBRANCH  61  84
ENDBRANCH  35  36
ENDBRANCH  27  30
ENDBRANCH  25  26
ENDBRANCH  24  25
ENDBRANCH   1  24
TORSDOF 14
ENDMDL
MODEL 2
REMARK VINA RESULT:     -11.5      1.157      2.259
REMARK SMILES COc1ccccc1[C@H](C)Nc1nc(C)c(C(=O)NCCCNC(=O)c2ccc(-c3c4nc(c(-c5c(F)c(F)c(F)c(F)c5F)c5ccc([nH]5)c(-c5c(F)c(F)c(F)c(F)c5F)c5nc(c(-c6c(F)c(F)c(F)c(F)c6F)c6ccc3[nH]6)C=C5)C=C4)cc2)s1
REMARK SMILES IDX 20 1 19 2 17 3 18 4 16 6 12 7 13 8 89 9 14 10 15 11 11 12
REMARK SMILES IDX 9 14 10 15 8 16 3 17 4 18 5 19 7 20 6 21 2 22 1 23 21 24
REMARK SMILES IDX 22 25 23 26 24 27 25 29 26 30 27 31 88 32 28 33 87 34 29 35
REMARK SMILES IDX 30 36 31 37 81 38 32 39 86 40 80 41 82 42 33 43 85 44 79 45
REMARK SMILES IDX 78 46 34 48 66 49 46 50 65 51 47 52 50 53 64 54 83 55 48 56
REMARK SMILES IDX 49 57 63 59 84 60 51 61 35 62 36 63 44 64 37 65 38 66 42 67
REMARK SMILES IDX 45 68 39 69 40 70 43 71 41 72 67 73 68 74 76 75 69 76 70 77
REMARK SMILES IDX 74 78 77 79 71 80 72 81 75 82 73 83 52 84 53 85 61 86 54 87
REMARK SMILES IDX 55 88 59 89 62 90 56 91 57 92 60 93 58 94
REMARK H PARENT 19 5 11 13 23 28 82 47 50 58
REMARK Flexibility Score: inf
ROOT
ATOM      1  C   UNL A   1      36.448  20.365  24.982  1.00  0.00     0.118 C 
ENDROOT
BRANCH   1   2
ATOM      2  N   UNL A   1      35.277  19.524  24.966  1.00  0.00    -0.351 N 
ATOM      3  C   UNL A   1      33.930  19.771  25.006  1.00  0.00     0.263 C 
ATOM      4  O   UNL A   1      33.264  18.728  25.055  1.00  0.00    -0.268 OA
ATOM      5  H   UNL A   1      35.492  18.564  24.917  1.00  0.00     0.163 HD
BRANCH   3   6
ATOM      6  C   UNL A   1      33.315  21.093  24.948  1.00  0.00     0.117 A 
ATOM      7  C   UNL A   1      32.494  23.261  25.785  1.00  0.00     0.184 A 
ATOM      8  N   UNL A   1      32.181  23.100  24.532  1.00  0.00    -0.225 NA
ATOM      9  S   UNL A   1      33.359  21.969  26.468  1.00  0.00    -0.092 S 
ATOM     10  C   UNL A   1      32.716  21.932  24.010  1.00  0.00     0.063 A 
ATOM     11  C   UNL A   1      32.545  21.858  22.540  1.00  0.00     0.068 C 
BRANCH   7  12
ATOM     12  N   UNL A   1      32.085  24.363  26.428  1.00  0.00    -0.355 N 
ATOM     13  H   UNL A   1      32.267  24.420  27.393  1.00  0.00     0.163 HD
BRANCH  12  14
ATOM     14  C   UNL A   1      31.393  25.474  25.808  1.00  0.00     0.112 C 
ATOM     15  C   UNL A   1      29.908  25.428  26.207  1.00  0.00     0.036 C 
BRANCH  14  16
ATOM     16  C   UNL A   1      32.100  26.755  26.207  1.00  0.00     0.016 A 
ATOM     17  C   UNL A   1      33.350  27.143  25.698  1.00  0.00     0.124 A 
ATOM     18  C   UNL A   1      33.941  28.349  26.085  1.00  0.00     0.047 A 
ATOM     19  C   UNL A   1      33.282  29.195  26.977  1.00  0.00     0.004 A 
ATOM     20  C   UNL A   1      31.451  27.627  27.102  1.00  0.00     0.010 A 
ATOM     21  C   UNL A   1      32.039  28.832  27.489  1.00  0.00     0.001 A 
BRANCH  17  22
ATOM     22  O   UNL A   1      34.058  26.296  24.886  1.00  0.00    -0.496 OA
ATOM     23  C   UNL A   1      33.749  26.494  23.507  1.00  0.00     0.278 C 
ENDBRANCH  17  22
ENDBRANCH  14  16
ENDBRANCH  12  14
ENDBRANCH   7  12
ENDBRANCH   3   6
ENDBRANCH   1   2
BRANCH   1  24
ATOM     24  C   UNL A   1      37.714  19.513  24.945  1.00  0.00     0.042 C 
BRANCH  24  25
ATOM     25  C   UNL A   1      38.877  20.125  25.713  1.00  0.00     0.118 C 
BRANCH  25  26
ATOM     26  N   UNL A   1      39.959  19.174  25.894  1.00  0.00    -0.352 N 
ATOM     27  C   UNL A   1      41.305  19.390  26.068  1.00  0.00     0.251 C 
ATOM     28  H   UNL A   1      39.686  18.228  25.892  1.00  0.00     0.163 HD
ATOM     29  O   UNL A   1      42.085  18.452  25.940  1.00  0.00    -0.269 OA
BRANCH  27  30
ATOM     30  C   UNL A   1      41.826  20.736  26.404  1.00  0.00     0.039 A 
ATOM     31  C   UNL A   1      42.102  21.033  27.742  1.00  0.00     0.014 A 
ATOM     32  C   UNL A   1      41.977  21.726  25.430  1.00  0.00     0.014 A 
ATOM     33  C   UNL A   1      42.562  22.304  28.098  1.00  0.00     0.010 A 
ATOM     34  C   UNL A   1      42.511  22.967  25.772  1.00  0.00     0.010 A 
ATOM     35  C   UNL A   1      42.791  23.275  27.111  1.00  0.00    -0.014 A 
BRANCH  35  36
ATOM     36  C   UNL A   1      43.290  24.629  27.460  1.00  0.00     0.031 A 
ATOM     37  C   UNL A   1      42.339  25.665  27.998  1.00  0.00     0.074 A 
ATOM     38  C   UNL A   1      44.580  24.945  27.234  1.00  0.00     0.049 A 
ATOM     39  N   UNL A   1      42.559  26.925  28.280  1.00  0.00    -0.248 NA
ATOM     40  C   UNL A   1      40.949  25.237  28.220  1.00  0.00     0.031 C 
ATOM     41  C   UNL A   1      45.587  24.041  26.679  1.00  0.00     0.029 A 
ATOM     42  N   UNL A   1      45.260  26.120  27.432  1.00  0.00    -0.354 N 
ATOM     43  C   UNL A   1      41.334  27.442  28.682  1.00  0.00     0.074 A 
ATOM     44  C   UNL A   1      40.365  26.372  28.572  1.00  0.00     0.031 C 
ATOM     45  C   UNL A   1      46.763  24.686  26.600  1.00  0.00     0.029 A 
ATOM     46  C   UNL A   1      46.583  26.059  27.063  1.00  0.00     0.049 A 
ATOM     47  H   UNL A   1      44.842  26.930  27.803  1.00  0.00     0.167 HD
ATOM     48  C   UNL A   1      41.047  28.690  29.121  1.00  0.00     0.037 A 
ATOM     49  C   UNL A   1      47.538  27.007  27.090  1.00  0.00     0.037 A 
ATOM     50  C   UNL A   1      42.024  29.735  29.279  1.00  0.00     0.049 A 
ATOM     51  C   UNL A   1      47.194  28.382  27.597  1.00  0.00     0.074 A 
ATOM     52  C   UNL A   1      41.852  31.005  29.801  1.00  0.00     0.029 A 
ATOM     53  N   UNL A   1      43.358  29.627  28.918  1.00  0.00    -0.354 N 
ATOM     54  N   UNL A   1      46.048  28.836  28.045  1.00  0.00    -0.248 NA
ATOM     55  C   UNL A   1      48.277  29.374  27.606  1.00  0.00     0.031 C 
ATOM     56  C   UNL A   1      43.074  31.680  29.717  1.00  0.00     0.029 A 
ATOM     57  C   UNL A   1      44.016  30.816  29.185  1.00  0.00     0.049 A 
ATOM     58  H   UNL A   1      43.776  28.824  28.530  1.00  0.00     0.167 HD
ATOM     59  C   UNL A   1      46.280  30.152  28.419  1.00  0.00     0.074 A 
ATOM     60  C   UNL A   1      47.679  30.422  28.156  1.00  0.00     0.031 C 
ATOM     61  C   UNL A   1      45.413  31.058  28.933  1.00  0.00     0.037 A 
BRANCH  48  62
ATOM     62  C   UNL A   1      39.620  29.002  29.467  1.00  0.00     0.064 A 
ATOM     63  C   UNL A   1      38.711  29.464  28.504  1.00  0.00     0.173 A 
ATOM     64  C   UNL A   1      39.143  28.786  30.768  1.00  0.00     0.173 A 
ATOM     65  F   UNL A   1      39.120  29.698  27.247  1.00  0.00    -0.203 F 
ATOM     66  C   UNL A   1      37.383  29.718  28.836  1.00  0.00     0.198 A 
ATOM     67  C   UNL A   1      37.808  29.015  31.091  1.00  0.00     0.198 A 
ATOM     68  F   UNL A   1      39.970  28.339  31.727  1.00  0.00    -0.203 F 
ATOM     69  F   UNL A   1      36.542  30.197  27.908  1.00  0.00    -0.200 F 
ATOM     70  C   UNL A   1      36.931  29.485  30.125  1.00  0.00     0.200 A 
ATOM     71  F   UNL A   1      37.369  28.778  32.334  1.00  0.00    -0.200 F 
ATOM     72  F   UNL A   1      35.649  29.720  30.440  1.00  0.00    -0.200 F 
ENDBRANCH  48  62
BRANCH  49  73
ATOM     73  C   UNL A   1      48.921  26.688  26.649  1.00  0.00     0.064 A 
ATOM     74  C   UNL A   1      49.875  26.223  27.566  1.00  0.00     0.173 A 
ATOM     75  C   UNL A   1      49.324  26.856  25.317  1.00  0.00     0.173 A 
ATOM     76  F   UNL A   1      49.542  26.067  28.856  1.00  0.00    -0.203 F 
ATOM     77  C   UNL A   1      51.185  25.962  27.171  1.00  0.00     0.198 A 
ATOM     78  C   UNL A   1      50.627  26.568  24.917  1.00  0.00     0.198 A 
ATOM     79  F   UNL A   1      48.448  27.294  24.400  1.00  0.00    -0.203 F 
ATOM     80  F   UNL A   1      52.089  25.566  28.077  1.00  0.00    -0.200 F 
ATOM     81  C   UNL A   1      51.560  26.131  25.846  1.00  0.00     0.200 A 
ATOM     82  F   UNL A   1      50.982  26.720  23.634  1.00  0.00    -0.200 F 
ATOM     83  F   UNL A   1      52.821  25.880  25.467  1.00  0.00    -0.200 F 
ENDBRANCH  49  73
BRANCH  61  84
ATOM     84  C   UNL A   1      45.962  32.409  29.286  1.00  0.00     0.064 A 
ATOM     85  C   UNL A   1      46.548  32.660  30.534  1.00  0.00     0.173 A 
ATOM     86  C   UNL A   1      45.934  33.452  28.348  1.00  0.00     0.173 A 
ATOM     87  F   UNL A   1      46.583  31.699  31.469  1.00  0.00    -0.203 F 
ATOM     88  C   UNL A   1      47.067  33.915  30.840  1.00  0.00     0.198 A 
ATOM     89  C   UNL A   1      46.480  34.697  28.645  1.00  0.00     0.198 A 
ATOM     90  F   UNL A   1      45.390  33.259  27.137  1.00  0.00    -0.203 F 
ATOM     91  F   UNL A   1      47.582  34.147  32.055  1.00  0.00    -0.200 F 
ATOM     92  C   UNL A   1      47.039  34.930  29.893  1.00  0.00     0.200 A 
ATOM     93  F   UNL A   1      46.463  35.671  27.726  1.00  0.00    -0.200 F 
ATOM     94  F   UNL A   1      47.545  36.135  30.187  1.00  0.00    -0.200 F 
ENDBRANCH  61  84
ENDBRANCH  35  36
ENDBRANCH  27  30
ENDBRANCH  25  26
ENDBRANCH  24  25
ENDBRANCH   1  24
TORSDOF 14
ENDMDL
MODEL 3
REMARK VINA RESULT:     -11.5      5.116     10.532
REMARK SMILES COc1ccccc1[C@H](C)Nc1nc(C)c(C(=O)NCCCNC(=O)c2ccc(-c3c4nc(c(-c5c(F)c(F)c(F)c(F)c5F)c5ccc([nH]5)c(-c5c(F)c(F)c(F)c(F)c5F)c5nc(c(-c6c(F)c(F)c(F)c(F)c6F)c6ccc3[nH]6)C=C5)C=C4)cc2)s1
REMARK SMILES IDX 20 1 19 2 17 3 18 4 16 6 12 7 13 8 89 9 14 10 15 11 11 12
REMARK SMILES IDX 9 14 10 15 8 16 3 17 4 18 5 19 7 20 6 21 2 22 1 23 21 24
REMARK SMILES IDX 22 25 23 26 24 27 25 29 26 30 27 31 88 32 28 33 87 34 29 35
REMARK SMILES IDX 30 36 31 37 81 38 32 39 86 40 80 41 82 42 33 43 85 44 79 45
REMARK SMILES IDX 78 46 34 48 66 49 46 50 65 51 47 52 50 53 64 54 83 55 48 56
REMARK SMILES IDX 49 57 63 59 84 60 51 61 35 62 36 63 44 64 37 65 38 66 42 67
REMARK SMILES IDX 45 68 39 69 40 70 43 71 41 72 67 73 68 74 76 75 69 76 70 77
REMARK SMILES IDX 74 78 77 79 71 80 72 81 75 82 73 83 52 84 53 85 61 86 54 87
REMARK SMILES IDX 55 88 59 89 62 90 56 91 57 92 60 93 58 94
REMARK H PARENT 19 5 11 13 23 28 82 47 50 58
REMARK Flexibility Score: inf
ROOT
ATOM      1  C   UNL A   1      31.365  30.603  25.713  1.00  0.00     0.118 C 
ENDROOT
BRANCH   1   2
ATOM      2  N   UNL A   1      31.513  29.628  26.764  1.00  0.00    -0.351 N 
ATOM      3  C   UNL A   1      31.712  28.273  26.781  1.00  0.00     0.263 C 
ATOM      4  O   UNL A   1      31.699  27.812  27.930  1.00  0.00    -0.268 OA
ATOM      5  H   UNL A   1      31.458  30.022  27.665  1.00  0.00     0.163 HD
BRANCH   3   6
ATOM      6  C   UNL A   1      31.964  27.445  25.606  1.00  0.00     0.117 A 
ATOM      7  C   UNL A   1      33.115  25.785  24.195  1.00  0.00     0.184 A 
ATOM      8  N   UNL A   1      32.149  26.359  23.538  1.00  0.00    -0.225 NA
ATOM      9  S   UNL A   1      33.301  26.325  25.794  1.00  0.00    -0.092 S 
ATOM     10  C   UNL A   1      31.423  27.227  24.340  1.00  0.00     0.063 A 
ATOM     11  C   UNL A   1      30.199  27.711  23.658  1.00  0.00     0.068 C 
BRANCH   7  12
ATOM     12  N   UNL A   1      33.890  24.886  23.571  1.00  0.00    -0.355 N 
ATOM     13  H   UNL A   1      34.767  25.191  23.244  1.00  0.00     0.163 HD
BRANCH  12  14
ATOM     14  C   UNL A   1      33.532  23.502  23.342  1.00  0.00     0.112 C 
ATOM     15  C   UNL A   1      33.277  23.290  21.840  1.00  0.00     0.036 C 
BRANCH  14  16
ATOM     16  C   UNL A   1      34.633  22.627  23.911  1.00  0.00     0.016 A 
ATOM     17  C   UNL A   1      34.391  21.442  24.625  1.00  0.00     0.124 A 
ATOM     18  C   UNL A   1      35.450  20.664  25.104  1.00  0.00     0.047 A 
ATOM     19  C   UNL A   1      36.767  21.051  24.860  1.00  0.00     0.004 A 
ATOM     20  C   UNL A   1      35.971  22.996  23.672  1.00  0.00     0.010 A 
ATOM     21  C   UNL A   1      37.028  22.218  24.148  1.00  0.00     0.001 A 
BRANCH  17  22
ATOM     22  O   UNL A   1      33.111  21.081  24.952  1.00  0.00    -0.496 OA
ATOM     23  C   UNL A   1      32.710  19.879  24.294  1.00  0.00     0.278 C 
ENDBRANCH  17  22
ENDBRANCH  14  16
ENDBRANCH  12  14
ENDBRANCH   7  12
ENDBRANCH   3   6
ENDBRANCH   1   2
BRANCH   1  24
ATOM     24  C   UNL A   1      31.250  32.007  26.302  1.00  0.00     0.042 C 
BRANCH  24  25
ATOM     25  C   UNL A   1      32.476  32.430  27.100  1.00  0.00     0.118 C 
BRANCH  25  26
ATOM     26  N   UNL A   1      32.419  33.834  27.464  1.00  0.00    -0.352 N 
ATOM     27  C   UNL A   1      33.100  34.522  28.440  1.00  0.00     0.251 C 
ATOM     28  H   UNL A   1      31.795  34.378  26.930  1.00  0.00     0.163 HD
ATOM     29  O   UNL A   1      32.719  35.642  28.761  1.00  0.00    -0.269 OA
BRANCH  27  30
ATOM     30  C   UNL A   1      34.283  33.928  29.109  1.00  0.00     0.039 A 
ATOM     31  C   UNL A   1      34.078  32.960  30.096  1.00  0.00     0.014 A 
ATOM     32  C   UNL A   1      35.579  34.365  28.825  1.00  0.00     0.014 A 
ATOM     33  C   UNL A   1      35.169  32.405  30.770  1.00  0.00     0.010 A 
ATOM     34  C   UNL A   1      36.671  33.755  29.439  1.00  0.00     0.010 A 
ATOM     35  C   UNL A   1      36.477  32.782  30.431  1.00  0.00    -0.014 A 
BRANCH  35  36
ATOM     36  C   UNL A   1      37.654  32.201  31.124  1.00  0.00     0.031 A 
ATOM     37  C   UNL A   1      38.446  31.103  30.466  1.00  0.00     0.074 A 
ATOM     38  C   UNL A   1      37.971  32.615  32.366  1.00  0.00     0.049 A 
ATOM     39  N   UNL A   1      39.450  30.407  30.939  1.00  0.00    -0.248 NA
ATOM     40  C   UNL A   1      38.037  30.712  29.108  1.00  0.00     0.031 C 
ATOM     41  C   UNL A   1      37.256  33.643  33.123  1.00  0.00     0.029 A 
ATOM     42  N   UNL A   1      38.972  32.212  33.215  1.00  0.00    -0.354 N 
ATOM     43  C   UNL A   1      39.769  29.484  29.952  1.00  0.00     0.074 A 
ATOM     44  C   UNL A   1      38.830  29.679  28.869  1.00  0.00     0.031 C 
ATOM     45  C   UNL A   1      37.852  33.806  34.315  1.00  0.00     0.029 A 
ATOM     46  C   UNL A   1      38.966  32.869  34.422  1.00  0.00     0.049 A 
ATOM     47  H   UNL A   1      39.630  31.519  32.982  1.00  0.00     0.167 HD
ATOM     48  C   UNL A   1      40.767  28.568  29.942  1.00  0.00     0.037 A 
ATOM     49  C   UNL A   1      39.767  32.724  35.495  1.00  0.00     0.037 A 
ATOM     50  C   UNL A   1      41.732  28.414  30.999  1.00  0.00     0.049 A 
ATOM     51  C   UNL A   1      40.877  31.708  35.449  1.00  0.00     0.074 A 
ATOM     52  C   UNL A   1      42.834  27.578  31.046  1.00  0.00     0.029 A 
ATOM     53  N   UNL A   1      41.708  29.114  32.196  1.00  0.00    -0.354 N 
ATOM     54  N   UNL A   1      41.215  30.893  34.479  1.00  0.00    -0.248 NA
ATOM     55  C   UNL A   1      41.721  31.597  36.647  1.00  0.00     0.031 C 
ATOM     56  C   UNL A   1      43.454  27.744  32.289  1.00  0.00     0.029 A 
ATOM     57  C   UNL A   1      42.765  28.714  32.997  1.00  0.00     0.049 A 
ATOM     58  H   UNL A   1      41.040  29.796  32.439  1.00  0.00     0.167 HD
ATOM     59  C   UNL A   1      42.326  30.197  34.935  1.00  0.00     0.074 A 
ATOM     60  C   UNL A   1      42.614  30.694  36.265  1.00  0.00     0.031 C 
ATOM     61  C   UNL A   1      43.044  29.233  34.311  1.00  0.00     0.037 A 
BRANCH  48  62
ATOM     62  C   UNL A   1      40.875  27.660  28.753  1.00  0.00     0.064 A 
ATOM     63  C   UNL A   1      40.101  26.496  28.640  1.00  0.00     0.173 A 
ATOM     64  C   UNL A   1      41.727  27.986  27.687  1.00  0.00     0.173 A 
ATOM     65  F   UNL A   1      39.279  26.133  29.637  1.00  0.00    -0.203 F 
ATOM     66  C   UNL A   1      40.191  25.682  27.513  1.00  0.00     0.198 A 
ATOM     67  C   UNL A   1      41.795  27.185  26.550  1.00  0.00     0.198 A 
ATOM     68  F   UNL A   1      42.486  29.092  27.741  1.00  0.00    -0.203 F 
ATOM     69  F   UNL A   1      39.470  24.553  27.445  1.00  0.00    -0.200 F 
ATOM     70  C   UNL A   1      41.030  26.031  26.467  1.00  0.00     0.200 A 
ATOM     71  F   UNL A   1      42.597  27.530  25.534  1.00  0.00    -0.200 F 
ATOM     72  F   UNL A   1      41.108  25.251  25.380  1.00  0.00    -0.200 F 
ENDBRANCH  48  62
BRANCH  49  73
ATOM     73  C   UNL A   1      39.570  33.577  36.695  1.00  0.00     0.064 A 
ATOM     74  C   UNL A   1      38.753  33.148  37.751  1.00  0.00     0.173 A 
ATOM     75  C   UNL A   1      40.175  34.837  36.808  1.00  0.00     0.173 A 
ATOM     76  F   UNL A   1      38.136  31.960  37.679  1.00  0.00    -0.203 F 
ATOM     77  C   UNL A   1      38.528  33.959  38.861  1.00  0.00     0.198 A 
ATOM     78  C   UNL A   1      39.971  35.635  37.931  1.00  0.00     0.198 A 
ATOM     79  F   UNL A   1      40.970  35.291  35.827  1.00  0.00    -0.203 F 
ATOM     80  F   UNL A   1      37.702  33.546  39.833  1.00  0.00    -0.200 F 
ATOM     81  C   UNL A   1      39.140  35.200  38.953  1.00  0.00     0.200 A 
ATOM     82  F   UNL A   1      40.575  36.828  38.023  1.00  0.00    -0.200 F 
ATOM     83  F   UNL A   1      38.923  35.980  40.021  1.00  0.00    -0.200 F 
ENDBRANCH  49  73
BRANCH  61  84
ATOM     84  C   UNL A   1      44.235  28.684  35.038  1.00  0.00     0.064 A 
ATOM     85  C   UNL A   1      44.145  27.531  35.830  1.00  0.00     0.173 A 
ATOM     86  C   UNL A   1      45.489  29.299  34.908  1.00  0.00     0.173 A 
ATOM     87  F   UNL A   1      42.964  26.918  35.998  1.00  0.00    -0.203 F 
ATOM     88  C   UNL A   1      45.265  27.026  36.485  1.00  0.00     0.198 A 
ATOM     89  C   UNL A   1      46.613  28.775  35.540  1.00  0.00     0.198 A 
ATOM     90  F   UNL A   1      45.628  30.401  34.155  1.00  0.00    -0.203 F 
ATOM     91  F   UNL A   1      45.147  25.949  37.274  1.00  0.00    -0.200 F 
ATOM     92  C   UNL A   1      46.498  27.644  36.334  1.00  0.00     0.200 A 
ATOM     93  F   UNL A   1      47.805  29.366  35.384  1.00  0.00    -0.200 F 
ATOM     94  F   UNL A   1      47.576  27.152  36.960  1.00  0.00    -0.200 F 
ENDBRANCH  61  84
ENDBRANCH  35  36
ENDBRANCH  27  30
ENDBRANCH  25  26
ENDBRANCH  24  25
ENDBRANCH   1  24
TORSDOF 14
ENDMDL
