MODEL 1
REMARK VINA RESULT:     -11.2      0.000      0.000
REMARK SMILES CCCCCCCNC(=O)Oc1cccc(-c2ccc([C@@H](C)C(=O)NCCCNC(=O)c3ccc(-c4c5nc(c(-c6c(F)c(F)c(F)c(F)c6F)c6ccc([nH]6)c(-c6c(F)c(F)c(F)c(F)c6F)c6nc(c(-c7c(F)c(F)c(F)c(F)c7F)c7ccc4[nH]7)C=C6)C=C5)cc3)cc2F)c1
REMARK SMILES IDX 17 1 18 2 19 3 20 4 95 5 96 6 97 7 16 8 12 9 13 10 98 11
REMARK SMILES IDX 14 12 15 13 11 14 9 15 8 16 10 18 7 19 6 20 5 21 4 22 3 23
REMARK SMILES IDX 2 24 1 25 21 26 22 27 23 28 24 29 25 30 26 32 27 33 28 34
REMARK SMILES IDX 29 35 30 36 31 38 32 39 33 40 94 41 34 42 93 43 35 44 36 45
REMARK SMILES IDX 37 46 87 47 38 48 92 49 86 50 88 51 39 52 91 53 85 54 84 55
REMARK SMILES IDX 40 57 72 58 52 59 71 60 53 61 56 62 70 63 89 64 54 65 55 66
REMARK SMILES IDX 69 68 90 69 57 70 41 71 42 72 50 73 43 74 44 75 48 76 51 77
REMARK SMILES IDX 45 78 46 79 49 80 47 81 73 82 74 83 82 84 75 85 76 86 80 87
REMARK SMILES IDX 83 88 77 89 78 90 81 91 79 92 58 93 59 94 67 95 60 96 61 97
REMARK SMILES IDX 65 98 68 99 62 100 63 101 66 102 64 103
REMARK H PARENT 8 17 25 31 29 37 88 56 56 67
REMARK Flexibility Score: inf
ROOT
ATOM      1  C   UNL A   1      38.153  22.179  25.806  1.00  0.00     0.018 A 
ATOM      2  C   UNL A   1      37.289  21.332  25.091  1.00  0.00     0.012 A 
ATOM      3  C   UNL A   1      36.035  21.764  24.639  1.00  0.00     0.005 A 
ATOM      4  C   UNL A   1      35.560  23.042  24.941  1.00  0.00    -0.033 A 
ATOM      5  C   UNL A   1      36.422  23.906  25.632  1.00  0.00     0.044 A 
ATOM      6  C   UNL A   1      37.694  23.485  26.032  1.00  0.00     0.131 A 
ATOM      7  F   UNL A   1      38.473  24.387  26.651  1.00  0.00    -0.206 F 
ENDROOT
BRANCH   1   8
ATOM      8  C   UNL A   1      39.459  21.686  26.304  1.00  0.00    -0.012 A 
ATOM      9  C   UNL A   1      41.444  20.293  26.065  1.00  0.00     0.133 A 
ATOM     10  C   UNL A   1      41.984  20.793  27.244  1.00  0.00     0.047 A 
ATOM     11  C   UNL A   1      40.200  20.723  25.596  1.00  0.00     0.056 A 
ATOM     12  C   UNL A   1      41.271  21.747  27.960  1.00  0.00     0.004 A 
ATOM     13  C   UNL A   1      40.023  22.179  27.500  1.00  0.00     0.009 A 
BRANCH   9  14
ATOM     14  O   UNL A   1      42.133  19.241  25.446  1.00  0.00    -0.410 OA
BRANCH  14  15
ATOM     15  C   UNL A   1      43.199  18.666  26.120  1.00  0.00     0.412 C 
ATOM     16  N   UNL A   1      44.403  19.209  25.765  1.00  0.00    -0.321 N 
ATOM     17  H   UNL A   1      45.204  18.826  26.190  1.00  0.00     0.167 HD
ATOM     18  O   UNL A   1      43.131  17.761  26.943  1.00  0.00    -0.224 OA
BRANCH  16  19
ATOM     19  C   UNL A   1      44.620  20.292  24.827  1.00  0.00     0.119 C 
BRANCH  19  20
ATOM     20  C   UNL A   1      45.630  21.313  25.353  1.00  0.00     0.021 C 
BRANCH  20  21
ATOM     21  C   UNL A   1      45.017  22.466  26.158  1.00  0.00     0.002 C 
BRANCH  21  22
ATOM     22  C   UNL A   1      46.008  23.277  27.000  1.00  0.00     0.000 C 
BRANCH  22  23
ATOM     23  C   UNL A   1      45.400  24.007  28.203  1.00  0.00    -0.000 C 
BRANCH  23  24
ATOM     24  C   UNL A   1      44.711  23.109  29.231  1.00  0.00    -0.003 C 
ATOM     25  C   UNL A   1      43.606  23.815  30.004  1.00  0.00     0.004 C 
ENDBRANCH  23  24
ENDBRANCH  22  23
ENDBRANCH  21  22
ENDBRANCH  20  21
ENDBRANCH  19  20
ENDBRANCH  16  19
ENDBRANCH  14  15
ENDBRANCH   9  14
ENDBRANCH   1   8
BRANCH   4  26
ATOM     26  C   UNL A   1      34.157  23.509  24.592  1.00  0.00     0.105 C 
ATOM     27  C   UNL A   1      33.163  23.549  25.751  1.00  0.00     0.023 C 
BRANCH  26  28
ATOM     28  C   UNL A   1      34.135  24.750  23.688  1.00  0.00     0.227 C 
ATOM     29  O   UNL A   1      34.299  24.624  22.467  1.00  0.00    -0.274 OA
ATOM     30  N   UNL A   1      33.944  26.020  24.136  1.00  0.00    -0.356 N 
ATOM     31  H   UNL A   1      33.899  26.694  23.421  1.00  0.00     0.163 HD
BRANCH  30  32
ATOM     32  C   UNL A   1      33.792  26.567  25.470  1.00  0.00     0.117 C 
BRANCH  32  33
ATOM     33  C   UNL A   1      32.892  27.801  25.492  1.00  0.00     0.042 C 
BRANCH  33  34
ATOM     34  C   UNL A   1      33.608  29.097  25.133  1.00  0.00     0.118 C 
BRANCH  34  35
ATOM     35  N   UNL A   1      32.962  30.264  25.718  1.00  0.00    -0.352 N 
ATOM     36  C   UNL A   1      33.255  30.981  26.851  1.00  0.00     0.251 C 
ATOM     37  H   UNL A   1      32.183  30.596  25.215  1.00  0.00     0.163 HD
ATOM     38  O   UNL A   1      32.440  31.804  27.263  1.00  0.00    -0.269 OA
BRANCH  36  39
ATOM     39  C   UNL A   1      34.523  30.779  27.591  1.00  0.00     0.039 A 
ATOM     40  C   UNL A   1      35.395  31.866  27.734  1.00  0.00     0.014 A 
ATOM     41  C   UNL A   1      34.899  29.527  28.082  1.00  0.00     0.014 A 
ATOM     42  C   UNL A   1      36.608  31.709  28.411  1.00  0.00     0.010 A 
ATOM     43  C   UNL A   1      36.071  29.388  28.826  1.00  0.00     0.010 A 
ATOM     44  C   UNL A   1      36.944  30.475  28.988  1.00  0.00    -0.014 A 
BRANCH  44  45
ATOM     45  C   UNL A   1      38.209  30.293  29.745  1.00  0.00     0.031 A 
ATOM     46  C   UNL A   1      39.339  29.496  29.151  1.00  0.00     0.074 A 
ATOM     47  C   UNL A   1      38.321  30.795  30.990  1.00  0.00     0.049 A 
ATOM     48  N   UNL A   1      40.484  29.153  29.686  1.00  0.00    -0.248 NA
ATOM     49  C   UNL A   1      39.145  28.993  27.782  1.00  0.00     0.031 C 
ATOM     50  C   UNL A   1      37.281  31.547  31.695  1.00  0.00     0.029 A 
ATOM     51  N   UNL A   1      39.354  30.733  31.892  1.00  0.00    -0.354 N 
ATOM     52  C   UNL A   1      41.133  28.383  28.730  1.00  0.00     0.074 A 
ATOM     53  C   UNL A   1      40.237  28.267  27.600  1.00  0.00     0.031 C 
ATOM     54  C   UNL A   1      37.734  31.889  32.912  1.00  0.00     0.029 A 
ATOM     55  C   UNL A   1      39.079  31.348  33.089  1.00  0.00     0.049 A 
ATOM     56  H   UNL A   1      40.212  30.288  31.699  1.00  0.00     0.167 HD
ATOM     57  C   UNL A   1      42.373  27.839  28.781  1.00  0.00     0.037 A 
ATOM     58  C   UNL A   1      39.822  31.456  34.206  1.00  0.00     0.037 A 
ATOM     59  C   UNL A   1      43.274  27.981  29.895  1.00  0.00     0.049 A 
ATOM     60  C   UNL A   1      41.199  30.848  34.234  1.00  0.00     0.074 A 
ATOM     61  C   UNL A   1      44.572  27.515  30.020  1.00  0.00     0.029 A 
ATOM     62  N   UNL A   1      42.971  28.640  31.077  1.00  0.00    -0.354 N 
ATOM     63  N   UNL A   1      41.825  30.175  33.300  1.00  0.00    -0.248 NA
ATOM     64  C   UNL A   1      41.975  31.023  35.469  1.00  0.00     0.031 C 
ATOM     65  C   UNL A   1      45.040  27.860  31.291  1.00  0.00     0.029 A 
ATOM     66  C   UNL A   1      44.052  28.582  31.941  1.00  0.00     0.049 A 
ATOM     67  H   UNL A   1      42.113  29.084  31.271  1.00  0.00     0.167 HD
ATOM     68  C   UNL A   1      43.075  29.869  33.822  1.00  0.00     0.074 A 
ATOM     69  C   UNL A   1      43.124  30.445  35.150  1.00  0.00     0.031 C 
ATOM     70  C   UNL A   1      44.089  29.172  33.255  1.00  0.00     0.037 A 
BRANCH  57  71
ATOM     71  C   UNL A   1      42.835  27.046  27.593  1.00  0.00     0.064 A 
ATOM     72  C   UNL A   1      42.276  25.797  27.283  1.00  0.00     0.173 A 
ATOM     73  C   UNL A   1      43.813  27.560  26.727  1.00  0.00     0.173 A 
ATOM     74  F   UNL A   1      41.345  25.255  28.083  1.00  0.00    -0.203 F 
ATOM     75  C   UNL A   1      42.698  25.079  26.167  1.00  0.00     0.198 A 
ATOM     76  C   UNL A   1      44.211  26.853  25.596  1.00  0.00     0.198 A 
ATOM     77  F   UNL A   1      44.374  28.754  26.973  1.00  0.00    -0.203 F 
ATOM     78  F   UNL A   1      42.183  23.868  25.916  1.00  0.00    -0.200 F 
ATOM     79  C   UNL A   1      43.660  25.612  25.320  1.00  0.00     0.200 A 
ATOM     80  F   UNL A   1      45.131  27.374  24.771  1.00  0.00    -0.200 F 
ATOM     81  F   UNL A   1      44.057  24.924  24.240  1.00  0.00    -0.200 F 
ENDBRANCH  57  71
BRANCH  58  82
ATOM     82  C   UNL A   1      39.291  32.186  35.385  1.00  0.00     0.064 A 
ATOM     83  C   UNL A   1      38.529  31.523  36.359  1.00  0.00     0.173 A 
ATOM     84  C   UNL A   1      39.524  33.558  35.563  1.00  0.00     0.173 A 
ATOM     85  F   UNL A   1      38.261  30.216  36.222  1.00  0.00    -0.203 F 
ATOM     86  C   UNL A   1      38.004  32.208  37.452  1.00  0.00     0.198 A 
ATOM     87  C   UNL A   1      39.023  34.236  36.671  1.00  0.00     0.198 A 
ATOM     88  F   UNL A   1      40.249  34.237  34.663  1.00  0.00    -0.203 F 
ATOM     89  F   UNL A   1      37.239  31.560  38.342  1.00  0.00    -0.200 F 
ATOM     90  C   UNL A   1      38.256  33.563  37.610  1.00  0.00     0.200 A 
ATOM     91  F   UNL A   1      39.279  35.541  36.829  1.00  0.00    -0.200 F 
ATOM     92  F   UNL A   1      37.752  34.221  38.663  1.00  0.00    -0.200 F 
ENDBRANCH  58  82
BRANCH  70  93
ATOM     93  C   UNL A   1      45.352  29.025  34.050  1.00  0.00     0.064 A 
ATOM     94  C   UNL A   1      46.389  29.966  33.963  1.00  0.00     0.173 A 
ATOM     95  C   UNL A   1      45.510  27.951  34.938  1.00  0.00     0.173 A 
ATOM     96  F   UNL A   1      46.291  31.002  33.117  1.00  0.00    -0.203 F 
ATOM     97  C   UNL A   1      47.548  29.824  34.721  1.00  0.00     0.198 A 
ATOM     98  C   UNL A   1      46.658  27.828  35.716  1.00  0.00     0.198 A 
ATOM     99  F   UNL A   1      44.545  27.028  35.062  1.00  0.00    -0.203 F 
ATOM    100  F   UNL A   1      48.545  30.709  34.590  1.00  0.00    -0.200 F 
ATOM    101  C   UNL A   1      47.678  28.760  35.601  1.00  0.00     0.200 A 
ATOM    102  F   UNL A   1      46.777  26.805  36.575  1.00  0.00    -0.200 F 
ATOM    103  F   UNL A   1      48.792  28.628  36.335  1.00  0.00    -0.200 F 
ENDBRANCH  70  93
ENDBRANCH  44  45
ENDBRANCH  36  39
ENDBRANCH  34  35
ENDBRANCH  33  34
ENDBRANCH  32  33
ENDBRANCH  30  32
ENDBRANCH  26  28
ENDBRANCH   4  26
TORSDOF 20
ENDMDL
MODEL 2
REMARK VINA RESULT:     -11.2      4.172      9.641
REMARK SMILES CCCCCCCNC(=O)Oc1cccc(-c2ccc([C@@H](C)C(=O)NCCCNC(=O)c3ccc(-c4c5nc(c(-c6c(F)c(F)c(F)c(F)c6F)c6ccc([nH]6)c(-c6c(F)c(F)c(F)c(F)c6F)c6nc(c(-c7c(F)c(F)c(F)c(F)c7F)c7ccc4[nH]7)C=C6)C=C5)cc3)cc2F)c1
REMARK SMILES IDX 17 1 18 2 19 3 20 4 95 5 96 6 97 7 16 8 12 9 13 10 98 11
REMARK SMILES IDX 14 12 15 13 11 14 9 15 8 16 10 18 7 19 6 20 5 21 4 22 3 23
REMARK SMILES IDX 2 24 1 25 21 26 22 27 23 28 24 29 25 30 26 32 27 33 28 34
REMARK SMILES IDX 29 35 30 36 31 38 32 39 33 40 94 41 34 42 93 43 35 44 36 45
REMARK SMILES IDX 37 46 87 47 38 48 92 49 86 50 88 51 39 52 91 53 85 54 84 55
REMARK SMILES IDX 40 57 72 58 52 59 71 60 53 61 56 62 70 63 89 64 54 65 55 66
REMARK SMILES IDX 69 68 90 69 57 70 41 71 42 72 50 73 43 74 44 75 48 76 51 77
REMARK SMILES IDX 45 78 46 79 49 80 47 81 73 82 74 83 82 84 75 85 76 86 80 87
REMARK SMILES IDX 83 88 77 89 78 90 81 91 79 92 58 93 59 94 67 95 60 96 61 97
REMARK SMILES IDX 65 98 68 99 62 100 63 101 66 102 64 103
REMARK H PARENT 8 17 25 31 29 37 88 56 56 67
REMARK Flexibility Score: inf
ROOT
ATOM      1  C   UNL A   1      39.901  26.869  28.626  1.00  0.00     0.018 A 
ATOM      2  C   UNL A   1      39.357  25.621  28.279  1.00  0.00     0.012 A 
ATOM      3  C   UNL A   1      40.167  24.513  27.998  1.00  0.00     0.005 A 
ATOM      4  C   UNL A   1      41.559  24.622  27.984  1.00  0.00    -0.033 A 
ATOM      5  C   UNL A   1      42.116  25.855  28.353  1.00  0.00     0.044 A 
ATOM      6  C   UNL A   1      41.301  26.941  28.686  1.00  0.00     0.131 A 
ATOM      7  F   UNL A   1      41.912  28.073  29.070  1.00  0.00    -0.206 F 
ENDROOT
BRANCH   1   8
ATOM      8  C   UNL A   1      39.022  28.036  28.884  1.00  0.00    -0.012 A 
ATOM      9  C   UNL A   1      37.482  29.269  30.312  1.00  0.00     0.133 A 
ATOM     10  C   UNL A   1      37.388  30.301  29.384  1.00  0.00     0.047 A 
ATOM     11  C   UNL A   1      38.281  28.148  30.073  1.00  0.00     0.056 A 
ATOM     12  C   UNL A   1      38.113  30.213  28.203  1.00  0.00     0.004 A 
ATOM     13  C   UNL A   1      38.911  29.091  27.954  1.00  0.00     0.009 A 
BRANCH   9  14
ATOM     14  O   UNL A   1      36.634  29.337  31.427  1.00  0.00    -0.410 OA
BRANCH  14  15
ATOM     15  C   UNL A   1      37.194  29.208  32.688  1.00  0.00     0.412 C 
ATOM     16  N   UNL A   1      37.318  30.407  33.335  1.00  0.00    -0.321 N 
ATOM     17  H   UNL A   1      37.734  30.387  34.228  1.00  0.00     0.167 HD
ATOM     18  O   UNL A   1      37.567  28.165  33.210  1.00  0.00    -0.224 OA
BRANCH  16  19
ATOM     19  C   UNL A   1      36.899  31.703  32.843  1.00  0.00     0.119 C 
BRANCH  19  20
ATOM     20  C   UNL A   1      38.078  32.663  32.678  1.00  0.00     0.021 C 
BRANCH  20  21
ATOM     21  C   UNL A   1      39.384  32.002  32.217  1.00  0.00     0.002 C 
BRANCH  21  22
ATOM     22  C   UNL A   1      39.999  32.588  30.942  1.00  0.00     0.000 C 
BRANCH  22  23
ATOM     23  C   UNL A   1      39.473  33.971  30.538  1.00  0.00    -0.000 C 
BRANCH  23  24
ATOM     24  C   UNL A   1      38.679  34.010  29.231  1.00  0.00    -0.003 C 
ATOM     25  C   UNL A   1      37.172  33.982  29.440  1.00  0.00     0.004 C 
ENDBRANCH  23  24
ENDBRANCH  22  23
ENDBRANCH  21  22
ENDBRANCH  20  21
ENDBRANCH  19  20
ENDBRANCH  16  19
ENDBRANCH  14  15
ENDBRANCH   9  14
ENDBRANCH   1   8
BRANCH   4  26
ATOM     26  C   UNL A   1      42.475  23.488  27.554  1.00  0.00     0.105 C 
ATOM     27  C   UNL A   1      42.855  22.491  28.647  1.00  0.00     0.023 C 
BRANCH  26  28
ATOM     28  C   UNL A   1      42.066  22.848  26.219  1.00  0.00     0.227 C 
ATOM     29  O   UNL A   1      41.105  22.069  26.180  1.00  0.00    -0.274 OA
ATOM     30  N   UNL A   1      42.697  23.077  25.036  1.00  0.00    -0.356 N 
ATOM     31  H   UNL A   1      42.275  22.635  24.265  1.00  0.00     0.163 HD
BRANCH  30  32
ATOM     32  C   UNL A   1      43.876  23.850  24.697  1.00  0.00     0.117 C 
BRANCH  32  33
ATOM     33  C   UNL A   1      45.168  23.151  25.113  1.00  0.00     0.042 C 
BRANCH  33  34
ATOM     34  C   UNL A   1      46.196  24.076  25.752  1.00  0.00     0.118 C 
BRANCH  34  35
ATOM     35  N   UNL A   1      46.833  24.950  24.776  1.00  0.00    -0.352 N 
ATOM     36  C   UNL A   1      46.876  26.319  24.689  1.00  0.00     0.251 C 
ATOM     37  H   UNL A   1      47.314  24.480  24.058  1.00  0.00     0.163 HD
ATOM     38  O   UNL A   1      47.296  26.838  23.657  1.00  0.00    -0.269 OA
BRANCH  36  39
ATOM     39  C   UNL A   1      46.420  27.183  25.803  1.00  0.00     0.039 A 
ATOM     40  C   UNL A   1      45.053  27.469  25.911  1.00  0.00     0.014 A 
ATOM     41  C   UNL A   1      47.318  27.772  26.696  1.00  0.00     0.014 A 
ATOM     42  C   UNL A   1      44.587  28.295  26.939  1.00  0.00     0.010 A 
ATOM     43  C   UNL A   1      46.846  28.530  27.768  1.00  0.00     0.010 A 
ATOM     44  C   UNL A   1      45.477  28.810  27.893  1.00  0.00    -0.014 A 
BRANCH  44  45
ATOM     45  C   UNL A   1      45.001  29.658  29.017  1.00  0.00     0.031 A 
ATOM     46  C   UNL A   1      44.659  29.035  30.343  1.00  0.00     0.074 A 
ATOM     47  C   UNL A   1      44.819  30.979  28.827  1.00  0.00     0.049 A 
ATOM     48  N   UNL A   1      44.149  29.589  31.414  1.00  0.00    -0.248 NA
ATOM     49  C   UNL A   1      44.899  27.588  30.475  1.00  0.00     0.031 C 
ATOM     50  C   UNL A   1      45.070  31.695  27.575  1.00  0.00     0.029 A 
ATOM     51  N   UNL A   1      44.363  31.952  29.681  1.00  0.00    -0.354 N 
ATOM     52  C   UNL A   1      43.989  28.560  32.333  1.00  0.00     0.074 A 
ATOM     53  C   UNL A   1      44.412  27.340  31.681  1.00  0.00     0.031 C 
ATOM     54  C   UNL A   1      44.780  32.995  27.746  1.00  0.00     0.029 A 
ATOM     55  C   UNL A   1      44.286  33.198  29.106  1.00  0.00     0.049 A 
ATOM     56  H   UNL A   1      44.114  31.775  30.617  1.00  0.00     0.167 HD
ATOM     57  C   UNL A   1      43.550  28.630  33.614  1.00  0.00     0.037 A 
ATOM     58  C   UNL A   1      43.856  34.368  29.614  1.00  0.00     0.037 A 
ATOM     59  C   UNL A   1      43.160  29.850  34.270  1.00  0.00     0.049 A 
ATOM     60  C   UNL A   1      43.380  34.419  31.041  1.00  0.00     0.074 A 
ATOM     61  C   UNL A   1      42.754  30.033  35.581  1.00  0.00     0.029 A 
ATOM     62  N   UNL A   1      43.127  31.097  33.664  1.00  0.00    -0.354 N 
ATOM     63  N   UNL A   1      43.293  33.451  31.919  1.00  0.00    -0.248 NA
ATOM     64  C   UNL A   1      42.951  35.730  31.548  1.00  0.00     0.031 C 
ATOM     65  C   UNL A   1      42.440  31.385  35.757  1.00  0.00     0.029 A 
ATOM     66  C   UNL A   1      42.695  32.052  34.570  1.00  0.00     0.049 A 
ATOM     67  H   UNL A   1      43.374  31.276  32.727  1.00  0.00     0.167 HD
ATOM     68  C   UNL A   1      42.825  34.036  33.088  1.00  0.00     0.074 A 
ATOM     69  C   UNL A   1      42.663  35.448  32.812  1.00  0.00     0.031 C 
ATOM     70  C   UNL A   1      42.552  33.456  34.282  1.00  0.00     0.037 A 
BRANCH  57  71
ATOM     71  C   UNL A   1      43.479  27.350  34.396  1.00  0.00     0.064 A 
ATOM     72  C   UNL A   1      42.265  26.671  34.580  1.00  0.00     0.173 A 
ATOM     73  C   UNL A   1      44.641  26.772  34.928  1.00  0.00     0.173 A 
ATOM     74  F   UNL A   1      41.122  27.186  34.101  1.00  0.00    -0.203 F 
ATOM     75  C   UNL A   1      42.214  25.474  35.290  1.00  0.00     0.198 A 
ATOM     76  C   UNL A   1      44.591  25.560  35.612  1.00  0.00     0.198 A 
ATOM     77  F   UNL A   1      45.829  27.377  34.773  1.00  0.00    -0.203 F 
ATOM     78  F   UNL A   1      41.037  24.866  35.492  1.00  0.00    -0.200 F 
ATOM     79  C   UNL A   1      43.378  24.916  35.798  1.00  0.00     0.200 A 
ATOM     80  F   UNL A   1      45.718  25.016  36.091  1.00  0.00    -0.200 F 
ATOM     81  F   UNL A   1      43.327  23.759  36.473  1.00  0.00    -0.200 F 
ENDBRANCH  57  71
BRANCH  58  82
ATOM     82  C   UNL A   1      43.875  35.594  28.775  1.00  0.00     0.064 A 
ATOM     83  C   UNL A   1      42.725  36.018  28.095  1.00  0.00     0.173 A 
ATOM     84  C   UNL A   1      45.039  36.363  28.629  1.00  0.00     0.173 A 
ATOM     85  F   UNL A   1      41.592  35.305  28.186  1.00  0.00    -0.203 F 
ATOM     86  C   UNL A   1      42.744  37.151  27.284  1.00  0.00     0.198 A 
ATOM     87  C   UNL A   1      45.050  37.511  27.841  1.00  0.00     0.198 A 
ATOM     88  F   UNL A   1      46.165  36.002  29.261  1.00  0.00    -0.203 F 
ATOM     89  F   UNL A   1      41.643  37.506  26.607  1.00  0.00    -0.200 F 
ATOM     90  C   UNL A   1      43.905  37.900  27.162  1.00  0.00     0.200 A 
ATOM     91  F   UNL A   1      46.169  38.240  27.736  1.00  0.00    -0.200 F 
ATOM     92  F   UNL A   1      43.922  38.990  26.384  1.00  0.00    -0.200 F 
ENDBRANCH  58  82
BRANCH  70  93
ATOM     93  C   UNL A   1      42.087  34.352  35.391  1.00  0.00     0.064 A 
ATOM     94  C   UNL A   1      40.729  34.466  35.724  1.00  0.00     0.173 A 
ATOM     95  C   UNL A   1      43.015  35.074  36.155  1.00  0.00     0.173 A 
ATOM     96  F   UNL A   1      39.801  33.806  35.013  1.00  0.00    -0.203 F 
ATOM     97  C   UNL A   1      40.316  35.290  36.768  1.00  0.00     0.198 A 
ATOM     98  C   UNL A   1      42.601  35.875  37.216  1.00  0.00     0.198 A 
ATOM     99  F   UNL A   1      44.325  34.995  35.880  1.00  0.00    -0.203 F 
ATOM    100  F   UNL A   1      39.010  35.420  37.041  1.00  0.00    -0.200 F 
ATOM    101  C   UNL A   1      41.252  35.987  37.517  1.00  0.00     0.200 A 
ATOM    102  F   UNL A   1      43.509  36.538  37.947  1.00  0.00    -0.200 F 
ATOM    103  F   UNL A   1      40.853  36.774  38.526  1.00  0.00    -0.200 F 
ENDBRANCH  70  93
ENDBRANCH  44  45
ENDBRANCH  36  39
ENDBRANCH  34  35
ENDBRANCH  33  34
ENDBRANCH  32  33
ENDBRANCH  30  32
ENDBRANCH  26  28
ENDBRANCH   4  26
TORSDOF 20
ENDMDL
MODEL 3
REMARK VINA RESULT:     -11.1      4.051      9.485
REMARK SMILES CCCCCCCNC(=O)Oc1cccc(-c2ccc([C@@H](C)C(=O)NCCCNC(=O)c3ccc(-c4c5nc(c(-c6c(F)c(F)c(F)c(F)c6F)c6ccc([nH]6)c(-c6c(F)c(F)c(F)c(F)c6F)c6nc(c(-c7c(F)c(F)c(F)c(F)c7F)c7ccc4[nH]7)C=C6)C=C5)cc3)cc2F)c1
REMARK SMILES IDX 17 1 18 2 19 3 20 4 95 5 96 6 97 7 16 8 12 9 13 10 98 11
REMARK SMILES IDX 14 12 15 13 11 14 9 15 8 16 10 18 7 19 6 20 5 21 4 22 3 23
REMARK SMILES IDX 2 24 1 25 21 26 22 27 23 28 24 29 25 30 26 32 27 33 28 34
REMARK SMILES IDX 29 35 30 36 31 38 32 39 33 40 94 41 34 42 93 43 35 44 36 45
REMARK SMILES IDX 37 46 87 47 38 48 92 49 86 50 88 51 39 52 91 53 85 54 84 55
REMARK SMILES IDX 40 57 72 58 52 59 71 60 53 61 56 62 70 63 89 64 54 65 55 66
REMARK SMILES IDX 69 68 90 69 57 70 41 71 42 72 50 73 43 74 44 75 48 76 51 77
REMARK SMILES IDX 45 78 46 79 49 80 47 81 73 82 74 83 82 84 75 85 76 86 80 87
REMARK SMILES IDX 83 88 77 89 78 90 81 91 79 92 58 93 59 94 67 95 60 96 61 97
REMARK SMILES IDX 65 98 68 99 62 100 63 101 66 102 64 103
REMARK H PARENT 8 17 25 31 29 37 88 56 56 67
REMARK Flexibility Score: inf
ROOT
ATOM      1  C   UNL A   1      39.789  26.763  28.587  1.00  0.00     0.018 A 
ATOM      2  C   UNL A   1      39.274  25.522  28.175  1.00  0.00     0.012 A 
ATOM      3  C   UNL A   1      40.107  24.430  27.899  1.00  0.00     0.005 A 
ATOM      4  C   UNL A   1      41.497  24.550  27.956  1.00  0.00    -0.033 A 
ATOM      5  C   UNL A   1      42.024  25.775  28.390  1.00  0.00     0.044 A 
ATOM      6  C   UNL A   1      41.184  26.844  28.717  1.00  0.00     0.131 A 
ATOM      7  F   UNL A   1      41.765  27.968  29.166  1.00  0.00    -0.206 F 
ENDROOT
BRANCH   1   8
ATOM      8  C   UNL A   1      38.888  27.913  28.839  1.00  0.00    -0.012 A 
ATOM      9  C   UNL A   1      37.415  29.186  30.302  1.00  0.00     0.133 A 
ATOM     10  C   UNL A   1      37.210  30.150  29.322  1.00  0.00     0.047 A 
ATOM     11  C   UNL A   1      38.236  28.079  30.073  1.00  0.00     0.056 A 
ATOM     12  C   UNL A   1      37.845  30.009  28.095  1.00  0.00     0.004 A 
ATOM     13  C   UNL A   1      38.665  28.900  27.856  1.00  0.00     0.009 A 
BRANCH   9  14
ATOM     14  O   UNL A   1      36.653  29.300  31.475  1.00  0.00    -0.410 OA
BRANCH  14  15
ATOM     15  C   UNL A   1      37.297  29.669  32.645  1.00  0.00     0.412 C 
ATOM     16  N   UNL A   1      36.904  30.898  33.098  1.00  0.00    -0.321 N 
ATOM     17  H   UNL A   1      37.344  31.230  33.914  1.00  0.00     0.167 HD
ATOM     18  O   UNL A   1      38.141  29.013  33.243  1.00  0.00    -0.224 OA
BRANCH  16  19
ATOM     19  C   UNL A   1      35.905  31.761  32.502  1.00  0.00     0.119 C 
BRANCH  19  20
ATOM     20  C   UNL A   1      36.534  32.854  31.638  1.00  0.00     0.021 C 
BRANCH  20  21
ATOM     21  C   UNL A   1      37.453  33.821  32.394  1.00  0.00     0.002 C 
BRANCH  21  22
ATOM     22  C   UNL A   1      38.874  33.946  31.835  1.00  0.00     0.000 C 
BRANCH  22  23
ATOM     23  C   UNL A   1      39.669  32.637  31.772  1.00  0.00    -0.000 C 
BRANCH  23  24
ATOM     24  C   UNL A   1      40.131  32.221  30.374  1.00  0.00    -0.003 C 
ATOM     25  C   UNL A   1      40.749  30.831  30.331  1.00  0.00     0.004 C 
ENDBRANCH  23  24
ENDBRANCH  22  23
ENDBRANCH  21  22
ENDBRANCH  20  21
ENDBRANCH  19  20
ENDBRANCH  16  19
ENDBRANCH  14  15
ENDBRANCH   9  14
ENDBRANCH   1   8
BRANCH   4  26
ATOM     26  C   UNL A   1      42.443  23.438  27.535  1.00  0.00     0.105 C 
ATOM     27  C   UNL A   1      42.783  22.411  28.614  1.00  0.00     0.023 C 
BRANCH  26  28
ATOM     28  C   UNL A   1      42.103  22.835  26.164  1.00  0.00     0.227 C 
ATOM     29  O   UNL A   1      41.196  21.998  26.069  1.00  0.00    -0.274 OA
ATOM     30  N   UNL A   1      42.741  23.159  25.007  1.00  0.00    -0.356 N 
ATOM     31  H   UNL A   1      42.363  22.726  24.208  1.00  0.00     0.163 HD
BRANCH  30  32
ATOM     32  C   UNL A   1      43.872  24.021  24.729  1.00  0.00     0.117 C 
BRANCH  32  33
ATOM     33  C   UNL A   1      45.208  23.307  24.926  1.00  0.00     0.042 C 
BRANCH  33  34
ATOM     34  C   UNL A   1      46.281  24.170  25.580  1.00  0.00     0.118 C 
BRANCH  34  35
ATOM     35  N   UNL A   1      46.853  25.135  24.651  1.00  0.00    -0.352 N 
ATOM     36  C   UNL A   1      46.787  26.506  24.627  1.00  0.00     0.251 C 
ATOM     37  H   UNL A   1      47.376  24.738  23.918  1.00  0.00     0.163 HD
ATOM     38  O   UNL A   1      47.173  27.103  23.624  1.00  0.00    -0.269 OA
BRANCH  36  39
ATOM     39  C   UNL A   1      46.255  27.279  25.773  1.00  0.00     0.039 A 
ATOM     40  C   UNL A   1      44.869  27.449  25.879  1.00  0.00     0.014 A 
ATOM     41  C   UNL A   1      47.096  27.896  26.701  1.00  0.00     0.014 A 
ATOM     42  C   UNL A   1      44.330  28.187  26.938  1.00  0.00     0.010 A 
ATOM     43  C   UNL A   1      46.557  28.565  27.800  1.00  0.00     0.010 A 
ATOM     44  C   UNL A   1      45.169  28.728  27.923  1.00  0.00    -0.014 A 
BRANCH  44  45
ATOM     45  C   UNL A   1      44.618  29.483  29.078  1.00  0.00     0.031 A 
ATOM     46  C   UNL A   1      44.378  30.965  28.969  1.00  0.00     0.074 A 
ATOM     47  C   UNL A   1      44.390  28.849  30.244  1.00  0.00     0.049 A 
ATOM     48  N   UNL A   1      43.986  31.813  29.887  1.00  0.00    -0.248 NA
ATOM     49  C   UNL A   1      44.639  31.581  27.658  1.00  0.00     0.031 C 
ATOM     50  C   UNL A   1      44.624  27.426  30.492  1.00  0.00     0.029 A 
ATOM     51  N   UNL A   1      43.925  29.323  31.446  1.00  0.00    -0.354 N 
ATOM     52  C   UNL A   1      43.974  33.058  29.271  1.00  0.00     0.074 A 
ATOM     53  C   UNL A   1      44.442  32.865  27.916  1.00  0.00     0.031 C 
ATOM     54  C   UNL A   1      44.289  27.138  31.760  1.00  0.00     0.029 A 
ATOM     55  C   UNL A   1      43.853  28.363  32.426  1.00  0.00     0.049 A 
ATOM     56  H   UNL A   1      43.669  30.262  31.592  1.00  0.00     0.167 HD
ATOM     57  C   UNL A   1      43.586  34.251  29.784  1.00  0.00     0.037 A 
ATOM     58  C   UNL A   1      43.487  28.461  33.718  1.00  0.00     0.037 A 
ATOM     59  C   UNL A   1      43.092  34.435  31.123  1.00  0.00     0.049 A 
ATOM     60  C   UNL A   1      43.055  29.797  34.260  1.00  0.00     0.074 A 
ATOM     61  C   UNL A   1      42.622  35.593  31.719  1.00  0.00     0.029 A 
ATOM     62  N   UNL A   1      43.003  33.431  32.077  1.00  0.00    -0.354 N 
ATOM     63  N   UNL A   1      42.988  30.954  33.651  1.00  0.00    -0.248 NA
ATOM     64  C   UNL A   1      42.638  29.836  35.669  1.00  0.00     0.031 C 
ATOM     65  C   UNL A   1      42.284  35.298  33.043  1.00  0.00     0.029 A 
ATOM     66  C   UNL A   1      42.499  33.946  33.260  1.00  0.00     0.049 A 
ATOM     67  H   UNL A   1      43.260  32.491  31.932  1.00  0.00     0.167 HD
ATOM     68  C   UNL A   1      42.500  31.853  34.590  1.00  0.00     0.074 A 
ATOM     69  C   UNL A   1      42.270  31.102  35.806  1.00  0.00     0.031 C 
ATOM     70  C   UNL A   1      42.264  33.181  34.457  1.00  0.00     0.037 A 
BRANCH  57  71
ATOM     71  C   UNL A   1      43.671  35.454  28.889  1.00  0.00     0.064 A 
ATOM     72  C   UNL A   1      42.539  35.962  28.235  1.00  0.00     0.173 A 
ATOM     73  C   UNL A   1      44.887  36.133  28.719  1.00  0.00     0.173 A 
ATOM     74  F   UNL A   1      41.354  35.344  28.356  1.00  0.00    -0.203 F 
ATOM     75  C   UNL A   1      42.626  37.090  27.422  1.00  0.00     0.198 A 
ATOM     76  C   UNL A   1      44.965  37.277  27.929  1.00  0.00     0.198 A 
ATOM     77  F   UNL A   1      45.999  35.693  29.328  1.00  0.00    -0.203 F 
ATOM     78  F   UNL A   1      41.541  37.531  26.772  1.00  0.00    -0.200 F 
ATOM     79  C   UNL A   1      43.837  37.751  27.277  1.00  0.00     0.200 A 
ATOM     80  F   UNL A   1      46.132  37.922  27.800  1.00  0.00    -0.200 F 
ATOM     81  F   UNL A   1      43.916  38.842  26.502  1.00  0.00    -0.200 F 
ENDBRANCH  57  71
BRANCH  58  82
ATOM     82  C   UNL A   1      43.493  27.255  34.586  1.00  0.00     0.064 A 
ATOM     83  C   UNL A   1      42.325  26.502  34.778  1.00  0.00     0.173 A 
ATOM     84  C   UNL A   1      44.657  26.832  35.244  1.00  0.00     0.173 A 
ATOM     85  F   UNL A   1      41.182  26.878  34.187  1.00  0.00    -0.203 F 
ATOM     86  C   UNL A   1      42.317  25.387  35.614  1.00  0.00     0.198 A 
ATOM     87  C   UNL A   1      44.655  25.701  36.056  1.00  0.00     0.198 A 
ATOM     88  F   UNL A   1      45.800  27.515  35.090  1.00  0.00    -0.203 F 
ATOM     89  F   UNL A   1      41.176  24.714  35.818  1.00  0.00    -0.200 F 
ATOM     90  C   UNL A   1      43.483  24.984  36.248  1.00  0.00     0.200 A 
ATOM     91  F   UNL A   1      45.785  25.306  36.656  1.00  0.00    -0.200 F 
ATOM     92  F   UNL A   1      43.475  23.910  37.049  1.00  0.00    -0.200 F 
ENDBRANCH  58  82
BRANCH  70  93
ATOM     93  C   UNL A   1      41.696  33.900  35.644  1.00  0.00     0.064 A 
ATOM     94  C   UNL A   1      42.510  34.633  36.520  1.00  0.00     0.173 A 
ATOM     95  C   UNL A   1      40.314  33.889  35.885  1.00  0.00     0.173 A 
ATOM     96  F   UNL A   1      43.840  34.662  36.341  1.00  0.00    -0.203 F 
ATOM     97  C   UNL A   1      41.963  35.309  37.608  1.00  0.00     0.198 A 
ATOM     98  C   UNL A   1      39.767  34.589  36.956  1.00  0.00     0.198 A 
ATOM     99  F   UNL A   1      39.492  33.208  35.072  1.00  0.00    -0.203 F 
ATOM    100  F   UNL A   1      42.765  35.964  38.459  1.00  0.00    -0.200 F 
ATOM    101  C   UNL A   1      40.593  35.292  37.821  1.00  0.00     0.200 A 
ATOM    102  F   UNL A   1      38.441  34.582  37.153  1.00  0.00    -0.200 F 
ATOM    103  F   UNL A   1      40.068  35.949  38.865  1.00  0.00    -0.200 F 
ENDBRANCH  70  93
ENDBRANCH  44  45
ENDBRANCH  36  39
ENDBRANCH  34  35
ENDBRANCH  33  34
ENDBRANCH  32  33
ENDBRANCH  30  32
ENDBRANCH  26  28
ENDBRANCH   4  26
TORSDOF 20
ENDMDL
