MODEL 1
REMARK VINA RESULT:     -11.4      0.000      0.000
REMARK SMILES N#CCNC(=O)Cn1ccc(C(=O)NCCCNC(=O)c2ccc(-c3c4nc(c(-c5c(F)c(F)c(F)c(F)c5F)c5ccc([nH]5)c(-c5c(F)c(F)c(F)c(F)c5F)c5nc(c(-c6c(F)c(F)c(F)c(F)c6F)c6ccc3[nH]6)C=C5)C=C4)cc2)c1
REMARK SMILES IDX 15 1 14 2 12 3 13 4 11 6 8 7 9 8 84 9 10 10 7 11 5 12 4 13
REMARK SMILES IDX 6 15 3 16 2 17 1 18 16 19 17 20 18 21 19 22 20 24 21 25
REMARK SMILES IDX 22 26 83 27 23 28 82 29 24 30 25 31 26 32 76 33 27 34 81 35
REMARK SMILES IDX 75 36 77 37 28 38 80 39 74 40 73 41 29 43 61 44 41 45 60 46
REMARK SMILES IDX 42 47 45 48 59 49 78 50 43 51 44 52 58 54 79 55 46 56 30 57
REMARK SMILES IDX 31 58 39 59 32 60 33 61 37 62 40 63 34 64 35 65 38 66 36 67
REMARK SMILES IDX 62 68 63 69 71 70 64 71 65 72 69 73 72 74 66 75 67 76 70 77
REMARK SMILES IDX 68 78 47 79 48 80 56 81 49 82 50 83 54 84 57 85 51 86 52 87
REMARK SMILES IDX 55 88 53 89
REMARK H PARENT 14 5 4 14 18 23 77 42 45 53
REMARK Flexibility Score: inf
ROOT
ATOM      1  C   UNL A   1      35.391  21.982  26.220  1.00  0.00     0.118 C 
ENDROOT
BRANCH   1   2
ATOM      2  N   UNL A   1      34.768  20.868  25.534  1.00  0.00    -0.352 N 
ATOM      3  C   UNL A   1      33.661  20.793  24.724  1.00  0.00     0.252 C 
ATOM      4  O   UNL A   1      33.409  19.709  24.217  1.00  0.00    -0.269 OA
ATOM      5  H   UNL A   1      35.222  20.006  25.676  1.00  0.00     0.163 HD
BRANCH   3   6
ATOM      6  C   UNL A   1      32.858  21.979  24.429  1.00  0.00     0.057 A 
ATOM      7  N   UNL A   1      31.953  23.809  23.503  1.00  0.00    -0.344 N 
ATOM      8  C   UNL A   1      31.187  23.518  24.597  1.00  0.00     0.087 A 
ATOM      9  C   UNL A   1      32.991  22.917  23.422  1.00  0.00     0.100 A 
ATOM     10  C   UNL A   1      31.753  22.428  25.218  1.00  0.00     0.033 A 
BRANCH   7  11
ATOM     11  C   UNL A   1      31.755  24.930  22.596  1.00  0.00     0.221 C 
BRANCH  11  12
ATOM     12  C   UNL A   1      32.953  25.859  22.584  1.00  0.00     0.240 C 
ATOM     13  N   UNL A   1      33.068  26.826  23.538  1.00  0.00    -0.341 N 
ATOM     14  H   UNL A   1      33.897  27.357  23.520  1.00  0.00     0.164 HD
ATOM     15  O   UNL A   1      33.826  25.773  21.721  1.00  0.00    -0.273 OA
BRANCH  13  16
ATOM     16  C   UNL A   1      32.117  27.167  24.576  1.00  0.00     0.236 C 
BRANCH  16  17
ATOM     17  C   UNL A   1      31.263  28.381  24.248  1.00  0.00     0.084 C 
ATOM     18  N   UNL A   1      30.555  29.388  23.975  1.00  0.00    -0.196 NA
ENDBRANCH  16  17
ENDBRANCH  13  16
ENDBRANCH  11  12
ENDBRANCH   7  11
ENDBRANCH   3   6
ENDBRANCH   1   2
BRANCH   1  19
ATOM     19  C   UNL A   1      36.454  22.646  25.340  1.00  0.00     0.042 C 
BRANCH  19  20
ATOM     20  C   UNL A   1      37.256  23.692  26.120  1.00  0.00     0.118 C 
BRANCH  20  21
ATOM     21  N   UNL A   1      38.530  23.132  26.548  1.00  0.00    -0.352 N 
ATOM     22  C   UNL A   1      39.660  23.711  27.051  1.00  0.00     0.251 C 
ATOM     23  H   UNL A   1      38.588  22.153  26.458  1.00  0.00     0.163 HD
ATOM     24  O   UNL A   1      40.699  23.051  27.045  1.00  0.00    -0.269 OA
BRANCH  22  25
ATOM     25  C   UNL A   1      39.694  25.090  27.583  1.00  0.00     0.039 A 
ATOM     26  C   UNL A   1      39.174  25.283  28.872  1.00  0.00     0.014 A 
ATOM     27  C   UNL A   1      40.114  26.193  26.832  1.00  0.00     0.014 A 
ATOM     28  C   UNL A   1      39.128  26.557  29.426  1.00  0.00     0.010 A 
ATOM     29  C   UNL A   1      40.083  27.473  27.387  1.00  0.00     0.010 A 
ATOM     30  C   UNL A   1      39.616  27.647  28.696  1.00  0.00    -0.014 A 
BRANCH  30  31
ATOM     31  C   UNL A   1      39.878  28.906  29.437  1.00  0.00     0.031 A 
ATOM     32  C   UNL A   1      38.682  29.894  29.248  1.00  0.00     0.074 A 
ATOM     33  C   UNL A   1      41.081  29.007  30.085  1.00  0.00     0.049 A 
ATOM     34  N   UNL A   1      38.633  31.196  29.210  1.00  0.00    -0.248 NA
ATOM     35  C   UNL A   1      37.332  29.312  28.974  1.00  0.00     0.031 C 
ATOM     36  C   UNL A   1      42.086  27.925  30.212  1.00  0.00     0.029 A 
ATOM     37  N   UNL A   1      41.719  30.028  30.757  1.00  0.00    -0.354 N 
ATOM     38  C   UNL A   1      37.268  31.571  29.088  1.00  0.00     0.074 A 
ATOM     39  C   UNL A   1      36.537  30.371  28.828  1.00  0.00     0.031 C 
ATOM     40  C   UNL A   1      43.212  28.367  30.821  1.00  0.00     0.029 A 
ATOM     41  C   UNL A   1      43.069  29.771  31.144  1.00  0.00     0.049 A 
ATOM     42  H   UNL A   1      41.271  30.882  30.957  1.00  0.00     0.167 HD
ATOM     43  C   UNL A   1      36.796  32.821  29.374  1.00  0.00     0.037 A 
ATOM     44  C   UNL A   1      44.017  30.656  31.601  1.00  0.00     0.037 A 
ATOM     45  C   UNL A   1      37.864  33.679  29.747  1.00  0.00     0.049 A 
ATOM     46  C   UNL A   1      43.300  31.934  31.635  1.00  0.00     0.074 A 
ATOM     47  C   UNL A   1      38.695  34.576  29.131  1.00  0.00     0.029 A 
ATOM     48  N   UNL A   1      38.230  33.582  31.061  1.00  0.00    -0.354 N 
ATOM     49  N   UNL A   1      42.414  32.269  32.518  1.00  0.00    -0.248 NA
ATOM     50  C   UNL A   1      43.397  32.760  30.438  1.00  0.00     0.031 C 
ATOM     51  C   UNL A   1      39.685  34.894  30.096  1.00  0.00     0.029 A 
ATOM     52  C   UNL A   1      39.520  34.012  31.161  1.00  0.00     0.049 A 
ATOM     53  H   UNL A   1      37.665  33.260  31.800  1.00  0.00     0.167 HD
ATOM     54  C   UNL A   1      41.647  33.202  31.859  1.00  0.00     0.074 A 
ATOM     55  C   UNL A   1      42.351  33.551  30.636  1.00  0.00     0.031 C 
ATOM     56  C   UNL A   1      40.335  33.375  32.151  1.00  0.00     0.037 A 
BRANCH  43  57
ATOM     57  C   UNL A   1      35.406  33.346  29.716  1.00  0.00     0.064 A 
ATOM     58  C   UNL A   1      34.798  34.248  28.798  1.00  0.00     0.173 A 
ATOM     59  C   UNL A   1      34.880  33.368  31.015  1.00  0.00     0.173 A 
ATOM     60  F   UNL A   1      35.156  34.258  27.504  1.00  0.00    -0.203 F 
ATOM     61  C   UNL A   1      33.888  35.226  29.200  1.00  0.00     0.198 A 
ATOM     62  C   UNL A   1      33.912  34.309  31.398  1.00  0.00     0.198 A 
ATOM     63  F   UNL A   1      35.353  32.560  31.971  1.00  0.00    -0.203 F 
ATOM     64  F   UNL A   1      33.489  36.167  28.331  1.00  0.00    -0.200 F 
ATOM     65  C   UNL A   1      33.462  35.270  30.509  1.00  0.00     0.200 A 
ATOM     66  F   UNL A   1      33.479  34.334  32.667  1.00  0.00    -0.200 F 
ATOM     67  F   UNL A   1      32.645  36.250  30.921  1.00  0.00    -0.200 F 
ENDBRANCH  43  57
BRANCH  44  68
ATOM     68  C   UNL A   1      45.511  30.716  31.854  1.00  0.00     0.064 A 
ATOM     69  C   UNL A   1      46.515  30.465  30.913  1.00  0.00     0.173 A 
ATOM     70  C   UNL A   1      46.005  31.094  33.141  1.00  0.00     0.173 A 
ATOM     71  F   UNL A   1      46.210  29.974  29.705  1.00  0.00    -0.203 F 
ATOM     72  C   UNL A   1      47.879  30.690  31.198  1.00  0.00     0.198 A 
ATOM     73  C   UNL A   1      47.349  31.360  33.411  1.00  0.00     0.198 A 
ATOM     74  F   UNL A   1      45.192  31.226  34.197  1.00  0.00    -0.203 F 
ATOM     75  F   UNL A   1      48.805  30.443  30.261  1.00  0.00    -0.200 F 
ATOM     76  C   UNL A   1      48.290  31.175  32.430  1.00  0.00     0.200 A 
ATOM     77  F   UNL A   1      47.709  31.811  34.622  1.00  0.00    -0.200 F 
ATOM     78  F   UNL A   1      49.579  31.448  32.673  1.00  0.00    -0.200 F 
ENDBRANCH  44  68
BRANCH  56  79
ATOM     79  C   UNL A   1      39.828  32.475  33.264  1.00  0.00     0.064 A 
ATOM     80  C   UNL A   1      39.131  31.299  32.980  1.00  0.00     0.173 A 
ATOM     81  C   UNL A   1      39.920  32.826  34.628  1.00  0.00     0.173 A 
ATOM     82  F   UNL A   1      38.994  30.897  31.709  1.00  0.00    -0.203 F 
ATOM     83  C   UNL A   1      38.571  30.520  34.000  1.00  0.00     0.198 A 
ATOM     84  C   UNL A   1      39.370  32.051  35.648  1.00  0.00     0.198 A 
ATOM     85  F   UNL A   1      40.577  33.925  34.999  1.00  0.00    -0.203 F 
ATOM     86  F   UNL A   1      37.916  29.392  33.692  1.00  0.00    -0.200 F 
ATOM     87  C   UNL A   1      38.691  30.894  35.331  1.00  0.00     0.200 A 
ATOM     88  F   UNL A   1      39.516  32.422  36.930  1.00  0.00    -0.200 F 
ATOM     89  F   UNL A   1      38.167  30.135  36.304  1.00  0.00    -0.200 F 
ENDBRANCH  56  79
ENDBRANCH  30  31
ENDBRANCH  22  25
ENDBRANCH  20  21
ENDBRANCH  19  20
ENDBRANCH   1  19
TORSDOF 14
ENDMDL
MODEL 2
REMARK VINA RESULT:     -11.4      4.334      9.144
REMARK SMILES N#CCNC(=O)Cn1ccc(C(=O)NCCCNC(=O)c2ccc(-c3c4nc(c(-c5c(F)c(F)c(F)c(F)c5F)c5ccc([nH]5)c(-c5c(F)c(F)c(F)c(F)c5F)c5nc(c(-c6c(F)c(F)c(F)c(F)c6F)c6ccc3[nH]6)C=C5)C=C4)cc2)c1
REMARK SMILES IDX 15 1 14 2 12 3 13 4 11 6 8 7 9 8 84 9 10 10 7 11 5 12 4 13
REMARK SMILES IDX 6 15 3 16 2 17 1 18 16 19 17 20 18 21 19 22 20 24 21 25
REMARK SMILES IDX 22 26 83 27 23 28 82 29 24 30 25 31 26 32 76 33 27 34 81 35
REMARK SMILES IDX 75 36 77 37 28 38 80 39 74 40 73 41 29 43 61 44 41 45 60 46
REMARK SMILES IDX 42 47 45 48 59 49 78 50 43 51 44 52 58 54 79 55 46 56 30 57
REMARK SMILES IDX 31 58 39 59 32 60 33 61 37 62 40 63 34 64 35 65 38 66 36 67
REMARK SMILES IDX 62 68 63 69 71 70 64 71 65 72 69 73 72 74 66 75 67 76 70 77
REMARK SMILES IDX 68 78 47 79 48 80 56 81 49 82 50 83 54 84 57 85 51 86 52 87
REMARK SMILES IDX 55 88 53 89
REMARK H PARENT 14 5 4 14 18 23 77 42 45 53
REMARK Flexibility Score: inf
ROOT
ATOM      1  C   UNL A   1      32.422  27.860  26.769  1.00  0.00     0.118 C 
ENDROOT
BRANCH   1   2
ATOM      2  N   UNL A   1      32.937  26.908  25.805  1.00  0.00    -0.352 N 
ATOM      3  C   UNL A   1      32.407  26.401  24.644  1.00  0.00     0.252 C 
ATOM      4  O   UNL A   1      33.114  25.652  23.984  1.00  0.00    -0.269 OA
ATOM      5  H   UNL A   1      33.832  26.561  26.024  1.00  0.00     0.163 HD
BRANCH   3   6
ATOM      6  C   UNL A   1      31.076  26.796  24.185  1.00  0.00     0.057 A 
ATOM      7  N   UNL A   1      29.336  27.782  23.172  1.00  0.00    -0.344 N 
ATOM      8  C   UNL A   1      28.823  26.713  23.854  1.00  0.00     0.087 A 
ATOM      9  C   UNL A   1      30.684  27.869  23.405  1.00  0.00     0.100 A 
ATOM     10  C   UNL A   1      29.864  26.120  24.531  1.00  0.00     0.033 A 
BRANCH   7  11
ATOM     11  C   UNL A   1      28.572  28.732  22.377  1.00  0.00     0.221 C 
BRANCH  11  12
ATOM     12  C   UNL A   1      27.411  29.312  23.160  1.00  0.00     0.240 C 
ATOM     13  N   UNL A   1      27.392  30.644  23.453  1.00  0.00    -0.341 N 
ATOM     14  H   UNL A   1      26.584  30.977  23.906  1.00  0.00     0.164 HD
ATOM     15  O   UNL A   1      26.483  28.607  23.555  1.00  0.00    -0.273 OA
BRANCH  13  16
ATOM     16  C   UNL A   1      28.419  31.628  23.177  1.00  0.00     0.236 C 
BRANCH  16  17
ATOM     17  C   UNL A   1      28.079  32.557  22.023  1.00  0.00     0.084 C 
ATOM     18  N   UNL A   1      27.798  33.328  21.066  1.00  0.00    -0.196 NA
ENDBRANCH  16  17
ENDBRANCH  13  16
ENDBRANCH  11  12
ENDBRANCH   7  11
ENDBRANCH   3   6
ENDBRANCH   1   2
BRANCH   1  19
ATOM     19  C   UNL A   1      33.562  28.561  27.514  1.00  0.00     0.042 C 
BRANCH  19  20
ATOM     20  C   UNL A   1      34.436  29.382  26.562  1.00  0.00     0.118 C 
BRANCH  20  21
ATOM     21  N   UNL A   1      34.776  30.661  27.169  1.00  0.00    -0.352 N 
ATOM     22  C   UNL A   1      35.750  31.021  28.056  1.00  0.00     0.251 C 
ATOM     23  H   UNL A   1      34.197  31.405  26.887  1.00  0.00     0.163 HD
ATOM     24  O   UNL A   1      35.630  32.098  28.639  1.00  0.00    -0.269 OA
BRANCH  22  25
ATOM     25  C   UNL A   1      36.924  30.174  28.358  1.00  0.00     0.039 A 
ATOM     26  C   UNL A   1      37.928  30.116  27.379  1.00  0.00     0.014 A 
ATOM     27  C   UNL A   1      37.019  29.371  29.498  1.00  0.00     0.014 A 
ATOM     28  C   UNL A   1      39.042  29.306  27.566  1.00  0.00     0.010 A 
ATOM     29  C   UNL A   1      38.142  28.567  29.699  1.00  0.00     0.010 A 
ATOM     30  C   UNL A   1      39.166  28.559  28.743  1.00  0.00    -0.014 A 
BRANCH  30  31
ATOM     31  C   UNL A   1      40.503  28.001  29.063  1.00  0.00     0.031 A 
ATOM     32  C   UNL A   1      40.624  26.550  28.496  1.00  0.00     0.074 A 
ATOM     33  C   UNL A   1      41.343  28.786  29.807  1.00  0.00     0.049 A 
ATOM     34  N   UNL A   1      41.282  25.507  28.918  1.00  0.00    -0.248 NA
ATOM     35  C   UNL A   1      39.798  26.197  27.299  1.00  0.00     0.031 C 
ATOM     36  C   UNL A   1      41.080  30.188  30.212  1.00  0.00     0.029 A 
ATOM     37  N   UNL A   1      42.576  28.580  30.388  1.00  0.00    -0.354 N 
ATOM     38  C   UNL A   1      41.092  24.467  27.970  1.00  0.00     0.074 A 
ATOM     39  C   UNL A   1      40.078  24.915  27.068  1.00  0.00     0.031 C 
ATOM     40  C   UNL A   1      42.054  30.657  31.027  1.00  0.00     0.029 A 
ATOM     41  C   UNL A   1      43.042  29.622  31.247  1.00  0.00     0.049 A 
ATOM     42  H   UNL A   1      43.102  27.765  30.222  1.00  0.00     0.167 HD
ATOM     43  C   UNL A   1      41.896  23.365  27.881  1.00  0.00     0.037 A 
ATOM     44  C   UNL A   1      44.094  29.601  32.133  1.00  0.00     0.037 A 
ATOM     45  C   UNL A   1      42.891  23.395  28.895  1.00  0.00     0.049 A 
ATOM     46  C   UNL A   1      44.655  28.257  31.962  1.00  0.00     0.074 A 
ATOM     47  C   UNL A   1      43.048  22.907  30.164  1.00  0.00     0.029 A 
ATOM     48  N   UNL A   1      43.988  24.148  28.583  1.00  0.00    -0.354 N 
ATOM     49  N   UNL A   1      45.366  27.869  30.952  1.00  0.00    -0.248 NA
ATOM     50  C   UNL A   1      44.143  27.226  32.857  1.00  0.00     0.031 C 
ATOM     51  C   UNL A   1      44.218  23.532  30.665  1.00  0.00     0.029 A 
ATOM     52  C   UNL A   1      44.576  24.523  29.755  1.00  0.00     0.049 A 
ATOM     53  H   UNL A   1      44.297  24.379  27.677  1.00  0.00     0.167 HD
ATOM     54  C   UNL A   1      45.166  26.508  30.929  1.00  0.00     0.074 A 
ATOM     55  C   UNL A   1      44.506  26.149  32.174  1.00  0.00     0.031 C 
ATOM     56  C   UNL A   1      45.216  25.804  29.772  1.00  0.00     0.037 A 
BRANCH  43  57
ATOM     57  C   UNL A   1      42.160  22.368  26.759  1.00  0.00     0.064 A 
ATOM     58  C   UNL A   1      41.842  21.002  27.002  1.00  0.00     0.173 A 
ATOM     59  C   UNL A   1      43.066  22.595  25.713  1.00  0.00     0.173 A 
ATOM     60  F   UNL A   1      40.922  20.663  27.920  1.00  0.00    -0.203 F 
ATOM     61  C   UNL A   1      42.526  19.952  26.389  1.00  0.00     0.198 A 
ATOM     62  C   UNL A   1      43.701  21.533  25.050  1.00  0.00     0.198 A 
ATOM     63  F   UNL A   1      43.439  23.834  25.372  1.00  0.00    -0.203 F 
ATOM     64  F   UNL A   1      42.315  18.690  26.792  1.00  0.00    -0.200 F 
ATOM     65  C   UNL A   1      43.474  20.220  25.427  1.00  0.00     0.200 A 
ATOM     66  F   UNL A   1      44.604  21.796  24.094  1.00  0.00    -0.200 F 
ATOM     67  F   UNL A   1      44.188  19.223  24.885  1.00  0.00    -0.200 F 
ENDBRANCH  43  57
BRANCH  44  68
ATOM     68  C   UNL A   1      44.652  30.422  33.279  1.00  0.00     0.064 A 
ATOM     69  C   UNL A   1      45.908  31.039  33.313  1.00  0.00     0.173 A 
ATOM     70  C   UNL A   1      43.860  30.658  34.444  1.00  0.00     0.173 A 
ATOM     71  F   UNL A   1      46.811  30.800  32.354  1.00  0.00    -0.203 F 
ATOM     72  C   UNL A   1      46.285  31.908  34.359  1.00  0.00     0.198 A 
ATOM     73  C   UNL A   1      44.212  31.552  35.457  1.00  0.00     0.198 A 
ATOM     74  F   UNL A   1      42.696  30.026  34.645  1.00  0.00    -0.203 F 
ATOM     75  F   UNL A   1      47.496  32.482  34.345  1.00  0.00    -0.200 F 
ATOM     76  C   UNL A   1      45.423  32.195  35.406  1.00  0.00     0.200 A 
ATOM     77  F   UNL A   1      43.358  31.789  36.464  1.00  0.00    -0.200 F 
ATOM     78  F   UNL A   1      45.761  33.071  36.362  1.00  0.00    -0.200 F 
ENDBRANCH  44  68
BRANCH  56  79
ATOM     79  C   UNL A   1      45.532  26.648  28.550  1.00  0.00     0.064 A 
ATOM     80  C   UNL A   1      46.848  26.983  28.225  1.00  0.00     0.173 A 
ATOM     81  C   UNL A   1      44.528  27.237  27.753  1.00  0.00     0.173 A 
ATOM     82  F   UNL A   1      47.861  26.469  28.937  1.00  0.00    -0.203 F 
ATOM     83  C   UNL A   1      47.138  27.846  27.161  1.00  0.00     0.198 A 
ATOM     84  C   UNL A   1      44.811  28.092  26.688  1.00  0.00     0.198 A 
ATOM     85  F   UNL A   1      43.242  26.968  27.979  1.00  0.00    -0.203 F 
ATOM     86  F   UNL A   1      48.413  28.138  26.871  1.00  0.00    -0.200 F 
ATOM     87  C   UNL A   1      46.122  28.398  26.393  1.00  0.00     0.200 A 
ATOM     88  F   UNL A   1      43.813  28.599  25.947  1.00  0.00    -0.200 F 
ATOM     89  F   UNL A   1      46.407  29.211  25.366  1.00  0.00    -0.200 F 
ENDBRANCH  56  79
ENDBRANCH  30  31
ENDBRANCH  22  25
ENDBRANCH  20  21
ENDBRANCH  19  20
ENDBRANCH   1  19
TORSDOF 14
ENDMDL
MODEL 3
REMARK VINA RESULT:     -11.4      3.586      6.084
REMARK SMILES N#CCNC(=O)Cn1ccc(C(=O)NCCCNC(=O)c2ccc(-c3c4nc(c(-c5c(F)c(F)c(F)c(F)c5F)c5ccc([nH]5)c(-c5c(F)c(F)c(F)c(F)c5F)c5nc(c(-c6c(F)c(F)c(F)c(F)c6F)c6ccc3[nH]6)C=C5)C=C4)cc2)c1
REMARK SMILES IDX 15 1 14 2 12 3 13 4 11 6 8 7 9 8 84 9 10 10 7 11 5 12 4 13
REMARK SMILES IDX 6 15 3 16 2 17 1 18 16 19 17 20 18 21 19 22 20 24 21 25
REMARK SMILES IDX 22 26 83 27 23 28 82 29 24 30 25 31 26 32 76 33 27 34 81 35
REMARK SMILES IDX 75 36 77 37 28 38 80 39 74 40 73 41 29 43 61 44 41 45 60 46
REMARK SMILES IDX 42 47 45 48 59 49 78 50 43 51 44 52 58 54 79 55 46 56 30 57
REMARK SMILES IDX 31 58 39 59 32 60 33 61 37 62 40 63 34 64 35 65 38 66 36 67
REMARK SMILES IDX 62 68 63 69 71 70 64 71 65 72 69 73 72 74 66 75 67 76 70 77
REMARK SMILES IDX 68 78 47 79 48 80 56 81 49 82 50 83 54 84 57 85 51 86 52 87
REMARK SMILES IDX 55 88 53 89
REMARK H PARENT 14 5 4 14 18 23 77 42 45 53
REMARK Flexibility Score: inf
ROOT
ATOM      1  C   UNL A   1      43.959  23.260  28.474  1.00  0.00     0.118 C 
ENDROOT
BRANCH   1   2
ATOM      2  N   UNL A   1      45.187  23.962  28.161  1.00  0.00    -0.352 N 
ATOM      3  C   UNL A   1      46.014  23.918  27.064  1.00  0.00     0.252 C 
ATOM      4  O   UNL A   1      46.961  24.691  27.045  1.00  0.00    -0.269 OA
ATOM      5  H   UNL A   1      45.483  24.584  28.863  1.00  0.00     0.163 HD
BRANCH   3   6
ATOM      6  C   UNL A   1      45.731  23.028  25.939  1.00  0.00     0.057 A 
ATOM      7  N   UNL A   1      45.334  21.260  24.619  1.00  0.00    -0.344 N 
ATOM      8  C   UNL A   1      45.126  22.367  23.844  1.00  0.00     0.087 A 
ATOM      9  C   UNL A   1      45.747  21.648  25.868  1.00  0.00     0.100 A 
ATOM     10  C   UNL A   1      45.416  23.470  24.615  1.00  0.00     0.033 A 
BRANCH   7  11
ATOM     11  C   UNL A   1      45.212  19.878  24.182  1.00  0.00     0.221 C 
BRANCH  11  12
ATOM     12  C   UNL A   1      45.640  18.908  25.265  1.00  0.00     0.240 C 
ATOM     13  N   UNL A   1      44.698  18.191  25.942  1.00  0.00    -0.341 N 
ATOM     14  H   UNL A   1      45.036  17.530  26.588  1.00  0.00     0.164 HD
ATOM     15  O   UNL A   1      46.824  18.758  25.565  1.00  0.00    -0.273 OA
BRANCH  13  16
ATOM     16  C   UNL A   1      43.256  18.285  25.823  1.00  0.00     0.236 C 
BRANCH  16  17
ATOM     17  C   UNL A   1      42.675  19.552  26.430  1.00  0.00     0.084 C 
ATOM     18  N   UNL A   1      42.193  20.603  26.933  1.00  0.00    -0.196 NA
ENDBRANCH  16  17
ENDBRANCH  13  16
ENDBRANCH  11  12
ENDBRANCH   7  11
ENDBRANCH   3   6
ENDBRANCH   1   2
BRANCH   1  19
ATOM     19  C   UNL A   1      42.734  24.075  28.050  1.00  0.00     0.042 C 
BRANCH  19  20
ATOM     20  C   UNL A   1      42.439  23.911  26.557  1.00  0.00     0.118 C 
BRANCH  20  21
ATOM     21  N   UNL A   1      41.030  23.606  26.354  1.00  0.00    -0.352 N 
ATOM     22  C   UNL A   1      39.890  24.195  26.824  1.00  0.00     0.251 C 
ATOM     23  H   UNL A   1      40.867  22.832  25.768  1.00  0.00     0.163 HD
ATOM     24  O   UNL A   1      38.839  23.559  26.748  1.00  0.00    -0.269 OA
BRANCH  22  25
ATOM     25  C   UNL A   1      39.866  25.543  27.431  1.00  0.00     0.039 A 
ATOM     26  C   UNL A   1      39.364  25.638  28.738  1.00  0.00     0.014 A 
ATOM     27  C   UNL A   1      40.214  26.704  26.734  1.00  0.00     0.014 A 
ATOM     28  C   UNL A   1      39.266  26.876  29.362  1.00  0.00     0.010 A 
ATOM     29  C   UNL A   1      40.131  27.949  27.360  1.00  0.00     0.010 A 
ATOM     30  C   UNL A   1      39.683  28.028  28.685  1.00  0.00    -0.014 A 
BRANCH  30  31
ATOM     31  C   UNL A   1      39.898  29.256  29.490  1.00  0.00     0.031 A 
ATOM     32  C   UNL A   1      38.682  30.223  29.320  1.00  0.00     0.074 A 
ATOM     33  C   UNL A   1      41.083  29.355  30.169  1.00  0.00     0.049 A 
ATOM     34  N   UNL A   1      38.602  31.523  29.341  1.00  0.00    -0.248 NA
ATOM     35  C   UNL A   1      37.353  29.622  28.988  1.00  0.00     0.031 C 
ATOM     36  C   UNL A   1      42.112  28.293  30.269  1.00  0.00     0.029 A 
ATOM     37  N   UNL A   1      41.681  30.358  30.903  1.00  0.00    -0.354 N 
ATOM     38  C   UNL A   1      37.231  31.871  29.206  1.00  0.00     0.074 A 
ATOM     39  C   UNL A   1      36.535  30.668  28.873  1.00  0.00     0.031 C 
ATOM     40  C   UNL A   1      43.213  28.731  30.923  1.00  0.00     0.029 A 
ATOM     41  C   UNL A   1      43.028  30.115  31.308  1.00  0.00     0.049 A 
ATOM     42  H   UNL A   1      41.208  31.190  31.132  1.00  0.00     0.167 HD
ATOM     43  C   UNL A   1      36.721  33.095  29.538  1.00  0.00     0.037 A 
ATOM     44  C   UNL A   1      43.944  31.000  31.828  1.00  0.00     0.037 A 
ATOM     45  C   UNL A   1      37.759  33.960  29.976  1.00  0.00     0.049 A 
ATOM     46  C   UNL A   1      43.194  32.258  31.905  1.00  0.00     0.074 A 
ATOM     47  C   UNL A   1      38.581  34.904  29.422  1.00  0.00     0.029 A 
ATOM     48  N   UNL A   1      38.099  33.809  31.292  1.00  0.00    -0.354 N 
ATOM     49  N   UNL A   1      42.281  32.530  32.782  1.00  0.00    -0.248 NA
ATOM     50  C   UNL A   1      43.297  33.141  30.750  1.00  0.00     0.031 C 
ATOM     51  C   UNL A   1      39.541  35.200  30.423  1.00  0.00     0.029 A 
ATOM     52  C   UNL A   1      39.376  34.265  31.441  1.00  0.00     0.049 A 
ATOM     53  H   UNL A   1      37.526  33.439  32.002  1.00  0.00     0.167 HD
ATOM     54  C   UNL A   1      41.506  33.474  32.150  1.00  0.00     0.074 A 
ATOM     55  C   UNL A   1      42.228  33.896  30.961  1.00  0.00     0.031 C 
ATOM     56  C   UNL A   1      40.184  33.601  32.420  1.00  0.00     0.037 A 
BRANCH  43  57
ATOM     57  C   UNL A   1      35.312  33.570  29.873  1.00  0.00     0.064 A 
ATOM     58  C   UNL A   1      34.666  34.427  28.938  1.00  0.00     0.173 A 
ATOM     59  C   UNL A   1      34.787  33.598  31.172  1.00  0.00     0.173 A 
ATOM     60  F   UNL A   1      35.022  34.426  27.643  1.00  0.00    -0.203 F 
ATOM     61  C   UNL A   1      33.718  35.376  29.321  1.00  0.00     0.198 A 
ATOM     62  C   UNL A   1      33.782  34.506  31.538  1.00  0.00     0.198 A 
ATOM     63  F   UNL A   1      35.293  32.829  32.144  1.00  0.00    -0.203 F 
ATOM     64  F   UNL A   1      33.280  36.281  28.434  1.00  0.00    -0.200 F 
ATOM     65  C   UNL A   1      33.292  35.430  30.630  1.00  0.00     0.200 A 
ATOM     66  F   UNL A   1      33.350  34.539  32.807  1.00  0.00    -0.200 F 
ATOM     67  F   UNL A   1      32.436  36.384  31.023  1.00  0.00    -0.200 F 
ENDBRANCH  43  57
BRANCH  44  68
ATOM     68  C   UNL A   1      45.429  31.084  32.118  1.00  0.00     0.064 A 
ATOM     69  C   UNL A   1      46.461  30.843  31.203  1.00  0.00     0.173 A 
ATOM     70  C   UNL A   1      45.886  31.475  33.415  1.00  0.00     0.173 A 
ATOM     71  F   UNL A   1      46.193  30.342  29.991  1.00  0.00    -0.203 F 
ATOM     72  C   UNL A   1      47.814  31.089  31.521  1.00  0.00     0.198 A 
ATOM     73  C   UNL A   1      47.219  31.762  33.717  1.00  0.00     0.198 A 
ATOM     74  F   UNL A   1      45.044  31.600  34.450  1.00  0.00    -0.203 F 
ATOM     75  F   UNL A   1      48.767  30.852  30.608  1.00  0.00    -0.200 F 
ATOM     76  C   UNL A   1      48.186  31.586  32.760  1.00  0.00     0.200 A 
ATOM     77  F   UNL A   1      47.541  32.224  34.934  1.00  0.00    -0.200 F 
ATOM     78  F   UNL A   1      49.464  31.880  33.034  1.00  0.00    -0.200 F 
ENDBRANCH  44  68
BRANCH  56  79
ATOM     79  C   UNL A   1      39.675  32.638  33.477  1.00  0.00     0.064 A 
ATOM     80  C   UNL A   1      39.028  31.453  33.122  1.00  0.00     0.173 A 
ATOM     81  C   UNL A   1      39.715  32.932  34.857  1.00  0.00     0.173 A 
ATOM     82  F   UNL A   1      38.942  31.102  31.832  1.00  0.00    -0.203 F 
ATOM     83  C   UNL A   1      38.465  30.613  34.091  1.00  0.00     0.198 A 
ATOM     84  C   UNL A   1      39.162  32.096  35.826  1.00  0.00     0.198 A 
ATOM     85  F   UNL A   1      40.322  34.036  35.294  1.00  0.00    -0.203 F 
ATOM     86  F   UNL A   1      37.859  29.478  33.715  1.00  0.00    -0.200 F 
ATOM     87  C   UNL A   1      38.533  30.933  35.440  1.00  0.00     0.200 A 
ATOM     88  F   UNL A   1      39.256  32.417  37.126  1.00  0.00    -0.200 F 
ATOM     89  F   UNL A   1      38.006  30.116  36.363  1.00  0.00    -0.200 F 
ENDBRANCH  56  79
ENDBRANCH  30  31
ENDBRANCH  22  25
ENDBRANCH  20  21
ENDBRANCH  19  20
ENDBRANCH   1  19
TORSDOF 14
ENDMDL
