MODEL 1
REMARK VINA RESULT:     -12.0      0.000      0.000
REMARK SMILES COc1ccc(O[C@H](F)C(=O)NCCCNC(=O)c2ccc(-c3c4nc(c(-c5c(F)c(F)c(F)c(F)c5F)c5ccc([nH]5)c(-c5c(F)c(F)c(F)c(F)c5F)c5nc(c(-c6c(F)c(F)c(F)c(F)c6F)c6ccc3[nH]6)C=C5)C=C4)cc2)c(C(C)(C)C)c1
REMARK SMILES IDX 13 1 12 2 10 3 11 4 8 6 9 7 7 8 6 9 3 10 4 11 87 12 5 13
REMARK SMILES IDX 82 14 2 15 1 16 83 17 84 18 85 19 86 20 14 21 15 22 16 23
REMARK SMILES IDX 17 24 18 26 19 27 20 28 81 29 21 30 80 31 22 32 23 33 24 34
REMARK SMILES IDX 74 35 25 36 79 37 73 38 75 39 26 40 78 41 72 42 71 43 27 45
REMARK SMILES IDX 59 46 39 47 58 48 40 49 43 50 57 51 76 52 41 53 42 54 56 56
REMARK SMILES IDX 77 57 44 58 28 59 29 60 37 61 30 62 31 63 35 64 38 65 32 66
REMARK SMILES IDX 33 67 36 68 34 69 60 70 61 71 69 72 62 73 63 74 67 75 70 76
REMARK SMILES IDX 64 77 65 78 68 79 66 80 45 81 46 82 54 83 47 84 48 85 52 86
REMARK SMILES IDX 55 87 49 88 50 89 53 90 51 91
REMARK H PARENT 12 5 16 25 75 44 43 55
REMARK Flexibility Score: inf
ROOT
ATOM      1  C   UNL A   1      31.942  30.681  26.110  1.00  0.00     0.118 C 
ENDROOT
BRANCH   1   2
ATOM      2  N   UNL A   1      31.454  29.564  26.902  1.00  0.00    -0.350 N 
ATOM      3  C   UNL A   1      32.112  28.406  27.226  1.00  0.00     0.294 C 
ATOM      4  O   UNL A   1      31.581  27.670  28.065  1.00  0.00    -0.267 OA
ATOM      5  H   UNL A   1      30.537  29.651  27.250  1.00  0.00     0.163 HD
BRANCH   3   6
ATOM      6  C   UNL A   1      33.493  28.060  26.596  1.00  0.00     0.440 C 
ATOM      7  F   UNL A   1      34.529  28.580  27.320  1.00  0.00    -0.191 F 
BRANCH   6   8
ATOM      8  O   UNL A   1      33.849  26.734  26.214  1.00  0.00    -0.451 OA
BRANCH   8   9
ATOM      9  C   UNL A   1      33.767  26.471  24.876  1.00  0.00     0.127 A 
ATOM     10  C   UNL A   1      33.536  26.077  22.113  1.00  0.00     0.119 A 
ATOM     11  C   UNL A   1      33.469  27.360  22.638  1.00  0.00     0.050 A 
ATOM     12  C   UNL A   1      33.793  25.000  22.971  1.00  0.00     0.054 A 
ATOM     13  C   UNL A   1      33.598  27.559  24.008  1.00  0.00     0.051 A 
ATOM     14  C   UNL A   1      33.975  25.169  24.368  1.00  0.00     0.003 A 
BRANCH  10  15
ATOM     15  O   UNL A   1      33.372  26.013  20.759  1.00  0.00    -0.497 OA
ATOM     16  C   UNL A   1      32.067  25.735  20.269  1.00  0.00     0.278 C 
ENDBRANCH  10  15
BRANCH  14  17
ATOM     17  C   UNL A   1      34.436  23.971  25.239  1.00  0.00    -0.009 C 
ATOM     18  C   UNL A   1      35.882  24.163  25.755  1.00  0.00     0.016 C 
ATOM     19  C   UNL A   1      33.489  23.768  26.434  1.00  0.00     0.016 C 
ATOM     20  C   UNL A   1      34.455  22.625  24.461  1.00  0.00     0.016 C 
ENDBRANCH  14  17
ENDBRANCH   8   9
ENDBRANCH   6   8
ENDBRANCH   3   6
ENDBRANCH   1   2
BRANCH   1  21
ATOM     21  C   UNL A   1      31.578  32.034  26.705  1.00  0.00     0.042 C 
BRANCH  21  22
ATOM     22  C   UNL A   1      32.754  32.826  27.259  1.00  0.00     0.118 C 
BRANCH  22  23
ATOM     23  N   UNL A   1      32.425  34.189  27.649  1.00  0.00    -0.352 N 
ATOM     24  C   UNL A   1      33.013  34.990  28.604  1.00  0.00     0.251 C 
ATOM     25  H   UNL A   1      31.674  34.598  27.160  1.00  0.00     0.163 HD
ATOM     26  O   UNL A   1      32.545  36.092  28.865  1.00  0.00    -0.269 OA
BRANCH  24  27
ATOM     27  C   UNL A   1      34.186  34.496  29.363  1.00  0.00     0.039 A 
ATOM     28  C   UNL A   1      33.969  33.854  30.586  1.00  0.00     0.014 A 
ATOM     29  C   UNL A   1      35.483  34.621  28.860  1.00  0.00     0.014 A 
ATOM     30  C   UNL A   1      35.038  33.246  31.249  1.00  0.00     0.010 A 
ATOM     31  C   UNL A   1      36.530  33.942  29.476  1.00  0.00     0.010 A 
ATOM     32  C   UNL A   1      36.318  33.235  30.670  1.00  0.00    -0.014 A 
BRANCH  32  33
ATOM     33  C   UNL A   1      37.436  32.468  31.280  1.00  0.00     0.031 A 
ATOM     34  C   UNL A   1      37.948  32.826  32.647  1.00  0.00     0.074 A 
ATOM     35  C   UNL A   1      38.048  31.502  30.566  1.00  0.00     0.049 A 
ATOM     36  N   UNL A   1      38.969  32.335  33.304  1.00  0.00    -0.248 NA
ATOM     37  C   UNL A   1      37.241  33.904  33.355  1.00  0.00     0.031 C 
ATOM     38  C   UNL A   1      37.693  31.102  29.203  1.00  0.00     0.029 A 
ATOM     39  N   UNL A   1      39.109  30.690  30.882  1.00  0.00    -0.354 N 
ATOM     40  C   UNL A   1      39.040  33.059  34.486  1.00  0.00     0.074 A 
ATOM     41  C   UNL A   1      37.990  34.055  34.436  1.00  0.00     0.031 C 
ATOM     42  C   UNL A   1      38.504  30.107  28.810  1.00  0.00     0.029 A 
ATOM     43  C   UNL A   1      39.458  29.822  29.876  1.00  0.00     0.049 A 
ATOM     44  H   UNL A   1      39.577  30.727  31.748  1.00  0.00     0.167 HD
ATOM     45  C   UNL A   1      39.888  32.895  35.529  1.00  0.00     0.037 A 
ATOM     46  C   UNL A   1      40.440  28.901  29.818  1.00  0.00     0.037 A 
ATOM     47  C   UNL A   1      40.903  31.877  35.597  1.00  0.00     0.049 A 
ATOM     48  C   UNL A   1      41.346  28.714  31.004  1.00  0.00     0.074 A 
ATOM     49  C   UNL A   1      41.757  31.578  36.645  1.00  0.00     0.029 A 
ATOM     50  N   UNL A   1      41.197  30.987  34.576  1.00  0.00    -0.354 N 
ATOM     51  N   UNL A   1      41.356  29.356  32.146  1.00  0.00    -0.248 NA
ATOM     52  C   UNL A   1      42.374  27.669  30.894  1.00  0.00     0.031 C 
ATOM     53  C   UNL A   1      42.593  30.530  36.244  1.00  0.00     0.029 A 
ATOM     54  C   UNL A   1      42.232  30.149  34.962  1.00  0.00     0.049 A 
ATOM     55  H   UNL A   1      40.740  30.955  33.705  1.00  0.00     0.167 HD
ATOM     56  C   UNL A   1      42.370  28.782  32.898  1.00  0.00     0.074 A 
ATOM     57  C   UNL A   1      42.946  27.728  32.089  1.00  0.00     0.031 C 
ATOM     58  C   UNL A   1      42.788  29.100  34.148  1.00  0.00     0.037 A 
BRANCH  45  59
ATOM     59  C   UNL A   1      39.748  33.835  36.690  1.00  0.00     0.064 A 
ATOM     60  C   UNL A   1      38.949  33.519  37.798  1.00  0.00     0.173 A 
ATOM     61  C   UNL A   1      40.444  35.053  36.709  1.00  0.00     0.173 A 
ATOM     62  F   UNL A   1      38.252  32.371  37.823  1.00  0.00    -0.203 F 
ATOM     63  C   UNL A   1      38.827  34.400  38.869  1.00  0.00     0.198 A 
ATOM     64  C   UNL A   1      40.343  35.919  37.794  1.00  0.00     0.198 A 
ATOM     65  F   UNL A   1      41.227  35.401  35.676  1.00  0.00    -0.203 F 
ATOM     66  F   UNL A   1      38.019  34.098  39.895  1.00  0.00    -0.200 F 
ATOM     67  C   UNL A   1      39.529  35.596  38.869  1.00  0.00     0.200 A 
ATOM     68  F   UNL A   1      41.031  37.069  37.798  1.00  0.00    -0.200 F 
ATOM     69  F   UNL A   1      39.415  36.441  39.903  1.00  0.00    -0.200 F 
ENDBRANCH  45  59
BRANCH  46  70
ATOM     70  C   UNL A   1      40.597  28.062  28.602  1.00  0.00     0.064 A 
ATOM     71  C   UNL A   1      39.940  26.829  28.494  1.00  0.00     0.173 A 
ATOM     72  C   UNL A   1      41.400  28.471  27.529  1.00  0.00     0.173 A 
ATOM     73  F   UNL A   1      39.178  26.386  29.505  1.00  0.00    -0.203 F 
ATOM     74  C   UNL A   1      40.093  26.028  27.364  1.00  0.00     0.198 A 
ATOM     75  C   UNL A   1      41.534  27.681  26.389  1.00  0.00     0.198 A 
ATOM     76  F   UNL A   1      42.046  29.645  27.583  1.00  0.00    -0.203 F 
ATOM     77  F   UNL A   1      39.486  24.835  27.304  1.00  0.00    -0.200 F 
ATOM     78  C   UNL A   1      40.886  26.457  26.310  1.00  0.00     0.200 A 
ATOM     79  F   UNL A   1      42.290  28.104  25.368  1.00  0.00    -0.200 F 
ATOM     80  F   UNL A   1      41.030  25.689  25.222  1.00  0.00    -0.200 F 
ENDBRANCH  46  70
BRANCH  58  81
ATOM     81  C   UNL A   1      43.902  28.282  34.728  1.00  0.00     0.064 A 
ATOM     82  C   UNL A   1      43.651  27.090  35.423  1.00  0.00     0.173 A 
ATOM     83  C   UNL A   1      45.237  28.673  34.551  1.00  0.00     0.173 A 
ATOM     84  F   UNL A   1      42.390  26.682  35.632  1.00  0.00    -0.203 F 
ATOM     85  C   UNL A   1      44.698  26.329  35.937  1.00  0.00     0.198 A 
ATOM     86  C   UNL A   1      46.282  27.897  35.044  1.00  0.00     0.198 A 
ATOM     87  F   UNL A   1      45.528  29.803  33.889  1.00  0.00    -0.203 F 
ATOM     88  F   UNL A   1      44.435  25.215  36.633  1.00  0.00    -0.200 F 
ATOM     89  C   UNL A   1      46.012  26.730  35.742  1.00  0.00     0.200 A 
ATOM     90  F   UNL A   1      47.551  28.280  34.846  1.00  0.00    -0.200 F 
ATOM     91  F   UNL A   1      47.018  25.992  36.232  1.00  0.00    -0.200 F 
ENDBRANCH  58  81
ENDBRANCH  32  33
ENDBRANCH  24  27
ENDBRANCH  22  23
ENDBRANCH  21  22
ENDBRANCH   1  21
TORSDOF 14
ENDMDL
MODEL 2
REMARK VINA RESULT:     -11.8      5.705     10.052
REMARK SMILES COc1ccc(O[C@H](F)C(=O)NCCCNC(=O)c2ccc(-c3c4nc(c(-c5c(F)c(F)c(F)c(F)c5F)c5ccc([nH]5)c(-c5c(F)c(F)c(F)c(F)c5F)c5nc(c(-c6c(F)c(F)c(F)c(F)c6F)c6ccc3[nH]6)C=C5)C=C4)cc2)c(C(C)(C)C)c1
REMARK SMILES IDX 13 1 12 2 10 3 11 4 8 6 9 7 7 8 6 9 3 10 4 11 87 12 5 13
REMARK SMILES IDX 82 14 2 15 1 16 83 17 84 18 85 19 86 20 14 21 15 22 16 23
REMARK SMILES IDX 17 24 18 26 19 27 20 28 81 29 21 30 80 31 22 32 23 33 24 34
REMARK SMILES IDX 74 35 25 36 79 37 73 38 75 39 26 40 78 41 72 42 71 43 27 45
REMARK SMILES IDX 59 46 39 47 58 48 40 49 43 50 57 51 76 52 41 53 42 54 56 56
REMARK SMILES IDX 77 57 44 58 28 59 29 60 37 61 30 62 31 63 35 64 38 65 32 66
REMARK SMILES IDX 33 67 36 68 34 69 60 70 61 71 69 72 62 73 63 74 67 75 70 76
REMARK SMILES IDX 64 77 65 78 68 79 66 80 45 81 46 82 54 83 47 84 48 85 52 86
REMARK SMILES IDX 55 87 49 88 50 89 53 90 51 91
REMARK H PARENT 12 5 16 25 75 44 43 55
REMARK Flexibility Score: inf
ROOT
ATOM      1  C   UNL A   1      36.912  21.070  25.293  1.00  0.00     0.118 C 
ENDROOT
BRANCH   1   2
ATOM      2  N   UNL A   1      36.495  21.823  24.121  1.00  0.00    -0.350 N 
ATOM      3  C   UNL A   1      36.024  23.108  24.064  1.00  0.00     0.294 C 
ATOM      4  O   UNL A   1      35.904  23.617  22.945  1.00  0.00    -0.267 OA
ATOM      5  H   UNL A   1      36.561  21.349  23.260  1.00  0.00     0.163 HD
BRANCH   3   6
ATOM      6  C   UNL A   1      35.700  23.906  25.361  1.00  0.00     0.440 C 
ATOM      7  F   UNL A   1      36.822  24.161  26.097  1.00  0.00    -0.191 F 
BRANCH   6   8
ATOM      8  O   UNL A   1      34.904  25.088  25.353  1.00  0.00    -0.451 OA
BRANCH   8   9
ATOM      9  C   UNL A   1      33.621  24.930  25.798  1.00  0.00     0.127 A 
ATOM     10  C   UNL A   1      31.018  24.450  26.710  1.00  0.00     0.119 A 
ATOM     11  C   UNL A   1      31.981  23.456  26.812  1.00  0.00     0.050 A 
ATOM     12  C   UNL A   1      31.383  25.708  26.217  1.00  0.00     0.054 A 
ATOM     13  C   UNL A   1      33.278  23.698  26.373  1.00  0.00     0.051 A 
ATOM     14  C   UNL A   1      32.706  26.006  25.801  1.00  0.00     0.003 A 
BRANCH  10  15
ATOM     15  O   UNL A   1      29.780  24.080  27.153  1.00  0.00    -0.497 OA
ATOM     16  C   UNL A   1      29.503  22.689  27.242  1.00  0.00     0.278 C 
ENDBRANCH  10  15
BRANCH  14  17
ATOM     17  C   UNL A   1      33.093  27.464  25.437  1.00  0.00    -0.009 C 
ATOM     18  C   UNL A   1      34.091  28.062  26.459  1.00  0.00     0.016 C 
ATOM     19  C   UNL A   1      33.703  27.531  24.027  1.00  0.00     0.016 C 
ATOM     20  C   UNL A   1      31.878  28.434  25.437  1.00  0.00     0.016 C 
ENDBRANCH  14  17
ENDBRANCH   8   9
ENDBRANCH   6   8
ENDBRANCH   3   6
ENDBRANCH   1   2
BRANCH   1  21
ATOM     21  C   UNL A   1      38.054  20.107  25.005  1.00  0.00     0.042 C 
BRANCH  21  22
ATOM     22  C   UNL A   1      39.313  20.345  25.826  1.00  0.00     0.118 C 
BRANCH  22  23
ATOM     23  N   UNL A   1      40.232  19.216  25.851  1.00  0.00    -0.352 N 
ATOM     24  C   UNL A   1      41.588  19.199  26.099  1.00  0.00     0.251 C 
ATOM     25  H   UNL A   1      39.826  18.338  25.664  1.00  0.00     0.163 HD
ATOM     26  O   UNL A   1      42.226  18.159  25.990  1.00  0.00    -0.269 OA
BRANCH  24  27
ATOM     27  C   UNL A   1      42.292  20.456  26.445  1.00  0.00     0.039 A 
ATOM     28  C   UNL A   1      42.918  21.175  25.423  1.00  0.00     0.014 A 
ATOM     29  C   UNL A   1      42.302  20.948  27.752  1.00  0.00     0.014 A 
ATOM     30  C   UNL A   1      43.458  22.436  25.691  1.00  0.00     0.010 A 
ATOM     31  C   UNL A   1      42.761  22.238  28.000  1.00  0.00     0.010 A 
ATOM     32  C   UNL A   1      43.333  23.002  26.970  1.00  0.00    -0.014 A 
BRANCH  32  33
ATOM     33  C   UNL A   1      43.763  24.399  27.243  1.00  0.00     0.031 A 
ATOM     34  C   UNL A   1      42.775  25.415  27.744  1.00  0.00     0.074 A 
ATOM     35  C   UNL A   1      45.026  24.774  26.957  1.00  0.00     0.049 A 
ATOM     36  N   UNL A   1      42.940  26.698  27.952  1.00  0.00    -0.248 NA
ATOM     37  C   UNL A   1      41.412  24.934  28.014  1.00  0.00     0.031 C 
ATOM     38  C   UNL A   1      46.065  23.903  26.404  1.00  0.00     0.029 A 
ATOM     39  N   UNL A   1      45.648  25.992  27.079  1.00  0.00    -0.354 N 
ATOM     40  C   UNL A   1      41.700  27.177  28.350  1.00  0.00     0.074 A 
ATOM     41  C   UNL A   1      40.781  26.060  28.310  1.00  0.00     0.031 C 
ATOM     42  C   UNL A   1      47.198  24.606  26.256  1.00  0.00     0.029 A 
ATOM     43  C   UNL A   1      46.960  25.985  26.671  1.00  0.00     0.049 A 
ATOM     44  H   UNL A   1      45.196  26.796  27.426  1.00  0.00     0.167 HD
ATOM     45  C   UNL A   1      41.362  28.431  28.737  1.00  0.00     0.037 A 
ATOM     46  C   UNL A   1      47.868  26.980  26.631  1.00  0.00     0.037 A 
ATOM     47  C   UNL A   1      42.285  29.531  28.820  1.00  0.00     0.049 A 
ATOM     48  C   UNL A   1      47.477  28.354  27.100  1.00  0.00     0.074 A 
ATOM     49  C   UNL A   1      42.056  30.817  29.278  1.00  0.00     0.029 A 
ATOM     50  N   UNL A   1      43.617  29.473  28.439  1.00  0.00    -0.354 N 
ATOM     51  N   UNL A   1      46.319  28.777  27.544  1.00  0.00    -0.248 NA
ATOM     52  C   UNL A   1      48.522  29.387  27.067  1.00  0.00     0.031 C 
ATOM     53  C   UNL A   1      43.242  31.548  29.141  1.00  0.00     0.029 A 
ATOM     54  C   UNL A   1      44.219  30.706  28.636  1.00  0.00     0.049 A 
ATOM     55  H   UNL A   1      44.069  28.675  28.081  1.00  0.00     0.167 HD
ATOM     56  C   UNL A   1      46.500  30.115  27.865  1.00  0.00     0.074 A 
ATOM     57  C   UNL A   1      47.884  30.431  27.578  1.00  0.00     0.031 C 
ATOM     58  C   UNL A   1      45.599  31.003  28.353  1.00  0.00     0.037 A 
BRANCH  45  59
ATOM     59  C   UNL A   1      39.930  28.676  29.111  1.00  0.00     0.064 A 
ATOM     60  C   UNL A   1      39.463  28.450  30.414  1.00  0.00     0.173 A 
ATOM     61  C   UNL A   1      39.022  29.173  28.165  1.00  0.00     0.173 A 
ATOM     62  F   UNL A   1      40.290  27.963  31.353  1.00  0.00    -0.203 F 
ATOM     63  C   UNL A   1      38.131  28.682  30.749  1.00  0.00     0.198 A 
ATOM     64  C   UNL A   1      37.697  29.432  28.510  1.00  0.00     0.198 A 
ATOM     65  F   UNL A   1      39.419  29.412  26.906  1.00  0.00    -0.203 F 
ATOM     66  F   UNL A   1      37.696  28.412  31.987  1.00  0.00    -0.200 F 
ATOM     67  C   UNL A   1      37.252  29.179  29.799  1.00  0.00     0.200 A 
ATOM     68  F   UNL A   1      36.851  29.922  27.594  1.00  0.00    -0.200 F 
ATOM     69  F   UNL A   1      35.972  29.407  30.123  1.00  0.00    -0.200 F 
ENDBRANCH  45  59
BRANCH  46  70
ATOM     70  C   UNL A   1      49.249  26.703  26.157  1.00  0.00     0.064 A 
ATOM     71  C   UNL A   1      50.217  26.195  27.034  1.00  0.00     0.173 A 
ATOM     72  C   UNL A   1      49.627  26.935  24.828  1.00  0.00     0.173 A 
ATOM     73  F   UNL A   1      49.908  25.977  28.320  1.00  0.00    -0.203 F 
ATOM     74  C   UNL A   1      51.519  25.947  26.602  1.00  0.00     0.198 A 
ATOM     75  C   UNL A   1      50.922  26.664  24.391  1.00  0.00     0.198 A 
ATOM     76  F   UNL A   1      48.734  27.416  23.950  1.00  0.00    -0.203 F 
ATOM     77  F   UNL A   1      52.437  25.501  27.470  1.00  0.00    -0.200 F 
ATOM     78  C   UNL A   1      51.869  26.176  25.279  1.00  0.00     0.200 A 
ATOM     79  F   UNL A   1      51.253  26.875  23.110  1.00  0.00    -0.200 F 
ATOM     80  F   UNL A   1      53.119  25.933  24.864  1.00  0.00    -0.200 F 
ENDBRANCH  46  70
BRANCH  58  81
ATOM     81  C   UNL A   1      46.087  32.391  28.634  1.00  0.00     0.064 A 
ATOM     82  C   UNL A   1      46.052  33.393  27.655  1.00  0.00     0.173 A 
ATOM     83  C   UNL A   1      46.557  32.734  29.911  1.00  0.00     0.173 A 
ATOM     84  F   UNL A   1      45.627  33.111  26.414  1.00  0.00    -0.203 F 
ATOM     85  C   UNL A   1      46.489  34.685  27.938  1.00  0.00     0.198 A 
ATOM     86  C   UNL A   1      46.968  34.032  30.198  1.00  0.00     0.198 A 
ATOM     87  F   UNL A   1      46.605  31.811  30.884  1.00  0.00    -0.203 F 
ATOM     88  F   UNL A   1      46.485  35.618  26.976  1.00  0.00    -0.200 F 
ATOM     89  C   UNL A   1      46.940  35.006  29.210  1.00  0.00     0.200 A 
ATOM     90  F   UNL A   1      47.393  34.343  31.431  1.00  0.00    -0.200 F 
ATOM     91  F   UNL A   1      47.353  36.251  29.482  1.00  0.00    -0.200 F 
ENDBRANCH  58  81
ENDBRANCH  32  33
ENDBRANCH  24  27
ENDBRANCH  22  23
ENDBRANCH  21  22
ENDBRANCH   1  21
TORSDOF 14
ENDMDL
MODEL 3
REMARK VINA RESULT:     -11.8      0.599      7.423
REMARK SMILES COc1ccc(O[C@H](F)C(=O)NCCCNC(=O)c2ccc(-c3c4nc(c(-c5c(F)c(F)c(F)c(F)c5F)c5ccc([nH]5)c(-c5c(F)c(F)c(F)c(F)c5F)c5nc(c(-c6c(F)c(F)c(F)c(F)c6F)c6ccc3[nH]6)C=C5)C=C4)cc2)c(C(C)(C)C)c1
REMARK SMILES IDX 13 1 12 2 10 3 11 4 8 6 9 7 7 8 6 9 3 10 4 11 87 12 5 13
REMARK SMILES IDX 82 14 2 15 1 16 83 17 84 18 85 19 86 20 14 21 15 22 16 23
REMARK SMILES IDX 17 24 18 26 19 27 20 28 81 29 21 30 80 31 22 32 23 33 24 34
REMARK SMILES IDX 74 35 25 36 79 37 73 38 75 39 26 40 78 41 72 42 71 43 27 45
REMARK SMILES IDX 59 46 39 47 58 48 40 49 43 50 57 51 76 52 41 53 42 54 56 56
REMARK SMILES IDX 77 57 44 58 28 59 29 60 37 61 30 62 31 63 35 64 38 65 32 66
REMARK SMILES IDX 33 67 36 68 34 69 60 70 61 71 69 72 62 73 63 74 67 75 70 76
REMARK SMILES IDX 64 77 65 78 68 79 66 80 45 81 46 82 54 83 47 84 48 85 52 86
REMARK SMILES IDX 55 87 49 88 50 89 53 90 51 91
REMARK H PARENT 12 5 16 25 75 44 43 55
REMARK Flexibility Score: inf
ROOT
ATOM      1  C   UNL A   1      32.203  30.441  26.171  1.00  0.00     0.118 C 
ENDROOT
BRANCH   1   2
ATOM      2  N   UNL A   1      31.557  29.255  26.711  1.00  0.00    -0.350 N 
ATOM      3  C   UNL A   1      32.081  27.996  26.850  1.00  0.00     0.294 C 
ATOM      4  O   UNL A   1      31.423  27.180  27.505  1.00  0.00    -0.267 OA
ATOM      5  H   UNL A   1      30.628  29.372  27.015  1.00  0.00     0.163 HD
BRANCH   3   6
ATOM      6  C   UNL A   1      33.469  27.630  26.248  1.00  0.00     0.440 C 
ATOM      7  F   UNL A   1      34.487  28.293  26.872  1.00  0.00    -0.191 F 
BRANCH   6   8
ATOM      8  O   UNL A   1      33.883  26.281  26.049  1.00  0.00    -0.451 OA
BRANCH   8   9
ATOM      9  C   UNL A   1      33.772  25.820  24.767  1.00  0.00     0.127 A 
ATOM     10  C   UNL A   1      33.464  25.008  22.105  1.00  0.00     0.119 A 
ATOM     11  C   UNL A   1      33.254  26.335  22.453  1.00  0.00     0.050 A 
ATOM     12  C   UNL A   1      33.900  24.106  23.082  1.00  0.00     0.054 A 
ATOM     13  C   UNL A   1      33.421  26.743  23.771  1.00  0.00     0.051 A 
ATOM     14  C   UNL A   1      34.125  24.495  24.428  1.00  0.00     0.003 A 
BRANCH  10  15
ATOM     15  O   UNL A   1      33.244  24.731  20.785  1.00  0.00    -0.497 OA
ATOM     16  C   UNL A   1      32.418  25.627  20.055  1.00  0.00     0.278 C 
ENDBRANCH  10  15
BRANCH  14  17
ATOM     17  C   UNL A   1      34.781  23.499  25.421  1.00  0.00    -0.009 C 
ATOM     18  C   UNL A   1      34.850  22.069  24.833  1.00  0.00     0.016 C 
ATOM     19  C   UNL A   1      36.196  23.964  25.805  1.00  0.00     0.016 C 
ATOM     20  C   UNL A   1      33.989  23.356  26.751  1.00  0.00     0.016 C 
ENDBRANCH  14  17
ENDBRANCH   8   9
ENDBRANCH   6   8
ENDBRANCH   3   6
ENDBRANCH   1   2
BRANCH   1  21
ATOM     21  C   UNL A   1      31.755  31.724  26.856  1.00  0.00     0.042 C 
BRANCH  21  22
ATOM     22  C   UNL A   1      32.886  32.647  27.287  1.00  0.00     0.118 C 
BRANCH  22  23
ATOM     23  N   UNL A   1      32.460  34.000  27.615  1.00  0.00    -0.352 N 
ATOM     24  C   UNL A   1      32.978  34.877  28.544  1.00  0.00     0.251 C 
ATOM     25  H   UNL A   1      31.693  34.337  27.098  1.00  0.00     0.163 HD
ATOM     26  O   UNL A   1      32.434  35.955  28.751  1.00  0.00    -0.269 OA
BRANCH  24  27
ATOM     27  C   UNL A   1      34.168  34.494  29.340  1.00  0.00     0.039 A 
ATOM     28  C   UNL A   1      33.975  33.949  30.612  1.00  0.00     0.014 A 
ATOM     29  C   UNL A   1      35.460  34.627  28.826  1.00  0.00     0.014 A 
ATOM     30  C   UNL A   1      35.065  33.440  31.322  1.00  0.00     0.010 A 
ATOM     31  C   UNL A   1      36.532  34.043  29.495  1.00  0.00     0.010 A 
ATOM     32  C   UNL A   1      36.346  33.431  30.744  1.00  0.00    -0.014 A 
BRANCH  32  33
ATOM     33  C   UNL A   1      37.492  32.761  31.414  1.00  0.00     0.031 A 
ATOM     34  C   UNL A   1      38.180  31.597  30.759  1.00  0.00     0.074 A 
ATOM     35  C   UNL A   1      37.858  33.148  32.652  1.00  0.00     0.049 A 
ATOM     36  N   UNL A   1      39.135  30.831  31.225  1.00  0.00    -0.248 NA
ATOM     37  C   UNL A   1      37.712  31.222  29.417  1.00  0.00     0.031 C 
ATOM     38  C   UNL A   1      37.228  34.220  33.426  1.00  0.00     0.029 A 
ATOM     39  N   UNL A   1      38.840  32.673  33.485  1.00  0.00    -0.354 N 
ATOM     40  C   UNL A   1      39.360  29.872  30.246  1.00  0.00     0.074 A 
ATOM     41  C   UNL A   1      38.412  30.123  29.182  1.00  0.00     0.031 C 
ATOM     42  C   UNL A   1      37.854  34.336  34.608  1.00  0.00     0.029 A 
ATOM     43  C   UNL A   1      38.904  33.327  34.692  1.00  0.00     0.049 A 
ATOM     44  H   UNL A   1      39.442  31.933  33.241  1.00  0.00     0.167 HD
ATOM     45  C   UNL A   1      40.288  28.885  30.226  1.00  0.00     0.037 A 
ATOM     46  C   UNL A   1      39.716  33.132  35.749  1.00  0.00     0.037 A 
ATOM     47  C   UNL A   1      41.259  28.663  31.264  1.00  0.00     0.049 A 
ATOM     48  C   UNL A   1      40.762  32.053  35.687  1.00  0.00     0.074 A 
ATOM     49  C   UNL A   1      42.291  27.742  31.298  1.00  0.00     0.029 A 
ATOM     50  N   UNL A   1      41.319  29.375  32.453  1.00  0.00    -0.354 N 
ATOM     51  N   UNL A   1      41.013  31.201  34.725  1.00  0.00    -0.248 NA
ATOM     52  C   UNL A   1      41.641  31.914  36.857  1.00  0.00     0.031 C 
ATOM     53  C   UNL A   1      42.956  27.873  32.523  1.00  0.00     0.029 A 
ATOM     54  C   UNL A   1      42.363  28.902  33.234  1.00  0.00     0.049 A 
ATOM     55  H   UNL A   1      40.712  30.107  32.705  1.00  0.00     0.167 HD
ATOM     56  C   UNL A   1      42.089  30.440  35.159  1.00  0.00     0.074 A 
ATOM     57  C   UNL A   1      42.455  30.942  36.468  1.00  0.00     0.031 C 
ATOM     58  C   UNL A   1      42.718  29.418  34.531  1.00  0.00     0.037 A 
BRANCH  45  59
ATOM     59  C   UNL A   1      40.302  27.974  29.034  1.00  0.00     0.064 A 
ATOM     60  C   UNL A   1      41.058  28.274  27.892  1.00  0.00     0.173 A 
ATOM     61  C   UNL A   1      39.578  26.773  29.047  1.00  0.00     0.173 A 
ATOM     62  F   UNL A   1      41.760  29.416  27.826  1.00  0.00    -0.203 F 
ATOM     63  C   UNL A   1      41.064  27.419  26.792  1.00  0.00     0.198 A 
ATOM     64  C   UNL A   1      39.609  25.907  27.956  1.00  0.00     0.198 A 
ATOM     65  F   UNL A   1      38.843  26.436  30.118  1.00  0.00    -0.203 F 
ATOM     66  F   UNL A   1      41.754  27.750  25.692  1.00  0.00    -0.200 F 
ATOM     67  C   UNL A   1      40.345  26.235  26.828  1.00  0.00     0.200 A 
ATOM     68  F   UNL A   1      38.922  24.757  27.997  1.00  0.00    -0.200 F 
ATOM     69  F   UNL A   1      40.355  25.411  25.771  1.00  0.00    -0.200 F 
ENDBRANCH  45  59
BRANCH  46  70
ATOM     70  C   UNL A   1      39.593  34.003  36.947  1.00  0.00     0.064 A 
ATOM     71  C   UNL A   1      38.818  33.604  38.045  1.00  0.00     0.173 A 
ATOM     72  C   UNL A   1      40.243  35.242  37.021  1.00  0.00     0.173 A 
ATOM     73  F   UNL A   1      38.160  32.436  38.011  1.00  0.00    -0.203 F 
ATOM     74  C   UNL A   1      38.684  34.421  39.166  1.00  0.00     0.198 A 
ATOM     75  C   UNL A   1      40.128  36.047  38.152  1.00  0.00     0.198 A 
ATOM     76  F   UNL A   1      41.000  35.666  35.998  1.00  0.00    -0.203 F 
ATOM     77  F   UNL A   1      37.904  34.034  40.184  1.00  0.00    -0.200 F 
ATOM     78  C   UNL A   1      39.344  35.640  39.221  1.00  0.00     0.200 A 
ATOM     79  F   UNL A   1      40.777  37.218  38.208  1.00  0.00    -0.200 F 
ATOM     80  F   UNL A   1      39.218  36.422  40.301  1.00  0.00    -0.200 F 
ENDBRANCH  46  70
BRANCH  58  81
ATOM     81  C   UNL A   1      43.883  28.791  35.236  1.00  0.00     0.064 A 
ATOM     82  C   UNL A   1      43.714  27.716  36.119  1.00  0.00     0.173 A 
ATOM     83  C   UNL A   1      45.188  29.246  34.993  1.00  0.00     0.173 A 
ATOM     84  F   UNL A   1      42.484  27.257  36.396  1.00  0.00    -0.203 F 
ATOM     85  C   UNL A   1      44.808  27.130  36.750  1.00  0.00     0.198 A 
ATOM     86  C   UNL A   1      46.282  28.641  35.605  1.00  0.00     0.198 A 
ATOM     87  F   UNL A   1      45.402  30.269  34.152  1.00  0.00    -0.203 F 
ATOM     88  F   UNL A   1      44.621  26.130  37.621  1.00  0.00    -0.200 F 
ATOM     89  C   UNL A   1      46.092  27.588  36.487  1.00  0.00     0.200 A 
ATOM     90  F   UNL A   1      47.522  29.078  35.342  1.00  0.00    -0.200 F 
ATOM     91  F   UNL A   1      47.144  27.018  37.090  1.00  0.00    -0.200 F 
ENDBRANCH  58  81
ENDBRANCH  32  33
ENDBRANCH  24  27
ENDBRANCH  22  23
ENDBRANCH  21  22
ENDBRANCH   1  21
TORSDOF 14
ENDMDL
