MODEL 1
REMARK VINA RESULT:     -11.3      0.000      0.000
REMARK SMILES CC(C)(C)OC(=O)N1CC[C@@H]2CO[C@@H](CC(=O)NCCCNC(=O)c3ccc(-c4c5nc(c(-c6c(F)c(F)c(F)c(F)c6F)c6ccc([nH]6)c(-c6c(F)c(F)c(F)c(F)c6F)c6nc(c(-c7c(F)c(F)c(F)c(F)c7F)c7ccc4[nH]7)C=C6)C=C5)cc3)[C@@H]2C1
REMARK SMILES IDX 19 1 18 2 16 3 17 4 15 6 14 7 8 8 9 9 89 10 10 11 88 12
REMARK SMILES IDX 11 13 12 14 13 15 6 16 7 17 5 18 2 19 1 20 3 21 4 22 20 23
REMARK SMILES IDX 21 24 22 25 23 26 24 28 25 29 26 30 87 31 27 32 86 33 28 34
REMARK SMILES IDX 29 35 30 36 80 37 31 38 85 39 79 40 81 41 32 42 84 43 78 44
REMARK SMILES IDX 77 45 33 47 65 48 45 49 64 50 46 51 49 52 63 53 82 54 47 55
REMARK SMILES IDX 48 56 62 58 83 59 50 60 34 61 35 62 43 63 36 64 37 65 41 66
REMARK SMILES IDX 44 67 38 68 39 69 42 70 40 71 66 72 67 73 75 74 68 75 69 76
REMARK SMILES IDX 73 77 76 78 70 79 71 80 74 81 72 82 51 83 52 84 60 85 53 86
REMARK SMILES IDX 54 87 58 88 61 89 55 90 56 91 59 92 57 93
REMARK H PARENT 18 5 22 27 81 46 49 57
REMARK Flexibility Score: inf
ROOT
ATOM      1  C   UNL A   1      32.980  28.088  24.227  1.00  0.00     0.117 C 
ENDROOT
BRANCH   1   2
ATOM      2  N   UNL A   1      33.488  27.522  22.989  1.00  0.00    -0.356 N 
ATOM      3  C   UNL A   1      33.011  26.488  22.240  1.00  0.00     0.222 C 
ATOM      4  O   UNL A   1      33.653  26.129  21.252  1.00  0.00    -0.275 OA
ATOM      5  H   UNL A   1      34.301  27.953  22.635  1.00  0.00     0.163 HD
BRANCH   3   6
ATOM      6  C   UNL A   1      31.701  25.823  22.599  1.00  0.00     0.132 C 
BRANCH   6   7
ATOM      7  C   UNL A   1      31.799  24.390  23.139  1.00  0.00     0.132 C 
ATOM      8  N   UNL A   1      34.029  22.194  25.275  1.00  0.00    -0.308 N 
ATOM      9  C   UNL A   1      33.384  22.531  26.533  1.00  0.00     0.123 C 
ATOM     10  C   UNL A   1      33.381  22.661  24.055  1.00  0.00     0.129 C 
ATOM     11  C   UNL A   1      33.129  24.028  26.634  1.00  0.00     0.028 C 
ATOM     12  C   UNL A   1      32.980  24.148  24.086  1.00  0.00     0.044 C 
ATOM     13  C   UNL A   1      32.389  24.577  25.422  1.00  0.00     0.024 C 
ATOM     14  C   UNL A   1      30.940  24.132  25.307  1.00  0.00     0.164 C 
ATOM     15  O   UNL A   1      30.638  24.031  23.906  1.00  0.00    -0.377 OA
BRANCH   8  16
ATOM     16  C   UNL A   1      34.961  21.169  25.269  1.00  0.00     0.410 C 
ATOM     17  O   UNL A   1      34.766  20.089  24.715  1.00  0.00    -0.224 OA
BRANCH  16  18
ATOM     18  O   UNL A   1      36.082  21.479  25.966  1.00  0.00    -0.444 OA
BRANCH  18  19
ATOM     19  C   UNL A   1      37.108  22.341  25.402  1.00  0.00     0.106 C 
ATOM     20  C   UNL A   1      38.435  21.644  25.738  1.00  0.00     0.056 C 
ATOM     21  C   UNL A   1      37.060  23.702  26.101  1.00  0.00     0.056 C 
ATOM     22  C   UNL A   1      37.027  22.488  23.875  1.00  0.00     0.056 C 
ENDBRANCH  18  19
ENDBRANCH  16  18
ENDBRANCH   8  16
ENDBRANCH   6   7
ENDBRANCH   3   6
ENDBRANCH   1   2
BRANCH   1  23
ATOM     23  C   UNL A   1      34.035  28.164  25.331  1.00  0.00     0.042 C 
BRANCH  23  24
ATOM     24  C   UNL A   1      33.492  28.447  26.728  1.00  0.00     0.118 C 
BRANCH  24  25
ATOM     25  N   UNL A   1      33.442  29.868  27.037  1.00  0.00    -0.352 N 
ATOM     26  C   UNL A   1      34.329  30.653  27.734  1.00  0.00     0.251 C 
ATOM     27  H   UNL A   1      32.650  30.340  26.694  1.00  0.00     0.163 HD
ATOM     28  O   UNL A   1      34.016  31.805  28.024  1.00  0.00    -0.269 OA
BRANCH  26  29
ATOM     29  C   UNL A   1      35.648  30.128  28.162  1.00  0.00     0.039 A 
ATOM     30  C   UNL A   1      36.708  30.162  27.250  1.00  0.00     0.014 A 
ATOM     31  C   UNL A   1      35.841  29.565  29.426  1.00  0.00     0.014 A 
ATOM     32  C   UNL A   1      37.970  29.694  27.624  1.00  0.00     0.010 A 
ATOM     33  C   UNL A   1      37.116  29.153  29.820  1.00  0.00     0.010 A 
ATOM     34  C   UNL A   1      38.194  29.215  28.925  1.00  0.00    -0.014 A 
BRANCH  34  35
ATOM     35  C   UNL A   1      39.549  28.792  29.364  1.00  0.00     0.031 A 
ATOM     36  C   UNL A   1      40.371  29.672  30.264  1.00  0.00     0.074 A 
ATOM     37  C   UNL A   1      40.067  27.638  28.902  1.00  0.00     0.049 A 
ATOM     38  N   UNL A   1      41.595  29.498  30.699  1.00  0.00    -0.248 NA
ATOM     39  C   UNL A   1      39.745  30.922  30.718  1.00  0.00     0.031 C 
ATOM     40  C   UNL A   1      39.392  26.716  27.988  1.00  0.00     0.029 A 
ATOM     41  N   UNL A   1      41.286  27.048  29.129  1.00  0.00    -0.354 N 
ATOM     42  C   UNL A   1      41.890  30.621  31.460  1.00  0.00     0.074 A 
ATOM     43  C   UNL A   1      40.732  31.488  31.399  1.00  0.00     0.031 C 
ATOM     44  C   UNL A   1      40.199  25.670  27.744  1.00  0.00     0.029 A 
ATOM     45  C   UNL A   1      41.458  25.861  28.460  1.00  0.00     0.049 A 
ATOM     46  H   UNL A   1      41.973  27.439  29.717  1.00  0.00     0.167 HD
ATOM     47  C   UNL A   1      43.016  30.897  32.161  1.00  0.00     0.037 A 
ATOM     48  C   UNL A   1      42.510  25.024  28.421  1.00  0.00     0.037 A 
ATOM     49  C   UNL A   1      44.155  30.022  32.251  1.00  0.00     0.049 A 
ATOM     50  C   UNL A   1      43.744  25.346  29.220  1.00  0.00     0.074 A 
ATOM     51  C   UNL A   1      45.313  30.187  32.993  1.00  0.00     0.029 A 
ATOM     52  N   UNL A   1      44.280  28.816  31.579  1.00  0.00    -0.354 N 
ATOM     53  N   UNL A   1      43.984  26.381  29.985  1.00  0.00    -0.248 NA
ATOM     54  C   UNL A   1      44.848  24.380  29.152  1.00  0.00     0.031 C 
ATOM     55  C   UNL A   1      46.153  29.095  32.742  1.00  0.00     0.029 A 
ATOM     56  C   UNL A   1      45.503  28.234  31.875  1.00  0.00     0.049 A 
ATOM     57  H   UNL A   1      43.601  28.430  30.980  1.00  0.00     0.167 HD
ATOM     58  C   UNL A   1      45.254  26.180  30.509  1.00  0.00     0.074 A 
ATOM     59  C   UNL A   1      45.730  24.919  29.982  1.00  0.00     0.031 C 
ATOM     60  C   UNL A   1      45.961  26.974  31.351  1.00  0.00     0.037 A 
BRANCH  47  61
ATOM     61  C   UNL A   1      43.073  32.203  32.896  1.00  0.00     0.064 A 
ATOM     62  C   UNL A   1      43.567  33.365  32.286  1.00  0.00     0.173 A 
ATOM     63  C   UNL A   1      42.587  32.304  34.207  1.00  0.00     0.173 A 
ATOM     64  F   UNL A   1      44.053  33.317  31.036  1.00  0.00    -0.203 F 
ATOM     65  C   UNL A   1      43.595  34.576  32.971  1.00  0.00     0.198 A 
ATOM     66  C   UNL A   1      42.592  33.522  34.881  1.00  0.00     0.198 A 
ATOM     67  F   UNL A   1      42.097  31.223  34.833  1.00  0.00    -0.203 F 
ATOM     68  F   UNL A   1      44.108  35.666  32.383  1.00  0.00    -0.200 F 
ATOM     69  C   UNL A   1      43.102  34.656  34.265  1.00  0.00     0.200 A 
ATOM     70  F   UNL A   1      42.106  33.600  36.127  1.00  0.00    -0.200 F 
ATOM     71  F   UNL A   1      43.123  35.824  34.921  1.00  0.00    -0.200 F 
ENDBRANCH  47  61
BRANCH  48  72
ATOM     72  C   UNL A   1      42.434  23.780  27.616  1.00  0.00     0.064 A 
ATOM     73  C   UNL A   1      41.926  22.597  28.170  1.00  0.00     0.173 A 
ATOM     74  C   UNL A   1      42.860  23.748  26.281  1.00  0.00     0.173 A 
ATOM     75  F   UNL A   1      41.528  22.576  29.450  1.00  0.00    -0.203 F 
ATOM     76  C   UNL A   1      41.861  21.423  27.423  1.00  0.00     0.198 A 
ATOM     77  C   UNL A   1      42.772  22.579  25.527  1.00  0.00     0.198 A 
ATOM     78  F   UNL A   1      43.350  24.855  25.705  1.00  0.00    -0.203 F 
ATOM     79  F   UNL A   1      41.404  20.297  27.988  1.00  0.00    -0.200 F 
ATOM     80  C   UNL A   1      42.278  21.417  26.100  1.00  0.00     0.200 A 
ATOM     81  F   UNL A   1      43.166  22.579  24.247  1.00  0.00    -0.200 F 
ATOM     82  F   UNL A   1      42.210  20.288  25.380  1.00  0.00    -0.200 F 
ENDBRANCH  48  72
BRANCH  60  83
ATOM     83  C   UNL A   1      47.313  26.487  31.778  1.00  0.00     0.064 A 
ATOM     84  C   UNL A   1      47.467  25.626  32.874  1.00  0.00     0.173 A 
ATOM     85  C   UNL A   1      48.460  26.853  31.060  1.00  0.00     0.173 A 
ATOM     86  F   UNL A   1      46.401  25.262  33.603  1.00  0.00    -0.203 F 
ATOM     87  C   UNL A   1      48.728  25.166  33.248  1.00  0.00     0.198 A 
ATOM     88  C   UNL A   1      49.714  26.372  31.421  1.00  0.00     0.198 A 
ATOM     89  F   UNL A   1      48.361  27.670  30.001  1.00  0.00    -0.203 F 
ATOM     90  F   UNL A   1      48.859  24.375  34.322  1.00  0.00    -0.200 F 
ATOM     91  C   UNL A   1      49.848  25.533  32.518  1.00  0.00     0.200 A 
ATOM     92  F   UNL A   1      50.795  26.720  30.710  1.00  0.00    -0.200 F 
ATOM     93  F   UNL A   1      51.060  25.084  32.875  1.00  0.00    -0.200 F 
ENDBRANCH  60  83
ENDBRANCH  34  35
ENDBRANCH  26  29
ENDBRANCH  24  25
ENDBRANCH  23  24
ENDBRANCH   1  23
TORSDOF 14
ENDMDL
MODEL 2
REMARK VINA RESULT:     -11.3      3.343      8.636
REMARK SMILES CC(C)(C)OC(=O)N1CC[C@@H]2CO[C@@H](CC(=O)NCCCNC(=O)c3ccc(-c4c5nc(c(-c6c(F)c(F)c(F)c(F)c6F)c6ccc([nH]6)c(-c6c(F)c(F)c(F)c(F)c6F)c6nc(c(-c7c(F)c(F)c(F)c(F)c7F)c7ccc4[nH]7)C=C6)C=C5)cc3)[C@@H]2C1
REMARK SMILES IDX 19 1 18 2 16 3 17 4 15 6 14 7 8 8 9 9 89 10 10 11 88 12
REMARK SMILES IDX 11 13 12 14 13 15 6 16 7 17 5 18 2 19 1 20 3 21 4 22 20 23
REMARK SMILES IDX 21 24 22 25 23 26 24 28 25 29 26 30 87 31 27 32 86 33 28 34
REMARK SMILES IDX 29 35 30 36 80 37 31 38 85 39 79 40 81 41 32 42 84 43 78 44
REMARK SMILES IDX 77 45 33 47 65 48 45 49 64 50 46 51 49 52 63 53 82 54 47 55
REMARK SMILES IDX 48 56 62 58 83 59 50 60 34 61 35 62 43 63 36 64 37 65 41 66
REMARK SMILES IDX 44 67 38 68 39 69 42 70 40 71 66 72 67 73 75 74 68 75 69 76
REMARK SMILES IDX 73 77 76 78 70 79 71 80 74 81 72 82 51 83 52 84 60 85 53 86
REMARK SMILES IDX 54 87 58 88 61 89 55 90 56 91 59 92 57 93
REMARK H PARENT 18 5 22 27 81 46 49 57
REMARK Flexibility Score: inf
ROOT
ATOM      1  C   UNL A   1      31.441  30.910  26.198  1.00  0.00     0.117 C 
ENDROOT
BRANCH   1   2
ATOM      2  N   UNL A   1      32.674  30.290  26.656  1.00  0.00    -0.356 N 
ATOM      3  C   UNL A   1      32.913  29.005  27.043  1.00  0.00     0.222 C 
ATOM      4  O   UNL A   1      34.033  28.715  27.468  1.00  0.00    -0.275 OA
ATOM      5  H   UNL A   1      33.455  30.888  26.691  1.00  0.00     0.163 HD
BRANCH   3   6
ATOM      6  C   UNL A   1      31.834  27.952  26.915  1.00  0.00     0.132 C 
BRANCH   6   7
ATOM      7  C   UNL A   1      31.857  27.117  25.629  1.00  0.00     0.132 C 
ATOM      8  N   UNL A   1      33.024  23.757  24.320  1.00  0.00    -0.308 N 
ATOM      9  C   UNL A   1      31.799  23.050  24.653  1.00  0.00     0.123 C 
ATOM     10  C   UNL A   1      33.007  25.209  24.458  1.00  0.00     0.129 C 
ATOM     11  C   UNL A   1      31.314  23.423  26.047  1.00  0.00     0.028 C 
ATOM     12  C   UNL A   1      32.433  25.706  25.798  1.00  0.00     0.044 C 
ATOM     13  C   UNL A   1      31.202  24.929  26.244  1.00  0.00     0.024 C 
ATOM     14  C   UNL A   1      30.083  25.592  25.456  1.00  0.00     0.164 C 
ATOM     15  O   UNL A   1      30.535  26.909  25.106  1.00  0.00    -0.377 OA
BRANCH   8  16
ATOM     16  C   UNL A   1      33.973  23.100  23.554  1.00  0.00     0.410 C 
ATOM     17  O   UNL A   1      34.291  23.465  22.424  1.00  0.00    -0.224 OA
BRANCH  16  18
ATOM     18  O   UNL A   1      34.476  22.005  24.174  1.00  0.00    -0.444 OA
BRANCH  18  19
ATOM     19  C   UNL A   1      35.523  22.117  25.176  1.00  0.00     0.106 C 
ATOM     20  C   UNL A   1      36.405  20.877  24.964  1.00  0.00     0.056 C 
ATOM     21  C   UNL A   1      34.892  22.057  26.569  1.00  0.00     0.056 C 
ATOM     22  C   UNL A   1      36.411  23.360  25.012  1.00  0.00     0.056 C 
ENDBRANCH  18  19
ENDBRANCH  16  18
ENDBRANCH   8  16
ENDBRANCH   6   7
ENDBRANCH   3   6
ENDBRANCH   1   2
BRANCH   1  23
ATOM     23  C   UNL A   1      31.355  32.399  26.539  1.00  0.00     0.042 C 
BRANCH  23  24
ATOM     24  C   UNL A   1      32.576  32.971  27.252  1.00  0.00     0.118 C 
BRANCH  24  25
ATOM     25  N   UNL A   1      32.371  34.335  27.715  1.00  0.00    -0.352 N 
ATOM     26  C   UNL A   1      32.996  35.031  28.722  1.00  0.00     0.251 C 
ATOM     27  H   UNL A   1      31.675  34.837  27.233  1.00  0.00     0.163 HD
ATOM     28  O   UNL A   1      32.556  36.127  29.061  1.00  0.00    -0.269 OA
BRANCH  26  29
ATOM     29  C   UNL A   1      34.177  34.473  29.423  1.00  0.00     0.039 A 
ATOM     30  C   UNL A   1      33.983  33.840  30.655  1.00  0.00     0.014 A 
ATOM     31  C   UNL A   1      35.470  34.605  28.909  1.00  0.00     0.014 A 
ATOM     32  C   UNL A   1      35.069  33.284  31.337  1.00  0.00     0.010 A 
ATOM     33  C   UNL A   1      36.545  33.998  29.559  1.00  0.00     0.010 A 
ATOM     34  C   UNL A   1      36.357  33.330  30.778  1.00  0.00    -0.014 A 
BRANCH  34  35
ATOM     35  C   UNL A   1      37.507  32.671  31.450  1.00  0.00     0.031 A 
ATOM     36  C   UNL A   1      38.220  31.521  30.795  1.00  0.00     0.074 A 
ATOM     37  C   UNL A   1      37.876  33.072  32.682  1.00  0.00     0.049 A 
ATOM     38  N   UNL A   1      39.201  30.784  31.256  1.00  0.00    -0.248 NA
ATOM     39  C   UNL A   1      37.755  31.131  29.456  1.00  0.00     0.031 C 
ATOM     40  C   UNL A   1      37.239  34.146  33.446  1.00  0.00     0.029 A 
ATOM     41  N   UNL A   1      38.869  32.615  33.514  1.00  0.00    -0.354 N 
ATOM     42  C   UNL A   1      39.457  29.836  30.274  1.00  0.00     0.074 A 
ATOM     43  C   UNL A   1      38.505  30.067  29.208  1.00  0.00     0.031 C 
ATOM     44  C   UNL A   1      37.866  34.276  34.627  1.00  0.00     0.029 A 
ATOM     45  C   UNL A   1      38.928  33.277  34.716  1.00  0.00     0.049 A 
ATOM     46  H   UNL A   1      39.480  31.883  33.271  1.00  0.00     0.167 HD
ATOM     47  C   UNL A   1      40.410  28.874  30.255  1.00  0.00     0.037 A 
ATOM     48  C   UNL A   1      39.740  33.096  35.773  1.00  0.00     0.037 A 
ATOM     49  C   UNL A   1      41.379  28.665  31.298  1.00  0.00     0.049 A 
ATOM     50  C   UNL A   1      40.800  32.030  35.721  1.00  0.00     0.074 A 
ATOM     51  C   UNL A   1      42.425  27.758  31.334  1.00  0.00     0.029 A 
ATOM     52  N   UNL A   1      41.423  29.372  32.489  1.00  0.00    -0.354 N 
ATOM     53  N   UNL A   1      41.071  31.183  34.760  1.00  0.00    -0.248 NA
ATOM     54  C   UNL A   1      41.669  31.900  36.898  1.00  0.00     0.031 C 
ATOM     55  C   UNL A   1      43.082  27.896  32.563  1.00  0.00     0.029 A 
ATOM     56  C   UNL A   1      42.467  28.912  33.275  1.00  0.00     0.049 A 
ATOM     57  H   UNL A   1      40.803  30.095  32.739  1.00  0.00     0.167 HD
ATOM     58  C   UNL A   1      42.154  30.437  35.204  1.00  0.00     0.074 A 
ATOM     59  C   UNL A   1      42.498  30.938  36.518  1.00  0.00     0.031 C 
ATOM     60  C   UNL A   1      42.804  29.425  34.577  1.00  0.00     0.037 A 
BRANCH  47  61
ATOM     61  C   UNL A   1      40.457  27.970  29.059  1.00  0.00     0.064 A 
ATOM     62  C   UNL A   1      39.692  26.797  28.997  1.00  0.00     0.173 A 
ATOM     63  C   UNL A   1      41.242  28.302  27.946  1.00  0.00     0.173 A 
ATOM     64  F   UNL A   1      38.932  26.431  30.042  1.00  0.00    -0.203 F 
ATOM     65  C   UNL A   1      39.728  25.976  27.874  1.00  0.00     0.198 A 
ATOM     66  C   UNL A   1      41.257  27.493  26.813  1.00  0.00     0.198 A 
ATOM     67  F   UNL A   1      41.988  29.417  27.952  1.00  0.00    -0.203 F 
ATOM     68  F   UNL A   1      39.018  24.840  27.852  1.00  0.00    -0.200 F 
ATOM     69  C   UNL A   1      40.504  26.328  26.780  1.00  0.00     0.200 A 
ATOM     70  F   UNL A   1      42.000  27.838  25.753  1.00  0.00    -0.200 F 
ATOM     71  F   UNL A   1      40.533  25.541  25.696  1.00  0.00    -0.200 F 
ENDBRANCH  47  61
BRANCH  48  72
ATOM     72  C   UNL A   1      39.603  33.968  36.966  1.00  0.00     0.064 A 
ATOM     73  C   UNL A   1      40.254  35.207  37.028  1.00  0.00     0.173 A 
ATOM     74  C   UNL A   1      38.817  33.586  38.063  1.00  0.00     0.173 A 
ATOM     75  F   UNL A   1      41.033  35.604  36.011  1.00  0.00    -0.203 F 
ATOM     76  C   UNL A   1      40.137  36.026  38.149  1.00  0.00     0.198 A 
ATOM     77  C   UNL A   1      38.682  34.416  39.173  1.00  0.00     0.198 A 
ATOM     78  F   UNL A   1      38.171  32.410  38.050  1.00  0.00    -0.203 F 
ATOM     79  F   UNL A   1      40.799  37.190  38.197  1.00  0.00    -0.200 F 
ATOM     80  C   UNL A   1      39.346  35.632  39.218  1.00  0.00     0.200 A 
ATOM     81  F   UNL A   1      37.909  34.037  40.200  1.00  0.00    -0.200 F 
ATOM     82  F   UNL A   1      39.230  36.422  40.294  1.00  0.00    -0.200 F 
ENDBRANCH  48  72
BRANCH  60  83
ATOM     83  C   UNL A   1      43.971  28.813  35.292  1.00  0.00     0.064 A 
ATOM     84  C   UNL A   1      43.806  27.737  36.175  1.00  0.00     0.173 A 
ATOM     85  C   UNL A   1      45.271  29.284  35.059  1.00  0.00     0.173 A 
ATOM     86  F   UNL A   1      42.579  27.264  36.442  1.00  0.00    -0.203 F 
ATOM     87  C   UNL A   1      44.903  27.165  36.816  1.00  0.00     0.198 A 
ATOM     88  C   UNL A   1      46.367  28.694  35.683  1.00  0.00     0.198 A 
ATOM     89  F   UNL A   1      45.479  30.308  34.220  1.00  0.00    -0.203 F 
ATOM     90  F   UNL A   1      44.720  26.162  37.685  1.00  0.00    -0.200 F 
ATOM     91  C   UNL A   1      46.181  27.640  36.565  1.00  0.00     0.200 A 
ATOM     92  F   UNL A   1      47.603  29.148  35.434  1.00  0.00    -0.200 F 
ATOM     93  F   UNL A   1      47.236  27.085  37.178  1.00  0.00    -0.200 F 
ENDBRANCH  60  83
ENDBRANCH  34  35
ENDBRANCH  26  29
ENDBRANCH  24  25
ENDBRANCH  23  24
ENDBRANCH   1  23
TORSDOF 14
ENDMDL
MODEL 3
REMARK VINA RESULT:     -11.1      3.269      8.572
REMARK SMILES CC(C)(C)OC(=O)N1CC[C@@H]2CO[C@@H](CC(=O)NCCCNC(=O)c3ccc(-c4c5nc(c(-c6c(F)c(F)c(F)c(F)c6F)c6ccc([nH]6)c(-c6c(F)c(F)c(F)c(F)c6F)c6nc(c(-c7c(F)c(F)c(F)c(F)c7F)c7ccc4[nH]7)C=C6)C=C5)cc3)[C@@H]2C1
REMARK SMILES IDX 19 1 18 2 16 3 17 4 15 6 14 7 8 8 9 9 89 10 10 11 88 12
REMARK SMILES IDX 11 13 12 14 13 15 6 16 7 17 5 18 2 19 1 20 3 21 4 22 20 23
REMARK SMILES IDX 21 24 22 25 23 26 24 28 25 29 26 30 87 31 27 32 86 33 28 34
REMARK SMILES IDX 29 35 30 36 80 37 31 38 85 39 79 40 81 41 32 42 84 43 78 44
REMARK SMILES IDX 77 45 33 47 65 48 45 49 64 50 46 51 49 52 63 53 82 54 47 55
REMARK SMILES IDX 48 56 62 58 83 59 50 60 34 61 35 62 43 63 36 64 37 65 41 66
REMARK SMILES IDX 44 67 38 68 39 69 42 70 40 71 66 72 67 73 75 74 68 75 69 76
REMARK SMILES IDX 73 77 76 78 70 79 71 80 74 81 72 82 51 83 52 84 60 85 53 86
REMARK SMILES IDX 54 87 58 88 61 89 55 90 56 91 59 92 57 93
REMARK H PARENT 18 5 22 27 81 46 49 57
REMARK Flexibility Score: inf
ROOT
ATOM      1  C   UNL A   1      31.551  30.453  25.972  1.00  0.00     0.117 C 
ENDROOT
BRANCH   1   2
ATOM      2  N   UNL A   1      31.029  30.273  24.627  1.00  0.00    -0.356 N 
ATOM      3  C   UNL A   1      30.717  29.127  23.958  1.00  0.00     0.222 C 
ATOM      4  O   UNL A   1      30.353  29.210  22.784  1.00  0.00    -0.275 OA
ATOM      5  H   UNL A   1      30.876  31.105  24.123  1.00  0.00     0.163 HD
BRANCH   3   6
ATOM      6  C   UNL A   1      30.782  27.788  24.659  1.00  0.00     0.132 C 
BRANCH   6   7
ATOM      7  C   UNL A   1      32.002  26.917  24.334  1.00  0.00     0.132 C 
ATOM      8  N   UNL A   1      33.280  23.372  24.738  1.00  0.00    -0.308 N 
ATOM      9  C   UNL A   1      32.709  22.881  23.495  1.00  0.00     0.123 C 
ATOM     10  C   UNL A   1      33.228  24.812  24.965  1.00  0.00     0.129 C 
ATOM     11  C   UNL A   1      31.279  23.373  23.318  1.00  0.00     0.028 C 
ATOM     12  C   UNL A   1      31.845  25.439  24.711  1.00  0.00     0.044 C 
ATOM     13  C   UNL A   1      31.158  24.883  23.471  1.00  0.00     0.024 C 
ATOM     14  C   UNL A   1      31.790  25.689  22.347  1.00  0.00     0.164 C 
ATOM     15  O   UNL A   1      32.288  26.905  22.927  1.00  0.00    -0.377 OA
BRANCH   8  16
ATOM     16  C   UNL A   1      34.150  22.547  25.431  1.00  0.00     0.410 C 
ATOM     17  O   UNL A   1      34.089  22.379  26.648  1.00  0.00    -0.224 OA
BRANCH  16  18
ATOM     18  O   UNL A   1      35.086  21.984  24.628  1.00  0.00    -0.444 OA
BRANCH  18  19
ATOM     19  C   UNL A   1      36.448  22.492  24.583  1.00  0.00     0.106 C 
ATOM     20  C   UNL A   1      36.648  22.949  23.130  1.00  0.00     0.056 C 
ATOM     21  C   UNL A   1      37.419  21.350  24.892  1.00  0.00     0.056 C 
ATOM     22  C   UNL A   1      36.691  23.703  25.495  1.00  0.00     0.056 C 
ENDBRANCH  18  19
ENDBRANCH  16  18
ENDBRANCH   8  16
ENDBRANCH   6   7
ENDBRANCH   3   6
ENDBRANCH   1   2
BRANCH   1  23
ATOM     23  C   UNL A   1      31.380  31.879  26.497  1.00  0.00     0.042 C 
BRANCH  23  24
ATOM     24  C   UNL A   1      32.606  32.464  27.191  1.00  0.00     0.118 C 
BRANCH  24  25
ATOM     25  N   UNL A   1      32.433  33.862  27.558  1.00  0.00    -0.352 N 
ATOM     26  C   UNL A   1      33.078  34.612  28.511  1.00  0.00     0.251 C 
ATOM     27  H   UNL A   1      31.746  34.344  27.044  1.00  0.00     0.163 HD
ATOM     28  O   UNL A   1      32.663  35.739  28.774  1.00  0.00    -0.269 OA
BRANCH  26  29
ATOM     29  C   UNL A   1      34.249  34.079  29.246  1.00  0.00     0.039 A 
ATOM     30  C   UNL A   1      34.023  33.285  30.376  1.00  0.00     0.014 A 
ATOM     31  C   UNL A   1      35.559  34.385  28.867  1.00  0.00     0.014 A 
ATOM     32  C   UNL A   1      35.102  32.748  31.083  1.00  0.00     0.010 A 
ATOM     33  C   UNL A   1      36.635  33.800  29.537  1.00  0.00     0.010 A 
ATOM     34  C   UNL A   1      36.418  32.974  30.650  1.00  0.00    -0.014 A 
BRANCH  34  35
ATOM     35  C   UNL A   1      37.572  32.341  31.342  1.00  0.00     0.031 A 
ATOM     36  C   UNL A   1      38.310  31.195  30.707  1.00  0.00     0.074 A 
ATOM     37  C   UNL A   1      37.920  32.762  32.573  1.00  0.00     0.049 A 
ATOM     38  N   UNL A   1      39.298  30.480  31.187  1.00  0.00    -0.248 NA
ATOM     39  C   UNL A   1      37.866  30.784  29.368  1.00  0.00     0.031 C 
ATOM     40  C   UNL A   1      37.258  33.833  33.318  1.00  0.00     0.029 A 
ATOM     41  N   UNL A   1      38.911  32.330  33.420  1.00  0.00    -0.354 N 
ATOM     42  C   UNL A   1      39.580  29.526  30.219  1.00  0.00     0.074 A 
ATOM     43  C   UNL A   1      38.636  29.729  29.140  1.00  0.00     0.031 C 
ATOM     44  C   UNL A   1      37.869  33.987  34.504  1.00  0.00     0.029 A 
ATOM     45  C   UNL A   1      38.946  33.006  34.616  1.00  0.00     0.049 A 
ATOM     46  H   UNL A   1      39.537  31.606  33.193  1.00  0.00     0.167 HD
ATOM     47  C   UNL A   1      40.548  28.579  30.221  1.00  0.00     0.037 A 
ATOM     48  C   UNL A   1      39.750  32.850  35.683  1.00  0.00     0.037 A 
ATOM     49  C   UNL A   1      41.509  28.397  31.277  1.00  0.00     0.049 A 
ATOM     50  C   UNL A   1      40.827  31.801  35.655  1.00  0.00     0.074 A 
ATOM     51  C   UNL A   1      42.570  27.508  31.335  1.00  0.00     0.029 A 
ATOM     52  N   UNL A   1      41.528  29.118  32.460  1.00  0.00    -0.354 N 
ATOM     53  N   UNL A   1      41.122  30.947  34.706  1.00  0.00    -0.248 NA
ATOM     54  C   UNL A   1      41.685  31.698  36.843  1.00  0.00     0.031 C 
ATOM     55  C   UNL A   1      43.210  27.670  32.569  1.00  0.00     0.029 A 
ATOM     56  C   UNL A   1      42.571  28.684  33.263  1.00  0.00     0.049 A 
ATOM     57  H   UNL A   1      40.895  29.834  32.696  1.00  0.00     0.167 HD
ATOM     58  C   UNL A   1      42.212  30.225  35.171  1.00  0.00     0.074 A 
ATOM     59  C   UNL A   1      42.533  30.745  36.483  1.00  0.00     0.031 C 
ATOM     60  C   UNL A   1      42.885  29.217  34.563  1.00  0.00     0.037 A 
BRANCH  47  61
ATOM     61  C   UNL A   1      40.623  27.662  29.036  1.00  0.00     0.064 A 
ATOM     62  C   UNL A   1      39.790  26.541  28.924  1.00  0.00     0.173 A 
ATOM     63  C   UNL A   1      41.507  27.933  27.981  1.00  0.00     0.173 A 
ATOM     64  F   UNL A   1      38.934  26.234  29.911  1.00  0.00    -0.203 F 
ATOM     65  C   UNL A   1      39.854  25.709  27.809  1.00  0.00     0.198 A 
ATOM     66  C   UNL A   1      41.552  27.114  26.856  1.00  0.00     0.198 A 
ATOM     67  F   UNL A   1      42.322  28.998  28.037  1.00  0.00    -0.203 F 
ATOM     68  F   UNL A   1      39.075  24.621  27.741  1.00  0.00    -0.200 F 
ATOM     69  C   UNL A   1      40.729  25.999  26.774  1.00  0.00     0.200 A 
ATOM     70  F   UNL A   1      42.391  27.401  25.852  1.00  0.00    -0.200 F 
ATOM     71  F   UNL A   1      40.785  25.202  25.698  1.00  0.00    -0.200 F 
ENDBRANCH  47  61
BRANCH  48  72
ATOM     72  C   UNL A   1      39.585  33.733  36.866  1.00  0.00     0.064 A 
ATOM     73  C   UNL A   1      40.226  34.978  36.925  1.00  0.00     0.173 A 
ATOM     74  C   UNL A   1      38.784  33.355  37.952  1.00  0.00     0.173 A 
ATOM     75  F   UNL A   1      41.019  35.370  35.918  1.00  0.00    -0.203 F 
ATOM     76  C   UNL A   1      40.083  35.807  38.036  1.00  0.00     0.198 A 
ATOM     77  C   UNL A   1      38.623  34.195  39.052  1.00  0.00     0.198 A 
ATOM     78  F   UNL A   1      38.148  32.174  37.940  1.00  0.00    -0.203 F 
ATOM     79  F   UNL A   1      40.735  36.977  38.084  1.00  0.00    -0.200 F 
ATOM     80  C   UNL A   1      39.277  35.417  39.096  1.00  0.00     0.200 A 
ATOM     81  F   UNL A   1      37.836  33.821  40.069  1.00  0.00    -0.200 F 
ATOM     82  F   UNL A   1      39.136  36.218  40.161  1.00  0.00    -0.200 F 
ENDBRANCH  48  72
BRANCH  60  83
ATOM     83  C   UNL A   1      44.054  28.632  35.296  1.00  0.00     0.064 A 
ATOM     84  C   UNL A   1      45.343  29.167  35.165  1.00  0.00     0.173 A 
ATOM     85  C   UNL A   1      43.874  27.550  36.170  1.00  0.00     0.173 A 
ATOM     86  F   UNL A   1      45.567  30.191  34.328  1.00  0.00    -0.203 F 
ATOM     87  C   UNL A   1      46.416  28.625  35.869  1.00  0.00     0.198 A 
ATOM     88  C   UNL A   1      44.944  27.027  36.890  1.00  0.00     0.198 A 
ATOM     89  F   UNL A   1      42.659  27.007  36.333  1.00  0.00    -0.203 F 
ATOM     90  F   UNL A   1      47.647  29.127  35.700  1.00  0.00    -0.200 F 
ATOM     91  C   UNL A   1      46.214  27.561  36.735  1.00  0.00     0.200 A 
ATOM     92  F   UNL A   1      44.747  26.004  37.734  1.00  0.00    -0.200 F 
ATOM     93  F   UNL A   1      47.248  27.045  37.416  1.00  0.00    -0.200 F 
ENDBRANCH  60  83
ENDBRANCH  34  35
ENDBRANCH  26  29
ENDBRANCH  24  25
ENDBRANCH  23  24
ENDBRANCH   1  23
TORSDOF 14
ENDMDL
