MODEL 1
REMARK VINA RESULT:     -13.6      0.000      0.000
REMARK SMILES Nc1nccc(N2CCC[C@@](Cc3ccc(F)cc3F)(C(=O)NCCCNC(=O)c3ccc(-c4c5nc(c(-c6c(F)c(F)c(F)c(F)c6F)c6ccc([nH]6)c(-c6c(F)c(F)c(F)c(F)c6F)c6nc(c(-c7c(F)c(F)c(F)c(F)c7F)c7ccc4[nH]7)C=C6)C=C5)cc3)C2)n1
REMARK SMILES IDX 25 1 24 2 23 3 21 4 22 5 11 7 7 8 8 9 93 10 9 11 10 12 6 13
REMARK SMILES IDX 2 14 3 15 94 16 4 17 5 18 1 19 12 22 13 23 14 24 19 25 15 26
REMARK SMILES IDX 18 27 20 28 16 29 17 30 26 31 27 32 28 33 29 35 30 36 31 37
REMARK SMILES IDX 92 38 32 39 91 40 33 41 34 42 35 43 85 44 36 45 90 46 84 47
REMARK SMILES IDX 86 48 37 49 89 50 83 51 82 52 38 54 70 55 50 56 69 57 51 58
REMARK SMILES IDX 54 59 68 60 87 61 52 62 53 63 67 65 88 66 55 67 39 68 40 69
REMARK SMILES IDX 48 70 41 71 42 72 46 73 49 74 43 75 44 76 47 77 45 78 71 79
REMARK SMILES IDX 72 80 80 81 73 82 74 83 78 84 81 85 75 86 76 87 79 88 77 89
REMARK SMILES IDX 56 90 57 91 65 92 58 93 59 94 63 95 66 96 60 97 61 98 64 99
REMARK SMILES IDX 62 100
REMARK H PARENT 23 6 1 20 1 21 27 34 86 53 54 64
REMARK Flexibility Score: inf
ROOT
ATOM      1  C   UNL A   1      31.519  32.255  26.745  1.00  0.00     0.042 C 
ENDROOT
BRANCH   1   2
ATOM      2  C   UNL A   1      31.573  30.756  26.892  1.00  0.00     0.117 C 
BRANCH   2   3
ATOM      3  N   UNL A   1      32.885  30.205  27.118  1.00  0.00    -0.355 N 
ATOM      4  C   UNL A   1      33.491  29.149  26.505  1.00  0.00     0.228 C 
ATOM      5  O   UNL A   1      34.724  29.131  26.580  1.00  0.00    -0.274 OA
ATOM      6  H   UNL A   1      33.419  30.654  27.812  1.00  0.00     0.163 HD
BRANCH   4   7
ATOM      7  C   UNL A   1      32.702  28.041  25.774  1.00  0.00     0.071 C 
ATOM      8  N   UNL A   1      32.945  25.663  25.229  1.00  0.00    -0.355 N 
ATOM      9  C   UNL A   1      31.875  25.145  26.054  1.00  0.00     0.118 C 
ATOM     10  C   UNL A   1      33.679  26.811  25.749  1.00  0.00     0.135 C 
ATOM     11  C   UNL A   1      30.842  26.250  26.205  1.00  0.00     0.023 C 
ATOM     12  C   UNL A   1      31.468  27.588  26.617  1.00  0.00     0.021 C 
BRANCH   8  13
ATOM     13  C   UNL A   1      33.590  24.810  24.359  1.00  0.00     0.134 A 
ATOM     14  C   UNL A   1      33.584  23.455  22.521  1.00  0.00     0.221 A 
ATOM     15  N   UNL A   1      34.824  23.009  22.740  1.00  0.00    -0.222 NA
ATOM     16  N   UNL A   1      32.931  24.324  23.298  1.00  0.00    -0.196 NA
ATOM     17  C   UNL A   1      35.448  23.500  23.820  1.00  0.00     0.119 A 
ATOM     18  C   UNL A   1      34.881  24.425  24.656  1.00  0.00     0.067 A 
BRANCH  14  19
ATOM     19  N   UNL A   1      32.941  22.996  21.410  1.00  0.00    -0.368 N 
ATOM     20  H   UNL A   1      33.363  22.308  20.846  1.00  0.00     0.159 HD
ATOM     21  H   UNL A   1      32.054  23.351  21.172  1.00  0.00     0.159 HD
ENDBRANCH  14  19
ENDBRANCH   8  13
BRANCH   7  22
ATOM     22  C   UNL A   1      32.433  28.390  24.264  1.00  0.00     0.057 C 
BRANCH  22  23
ATOM     23  C   UNL A   1      31.053  28.768  23.782  1.00  0.00    -0.011 A 
ATOM     24  C   UNL A   1      30.568  30.078  23.948  1.00  0.00     0.010 A 
ATOM     25  C   UNL A   1      30.211  27.819  23.185  1.00  0.00     0.129 A 
ATOM     26  C   UNL A   1      29.243  30.385  23.620  1.00  0.00     0.040 A 
ATOM     27  C   UNL A   1      28.895  28.119  22.854  1.00  0.00     0.078 A 
ATOM     28  F   UNL A   1      30.654  26.573  22.973  1.00  0.00    -0.207 F 
ATOM     29  C   UNL A   1      28.415  29.396  23.096  1.00  0.00     0.126 A 
ATOM     30  F   UNL A   1      27.130  29.676  22.843  1.00  0.00    -0.207 F 
ENDBRANCH  22  23
ENDBRANCH   7  22
ENDBRANCH   4   7
ENDBRANCH   2   3
ENDBRANCH   1   2
BRANCH   1  31
ATOM     31  C   UNL A   1      32.747  32.932  27.324  1.00  0.00     0.118 C 
BRANCH  31  32
ATOM     32  N   UNL A   1      32.505  34.319  27.732  1.00  0.00    -0.352 N 
ATOM     33  C   UNL A   1      33.053  35.068  28.741  1.00  0.00     0.251 C 
ATOM     34  H   UNL A   1      31.835  34.793  27.188  1.00  0.00     0.163 HD
ATOM     35  O   UNL A   1      32.572  36.163  29.027  1.00  0.00    -0.269 OA
BRANCH  33  36
ATOM     36  C   UNL A   1      34.209  34.549  29.490  1.00  0.00     0.039 A 
ATOM     37  C   UNL A   1      34.014  33.935  30.727  1.00  0.00     0.014 A 
ATOM     38  C   UNL A   1      35.491  34.648  28.947  1.00  0.00     0.014 A 
ATOM     39  C   UNL A   1      35.099  33.342  31.373  1.00  0.00     0.010 A 
ATOM     40  C   UNL A   1      36.530  33.930  29.511  1.00  0.00     0.010 A 
ATOM     41  C   UNL A   1      36.352  33.287  30.740  1.00  0.00    -0.014 A 
BRANCH  41  42
ATOM     42  C   UNL A   1      37.498  32.572  31.345  1.00  0.00     0.031 A 
ATOM     43  C   UNL A   1      37.978  32.950  32.719  1.00  0.00     0.074 A 
ATOM     44  C   UNL A   1      38.146  31.636  30.627  1.00  0.00     0.049 A 
ATOM     45  N   UNL A   1      38.986  32.470  33.402  1.00  0.00    -0.248 NA
ATOM     46  C   UNL A   1      37.258  34.038  33.402  1.00  0.00     0.031 C 
ATOM     47  C   UNL A   1      37.810  31.242  29.258  1.00  0.00     0.029 A 
ATOM     48  N   UNL A   1      39.215  30.841  30.948  1.00  0.00    -0.354 N 
ATOM     49  C   UNL A   1      39.020  33.201  34.581  1.00  0.00     0.074 A 
ATOM     50  C   UNL A   1      37.996  34.217  34.486  1.00  0.00     0.031 C 
ATOM     51  C   UNL A   1      38.614  30.237  28.879  1.00  0.00     0.029 A 
ATOM     52  C   UNL A   1      39.552  29.948  29.961  1.00  0.00     0.049 A 
ATOM     53  H   UNL A   1      39.697  30.904  31.805  1.00  0.00     0.167 HD
ATOM     54  C   UNL A   1      39.805  33.013  35.667  1.00  0.00     0.037 A 
ATOM     55  C   UNL A   1      40.501  28.993  29.937  1.00  0.00     0.037 A 
ATOM     56  C   UNL A   1      40.804  31.984  35.757  1.00  0.00     0.049 A 
ATOM     57  C   UNL A   1      41.370  28.805  31.147  1.00  0.00     0.074 A 
ATOM     58  C   UNL A   1      41.626  31.673  36.823  1.00  0.00     0.029 A 
ATOM     59  N   UNL A   1      41.114  31.097  34.735  1.00  0.00    -0.354 N 
ATOM     60  N   UNL A   1      41.352  29.456  32.285  1.00  0.00    -0.248 NA
ATOM     61  C   UNL A   1      42.390  27.751  31.076  1.00  0.00     0.031 C 
ATOM     62  C   UNL A   1      42.473  30.634  36.428  1.00  0.00     0.029 A 
ATOM     63  C   UNL A   1      42.134  30.251  35.138  1.00  0.00     0.049 A 
ATOM     64  H   UNL A   1      40.676  31.073  33.854  1.00  0.00     0.167 HD
ATOM     65  C   UNL A   1      42.331  28.876  33.077  1.00  0.00     0.074 A 
ATOM     66  C   UNL A   1      42.925  27.813  32.289  1.00  0.00     0.031 C 
ATOM     67  C   UNL A   1      42.702  29.191  34.342  1.00  0.00     0.037 A 
BRANCH  54  68
ATOM     68  C   UNL A   1      39.596  33.925  36.843  1.00  0.00     0.064 A 
ATOM     69  C   UNL A   1      40.217  35.182  36.894  1.00  0.00     0.173 A 
ATOM     70  C   UNL A   1      38.801  33.544  37.936  1.00  0.00     0.173 A 
ATOM     71  F   UNL A   1      40.990  35.598  35.880  1.00  0.00    -0.203 F 
ATOM     72  C   UNL A   1      40.052  36.020  37.995  1.00  0.00     0.198 A 
ATOM     73  C   UNL A   1      38.607  34.400  39.017  1.00  0.00     0.198 A 
ATOM     74  F   UNL A   1      38.173  32.359  37.935  1.00  0.00    -0.203 F 
ATOM     75  F   UNL A   1      40.676  37.205  38.032  1.00  0.00    -0.200 F 
ATOM     76  C   UNL A   1      39.239  35.632  39.050  1.00  0.00     0.200 A 
ATOM     77  F   UNL A   1      37.794  34.037  40.019  1.00  0.00    -0.200 F 
ATOM     78  F   UNL A   1      39.059  36.452  40.095  1.00  0.00    -0.200 F 
ENDBRANCH  54  68
BRANCH  55  79
ATOM     79  C   UNL A   1      40.603  28.104  28.751  1.00  0.00     0.064 A 
ATOM     80  C   UNL A   1      41.359  28.462  27.625  1.00  0.00     0.173 A 
ATOM     81  C   UNL A   1      39.870  26.910  28.692  1.00  0.00     0.173 A 
ATOM     82  F   UNL A   1      42.067  29.601  27.627  1.00  0.00    -0.203 F 
ATOM     83  C   UNL A   1      41.354  27.675  26.475  1.00  0.00     0.198 A 
ATOM     84  C   UNL A   1      39.887  26.111  27.551  1.00  0.00     0.198 A 
ATOM     85  F   UNL A   1      39.142  26.520  29.748  1.00  0.00    -0.203 F 
ATOM     86  F   UNL A   1      42.044  28.067  25.395  1.00  0.00    -0.200 F 
ATOM     87  C   UNL A   1      40.618  26.500  26.440  1.00  0.00     0.200 A 
ATOM     88  F   UNL A   1      39.187  24.968  27.526  1.00  0.00    -0.200 F 
ATOM     89  F   UNL A   1      40.611  25.746  25.332  1.00  0.00    -0.200 F 
ENDBRANCH  55  79
BRANCH  67  90
ATOM     90  C   UNL A   1      43.778  28.367  34.983  1.00  0.00     0.064 A 
ATOM     91  C   UNL A   1      43.443  27.222  35.722  1.00  0.00     0.173 A 
ATOM     92  C   UNL A   1      45.121  28.771  34.966  1.00  0.00     0.173 A 
ATOM     93  F   UNL A   1      42.170  26.801  35.776  1.00  0.00    -0.203 F 
ATOM     94  C   UNL A   1      44.408  26.527  36.443  1.00  0.00     0.198 A 
ATOM     95  C   UNL A   1      46.089  28.054  35.664  1.00  0.00     0.198 A 
ATOM     96  F   UNL A   1      45.492  29.853  34.266  1.00  0.00    -0.203 F 
ATOM     97  F   UNL A   1      44.055  25.465  37.181  1.00  0.00    -0.200 F 
ATOM     98  C   UNL A   1      45.730  26.943  36.413  1.00  0.00     0.200 A 
ATOM     99  F   UNL A   1      47.370  28.444  35.616  1.00  0.00    -0.200 F 
ATOM    100  F   UNL A   1      46.660  26.273  37.107  1.00  0.00    -0.200 F 
ENDBRANCH  67  90
ENDBRANCH  41  42
ENDBRANCH  33  36
ENDBRANCH  31  32
ENDBRANCH   1  31
TORSDOF 14
ENDMDL
MODEL 2
REMARK VINA RESULT:     -13.6      0.332      1.926
REMARK SMILES Nc1nccc(N2CCC[C@@](Cc3ccc(F)cc3F)(C(=O)NCCCNC(=O)c3ccc(-c4c5nc(c(-c6c(F)c(F)c(F)c(F)c6F)c6ccc([nH]6)c(-c6c(F)c(F)c(F)c(F)c6F)c6nc(c(-c7c(F)c(F)c(F)c(F)c7F)c7ccc4[nH]7)C=C6)C=C5)cc3)C2)n1
REMARK SMILES IDX 25 1 24 2 23 3 21 4 22 5 11 7 7 8 8 9 93 10 9 11 10 12 6 13
REMARK SMILES IDX 2 14 3 15 94 16 4 17 5 18 1 19 12 22 13 23 14 24 19 25 15 26
REMARK SMILES IDX 18 27 20 28 16 29 17 30 26 31 27 32 28 33 29 35 30 36 31 37
REMARK SMILES IDX 92 38 32 39 91 40 33 41 34 42 35 43 85 44 36 45 90 46 84 47
REMARK SMILES IDX 86 48 37 49 89 50 83 51 82 52 38 54 70 55 50 56 69 57 51 58
REMARK SMILES IDX 54 59 68 60 87 61 52 62 53 63 67 65 88 66 55 67 39 68 40 69
REMARK SMILES IDX 48 70 41 71 42 72 46 73 49 74 43 75 44 76 47 77 45 78 71 79
REMARK SMILES IDX 72 80 80 81 73 82 74 83 78 84 81 85 75 86 76 87 79 88 77 89
REMARK SMILES IDX 56 90 57 91 65 92 58 93 59 94 63 95 66 96 60 97 61 98 64 99
REMARK SMILES IDX 62 100
REMARK H PARENT 23 6 1 20 1 21 27 34 86 53 54 64
REMARK Flexibility Score: inf
ROOT
ATOM      1  C   UNL A   1      31.469  32.318  26.747  1.00  0.00     0.042 C 
ENDROOT
BRANCH   1   2
ATOM      2  C   UNL A   1      31.539  30.821  26.898  1.00  0.00     0.117 C 
BRANCH   2   3
ATOM      3  N   UNL A   1      32.858  30.283  27.121  1.00  0.00    -0.355 N 
ATOM      4  C   UNL A   1      33.471  29.230  26.510  1.00  0.00     0.228 C 
ATOM      5  O   UNL A   1      34.704  29.225  26.579  1.00  0.00    -0.274 OA
ATOM      6  H   UNL A   1      33.391  30.741  27.809  1.00  0.00     0.163 HD
BRANCH   4   7
ATOM      7  C   UNL A   1      32.689  28.109  25.790  1.00  0.00     0.071 C 
ATOM      8  N   UNL A   1      32.949  25.729  25.266  1.00  0.00    -0.355 N 
ATOM      9  C   UNL A   1      31.884  25.210  26.097  1.00  0.00     0.118 C 
ATOM     10  C   UNL A   1      33.675  26.887  25.775  1.00  0.00     0.135 C 
ATOM     11  C   UNL A   1      30.843  26.310  26.239  1.00  0.00     0.023 C 
ATOM     12  C   UNL A   1      31.459  27.655  26.638  1.00  0.00     0.021 C 
BRANCH   8  13
ATOM     13  C   UNL A   1      33.599  24.873  24.402  1.00  0.00     0.134 A 
ATOM     14  C   UNL A   1      33.603  23.506  22.574  1.00  0.00     0.221 A 
ATOM     15  N   UNL A   1      34.844  23.066  22.798  1.00  0.00    -0.222 NA
ATOM     16  N   UNL A   1      32.944  24.377  23.343  1.00  0.00    -0.196 NA
ATOM     17  C   UNL A   1      35.464  23.567  23.876  1.00  0.00     0.119 A 
ATOM     18  C   UNL A   1      34.892  24.495  24.705  1.00  0.00     0.067 A 
BRANCH  14  19
ATOM     19  N   UNL A   1      32.964  23.036  21.465  1.00  0.00    -0.368 N 
ATOM     20  H   UNL A   1      33.475  22.849  20.645  1.00  0.00     0.159 HD
ATOM     21  H   UNL A   1      31.991  22.883  21.484  1.00  0.00     0.159 HD
ENDBRANCH  14  19
ENDBRANCH   8  13
BRANCH   7  22
ATOM     22  C   UNL A   1      32.417  28.443  24.278  1.00  0.00     0.057 C 
BRANCH  22  23
ATOM     23  C   UNL A   1      31.029  28.785  23.789  1.00  0.00    -0.011 A 
ATOM     24  C   UNL A   1      30.522  30.090  23.923  1.00  0.00     0.010 A 
ATOM     25  C   UNL A   1      30.203  27.806  23.218  1.00  0.00     0.129 A 
ATOM     26  C   UNL A   1      29.191  30.365  23.590  1.00  0.00     0.040 A 
ATOM     27  C   UNL A   1      28.881  28.074  22.882  1.00  0.00     0.078 A 
ATOM     28  F   UNL A   1      30.668  26.564  23.036  1.00  0.00    -0.207 F 
ATOM     29  C   UNL A   1      28.380  29.349  23.094  1.00  0.00     0.126 A 
ATOM     30  F   UNL A   1      27.089  29.599  22.837  1.00  0.00    -0.207 F 
ENDBRANCH  22  23
ENDBRANCH   7  22
ENDBRANCH   4   7
ENDBRANCH   2   3
ENDBRANCH   1   2
BRANCH   1  31
ATOM     31  C   UNL A   1      32.720  33.005  27.261  1.00  0.00     0.118 C 
BRANCH  31  32
ATOM     32  N   UNL A   1      32.481  34.378  27.714  1.00  0.00    -0.352 N 
ATOM     33  C   UNL A   1      33.037  35.095  28.743  1.00  0.00     0.251 C 
ATOM     34  H   UNL A   1      31.807  34.869  27.190  1.00  0.00     0.163 HD
ATOM     35  O   UNL A   1      32.558  36.180  29.066  1.00  0.00    -0.269 OA
BRANCH  33  36
ATOM     36  C   UNL A   1      34.199  34.553  29.466  1.00  0.00     0.039 A 
ATOM     37  C   UNL A   1      34.008  33.860  30.661  1.00  0.00     0.014 A 
ATOM     38  C   UNL A   1      35.482  34.709  28.939  1.00  0.00     0.014 A 
ATOM     39  C   UNL A   1      35.101  33.248  31.276  1.00  0.00     0.010 A 
ATOM     40  C   UNL A   1      36.531  33.978  29.464  1.00  0.00     0.010 A 
ATOM     41  C   UNL A   1      36.359  33.257  30.650  1.00  0.00    -0.014 A 
BRANCH  41  42
ATOM     42  C   UNL A   1      37.515  32.527  31.218  1.00  0.00     0.031 A 
ATOM     43  C   UNL A   1      38.036  32.890  32.581  1.00  0.00     0.074 A 
ATOM     44  C   UNL A   1      38.135  31.591  30.475  1.00  0.00     0.049 A 
ATOM     45  N   UNL A   1      39.057  32.397  33.232  1.00  0.00    -0.248 NA
ATOM     46  C   UNL A   1      37.344  33.978  33.292  1.00  0.00     0.031 C 
ATOM     47  C   UNL A   1      37.758  31.212  29.112  1.00  0.00     0.029 A 
ATOM     48  N   UNL A   1      39.206  30.785  30.760  1.00  0.00    -0.354 N 
ATOM     49  C   UNL A   1      39.130  33.118  34.415  1.00  0.00     0.074 A 
ATOM     50  C   UNL A   1      38.113  34.142  34.356  1.00  0.00     0.031 C 
ATOM     51  C   UNL A   1      38.543  30.204  28.704  1.00  0.00     0.029 A 
ATOM     52  C   UNL A   1      39.507  29.898  29.757  1.00  0.00     0.049 A 
ATOM     53  H   UNL A   1      39.712  30.837  31.603  1.00  0.00     0.167 HD
ATOM     54  C   UNL A   1      39.943  32.914  35.478  1.00  0.00     0.037 A 
ATOM     55  C   UNL A   1      40.448  28.935  29.699  1.00  0.00     0.037 A 
ATOM     56  C   UNL A   1      40.935  31.877  35.532  1.00  0.00     0.049 A 
ATOM     57  C   UNL A   1      41.348  28.730  30.884  1.00  0.00     0.074 A 
ATOM     58  C   UNL A   1      41.784  31.550  36.573  1.00  0.00     0.029 A 
ATOM     59  N   UNL A   1      41.210  30.995  34.495  1.00  0.00    -0.354 N 
ATOM     60  N   UNL A   1      41.367  29.372  32.027  1.00  0.00    -0.248 NA
ATOM     61  C   UNL A   1      42.357  27.668  30.776  1.00  0.00     0.031 C 
ATOM     62  C   UNL A   1      42.611  30.507  36.147  1.00  0.00     0.029 A 
ATOM     63  C   UNL A   1      42.233  30.138  34.864  1.00  0.00     0.049 A 
ATOM     64  H   UNL A   1      40.747  30.982  33.626  1.00  0.00     0.167 HD
ATOM     65  C   UNL A   1      42.362  28.777  32.787  1.00  0.00     0.074 A 
ATOM     66  C   UNL A   1      42.925  27.716  31.975  1.00  0.00     0.031 C 
ATOM     67  C   UNL A   1      42.770  29.080  34.044  1.00  0.00     0.037 A 
BRANCH  54  68
ATOM     68  C   UNL A   1      39.774  33.818  36.666  1.00  0.00     0.064 A 
ATOM     69  C   UNL A   1      38.927  33.461  37.724  1.00  0.00     0.173 A 
ATOM     70  C   UNL A   1      40.432  35.057  36.745  1.00  0.00     0.173 A 
ATOM     71  F   UNL A   1      38.270  32.291  37.702  1.00  0.00    -0.203 F 
ATOM     72  C   UNL A   1      38.742  34.308  38.815  1.00  0.00     0.198 A 
ATOM     73  C   UNL A   1      40.276  35.884  37.855  1.00  0.00     0.198 A 
ATOM     74  F   UNL A   1      41.265  35.444  35.768  1.00  0.00    -0.203 F 
ATOM     75  F   UNL A   1      37.908  33.955  39.802  1.00  0.00    -0.200 F 
ATOM     76  C   UNL A   1      39.425  35.513  38.884  1.00  0.00     0.200 A 
ATOM     77  F   UNL A   1      40.963  37.032  37.934  1.00  0.00    -0.200 F 
ATOM     78  F   UNL A   1      39.268  36.315  39.947  1.00  0.00    -0.200 F 
ENDBRANCH  54  68
BRANCH  55  79
ATOM     79  C   UNL A   1      40.510  28.055  28.505  1.00  0.00     0.064 A 
ATOM     80  C   UNL A   1      39.869  26.808  28.474  1.00  0.00     0.173 A 
ATOM     81  C   UNL A   1      41.290  28.414  27.397  1.00  0.00     0.173 A 
ATOM     82  F   UNL A   1      39.122  26.412  29.515  1.00  0.00    -0.203 F 
ATOM     83  C   UNL A   1      40.030  25.941  27.395  1.00  0.00     0.198 A 
ATOM     84  C   UNL A   1      41.430  27.557  26.306  1.00  0.00     0.198 A 
ATOM     85  F   UNL A   1      41.913  29.601  27.374  1.00  0.00    -0.203 F 
ATOM     86  F   UNL A   1      39.447  24.735  27.414  1.00  0.00    -0.200 F 
ATOM     87  C   UNL A   1      40.809  26.318  26.311  1.00  0.00     0.200 A 
ATOM     88  F   UNL A   1      42.171  27.931  25.254  1.00  0.00    -0.200 F 
ATOM     89  F   UNL A   1      40.967  25.482  25.275  1.00  0.00    -0.200 F 
ENDBRANCH  55  79
BRANCH  67  90
ATOM     90  C   UNL A   1      43.857  28.242  34.648  1.00  0.00     0.064 A 
ATOM     91  C   UNL A   1      45.203  28.589  34.454  1.00  0.00     0.173 A 
ATOM     92  C   UNL A   1      43.575  27.040  35.313  1.00  0.00     0.173 A 
ATOM     93  F   UNL A   1      45.523  29.724  33.814  1.00  0.00    -0.203 F 
ATOM     94  C   UNL A   1      46.227  27.749  34.880  1.00  0.00     0.198 A 
ATOM     95  C   UNL A   1      44.604  26.218  35.766  1.00  0.00     0.198 A 
ATOM     96  F   UNL A   1      42.304  26.671  35.532  1.00  0.00    -0.203 F 
ATOM     97  F   UNL A   1      47.505  28.077  34.640  1.00  0.00    -0.200 F 
ATOM     98  C   UNL A   1      45.927  26.565  35.536  1.00  0.00     0.200 A 
ATOM     99  F   UNL A   1      44.312  25.085  36.419  1.00  0.00    -0.200 F 
ATOM    100  F   UNL A   1      46.913  25.758  35.947  1.00  0.00    -0.200 F 
ENDBRANCH  67  90
ENDBRANCH  41  42
ENDBRANCH  33  36
ENDBRANCH  31  32
ENDBRANCH   1  31
TORSDOF 14
ENDMDL
MODEL 3
REMARK VINA RESULT:     -13.5      5.693     11.315
REMARK SMILES Nc1nccc(N2CCC[C@@](Cc3ccc(F)cc3F)(C(=O)NCCCNC(=O)c3ccc(-c4c5nc(c(-c6c(F)c(F)c(F)c(F)c6F)c6ccc([nH]6)c(-c6c(F)c(F)c(F)c(F)c6F)c6nc(c(-c7c(F)c(F)c(F)c(F)c7F)c7ccc4[nH]7)C=C6)C=C5)cc3)C2)n1
REMARK SMILES IDX 25 1 24 2 23 3 21 4 22 5 11 7 7 8 8 9 93 10 9 11 10 12 6 13
REMARK SMILES IDX 2 14 3 15 94 16 4 17 5 18 1 19 12 22 13 23 14 24 19 25 15 26
REMARK SMILES IDX 18 27 20 28 16 29 17 30 26 31 27 32 28 33 29 35 30 36 31 37
REMARK SMILES IDX 92 38 32 39 91 40 33 41 34 42 35 43 85 44 36 45 90 46 84 47
REMARK SMILES IDX 86 48 37 49 89 50 83 51 82 52 38 54 70 55 50 56 69 57 51 58
REMARK SMILES IDX 54 59 68 60 87 61 52 62 53 63 67 65 88 66 55 67 39 68 40 69
REMARK SMILES IDX 48 70 41 71 42 72 46 73 49 74 43 75 44 76 47 77 45 78 71 79
REMARK SMILES IDX 72 80 80 81 73 82 74 83 78 84 81 85 75 86 76 87 79 88 77 89
REMARK SMILES IDX 56 90 57 91 65 92 58 93 59 94 63 95 66 96 60 97 61 98 64 99
REMARK SMILES IDX 62 100
REMARK H PARENT 23 6 1 20 1 21 27 34 86 53 54 64
REMARK Flexibility Score: inf
ROOT
ATOM      1  C   UNL A   1      38.401  19.598  25.321  1.00  0.00     0.042 C 
ENDROOT
BRANCH   1   2
ATOM      2  C   UNL A   1      37.725  20.737  24.602  1.00  0.00     0.117 C 
BRANCH   2   3
ATOM      3  N   UNL A   1      37.989  22.049  25.137  1.00  0.00    -0.355 N 
ATOM      4  C   UNL A   1      37.107  23.011  25.529  1.00  0.00     0.228 C 
ATOM      5  O   UNL A   1      37.558  23.855  26.310  1.00  0.00    -0.274 OA
ATOM      6  H   UNL A   1      38.940  22.282  25.235  1.00  0.00     0.163 HD
BRANCH   4   7
ATOM      7  C   UNL A   1      35.646  23.060  25.029  1.00  0.00     0.071 C 
ATOM      8  N   UNL A   1      33.850  24.704  24.755  1.00  0.00    -0.355 N 
ATOM      9  C   UNL A   1      33.786  24.712  23.309  1.00  0.00     0.118 C 
ATOM     10  C   UNL A   1      35.166  24.520  25.354  1.00  0.00     0.135 C 
ATOM     11  C   UNL A   1      34.262  23.350  22.827  1.00  0.00     0.023 C 
ATOM     12  C   UNL A   1      35.585  22.927  23.474  1.00  0.00     0.021 C 
BRANCH   8  13
ATOM     13  C   UNL A   1      32.894  25.397  25.469  1.00  0.00     0.134 A 
ATOM     14  C   UNL A   1      30.737  25.683  26.158  1.00  0.00     0.221 A 
ATOM     15  N   UNL A   1      30.990  26.854  26.749  1.00  0.00    -0.222 NA
ATOM     16  N   UNL A   1      31.634  24.942  25.502  1.00  0.00    -0.196 NA
ATOM     17  C   UNL A   1      32.256  27.290  26.680  1.00  0.00     0.119 A 
ATOM     18  C   UNL A   1      33.258  26.586  26.068  1.00  0.00     0.067 A 
BRANCH  14  19
ATOM     19  N   UNL A   1      29.463  25.202  26.243  1.00  0.00    -0.368 N 
ATOM     20  H   UNL A   1      28.910  25.411  27.029  1.00  0.00     0.159 HD
ATOM     21  H   UNL A   1      29.097  24.648  25.516  1.00  0.00     0.159 HD
ENDBRANCH  14  19
ENDBRANCH   8  13
BRANCH   7  22
ATOM     22  C   UNL A   1      34.697  22.116  25.854  1.00  0.00     0.057 C 
BRANCH  22  23
ATOM     23  C   UNL A   1      34.072  20.892  25.227  1.00  0.00    -0.011 A 
ATOM     24  C   UNL A   1      34.810  19.704  25.081  1.00  0.00     0.010 A 
ATOM     25  C   UNL A   1      32.754  20.919  24.751  1.00  0.00     0.129 A 
ATOM     26  C   UNL A   1      34.268  18.620  24.381  1.00  0.00     0.040 A 
ATOM     27  C   UNL A   1      32.208  19.844  24.057  1.00  0.00     0.078 A 
ATOM     28  F   UNL A   1      32.007  22.018  24.912  1.00  0.00    -0.207 F 
ATOM     29  C   UNL A   1      32.981  18.711  23.858  1.00  0.00     0.126 A 
ATOM     30  F   UNL A   1      32.489  17.698  23.134  1.00  0.00    -0.207 F 
ENDBRANCH  22  23
ENDBRANCH   7  22
ENDBRANCH   4   7
ENDBRANCH   2   3
ENDBRANCH   1   2
BRANCH   1  31
ATOM     31  C   UNL A   1      39.655  20.043  26.049  1.00  0.00     0.118 C 
BRANCH  31  32
ATOM     32  N   UNL A   1      40.739  19.058  25.989  1.00  0.00    -0.352 N 
ATOM     33  C   UNL A   1      42.100  19.219  25.997  1.00  0.00     0.251 C 
ATOM     34  H   UNL A   1      40.437  18.123  25.934  1.00  0.00     0.163 HD
ATOM     35  O   UNL A   1      42.834  18.264  25.753  1.00  0.00    -0.269 OA
BRANCH  33  36
ATOM     36  C   UNL A   1      42.677  20.543  26.286  1.00  0.00     0.039 A 
ATOM     37  C   UNL A   1      43.101  21.357  25.235  1.00  0.00     0.014 A 
ATOM     38  C   UNL A   1      42.772  20.988  27.605  1.00  0.00     0.014 A 
ATOM     39  C   UNL A   1      43.534  22.654  25.510  1.00  0.00     0.010 A 
ATOM     40  C   UNL A   1      43.055  22.318  27.859  1.00  0.00     0.010 A 
ATOM     41  C   UNL A   1      43.460  23.160  26.819  1.00  0.00    -0.014 A 
BRANCH  41  42
ATOM     42  C   UNL A   1      43.809  24.564  27.131  1.00  0.00     0.031 A 
ATOM     43  C   UNL A   1      45.211  25.057  26.907  1.00  0.00     0.074 A 
ATOM     44  C   UNL A   1      42.880  25.369  27.681  1.00  0.00     0.049 A 
ATOM     45  N   UNL A   1      45.721  26.237  27.153  1.00  0.00    -0.248 NA
ATOM     46  C   UNL A   1      46.182  24.087  26.373  1.00  0.00     0.031 C 
ATOM     47  C   UNL A   1      41.510  24.972  28.008  1.00  0.00     0.029 A 
ATOM     48  N   UNL A   1      42.944  26.686  28.056  1.00  0.00    -0.354 N 
ATOM     49  C   UNL A   1      47.063  26.142  26.813  1.00  0.00     0.074 A 
ATOM     50  C   UNL A   1      47.314  24.772  26.431  1.00  0.00     0.031 C 
ATOM     51  C   UNL A   1      40.843  26.039  28.476  1.00  0.00     0.029 A 
ATOM     52  C   UNL A   1      41.752  27.181  28.524  1.00  0.00     0.049 A 
ATOM     53  H   UNL A   1      43.766  27.225  27.996  1.00  0.00     0.167 HD
ATOM     54  C   UNL A   1      47.994  27.124  26.777  1.00  0.00     0.037 A 
ATOM     55  C   UNL A   1      41.426  28.422  28.933  1.00  0.00     0.037 A 
ATOM     56  C   UNL A   1      47.725  28.488  27.137  1.00  0.00     0.049 A 
ATOM     57  C   UNL A   1      42.475  29.497  28.896  1.00  0.00     0.074 A 
ATOM     58  C   UNL A   1      48.579  29.575  27.098  1.00  0.00     0.029 A 
ATOM     59  N   UNL A   1      46.503  28.952  27.606  1.00  0.00    -0.354 N 
ATOM     60  N   UNL A   1      43.725  29.416  28.509  1.00  0.00    -0.248 NA
ATOM     61  C   UNL A   1      42.072  30.834  29.349  1.00  0.00     0.031 C 
ATOM     62  C   UNL A   1      47.891  30.685  27.594  1.00  0.00     0.029 A 
ATOM     63  C   UNL A   1      46.587  30.307  27.881  1.00  0.00     0.049 A 
ATOM     64  H   UNL A   1      45.697  28.401  27.725  1.00  0.00     0.167 HD
ATOM     65  C   UNL A   1      44.252  30.692  28.640  1.00  0.00     0.074 A 
ATOM     66  C   UNL A   1      43.182  31.532  29.141  1.00  0.00     0.031 C 
ATOM     67  C   UNL A   1      45.506  31.128  28.367  1.00  0.00     0.037 A 
BRANCH  54  68
ATOM     68  C   UNL A   1      49.375  26.755  26.314  1.00  0.00     0.064 A 
ATOM     69  C   UNL A   1      50.324  26.254  27.218  1.00  0.00     0.173 A 
ATOM     70  C   UNL A   1      49.772  26.925  24.978  1.00  0.00     0.173 A 
ATOM     71  F   UNL A   1      50.003  26.075  28.508  1.00  0.00    -0.203 F 
ATOM     72  C   UNL A   1      51.616  25.939  26.802  1.00  0.00     0.198 A 
ATOM     73  C   UNL A   1      51.052  26.572  24.558  1.00  0.00     0.198 A 
ATOM     74  F   UNL A   1      48.902  27.388  24.067  1.00  0.00    -0.203 F 
ATOM     75  F   UNL A   1      52.512  25.486  27.689  1.00  0.00    -0.200 F 
ATOM     76  C   UNL A   1      51.975  26.089  25.471  1.00  0.00     0.200 A 
ATOM     77  F   UNL A   1      51.385  26.685  23.264  1.00  0.00    -0.200 F 
ATOM     78  F   UNL A   1      53.210  25.759  25.067  1.00  0.00    -0.200 F 
ENDBRANCH  54  68
BRANCH  55  79
ATOM     79  C   UNL A   1      40.022  28.709  29.326  1.00  0.00     0.064 A 
ATOM     80  C   UNL A   1      39.561  28.476  30.630  1.00  0.00     0.173 A 
ATOM     81  C   UNL A   1      39.091  29.143  28.373  1.00  0.00     0.173 A 
ATOM     82  F   UNL A   1      40.410  28.046  31.575  1.00  0.00    -0.203 F 
ATOM     83  C   UNL A   1      38.216  28.637  30.958  1.00  0.00     0.198 A 
ATOM     84  C   UNL A   1      37.751  29.329  28.708  1.00  0.00     0.198 A 
ATOM     85  F   UNL A   1      39.486  29.390  27.116  1.00  0.00    -0.203 F 
ATOM     86  F   UNL A   1      37.793  28.359  32.198  1.00  0.00    -0.200 F 
ATOM     87  C   UNL A   1      37.313  29.065  29.996  1.00  0.00     0.200 A 
ATOM     88  F   UNL A   1      36.884  29.758  27.780  1.00  0.00    -0.200 F 
ATOM     89  F   UNL A   1      36.019  29.217  30.311  1.00  0.00    -0.200 F 
ENDBRANCH  55  79
BRANCH  67  90
ATOM     90  C   UNL A   1      45.800  32.584  28.568  1.00  0.00     0.064 A 
ATOM     91  C   UNL A   1      45.637  33.489  27.507  1.00  0.00     0.173 A 
ATOM     92  C   UNL A   1      46.351  33.064  29.764  1.00  0.00     0.173 A 
ATOM     93  F   UNL A   1      45.123  33.074  26.339  1.00  0.00    -0.203 F 
ATOM     94  C   UNL A   1      46.041  34.814  27.627  1.00  0.00     0.198 A 
ATOM     95  C   UNL A   1      46.724  34.400  29.891  1.00  0.00     0.198 A 
ATOM     96  F   UNL A   1      46.516  32.241  30.810  1.00  0.00    -0.203 F 
ATOM     97  F   UNL A   1      45.921  35.647  26.584  1.00  0.00    -0.200 F 
ATOM     98  C   UNL A   1      46.583  35.269  28.820  1.00  0.00     0.200 A 
ATOM     99  F   UNL A   1      47.228  34.843  31.051  1.00  0.00    -0.200 F 
ATOM    100  F   UNL A   1      46.971  36.546  28.936  1.00  0.00    -0.200 F 
ENDBRANCH  67  90
ENDBRANCH  41  42
ENDBRANCH  33  36
ENDBRANCH  31  32
ENDBRANCH   1  31
TORSDOF 14
ENDMDL
