MODEL 1
REMARK VINA RESULT:     -10.9      0.000      0.000
REMARK SMILES O=C(NCCCNC(=O)[C@H]1[C@H]2C[C@@H]3[C@@H](OC(=O)[C@@H]31)[C@@H]2Sc1ccccc1)c1ccc(-c2c3nc(c(-c4c(F)c(F)c(F)c(F)c4F)c4ccc([nH]4)c(-c4c(F)c(F)c(F)c(F)c4F)c4nc(c(-c5c(F)c(F)c(F)c(F)c5F)c5ccc2[nH]5)C=C4)C=C3)cc1
REMARK SMILES IDX 5 1 4 2 3 3 1 4 2 5 27 7 28 8 89 9 29 10 88 11 30 12 31 13
REMARK SMILES IDX 32 14 82 15 33 16 87 17 81 18 83 19 34 20 86 21 80 22 79 23
REMARK SMILES IDX 35 25 67 26 47 27 66 28 48 29 51 30 65 31 84 32 49 33 50 34
REMARK SMILES IDX 64 36 85 37 52 38 36 39 37 40 45 41 38 42 39 43 43 44 46 45
REMARK SMILES IDX 40 46 41 47 44 48 42 49 68 50 69 51 77 52 70 53 71 54 75 55
REMARK SMILES IDX 78 56 72 57 73 58 76 59 74 60 53 61 54 62 62 63 55 64 56 65
REMARK SMILES IDX 60 66 63 67 57 68 58 69 61 70 59 71 6 72 7 73 8 74 9 76
REMARK SMILES IDX 10 77 11 78 18 79 12 80 19 81 13 82 16 83 14 84 15 85 17 86
REMARK SMILES IDX 20 87 21 88 22 89 26 90 23 91 25 92 24 93
REMARK H PARENT 3 6 83 24 51 35 7 75
REMARK Flexibility Score: inf
ROOT
ATOM      1  C   UNL A   1      34.930  33.364  28.052  1.00  0.00     0.042 C 
ENDROOT
BRANCH   1   2
ATOM      2  C   UNL A   1      34.359  32.272  28.932  1.00  0.00     0.118 C 
BRANCH   2   3
ATOM      3  N   UNL A   1      33.900  31.126  28.142  1.00  0.00    -0.352 N 
ATOM      4  O   UNL A   1      34.075  29.401  26.701  1.00  0.00    -0.269 OA
ATOM      5  C   UNL A   1      34.599  30.090  27.569  1.00  0.00     0.251 C 
ATOM      6  H   UNL A   1      32.927  31.092  27.997  1.00  0.00     0.163 HD
BRANCH   5   7
ATOM      7  C   UNL A   1      35.985  29.821  27.994  1.00  0.00     0.039 A 
ATOM      8  C   UNL A   1      37.033  30.130  27.135  1.00  0.00     0.014 A 
ATOM      9  C   UNL A   1      36.253  29.277  29.253  1.00  0.00     0.014 A 
ATOM     10  C   UNL A   1      38.305  29.675  27.409  1.00  0.00     0.010 A 
ATOM     11  C   UNL A   1      37.575  28.990  29.612  1.00  0.00     0.010 A 
ATOM     12  C   UNL A   1      38.607  29.158  28.675  1.00  0.00    -0.014 A 
BRANCH  12  13
ATOM     13  C   UNL A   1      40.033  28.915  28.998  1.00  0.00     0.031 A 
ATOM     14  C   UNL A   1      40.817  29.871  29.845  1.00  0.00     0.074 A 
ATOM     15  C   UNL A   1      40.588  27.766  28.561  1.00  0.00     0.049 A 
ATOM     16  N   UNL A   1      42.066  29.791  30.231  1.00  0.00    -0.248 NA
ATOM     17  C   UNL A   1      40.120  31.078  30.316  1.00  0.00     0.031 C 
ATOM     18  C   UNL A   1      39.908  26.765  27.729  1.00  0.00     0.029 A 
ATOM     19  N   UNL A   1      41.825  27.221  28.777  1.00  0.00    -0.354 N 
ATOM     20  C   UNL A   1      42.310  30.941  30.970  1.00  0.00     0.074 A 
ATOM     21  C   UNL A   1      41.090  31.719  30.954  1.00  0.00     0.031 C 
ATOM     22  C   UNL A   1      40.704  25.701  27.573  1.00  0.00     0.029 A 
ATOM     23  C   UNL A   1      41.989  25.988  28.193  1.00  0.00     0.049 A 
ATOM     24  H   UNL A   1      42.529  27.669  29.300  1.00  0.00     0.167 HD
ATOM     25  C   UNL A   1      43.449  31.300  31.607  1.00  0.00     0.037 A 
ATOM     26  C   UNL A   1      43.067  25.189  28.130  1.00  0.00     0.037 A 
ATOM     27  C   UNL A   1      44.653  30.506  31.613  1.00  0.00     0.049 A 
ATOM     28  C   UNL A   1      44.329  25.646  28.796  1.00  0.00     0.074 A 
ATOM     29  C   UNL A   1      45.863  30.775  32.229  1.00  0.00     0.029 A 
ATOM     30  N   UNL A   1      44.800  29.285  30.965  1.00  0.00    -0.354 N 
ATOM     31  N   UNL A   1      44.546  26.730  29.501  1.00  0.00    -0.248 NA
ATOM     32  C   UNL A   1      45.499  24.775  28.653  1.00  0.00     0.031 C 
ATOM     33  C   UNL A   1      46.756  29.748  31.909  1.00  0.00     0.029 A 
ATOM     34  C   UNL A   1      46.086  28.802  31.149  1.00  0.00     0.049 A 
ATOM     35  H   UNL A   1      44.093  28.831  30.452  1.00  0.00     0.167 HD
ATOM     36  C   UNL A   1      45.869  26.662  29.904  1.00  0.00     0.074 A 
ATOM     37  C   UNL A   1      46.397  25.415  29.387  1.00  0.00     0.031 C 
ATOM     38  C   UNL A   1      46.587  27.554  30.630  1.00  0.00     0.037 A 
BRANCH  25  39
ATOM     39  C   UNL A   1      43.460  32.618  32.331  1.00  0.00     0.064 A 
ATOM     40  C   UNL A   1      43.736  33.824  31.669  1.00  0.00     0.173 A 
ATOM     41  C   UNL A   1      43.149  32.680  33.698  1.00  0.00     0.173 A 
ATOM     42  F   UNL A   1      44.052  33.821  30.364  1.00  0.00    -0.203 F 
ATOM     43  C   UNL A   1      43.724  35.038  32.352  1.00  0.00     0.198 A 
ATOM     44  C   UNL A   1      43.106  33.899  34.372  1.00  0.00     0.198 A 
ATOM     45  F   UNL A   1      42.874  31.560  34.381  1.00  0.00    -0.203 F 
ATOM     46  F   UNL A   1      44.039  36.170  31.709  1.00  0.00    -0.200 F 
ATOM     47  C   UNL A   1      43.402  35.075  33.700  1.00  0.00     0.200 A 
ATOM     48  F   UNL A   1      42.781  33.934  35.671  1.00  0.00    -0.200 F 
ATOM     49  F   UNL A   1      43.383  36.245  34.355  1.00  0.00    -0.200 F 
ENDBRANCH  25  39
BRANCH  26  50
ATOM     50  C   UNL A   1      43.003  23.909  27.377  1.00  0.00     0.064 A 
ATOM     51  C   UNL A   1      42.563  22.728  27.991  1.00  0.00     0.173 A 
ATOM     52  C   UNL A   1      43.383  23.839  26.027  1.00  0.00     0.173 A 
ATOM     53  F   UNL A   1      42.201  22.740  29.281  1.00  0.00    -0.203 F 
ATOM     54  C   UNL A   1      42.536  21.523  27.292  1.00  0.00     0.198 A 
ATOM     55  C   UNL A   1      43.315  22.643  25.319  1.00  0.00     0.198 A 
ATOM     56  F   UNL A   1      43.800  24.942  25.387  1.00  0.00    -0.203 F 
ATOM     57  F   UNL A   1      42.167  20.398  27.919  1.00  0.00    -0.200 F 
ATOM     58  C   UNL A   1      42.905  21.482  25.956  1.00  0.00     0.200 A 
ATOM     59  F   UNL A   1      43.648  22.615  24.022  1.00  0.00    -0.200 F 
ATOM     60  F   UNL A   1      42.873  20.323  25.284  1.00  0.00    -0.200 F 
ENDBRANCH  26  50
BRANCH  38  61
ATOM     61  C   UNL A   1      48.007  27.182  30.945  1.00  0.00     0.064 A 
ATOM     62  C   UNL A   1      49.076  27.600  30.140  1.00  0.00     0.173 A 
ATOM     63  C   UNL A   1      48.299  26.405  32.076  1.00  0.00     0.173 A 
ATOM     64  F   UNL A   1      48.848  28.327  29.035  1.00  0.00    -0.203 F 
ATOM     65  C   UNL A   1      50.384  27.224  30.437  1.00  0.00     0.198 A 
ATOM     66  C   UNL A   1      49.610  26.063  32.391  1.00  0.00     0.198 A 
ATOM     67  F   UNL A   1      47.313  25.984  32.881  1.00  0.00    -0.203 F 
ATOM     68  F   UNL A   1      51.382  27.580  29.618  1.00  0.00    -0.200 F 
ATOM     69  C   UNL A   1      50.650  26.463  31.565  1.00  0.00     0.200 A 
ATOM     70  F   UNL A   1      49.868  25.341  33.490  1.00  0.00    -0.200 F 
ATOM     71  F   UNL A   1      51.910  26.106  31.852  1.00  0.00    -0.200 F 
ENDBRANCH  38  61
ENDBRANCH  12  13
ENDBRANCH   5   7
ENDBRANCH   2   3
ENDBRANCH   1   2
BRANCH   1  72
ATOM     72  C   UNL A   1      35.304  34.573  28.879  1.00  0.00     0.117 C 
BRANCH  72  73
ATOM     73  N   UNL A   1      36.721  34.600  29.223  1.00  0.00    -0.356 N 
ATOM     74  C   UNL A   1      37.471  34.135  30.248  1.00  0.00     0.224 C 
ATOM     75  H   UNL A   1      37.261  35.068  28.545  1.00  0.00     0.163 HD
ATOM     76  O   UNL A   1      38.695  34.235  30.106  1.00  0.00    -0.275 OA
BRANCH  74  77
ATOM     77  C   UNL A   1      36.930  33.517  31.534  1.00  0.00     0.097 C 
ATOM     78  C   UNL A   1      37.921  33.183  32.666  1.00  0.00     0.020 C 
ATOM     79  C   UNL A   1      35.942  34.479  32.249  1.00  0.00     0.119 C 
ATOM     80  C   UNL A   1      38.058  34.574  33.318  1.00  0.00     0.014 C 
ATOM     81  C   UNL A   1      37.162  32.359  33.728  1.00  0.00     0.097 C 
ATOM     82  C   UNL A   1      36.595  34.709  33.613  1.00  0.00     0.047 C 
ATOM     83  C   UNL A   1      34.681  33.783  32.672  1.00  0.00     0.310 C 
ATOM     84  C   UNL A   1      36.211  33.422  34.334  1.00  0.00     0.194 C 
ATOM     85  O   UNL A   1      34.863  33.203  33.903  1.00  0.00    -0.461 OA
ATOM     86  O   UNL A   1      33.652  33.702  32.019  1.00  0.00    -0.252 OA
BRANCH  81  87
ATOM     87  S   UNL A   1      38.192  31.380  34.909  1.00  0.00    -0.119 SA
BRANCH  87  88
ATOM     88  C   UNL A   1      38.819  30.005  33.968  1.00  0.00     0.008 A 
ATOM     89  C   UNL A   1      37.953  29.210  33.206  1.00  0.00     0.015 A 
ATOM     90  C   UNL A   1      40.171  29.655  34.039  1.00  0.00     0.015 A 
ATOM     91  C   UNL A   1      38.443  28.116  32.486  1.00  0.00     0.001 A 
ATOM     92  C   UNL A   1      40.666  28.581  33.296  1.00  0.00     0.001 A 
ATOM     93  C   UNL A   1      39.802  27.811  32.519  1.00  0.00     0.000 A 
ENDBRANCH  87  88
ENDBRANCH  81  87
ENDBRANCH  74  77
ENDBRANCH  72  73
ENDBRANCH   1  72
TORSDOF 12
ENDMDL
MODEL 2
REMARK VINA RESULT:     -10.9      0.079      1.674
REMARK SMILES O=C(NCCCNC(=O)[C@H]1[C@H]2C[C@@H]3[C@@H](OC(=O)[C@@H]31)[C@@H]2Sc1ccccc1)c1ccc(-c2c3nc(c(-c4c(F)c(F)c(F)c(F)c4F)c4ccc([nH]4)c(-c4c(F)c(F)c(F)c(F)c4F)c4nc(c(-c5c(F)c(F)c(F)c(F)c5F)c5ccc2[nH]5)C=C4)C=C3)cc1
REMARK SMILES IDX 5 1 4 2 3 3 1 4 2 5 27 7 28 8 89 9 29 10 88 11 30 12 31 13
REMARK SMILES IDX 32 14 82 15 33 16 87 17 81 18 83 19 34 20 86 21 80 22 79 23
REMARK SMILES IDX 35 25 67 26 47 27 66 28 48 29 51 30 65 31 84 32 49 33 50 34
REMARK SMILES IDX 64 36 85 37 52 38 36 39 37 40 45 41 38 42 39 43 43 44 46 45
REMARK SMILES IDX 40 46 41 47 44 48 42 49 68 50 69 51 77 52 70 53 71 54 75 55
REMARK SMILES IDX 78 56 72 57 73 58 76 59 74 60 53 61 54 62 62 63 55 64 56 65
REMARK SMILES IDX 60 66 63 67 57 68 58 69 61 70 59 71 6 72 7 73 8 74 9 76
REMARK SMILES IDX 10 77 11 78 18 79 12 80 19 81 13 82 16 83 14 84 15 85 17 86
REMARK SMILES IDX 20 87 21 88 22 89 26 90 23 91 25 92 24 93
REMARK H PARENT 3 6 83 24 51 35 7 75
REMARK Flexibility Score: inf
ROOT
ATOM      1  C   UNL A   1      35.009  33.287  28.029  1.00  0.00     0.042 C 
ENDROOT
BRANCH   1   2
ATOM      2  C   UNL A   1      34.329  32.247  28.894  1.00  0.00     0.118 C 
BRANCH   2   3
ATOM      3  N   UNL A   1      33.880  31.096  28.104  1.00  0.00    -0.352 N 
ATOM      4  O   UNL A   1      34.071  29.371  26.665  1.00  0.00    -0.269 OA
ATOM      5  C   UNL A   1      34.588  30.065  27.534  1.00  0.00     0.251 C 
ATOM      6  H   UNL A   1      32.908  31.055  27.956  1.00  0.00     0.163 HD
BRANCH   5   7
ATOM      7  C   UNL A   1      35.975  29.807  27.963  1.00  0.00     0.039 A 
ATOM      8  C   UNL A   1      37.023  30.125  27.107  1.00  0.00     0.014 A 
ATOM      9  C   UNL A   1      36.243  29.263  29.223  1.00  0.00     0.014 A 
ATOM     10  C   UNL A   1      38.298  29.679  27.385  1.00  0.00     0.010 A 
ATOM     11  C   UNL A   1      37.566  28.986  29.585  1.00  0.00     0.010 A 
ATOM     12  C   UNL A   1      38.600  29.163  28.652  1.00  0.00    -0.014 A 
BRANCH  12  13
ATOM     13  C   UNL A   1      40.026  28.931  28.979  1.00  0.00     0.031 A 
ATOM     14  C   UNL A   1      40.802  29.896  29.824  1.00  0.00     0.074 A 
ATOM     15  C   UNL A   1      40.590  27.783  28.549  1.00  0.00     0.049 A 
ATOM     16  N   UNL A   1      42.050  29.826  30.213  1.00  0.00    -0.248 NA
ATOM     17  C   UNL A   1      40.096  31.100  30.288  1.00  0.00     0.031 C 
ATOM     18  C   UNL A   1      39.918  26.775  27.719  1.00  0.00     0.029 A 
ATOM     19  N   UNL A   1      41.830  27.248  28.770  1.00  0.00    -0.354 N 
ATOM     20  C   UNL A   1      42.285  30.980  30.947  1.00  0.00     0.074 A 
ATOM     21  C   UNL A   1      41.061  31.750  30.926  1.00  0.00     0.031 C 
ATOM     22  C   UNL A   1      40.722  25.715  27.570  1.00  0.00     0.029 A 
ATOM     23  C   UNL A   1      42.003  26.013  28.192  1.00  0.00     0.049 A 
ATOM     24  H   UNL A   1      42.529  27.703  29.292  1.00  0.00     0.167 HD
ATOM     25  C   UNL A   1      43.421  31.350  31.586  1.00  0.00     0.037 A 
ATOM     26  C   UNL A   1      43.086  25.221  28.135  1.00  0.00     0.037 A 
ATOM     27  C   UNL A   1      44.629  30.564  31.598  1.00  0.00     0.049 A 
ATOM     28  C   UNL A   1      44.344  25.689  28.802  1.00  0.00     0.074 A 
ATOM     29  C   UNL A   1      45.836  30.843  32.216  1.00  0.00     0.029 A 
ATOM     30  N   UNL A   1      44.785  29.341  30.956  1.00  0.00    -0.354 N 
ATOM     31  N   UNL A   1      44.552  26.778  29.502  1.00  0.00    -0.248 NA
ATOM     32  C   UNL A   1      45.520  24.825  28.666  1.00  0.00     0.031 C 
ATOM     33  C   UNL A   1      46.736  29.820  31.902  1.00  0.00     0.029 A 
ATOM     34  C   UNL A   1      46.075  28.867  31.145  1.00  0.00     0.049 A 
ATOM     35  H   UNL A   1      44.083  28.880  30.443  1.00  0.00     0.167 HD
ATOM     36  C   UNL A   1      45.875  26.720  29.909  1.00  0.00     0.074 A 
ATOM     37  C   UNL A   1      46.412  25.474  29.400  1.00  0.00     0.031 C 
ATOM     38  C   UNL A   1      46.584  27.620  30.633  1.00  0.00     0.037 A 
BRANCH  25  39
ATOM     39  C   UNL A   1      43.421  32.670  32.304  1.00  0.00     0.064 A 
ATOM     40  C   UNL A   1      43.720  33.872  31.644  1.00  0.00     0.173 A 
ATOM     41  C   UNL A   1      43.077  32.741  33.662  1.00  0.00     0.173 A 
ATOM     42  F   UNL A   1      44.069  33.862  30.347  1.00  0.00    -0.203 F 
ATOM     43  C   UNL A   1      43.699  35.090  32.321  1.00  0.00     0.198 A 
ATOM     44  C   UNL A   1      43.024  33.963  34.330  1.00  0.00     0.198 A 
ATOM     45  F   UNL A   1      42.778  31.625  34.344  1.00  0.00    -0.203 F 
ATOM     46  F   UNL A   1      44.036  36.217  31.680  1.00  0.00    -0.200 F 
ATOM     47  C   UNL A   1      43.343  35.135  33.660  1.00  0.00     0.200 A 
ATOM     48  F   UNL A   1      42.667  34.006  35.621  1.00  0.00    -0.200 F 
ATOM     49  F   UNL A   1      43.315  36.308  34.309  1.00  0.00    -0.200 F 
ENDBRANCH  25  39
BRANCH  26  50
ATOM     50  C   UNL A   1      43.032  23.937  27.388  1.00  0.00     0.064 A 
ATOM     51  C   UNL A   1      43.407  23.867  26.040  1.00  0.00     0.173 A 
ATOM     52  C   UNL A   1      42.603  22.752  28.008  1.00  0.00     0.173 A 
ATOM     53  F   UNL A   1      43.813  24.972  25.399  1.00  0.00    -0.203 F 
ATOM     54  C   UNL A   1      43.324  22.668  25.333  1.00  0.00     0.198 A 
ATOM     55  C   UNL A   1      42.561  21.548  27.312  1.00  0.00     0.198 A 
ATOM     56  F   UNL A   1      42.245  22.760  29.300  1.00  0.00    -0.203 F 
ATOM     57  F   UNL A   1      43.633  22.641  24.029  1.00  0.00    -0.200 F 
ATOM     58  C   UNL A   1      42.908  21.509  25.971  1.00  0.00     0.200 A 
ATOM     59  F   UNL A   1      42.183  20.426  27.940  1.00  0.00    -0.200 F 
ATOM     60  F   UNL A   1      42.834  20.357  25.291  1.00  0.00    -0.200 F 
ENDBRANCH  26  50
BRANCH  38  61
ATOM     61  C   UNL A   1      48.006  27.258  30.953  1.00  0.00     0.064 A 
ATOM     62  C   UNL A   1      48.344  26.530  32.102  1.00  0.00     0.173 A 
ATOM     63  C   UNL A   1      49.043  27.639  30.086  1.00  0.00     0.173 A 
ATOM     64  F   UNL A   1      47.392  26.161  32.973  1.00  0.00    -0.203 F 
ATOM     65  C   UNL A   1      49.672  26.225  32.391  1.00  0.00     0.198 A 
ATOM     66  C   UNL A   1      50.364  27.300  30.359  1.00  0.00     0.198 A 
ATOM     67  F   UNL A   1      48.773  28.333  28.971  1.00  0.00    -0.203 F 
ATOM     68  F   UNL A   1      49.978  25.586  33.527  1.00  0.00    -0.200 F 
ATOM     69  C   UNL A   1      50.679  26.603  31.516  1.00  0.00     0.200 A 
ATOM     70  F   UNL A   1      51.334  27.652  29.504  1.00  0.00    -0.200 F 
ATOM     71  F   UNL A   1      51.956  26.305  31.793  1.00  0.00    -0.200 F 
ENDBRANCH  38  61
ENDBRANCH  12  13
ENDBRANCH   5   7
ENDBRANCH   2   3
ENDBRANCH   1   2
BRANCH   1  72
ATOM     72  C   UNL A   1      35.348  34.516  28.842  1.00  0.00     0.117 C 
BRANCH  72  73
ATOM     73  N   UNL A   1      36.757  34.571  29.210  1.00  0.00    -0.356 N 
ATOM     74  C   UNL A   1      37.498  34.124  30.251  1.00  0.00     0.224 C 
ATOM     75  H   UNL A   1      37.300  35.048  28.541  1.00  0.00     0.163 HD
ATOM     76  O   UNL A   1      38.722  34.248  30.130  1.00  0.00    -0.275 OA
BRANCH  74  77
ATOM     77  C   UNL A   1      36.946  33.500  31.528  1.00  0.00     0.097 C 
ATOM     78  C   UNL A   1      37.926  33.165  32.669  1.00  0.00     0.020 C 
ATOM     79  C   UNL A   1      35.948  34.457  32.238  1.00  0.00     0.119 C 
ATOM     80  C   UNL A   1      38.053  34.554  33.328  1.00  0.00     0.014 C 
ATOM     81  C   UNL A   1      37.159  32.336  33.721  1.00  0.00     0.097 C 
ATOM     82  C   UNL A   1      36.586  34.684  33.609  1.00  0.00     0.047 C 
ATOM     83  C   UNL A   1      34.684  33.756  32.645  1.00  0.00     0.310 C 
ATOM     84  C   UNL A   1      36.199  33.393  34.321  1.00  0.00     0.194 C 
ATOM     85  O   UNL A   1      34.855  33.172  33.876  1.00  0.00    -0.461 OA
ATOM     86  O   UNL A   1      33.663  33.674  31.982  1.00  0.00    -0.252 OA
BRANCH  81  87
ATOM     87  S   UNL A   1      38.180  31.355  34.909  1.00  0.00    -0.119 SA
BRANCH  87  88
ATOM     88  C   UNL A   1      38.772  29.953  33.985  1.00  0.00     0.008 A 
ATOM     89  C   UNL A   1      40.137  29.642  33.961  1.00  0.00     0.015 A 
ATOM     90  C   UNL A   1      37.890  29.192  33.210  1.00  0.00     0.015 A 
ATOM     91  C   UNL A   1      40.603  28.554  33.216  1.00  0.00     0.001 A 
ATOM     92  C   UNL A   1      38.352  28.087  32.490  1.00  0.00     0.001 A 
ATOM     93  C   UNL A   1      39.708  27.768  32.493  1.00  0.00     0.000 A 
ENDBRANCH  87  88
ENDBRANCH  81  87
ENDBRANCH  74  77
ENDBRANCH  72  73
ENDBRANCH   1  72
TORSDOF 12
ENDMDL
MODEL 3
REMARK VINA RESULT:     -10.8      4.159      7.076
REMARK SMILES O=C(NCCCNC(=O)[C@H]1[C@H]2C[C@@H]3[C@@H](OC(=O)[C@@H]31)[C@@H]2Sc1ccccc1)c1ccc(-c2c3nc(c(-c4c(F)c(F)c(F)c(F)c4F)c4ccc([nH]4)c(-c4c(F)c(F)c(F)c(F)c4F)c4nc(c(-c5c(F)c(F)c(F)c(F)c5F)c5ccc2[nH]5)C=C4)C=C3)cc1
REMARK SMILES IDX 5 1 4 2 3 3 1 4 2 5 27 7 28 8 89 9 29 10 88 11 30 12 31 13
REMARK SMILES IDX 32 14 82 15 33 16 87 17 81 18 83 19 34 20 86 21 80 22 79 23
REMARK SMILES IDX 35 25 67 26 47 27 66 28 48 29 51 30 65 31 84 32 49 33 50 34
REMARK SMILES IDX 64 36 85 37 52 38 36 39 37 40 45 41 38 42 39 43 43 44 46 45
REMARK SMILES IDX 40 46 41 47 44 48 42 49 68 50 69 51 77 52 70 53 71 54 75 55
REMARK SMILES IDX 78 56 72 57 73 58 76 59 74 60 53 61 54 62 62 63 55 64 56 65
REMARK SMILES IDX 60 66 63 67 57 68 58 69 61 70 59 71 6 72 7 73 8 74 9 76
REMARK SMILES IDX 10 77 11 78 18 79 12 80 19 81 13 82 16 83 14 84 15 85 17 86
REMARK SMILES IDX 20 87 21 88 22 89 26 90 23 91 25 92 24 93
REMARK H PARENT 3 6 83 24 51 35 7 75
REMARK Flexibility Score: inf
ROOT
ATOM      1  C   UNL A   1      33.271  28.586  23.958  1.00  0.00     0.042 C 
ENDROOT
BRANCH   1   2
ATOM      2  C   UNL A   1      33.681  28.905  25.380  1.00  0.00     0.118 C 
BRANCH   2   3
ATOM      3  N   UNL A   1      33.131  30.189  25.827  1.00  0.00    -0.352 N 
ATOM      4  O   UNL A   1      32.678  31.857  27.274  1.00  0.00    -0.269 OA
ATOM      5  C   UNL A   1      33.450  30.979  26.905  1.00  0.00     0.251 C 
ATOM      6  H   UNL A   1      32.411  30.545  25.258  1.00  0.00     0.163 HD
BRANCH   5   7
ATOM      7  C   UNL A   1      34.719  30.756  27.623  1.00  0.00     0.039 A 
ATOM      8  C   UNL A   1      34.966  29.515  28.200  1.00  0.00     0.014 A 
ATOM      9  C   UNL A   1      35.676  31.770  27.714  1.00  0.00     0.014 A 
ATOM     10  C   UNL A   1      36.026  29.359  29.068  1.00  0.00     0.010 A 
ATOM     11  C   UNL A   1      36.850  31.545  28.440  1.00  0.00     0.010 A 
ATOM     12  C   UNL A   1      37.016  30.346  29.150  1.00  0.00    -0.014 A 
BRANCH  12  13
ATOM     13  C   UNL A   1      38.250  30.022  29.905  1.00  0.00     0.031 A 
ATOM     14  C   UNL A   1      38.472  30.532  31.296  1.00  0.00     0.074 A 
ATOM     15  C   UNL A   1      39.141  29.192  29.324  1.00  0.00     0.049 A 
ATOM     16  N   UNL A   1      39.489  30.323  32.094  1.00  0.00    -0.248 NA
ATOM     17  C   UNL A   1      37.428  31.396  31.870  1.00  0.00     0.031 C 
ATOM     18  C   UNL A   1      39.017  28.637  27.970  1.00  0.00     0.029 A 
ATOM     19  N   UNL A   1      40.300  28.638  29.797  1.00  0.00    -0.354 N 
ATOM     20  C   UNL A   1      39.218  31.042  33.251  1.00  0.00     0.074 A 
ATOM     21  C   UNL A   1      37.957  31.719  33.042  1.00  0.00     0.031 C 
ATOM     22  C   UNL A   1      40.011  27.767  27.754  1.00  0.00     0.029 A 
ATOM     23  C   UNL A   1      40.903  27.787  28.903  1.00  0.00     0.049 A 
ATOM     24  H   UNL A   1      40.666  28.831  30.690  1.00  0.00     0.167 HD
ATOM     25  C   UNL A   1      39.959  31.116  34.383  1.00  0.00     0.037 A 
ATOM     26  C   UNL A   1      42.068  27.123  28.980  1.00  0.00     0.037 A 
ATOM     27  C   UNL A   1      41.212  30.429  34.571  1.00  0.00     0.049 A 
ATOM     28  C   UNL A   1      42.891  27.275  30.224  1.00  0.00     0.074 A 
ATOM     29  C   UNL A   1      42.042  30.432  35.679  1.00  0.00     0.029 A 
ATOM     30  N   UNL A   1      41.820  29.616  33.621  1.00  0.00    -0.354 N 
ATOM     31  N   UNL A   1      42.621  27.949  31.316  1.00  0.00    -0.248 NA
ATOM     32  C   UNL A   1      44.182  26.582  30.246  1.00  0.00     0.031 C 
ATOM     33  C   UNL A   1      43.175  29.670  35.380  1.00  0.00     0.029 A 
ATOM     34  C   UNL A   1      43.024  29.133  34.111  1.00  0.00     0.049 A 
ATOM     35  H   UNL A   1      41.449  29.414  32.732  1.00  0.00     0.167 HD
ATOM     36  C   UNL A   1      43.697  27.745  32.163  1.00  0.00     0.074 A 
ATOM     37  C   UNL A   1      44.611  26.861  31.468  1.00  0.00     0.031 C 
ATOM     38  C   UNL A   1      43.914  28.249  33.403  1.00  0.00     0.037 A 
BRANCH  25  39
ATOM     39  C   UNL A   1      39.448  31.986  35.497  1.00  0.00     0.064 A 
ATOM     40  C   UNL A   1      39.783  33.346  35.587  1.00  0.00     0.173 A 
ATOM     41  C   UNL A   1      38.576  31.464  36.464  1.00  0.00     0.173 A 
ATOM     42  F   UNL A   1      40.624  33.895  34.697  1.00  0.00    -0.203 F 
ATOM     43  C   UNL A   1      39.286  34.142  36.617  1.00  0.00     0.198 A 
ATOM     44  C   UNL A   1      38.054  32.270  37.474  1.00  0.00     0.198 A 
ATOM     45  F   UNL A   1      38.217  30.172  36.425  1.00  0.00    -0.203 F 
ATOM     46  F   UNL A   1      39.661  35.425  36.710  1.00  0.00    -0.200 F 
ATOM     47  C   UNL A   1      38.416  33.606  37.554  1.00  0.00     0.200 A 
ATOM     48  F   UNL A   1      37.202  31.753  38.370  1.00  0.00    -0.200 F 
ATOM     49  F   UNL A   1      37.932  34.374  38.540  1.00  0.00    -0.200 F 
ENDBRANCH  25  39
BRANCH  26  50
ATOM     50  C   UNL A   1      42.534  26.297  27.835  1.00  0.00     0.064 A 
ATOM     51  C   UNL A   1      42.137  24.960  27.697  1.00  0.00     0.173 A 
ATOM     52  C   UNL A   1      43.388  26.829  26.855  1.00  0.00     0.173 A 
ATOM     53  F   UNL A   1      41.332  24.403  28.612  1.00  0.00    -0.203 F 
ATOM     54  C   UNL A   1      42.602  24.179  26.641  1.00  0.00     0.198 A 
ATOM     55  C   UNL A   1      43.817  26.059  25.778  1.00  0.00     0.198 A 
ATOM     56  F   UNL A   1      43.788  28.106  26.932  1.00  0.00    -0.203 F 
ATOM     57  F   UNL A   1      42.254  22.887  26.564  1.00  0.00    -0.200 F 
ATOM     58  C   UNL A   1      43.435  24.730  25.679  1.00  0.00     0.200 A 
ATOM     59  F   UNL A   1      44.601  26.604  24.838  1.00  0.00    -0.200 F 
ATOM     60  F   UNL A   1      43.877  23.979  24.661  1.00  0.00    -0.200 F 
ENDBRANCH  26  50
BRANCH  38  61
ATOM     61  C   UNL A   1      45.171  27.812  34.098  1.00  0.00     0.064 A 
ATOM     62  C   UNL A   1      46.363  28.545  34.001  1.00  0.00     0.173 A 
ATOM     63  C   UNL A   1      45.176  26.649  34.883  1.00  0.00     0.173 A 
ATOM     64  F   UNL A   1      46.416  29.653  33.246  1.00  0.00    -0.203 F 
ATOM     65  C   UNL A   1      47.524  28.109  34.635  1.00  0.00     0.198 A 
ATOM     66  C   UNL A   1      46.328  26.237  35.546  1.00  0.00     0.198 A 
ATOM     67  F   UNL A   1      44.061  25.915  35.013  1.00  0.00    -0.203 F 
ATOM     68  F   UNL A   1      48.667  28.789  34.475  1.00  0.00    -0.200 F 
ATOM     69  C   UNL A   1      47.503  26.962  35.413  1.00  0.00     0.200 A 
ATOM     70  F   UNL A   1      46.302  25.137  36.310  1.00  0.00    -0.200 F 
ATOM     71  F   UNL A   1      48.620  26.546  36.027  1.00  0.00    -0.200 F 
ENDBRANCH  38  61
ENDBRANCH  12  13
ENDBRANCH   5   7
ENDBRANCH   2   3
ENDBRANCH   1   2
BRANCH   1  72
ATOM     72  C   UNL A   1      31.812  28.195  23.900  1.00  0.00     0.117 C 
BRANCH  72  73
ATOM     73  N   UNL A   1      31.440  27.263  24.957  1.00  0.00    -0.356 N 
ATOM     74  C   UNL A   1      31.808  26.009  25.309  1.00  0.00     0.224 C 
ATOM     75  H   UNL A   1      30.757  27.636  25.561  1.00  0.00     0.163 HD
ATOM     76  O   UNL A   1      31.357  25.599  26.384  1.00  0.00    -0.275 OA
BRANCH  74  77
ATOM     77  C   UNL A   1      32.714  25.090  24.495  1.00  0.00     0.097 C 
ATOM     78  C   UNL A   1      32.994  23.671  25.025  1.00  0.00     0.020 C 
ATOM     79  C   UNL A   1      32.103  24.793  23.097  1.00  0.00     0.119 C 
ATOM     80  C   UNL A   1      31.719  22.950  24.540  1.00  0.00     0.014 C 
ATOM     81  C   UNL A   1      34.110  23.055  24.155  1.00  0.00     0.097 C 
ATOM     82  C   UNL A   1      31.946  23.272  23.094  1.00  0.00     0.047 C 
ATOM     83  C   UNL A   1      33.109  24.959  21.994  1.00  0.00     0.310 C 
ATOM     84  C   UNL A   1      33.379  22.837  22.807  1.00  0.00     0.194 C 
ATOM     85  O   UNL A   1      33.814  23.792  21.832  1.00  0.00    -0.461 OA
ATOM     86  O   UNL A   1      33.310  25.978  21.353  1.00  0.00    -0.252 OA
BRANCH  81  87
ATOM     87  S   UNL A   1      35.012  21.608  24.868  1.00  0.00    -0.119 SA
BRANCH  87  88
ATOM     88  C   UNL A   1      36.544  22.262  25.496  1.00  0.00     0.008 A 
ATOM     89  C   UNL A   1      36.632  23.599  25.903  1.00  0.00     0.015 A 
ATOM     90  C   UNL A   1      37.697  21.471  25.518  1.00  0.00     0.015 A 
ATOM     91  C   UNL A   1      37.842  24.119  26.374  1.00  0.00     0.001 A 
ATOM     92  C   UNL A   1      38.898  21.980  26.016  1.00  0.00     0.001 A 
ATOM     93  C   UNL A   1      38.971  23.304  26.445  1.00  0.00     0.000 A 
ENDBRANCH  87  88
ENDBRANCH  81  87
ENDBRANCH  74  77
ENDBRANCH  72  73
ENDBRANCH   1  72
TORSDOF 12
ENDMDL
