MODEL 1
REMARK VINA RESULT:     -12.0      0.000      0.000
REMARK SMILES COc1cc(C(C)C)cc([C@H]([NH3+])C(=O)NCCCNC(=O)c2ccc(-c3c4nc(c(-c5c(F)c(F)c(F)c(F)c5F)c5ccc([nH]5)c(-c5c(F)c(F)c(F)c(F)c5F)c5nc(c(-c6c(F)c(F)c(F)c(F)c6F)c6ccc3[nH]6)C=C5)C=C4)cc2)c1O
REMARK SMILES IDX 17 1 16 2 15 3 13 4 14 5 11 7 10 8 3 9 4 10 85 11 5 12 9 13
REMARK SMILES IDX 2 14 1 15 86 16 6 18 7 19 8 20 12 21 18 25 19 26 20 27 21 29
REMARK SMILES IDX 22 30 23 31 84 32 24 33 83 34 25 35 26 36 27 37 77 38 28 39
REMARK SMILES IDX 82 40 76 41 78 42 29 43 81 44 75 45 74 46 30 48 62 49 42 50
REMARK SMILES IDX 61 51 43 52 46 53 60 54 79 55 44 56 45 57 59 59 80 60 47 61
REMARK SMILES IDX 31 62 32 63 40 64 33 65 34 66 38 67 41 68 35 69 36 70 39 71
REMARK SMILES IDX 37 72 63 73 64 74 72 75 65 76 66 77 70 78 73 79 67 80 68 81
REMARK SMILES IDX 71 82 69 83 48 84 49 85 57 86 50 87 51 88 55 89 58 90 52 91
REMARK SMILES IDX 53 92 56 93 54 94
REMARK H PARENT 15 6 86 17 12 22 12 23 12 24 19 28 78 47 46 58
REMARK Flexibility Score: inf
ROOT
ATOM      1  C   UNL A   1      31.711  31.947  26.682  1.00  0.00     0.042 C 
ENDROOT
BRANCH   1   2
ATOM      2  C   UNL A   1      31.710  30.455  26.952  1.00  0.00     0.118 C 
BRANCH   2   3
ATOM      3  N   UNL A   1      33.011  29.943  27.355  1.00  0.00    -0.351 N 
ATOM      4  C   UNL A   1      33.843  29.047  26.732  1.00  0.00     0.283 C 
ATOM      5  O   UNL A   1      34.999  28.984  27.164  1.00  0.00    -0.268 OA
ATOM      6  H   UNL A   1      33.348  30.295  28.211  1.00  0.00     0.163 HD
BRANCH   4   7
ATOM      7  C   UNL A   1      33.352  28.123  25.583  1.00  0.00     0.306 C 
BRANCH   7   8
ATOM      8  C   UNL A   1      33.373  26.626  25.879  1.00  0.00     0.065 A 
ATOM      9  C   UNL A   1      32.206  24.608  26.595  1.00  0.00     0.161 A 
ATOM     10  C   UNL A   1      33.190  23.806  26.016  1.00  0.00     0.054 A 
ATOM     11  C   UNL A   1      32.275  26.002  26.483  1.00  0.00     0.167 A 
ATOM     12  C   UNL A   1      34.302  24.396  25.406  1.00  0.00    -0.041 A 
ATOM     13  C   UNL A   1      34.424  25.795  25.456  1.00  0.00     0.018 A 
BRANCH   9  14
ATOM     14  O   UNL A   1      31.111  23.990  27.144  1.00  0.00    -0.493 OA
ATOM     15  C   UNL A   1      30.599  22.973  26.277  1.00  0.00     0.278 C 
ENDBRANCH   9  14
BRANCH  11  16
ATOM     16  O   UNL A   1      31.230  26.768  26.920  1.00  0.00    -0.504 OA
ATOM     17  H   UNL A   1      31.386  27.489  27.497  1.00  0.00     0.293 HD
ENDBRANCH  11  16
BRANCH  12  18
ATOM     18  C   UNL A   1      35.329  23.613  24.603  1.00  0.00     0.013 C 
ATOM     19  C   UNL A   1      36.716  23.657  25.230  1.00  0.00     0.012 C 
ATOM     20  C   UNL A   1      34.881  22.173  24.330  1.00  0.00     0.012 C 
ENDBRANCH  12  18
ENDBRANCH   7   8
BRANCH   7  21
ATOM     21  N   UNL A   1      34.097  28.458  24.342  1.00  0.00    -0.343 N 
ATOM     22  H   UNL A   1      33.995  29.453  24.143  1.00  0.00     0.345 HD
ATOM     23  H   UNL A   1      33.723  27.915  23.563  1.00  0.00     0.345 HD
ATOM     24  H   UNL A   1      35.085  28.235  24.467  1.00  0.00     0.345 HD
ENDBRANCH   7  21
ENDBRANCH   4   7
ENDBRANCH   2   3
ENDBRANCH   1   2
BRANCH   1  25
ATOM     25  C   UNL A   1      32.791  32.706  27.441  1.00  0.00     0.118 C 
BRANCH  25  26
ATOM     26  N   UNL A   1      32.454  34.103  27.697  1.00  0.00    -0.352 N 
ATOM     27  C   UNL A   1      32.992  34.995  28.597  1.00  0.00     0.251 C 
ATOM     28  H   UNL A   1      31.728  34.464  27.139  1.00  0.00     0.163 HD
ATOM     29  O   UNL A   1      32.475  36.092  28.761  1.00  0.00    -0.269 OA
BRANCH  27  30
ATOM     30  C   UNL A   1      34.174  34.606  29.394  1.00  0.00     0.039 A 
ATOM     31  C   UNL A   1      33.990  34.149  30.701  1.00  0.00     0.014 A 
ATOM     32  C   UNL A   1      35.453  34.652  28.839  1.00  0.00     0.014 A 
ATOM     33  C   UNL A   1      35.078  33.635  31.410  1.00  0.00     0.010 A 
ATOM     34  C   UNL A   1      36.513  34.046  29.503  1.00  0.00     0.010 A 
ATOM     35  C   UNL A   1      36.334  33.522  30.792  1.00  0.00    -0.014 A 
BRANCH  35  36
ATOM     36  C   UNL A   1      37.471  32.839  31.459  1.00  0.00     0.031 A 
ATOM     37  C   UNL A   1      38.133  31.658  30.804  1.00  0.00     0.074 A 
ATOM     38  C   UNL A   1      37.845  33.223  32.695  1.00  0.00     0.049 A 
ATOM     39  N   UNL A   1      39.065  30.867  31.271  1.00  0.00    -0.248 NA
ATOM     40  C   UNL A   1      37.656  31.295  29.460  1.00  0.00     0.031 C 
ATOM     41  C   UNL A   1      37.238  34.313  33.463  1.00  0.00     0.029 A 
ATOM     42  N   UNL A   1      38.814  32.730  33.533  1.00  0.00    -0.354 N 
ATOM     43  C   UNL A   1      39.270  29.906  30.290  1.00  0.00     0.074 A 
ATOM     44  C   UNL A   1      38.326  30.176  29.227  1.00  0.00     0.031 C 
ATOM     45  C   UNL A   1      37.867  34.424  34.644  1.00  0.00     0.029 A 
ATOM     46  C   UNL A   1      38.889  33.387  34.737  1.00  0.00     0.049 A 
ATOM     47  H   UNL A   1      39.401  31.978  33.293  1.00  0.00     0.167 HD
ATOM     48  C   UNL A   1      40.182  28.905  30.265  1.00  0.00     0.037 A 
ATOM     49  C   UNL A   1      39.685  33.172  35.801  1.00  0.00     0.037 A 
ATOM     50  C   UNL A   1      41.142  28.662  31.309  1.00  0.00     0.049 A 
ATOM     51  C   UNL A   1      40.693  32.056  35.745  1.00  0.00     0.074 A 
ATOM     52  C   UNL A   1      42.157  27.723  31.344  1.00  0.00     0.029 A 
ATOM     53  N   UNL A   1      41.201  29.364  32.504  1.00  0.00    -0.354 N 
ATOM     54  N   UNL A   1      40.929  31.203  34.780  1.00  0.00    -0.248 NA
ATOM     55  C   UNL A   1      41.546  31.876  36.929  1.00  0.00     0.031 C 
ATOM     56  C   UNL A   1      42.804  27.826  32.582  1.00  0.00     0.029 A 
ATOM     57  C   UNL A   1      42.222  28.861  33.296  1.00  0.00     0.049 A 
ATOM     58  H   UNL A   1      40.607  30.108  32.753  1.00  0.00     0.167 HD
ATOM     59  C   UNL A   1      41.970  30.399  35.227  1.00  0.00     0.074 A 
ATOM     60  C   UNL A   1      42.333  30.880  36.543  1.00  0.00     0.031 C 
ATOM     61  C   UNL A   1      42.567  29.354  34.605  1.00  0.00     0.037 A 
BRANCH  48  62
ATOM     62  C   UNL A   1      40.191  28.004  29.064  1.00  0.00     0.064 A 
ATOM     63  C   UNL A   1      40.912  28.331  27.905  1.00  0.00     0.173 A 
ATOM     64  C   UNL A   1      39.498  26.785  29.082  1.00  0.00     0.173 A 
ATOM     65  F   UNL A   1      41.582  29.491  27.831  1.00  0.00    -0.203 F 
ATOM     66  C   UNL A   1      40.914  27.485  26.799  1.00  0.00     0.198 A 
ATOM     67  C   UNL A   1      39.528  25.927  27.986  1.00  0.00     0.198 A 
ATOM     68  F   UNL A   1      38.795  26.421  30.167  1.00  0.00    -0.203 F 
ATOM     69  F   UNL A   1      41.567  27.843  25.686  1.00  0.00    -0.200 F 
ATOM     70  C   UNL A   1      40.227  26.280  26.843  1.00  0.00     0.200 A 
ATOM     71  F   UNL A   1      38.874  24.758  28.034  1.00  0.00    -0.200 F 
ATOM     72  F   UNL A   1      40.236  25.464  25.780  1.00  0.00    -0.200 F 
ENDBRANCH  48  62
BRANCH  49  73
ATOM     73  C   UNL A   1      39.579  34.044  37.000  1.00  0.00     0.064 A 
ATOM     74  C   UNL A   1      38.796  33.663  38.098  1.00  0.00     0.173 A 
ATOM     75  C   UNL A   1      40.252  35.273  37.074  1.00  0.00     0.173 A 
ATOM     76  F   UNL A   1      38.118  32.507  38.066  1.00  0.00    -0.203 F 
ATOM     77  C   UNL A   1      38.674  34.486  39.216  1.00  0.00     0.198 A 
ATOM     78  C   UNL A   1      40.153  36.081  38.204  1.00  0.00     0.198 A 
ATOM     79  F   UNL A   1      41.020  35.680  36.052  1.00  0.00    -0.203 F 
ATOM     80  F   UNL A   1      37.883  34.117  40.233  1.00  0.00    -0.200 F 
ATOM     81  C   UNL A   1      39.357  35.691  39.271  1.00  0.00     0.200 A 
ATOM     82  F   UNL A   1      40.826  37.238  38.259  1.00  0.00    -0.200 F 
ATOM     83  F   UNL A   1      39.243  36.479  40.348  1.00  0.00    -0.200 F 
ENDBRANCH  49  73
BRANCH  61  84
ATOM     84  C   UNL A   1      43.691  28.674  35.333  1.00  0.00     0.064 A 
ATOM     85  C   UNL A   1      45.023  29.084  35.171  1.00  0.00     0.173 A 
ATOM     86  C   UNL A   1      43.428  27.629  36.230  1.00  0.00     0.173 A 
ATOM     87  F   UNL A   1      45.326  30.069  34.312  1.00  0.00    -0.203 F 
ATOM     88  C   UNL A   1      46.053  28.453  35.862  1.00  0.00     0.198 A 
ATOM     89  C   UNL A   1      44.458  27.020  36.941  1.00  0.00     0.198 A 
ATOM     90  F   UNL A   1      42.170  27.204  36.424  1.00  0.00    -0.203 F 
ATOM     91  F   UNL A   1      47.323  28.828  35.655  1.00  0.00    -0.200 F 
ATOM     92  C   UNL A   1      45.769  27.428  36.752  1.00  0.00     0.200 A 
ATOM     93  F   UNL A   1      44.181  26.040  37.811  1.00  0.00    -0.200 F 
ATOM     94  F   UNL A   1      46.762  26.828  37.422  1.00  0.00    -0.200 F 
ENDBRANCH  61  84
ENDBRANCH  35  36
ENDBRANCH  27  30
ENDBRANCH  25  26
ENDBRANCH   1  25
TORSDOF 15
ENDMDL
MODEL 2
REMARK VINA RESULT:     -12.0      0.063      1.621
REMARK SMILES COc1cc(C(C)C)cc([C@H]([NH3+])C(=O)NCCCNC(=O)c2ccc(-c3c4nc(c(-c5c(F)c(F)c(F)c(F)c5F)c5ccc([nH]5)c(-c5c(F)c(F)c(F)c(F)c5F)c5nc(c(-c6c(F)c(F)c(F)c(F)c6F)c6ccc3[nH]6)C=C5)C=C4)cc2)c1O
REMARK SMILES IDX 17 1 16 2 15 3 13 4 14 5 11 7 10 8 3 9 4 10 85 11 5 12 9 13
REMARK SMILES IDX 2 14 1 15 86 16 6 18 7 19 8 20 12 21 18 25 19 26 20 27 21 29
REMARK SMILES IDX 22 30 23 31 84 32 24 33 83 34 25 35 26 36 27 37 77 38 28 39
REMARK SMILES IDX 82 40 76 41 78 42 29 43 81 44 75 45 74 46 30 48 62 49 42 50
REMARK SMILES IDX 61 51 43 52 46 53 60 54 79 55 44 56 45 57 59 59 80 60 47 61
REMARK SMILES IDX 31 62 32 63 40 64 33 65 34 66 38 67 41 68 35 69 36 70 39 71
REMARK SMILES IDX 37 72 63 73 64 74 72 75 65 76 66 77 70 78 73 79 67 80 68 81
REMARK SMILES IDX 71 82 69 83 48 84 49 85 57 86 50 87 51 88 55 89 58 90 52 91
REMARK SMILES IDX 53 92 56 93 54 94
REMARK H PARENT 15 6 86 17 12 22 12 23 12 24 19 28 78 47 46 58
REMARK Flexibility Score: inf
ROOT
ATOM      1  C   UNL A   1      31.683  31.923  26.720  1.00  0.00     0.042 C 
ENDROOT
BRANCH   1   2
ATOM      2  C   UNL A   1      31.731  30.425  26.952  1.00  0.00     0.118 C 
BRANCH   2   3
ATOM      3  N   UNL A   1      33.053  29.944  27.322  1.00  0.00    -0.351 N 
ATOM      4  C   UNL A   1      33.890  29.069  26.678  1.00  0.00     0.283 C 
ATOM      5  O   UNL A   1      35.058  29.032  27.080  1.00  0.00    -0.268 OA
ATOM      6  H   UNL A   1      33.403  30.304  28.170  1.00  0.00     0.163 HD
BRANCH   4   7
ATOM      7  C   UNL A   1      33.394  28.134  25.540  1.00  0.00     0.306 C 
BRANCH   7   8
ATOM      8  C   UNL A   1      33.379  26.643  25.863  1.00  0.00     0.065 A 
ATOM      9  C   UNL A   1      32.161  24.662  26.598  1.00  0.00     0.161 A 
ATOM     10  C   UNL A   1      33.137  23.830  26.049  1.00  0.00     0.054 A 
ATOM     11  C   UNL A   1      32.260  26.052  26.461  1.00  0.00     0.167 A 
ATOM     12  C   UNL A   1      34.269  24.387  25.446  1.00  0.00    -0.041 A 
ATOM     13  C   UNL A   1      34.419  25.783  25.472  1.00  0.00     0.018 A 
BRANCH   9  14
ATOM     14  O   UNL A   1      31.045  24.077  27.140  1.00  0.00    -0.493 OA
ATOM     15  C   UNL A   1      30.621  22.950  26.367  1.00  0.00     0.278 C 
ENDBRANCH   9  14
BRANCH  11  16
ATOM     16  O   UNL A   1      31.224  26.847  26.868  1.00  0.00    -0.504 OA
ATOM     17  H   UNL A   1      31.261  27.277  27.700  1.00  0.00     0.293 HD
ENDBRANCH  11  16
BRANCH  12  18
ATOM     18  C   UNL A   1      35.293  23.568  24.673  1.00  0.00     0.013 C 
ATOM     19  C   UNL A   1      36.693  23.678  25.262  1.00  0.00     0.012 C 
ATOM     20  C   UNL A   1      34.865  22.105  24.508  1.00  0.00     0.012 C 
ENDBRANCH  12  18
ENDBRANCH   7   8
BRANCH   7  21
ATOM     21  N   UNL A   1      34.159  28.430  24.302  1.00  0.00    -0.343 N 
ATOM     22  H   UNL A   1      33.512  28.669  23.550  1.00  0.00     0.345 HD
ATOM     23  H   UNL A   1      34.704  27.610  24.034  1.00  0.00     0.345 HD
ATOM     24  H   UNL A   1      34.789  29.216  24.470  1.00  0.00     0.345 HD
ENDBRANCH   7  21
ENDBRANCH   4   7
ENDBRANCH   2   3
ENDBRANCH   1   2
BRANCH   1  25
ATOM     25  C   UNL A   1      32.784  32.691  27.439  1.00  0.00     0.118 C 
BRANCH  25  26
ATOM     26  N   UNL A   1      32.453  34.091  27.689  1.00  0.00    -0.352 N 
ATOM     27  C   UNL A   1      32.997  34.985  28.583  1.00  0.00     0.251 C 
ATOM     28  H   UNL A   1      31.727  34.452  27.131  1.00  0.00     0.163 HD
ATOM     29  O   UNL A   1      32.486  36.085  28.743  1.00  0.00    -0.269 OA
BRANCH  27  30
ATOM     30  C   UNL A   1      34.180  34.594  29.380  1.00  0.00     0.039 A 
ATOM     31  C   UNL A   1      33.996  34.142  30.688  1.00  0.00     0.014 A 
ATOM     32  C   UNL A   1      35.458  34.634  28.822  1.00  0.00     0.014 A 
ATOM     33  C   UNL A   1      35.084  33.626  31.397  1.00  0.00     0.010 A 
ATOM     34  C   UNL A   1      36.516  34.027  29.487  1.00  0.00     0.010 A 
ATOM     35  C   UNL A   1      36.338  33.508  30.777  1.00  0.00    -0.014 A 
BRANCH  35  36
ATOM     36  C   UNL A   1      37.474  32.822  31.445  1.00  0.00     0.031 A 
ATOM     37  C   UNL A   1      38.133  31.640  30.791  1.00  0.00     0.074 A 
ATOM     38  C   UNL A   1      37.848  33.208  32.681  1.00  0.00     0.049 A 
ATOM     39  N   UNL A   1      39.064  30.848  31.258  1.00  0.00    -0.248 NA
ATOM     40  C   UNL A   1      37.655  31.277  29.447  1.00  0.00     0.031 C 
ATOM     41  C   UNL A   1      37.244  34.299  33.447  1.00  0.00     0.029 A 
ATOM     42  N   UNL A   1      38.817  32.714  33.519  1.00  0.00    -0.354 N 
ATOM     43  C   UNL A   1      39.267  29.886  30.278  1.00  0.00     0.074 A 
ATOM     44  C   UNL A   1      38.323  30.157  29.215  1.00  0.00     0.031 C 
ATOM     45  C   UNL A   1      37.873  34.410  34.628  1.00  0.00     0.029 A 
ATOM     46  C   UNL A   1      38.893  33.371  34.722  1.00  0.00     0.049 A 
ATOM     47  H   UNL A   1      39.403  31.959  33.279  1.00  0.00     0.167 HD
ATOM     48  C   UNL A   1      40.177  28.883  30.253  1.00  0.00     0.037 A 
ATOM     49  C   UNL A   1      39.690  33.155  35.786  1.00  0.00     0.037 A 
ATOM     50  C   UNL A   1      41.136  28.639  31.298  1.00  0.00     0.049 A 
ATOM     51  C   UNL A   1      40.695  32.037  35.731  1.00  0.00     0.074 A 
ATOM     52  C   UNL A   1      42.150  27.698  31.333  1.00  0.00     0.029 A 
ATOM     53  N   UNL A   1      41.198  29.341  32.492  1.00  0.00    -0.354 N 
ATOM     54  N   UNL A   1      40.930  31.183  34.766  1.00  0.00    -0.248 NA
ATOM     55  C   UNL A   1      41.548  31.856  36.915  1.00  0.00     0.031 C 
ATOM     56  C   UNL A   1      42.797  27.801  32.570  1.00  0.00     0.029 A 
ATOM     57  C   UNL A   1      42.217  28.837  33.284  1.00  0.00     0.049 A 
ATOM     58  H   UNL A   1      40.605  30.087  32.740  1.00  0.00     0.167 HD
ATOM     59  C   UNL A   1      41.969  30.378  35.214  1.00  0.00     0.074 A 
ATOM     60  C   UNL A   1      42.333  30.859  36.530  1.00  0.00     0.031 C 
ATOM     61  C   UNL A   1      42.564  29.330  34.592  1.00  0.00     0.037 A 
BRANCH  48  62
ATOM     62  C   UNL A   1      40.184  27.981  29.053  1.00  0.00     0.064 A 
ATOM     63  C   UNL A   1      40.900  28.309  27.891  1.00  0.00     0.173 A 
ATOM     64  C   UNL A   1      39.494  26.760  29.075  1.00  0.00     0.173 A 
ATOM     65  F   UNL A   1      41.566  29.471  27.814  1.00  0.00    -0.203 F 
ATOM     66  C   UNL A   1      40.900  27.462  26.786  1.00  0.00     0.198 A 
ATOM     67  C   UNL A   1      39.523  25.901  27.980  1.00  0.00     0.198 A 
ATOM     68  F   UNL A   1      38.797  26.395  30.162  1.00  0.00    -0.203 F 
ATOM     69  F   UNL A   1      41.548  27.821  25.670  1.00  0.00    -0.200 F 
ATOM     70  C   UNL A   1      40.217  26.256  26.833  1.00  0.00     0.200 A 
ATOM     71  F   UNL A   1      38.872  24.730  28.031  1.00  0.00    -0.200 F 
ATOM     72  F   UNL A   1      40.224  25.438  25.771  1.00  0.00    -0.200 F 
ENDBRANCH  48  62
BRANCH  49  73
ATOM     73  C   UNL A   1      39.586  34.029  36.984  1.00  0.00     0.064 A 
ATOM     74  C   UNL A   1      40.280  35.246  37.047  1.00  0.00     0.173 A 
ATOM     75  C   UNL A   1      38.798  33.670  38.087  1.00  0.00     0.173 A 
ATOM     76  F   UNL A   1      41.062  35.623  36.026  1.00  0.00    -0.203 F 
ATOM     77  C   UNL A   1      40.205  36.060  38.175  1.00  0.00     0.198 A 
ATOM     78  C   UNL A   1      38.701  34.499  39.202  1.00  0.00     0.198 A 
ATOM     79  F   UNL A   1      38.109  32.519  38.074  1.00  0.00    -0.203 F 
ATOM     80  F   UNL A   1      40.914  37.196  38.227  1.00  0.00    -0.200 F 
ATOM     81  C   UNL A   1      39.411  35.689  39.250  1.00  0.00     0.200 A 
ATOM     82  F   UNL A   1      37.921  34.144  40.232  1.00  0.00    -0.200 F 
ATOM     83  F   UNL A   1      39.335  36.474  40.332  1.00  0.00    -0.200 F 
ENDBRANCH  49  73
BRANCH  61  84
ATOM     84  C   UNL A   1      43.686  28.650  35.321  1.00  0.00     0.064 A 
ATOM     85  C   UNL A   1      43.449  27.578  36.195  1.00  0.00     0.173 A 
ATOM     86  C   UNL A   1      45.015  29.049  35.113  1.00  0.00     0.173 A 
ATOM     87  F   UNL A   1      42.195  27.170  36.438  1.00  0.00    -0.203 F 
ATOM     88  C   UNL A   1      44.501  26.948  36.853  1.00  0.00     0.198 A 
ATOM     89  C   UNL A   1      46.066  28.396  35.751  1.00  0.00     0.198 A 
ATOM     90  F   UNL A   1      45.294  30.065  34.283  1.00  0.00    -0.203 F 
ATOM     91  F   UNL A   1      44.248  25.958  37.721  1.00  0.00    -0.200 F 
ATOM     92  C   UNL A   1      45.808  27.352  36.625  1.00  0.00     0.200 A 
ATOM     93  F   UNL A   1      47.329  28.779  35.519  1.00  0.00    -0.200 F 
ATOM     94  F   UNL A   1      46.819  26.738  37.255  1.00  0.00    -0.200 F 
ENDBRANCH  61  84
ENDBRANCH  35  36
ENDBRANCH  27  30
ENDBRANCH  25  26
ENDBRANCH   1  25
TORSDOF 15
ENDMDL
MODEL 3
REMARK VINA RESULT:     -12.0      0.536      7.368
REMARK SMILES COc1cc(C(C)C)cc([C@H]([NH3+])C(=O)NCCCNC(=O)c2ccc(-c3c4nc(c(-c5c(F)c(F)c(F)c(F)c5F)c5ccc([nH]5)c(-c5c(F)c(F)c(F)c(F)c5F)c5nc(c(-c6c(F)c(F)c(F)c(F)c6F)c6ccc3[nH]6)C=C5)C=C4)cc2)c1O
REMARK SMILES IDX 17 1 16 2 15 3 13 4 14 5 11 7 10 8 3 9 4 10 85 11 5 12 9 13
REMARK SMILES IDX 2 14 1 15 86 16 6 18 7 19 8 20 12 21 18 25 19 26 20 27 21 29
REMARK SMILES IDX 22 30 23 31 84 32 24 33 83 34 25 35 26 36 27 37 77 38 28 39
REMARK SMILES IDX 82 40 76 41 78 42 29 43 81 44 75 45 74 46 30 48 62 49 42 50
REMARK SMILES IDX 61 51 43 52 46 53 60 54 79 55 44 56 45 57 59 59 80 60 47 61
REMARK SMILES IDX 31 62 32 63 40 64 33 65 34 66 38 67 41 68 35 69 36 70 39 71
REMARK SMILES IDX 37 72 63 73 64 74 72 75 65 76 66 77 70 78 73 79 67 80 68 81
REMARK SMILES IDX 71 82 69 83 48 84 49 85 57 86 50 87 51 88 55 89 58 90 52 91
REMARK SMILES IDX 53 92 56 93 54 94
REMARK H PARENT 15 6 86 17 12 22 12 23 12 24 19 28 78 47 46 58
REMARK Flexibility Score: inf
ROOT
ATOM      1  C   UNL A   1      31.462  32.122  26.738  1.00  0.00     0.042 C 
ENDROOT
BRANCH   1   2
ATOM      2  C   UNL A   1      31.764  30.712  26.269  1.00  0.00     0.118 C 
BRANCH   2   3
ATOM      3  N   UNL A   1      32.920  30.124  26.928  1.00  0.00    -0.351 N 
ATOM      4  C   UNL A   1      33.728  29.086  26.539  1.00  0.00     0.283 C 
ATOM      5  O   UNL A   1      34.790  28.958  27.159  1.00  0.00    -0.268 OA
ATOM      6  H   UNL A   1      33.161  30.536  27.789  1.00  0.00     0.163 HD
BRANCH   4   7
ATOM      7  C   UNL A   1      33.315  28.089  25.420  1.00  0.00     0.306 C 
BRANCH   7   8
ATOM      8  C   UNL A   1      33.324  26.613  25.807  1.00  0.00     0.065 A 
ATOM      9  C   UNL A   1      32.136  24.644  26.618  1.00  0.00     0.161 A 
ATOM     10  C   UNL A   1      33.130  23.806  26.112  1.00  0.00     0.054 A 
ATOM     11  C   UNL A   1      32.211  26.029  26.422  1.00  0.00     0.167 A 
ATOM     12  C   UNL A   1      34.258  24.357  25.494  1.00  0.00    -0.041 A 
ATOM     13  C   UNL A   1      34.383  25.756  25.461  1.00  0.00     0.018 A 
BRANCH   9  14
ATOM     14  O   UNL A   1      31.027  24.063  27.177  1.00  0.00    -0.493 OA
ATOM     15  C   UNL A   1      30.558  22.968  26.384  1.00  0.00     0.278 C 
ENDBRANCH   9  14
BRANCH  11  16
ATOM     16  O   UNL A   1      31.158  26.821  26.787  1.00  0.00    -0.504 OA
ATOM     17  H   UNL A   1      30.324  26.712  26.375  1.00  0.00     0.293 HD
ENDBRANCH  11  16
BRANCH  12  18
ATOM     18  C   UNL A   1      35.301  23.525  24.764  1.00  0.00     0.013 C 
ATOM     19  C   UNL A   1      36.697  23.694  25.351  1.00  0.00     0.012 C 
ATOM     20  C   UNL A   1      34.906  22.047  24.668  1.00  0.00     0.012 C 
ENDBRANCH  12  18
ENDBRANCH   7   8
BRANCH   7  21
ATOM     21  N   UNL A   1      34.134  28.355  24.210  1.00  0.00    -0.343 N 
ATOM     22  H   UNL A   1      34.659  27.516  23.963  1.00  0.00     0.345 HD
ATOM     23  H   UNL A   1      34.785  29.118  24.400  1.00  0.00     0.345 HD
ATOM     24  H   UNL A   1      33.523  28.614  23.435  1.00  0.00     0.345 HD
ENDBRANCH   7  21
ENDBRANCH   4   7
ENDBRANCH   2   3
ENDBRANCH   1   2
BRANCH   1  25
ATOM     25  C   UNL A   1      32.665  32.842  27.332  1.00  0.00     0.118 C 
BRANCH  25  26
ATOM     26  N   UNL A   1      32.398  34.233  27.686  1.00  0.00    -0.352 N 
ATOM     27  C   UNL A   1      32.980  35.032  28.644  1.00  0.00     0.251 C 
ATOM     28  H   UNL A   1      31.692  34.668  27.156  1.00  0.00     0.163 HD
ATOM     29  O   UNL A   1      32.519  36.140  28.886  1.00  0.00    -0.269 OA
BRANCH  27  30
ATOM     30  C   UNL A   1      34.140  34.528  29.410  1.00  0.00     0.039 A 
ATOM     31  C   UNL A   1      33.924  33.940  30.658  1.00  0.00     0.014 A 
ATOM     32  C   UNL A   1      35.428  34.600  28.879  1.00  0.00     0.014 A 
ATOM     33  C   UNL A   1      34.988  33.324  31.321  1.00  0.00     0.010 A 
ATOM     34  C   UNL A   1      36.462  33.899  29.488  1.00  0.00     0.010 A 
ATOM     35  C   UNL A   1      36.251  33.245  30.710  1.00  0.00    -0.014 A 
BRANCH  35  36
ATOM     36  C   UNL A   1      37.360  32.464  31.314  1.00  0.00     0.031 A 
ATOM     37  C   UNL A   1      37.886  32.827  32.675  1.00  0.00     0.074 A 
ATOM     38  C   UNL A   1      37.954  31.491  30.597  1.00  0.00     0.049 A 
ATOM     39  N   UNL A   1      38.911  32.337  33.324  1.00  0.00    -0.248 NA
ATOM     40  C   UNL A   1      37.188  33.911  33.386  1.00  0.00     0.031 C 
ATOM     41  C   UNL A   1      37.579  31.088  29.240  1.00  0.00     0.029 A 
ATOM     42  N   UNL A   1      39.014  30.672  30.901  1.00  0.00    -0.354 N 
ATOM     43  C   UNL A   1      38.991  33.064  34.504  1.00  0.00     0.074 A 
ATOM     44  C   UNL A   1      37.950  34.067  34.458  1.00  0.00     0.031 C 
ATOM     45  C   UNL A   1      38.374  30.083  28.842  1.00  0.00     0.029 A 
ATOM     46  C   UNL A   1      39.344  29.799  29.894  1.00  0.00     0.049 A 
ATOM     47  H   UNL A   1      39.490  30.707  31.762  1.00  0.00     0.167 HD
ATOM     48  C   UNL A   1      39.841  32.893  35.546  1.00  0.00     0.037 A 
ATOM     49  C   UNL A   1      40.325  28.879  29.822  1.00  0.00     0.037 A 
ATOM     50  C   UNL A   1      40.853  31.871  35.602  1.00  0.00     0.049 A 
ATOM     51  C   UNL A   1      41.252  28.707  30.994  1.00  0.00     0.074 A 
ATOM     52  C   UNL A   1      41.711  31.565  36.643  1.00  0.00     0.029 A 
ATOM     53  N   UNL A   1      41.142  30.990  34.571  1.00  0.00    -0.354 N 
ATOM     54  N   UNL A   1      41.269  29.349  32.137  1.00  0.00    -0.248 NA
ATOM     55  C   UNL A   1      42.295  27.679  30.867  1.00  0.00     0.031 C 
ATOM     56  C   UNL A   1      42.552  30.528  36.224  1.00  0.00     0.029 A 
ATOM     57  C   UNL A   1      42.185  30.156  34.941  1.00  0.00     0.049 A 
ATOM     58  H   UNL A   1      40.676  30.962  33.704  1.00  0.00     0.167 HD
ATOM     59  C   UNL A   1      42.306  28.790  32.872  1.00  0.00     0.074 A 
ATOM     60  C   UNL A   1      42.882  27.744  32.055  1.00  0.00     0.031 C 
ATOM     61  C   UNL A   1      42.745  29.119  34.112  1.00  0.00     0.037 A 
BRANCH  48  62
ATOM     62  C   UNL A   1      39.703  33.825  36.714  1.00  0.00     0.064 A 
ATOM     63  C   UNL A   1      40.351  35.070  36.741  1.00  0.00     0.173 A 
ATOM     64  C   UNL A   1      38.888  33.487  37.805  1.00  0.00     0.173 A 
ATOM     65  F   UNL A   1      41.152  35.437  35.730  1.00  0.00    -0.203 F 
ATOM     66  C   UNL A   1      40.214  35.926  37.831  1.00  0.00     0.198 A 
ATOM     67  C   UNL A   1      38.727  34.360  38.877  1.00  0.00     0.198 A 
ATOM     68  F   UNL A   1      38.241  32.311  37.828  1.00  0.00    -0.203 F 
ATOM     69  F   UNL A   1      40.884  37.086  37.858  1.00  0.00    -0.200 F 
ATOM     70  C   UNL A   1      39.396  35.574  38.894  1.00  0.00     0.200 A 
ATOM     71  F   UNL A   1      37.928  34.023  39.899  1.00  0.00    -0.200 F 
ATOM     72  F   UNL A   1      39.258  36.403  39.939  1.00  0.00    -0.200 F 
ENDBRANCH  48  62
BRANCH  49  73
ATOM     73  C   UNL A   1      40.467  28.036  28.607  1.00  0.00     0.064 A 
ATOM     74  C   UNL A   1      39.837  26.786  28.523  1.00  0.00     0.173 A 
ATOM     75  C   UNL A   1      41.233  28.454  27.509  1.00  0.00     0.173 A 
ATOM     76  F   UNL A   1      39.111  26.333  29.555  1.00  0.00    -0.203 F 
ATOM     77  C   UNL A   1      39.984  25.979  27.397  1.00  0.00     0.198 A 
ATOM     78  C   UNL A   1      41.355  27.660  26.372  1.00  0.00     0.198 A 
ATOM     79  F   UNL A   1      41.851  29.644  27.537  1.00  0.00    -0.203 F 
ATOM     80  F   UNL A   1      39.407  24.770  27.361  1.00  0.00    -0.200 F 
ATOM     81  C   UNL A   1      40.738  26.419  26.319  1.00  0.00     0.200 A 
ATOM     82  F   UNL A   1      42.072  28.095  25.327  1.00  0.00    -0.200 F 
ATOM     83  F   UNL A   1      40.874  25.646  25.234  1.00  0.00    -0.200 F 
ENDBRANCH  49  73
BRANCH  61  84
ATOM     84  C   UNL A   1      43.890  28.323  34.667  1.00  0.00     0.064 A 
ATOM     85  C   UNL A   1      45.217  28.757  34.534  1.00  0.00     0.173 A 
ATOM     86  C   UNL A   1      43.653  27.133  35.371  1.00  0.00     0.173 A 
ATOM     87  F   UNL A   1      45.495  29.880  33.855  1.00  0.00    -0.203 F 
ATOM     88  C   UNL A   1      46.268  28.014  35.065  1.00  0.00     0.198 A 
ATOM     89  C   UNL A   1      44.705  26.409  35.927  1.00  0.00     0.198 A 
ATOM     90  F   UNL A   1      42.401  26.679  35.531  1.00  0.00    -0.203 F 
ATOM     91  F   UNL A   1      47.532  28.422  34.884  1.00  0.00    -0.200 F 
ATOM     92  C   UNL A   1      46.010  26.846  35.767  1.00  0.00     0.200 A 
ATOM     93  F   UNL A   1      44.453  25.289  36.616  1.00  0.00    -0.200 F 
ATOM     94  F   UNL A   1      47.023  26.137  36.284  1.00  0.00    -0.200 F 
ENDBRANCH  61  84
ENDBRANCH  35  36
ENDBRANCH  27  30
ENDBRANCH  25  26
ENDBRANCH   1  25
TORSDOF 15
ENDMDL
