MODEL 1
REMARK VINA RESULT:     -12.3      0.000      0.000
REMARK SMILES CCC[C@H](Cc1ccn(-c2ccccc2)n1)C(=O)NCCCNC(=O)c1ccc(-c2c3nc(c(-c4c(F)c(F)c(F)c(F)c4F)c4ccc([nH]4)c(-c4c(F)c(F)c(F)c(F)c4F)c4nc(c(-c5c(F)c(F)c(F)c(F)c5F)c5ccc2[nH]5)C=C4)C=C3)cc1
REMARK SMILES IDX 20 1 19 2 17 3 18 4 4 6 3 7 2 8 1 9 5 10 6 11 7 12 16 13
REMARK SMILES IDX 8 14 9 15 10 16 11 17 15 18 12 19 14 20 13 21 21 22 22 23
REMARK SMILES IDX 23 24 24 25 25 27 26 28 27 29 88 30 28 31 87 32 29 33 30 34
REMARK SMILES IDX 31 35 81 36 32 37 86 38 80 39 82 40 33 41 85 42 79 43 78 44
REMARK SMILES IDX 34 46 66 47 46 48 65 49 47 50 50 51 64 52 83 53 48 54 49 55
REMARK SMILES IDX 63 57 84 58 51 59 35 60 36 61 44 62 37 63 38 64 42 65 45 66
REMARK SMILES IDX 39 67 40 68 43 69 41 70 67 71 68 72 76 73 69 74 70 75 74 76
REMARK SMILES IDX 77 77 71 78 72 79 75 80 73 81 52 82 53 83 61 84 54 85 55 86
REMARK SMILES IDX 59 87 62 88 56 89 57 90 60 91 58 92
REMARK H PARENT 19 5 23 26 82 45 50 56
REMARK Flexibility Score: inf
ROOT
ATOM      1  C   UNL A   1      32.455  29.486  25.016  1.00  0.00     0.117 C 
ENDROOT
BRANCH   1   2
ATOM      2  N   UNL A   1      33.305  29.225  23.866  1.00  0.00    -0.356 N 
ATOM      3  C   UNL A   1      33.535  28.088  23.157  1.00  0.00     0.223 C 
ATOM      4  O   UNL A   1      34.256  28.174  22.158  1.00  0.00    -0.275 OA
ATOM      5  H   UNL A   1      33.801  30.012  23.542  1.00  0.00     0.163 HD
BRANCH   3   6
ATOM      6  C   UNL A   1      32.935  26.739  23.559  1.00  0.00     0.084 C 
BRANCH   6   7
ATOM      7  C   UNL A   1      34.039  25.695  23.819  1.00  0.00     0.013 C 
BRANCH   7   8
ATOM      8  C   UNL A   1      34.311  25.387  25.293  1.00  0.00    -0.003 C 
ATOM      9  C   UNL A   1      35.237  24.202  25.494  1.00  0.00     0.004 C 
ENDBRANCH   7   8
ENDBRANCH   6   7
BRANCH   6  10
ATOM     10  C   UNL A   1      31.847  26.293  22.559  1.00  0.00     0.071 C 
BRANCH  10  11
ATOM     11  C   UNL A   1      30.581  27.089  22.708  1.00  0.00     0.064 A 
ATOM     12  C   UNL A   1      29.464  26.755  23.502  1.00  0.00     0.046 A 
ATOM     13  N   UNL A   1      30.430  28.284  22.115  1.00  0.00    -0.173 NA
ATOM     14  C   UNL A   1      28.691  27.888  23.508  1.00  0.00     0.115 A 
ATOM     15  N   UNL A   1      29.319  28.807  22.702  1.00  0.00    -0.241 N 
BRANCH  15  16
ATOM     16  C   UNL A   1      28.908  30.146  22.486  1.00  0.00     0.065 A 
ATOM     17  C   UNL A   1      28.379  30.519  21.242  1.00  0.00     0.028 A 
ATOM     18  C   UNL A   1      29.061  31.098  23.499  1.00  0.00     0.028 A 
ATOM     19  C   UNL A   1      28.027  31.847  21.003  1.00  0.00     0.002 A 
ATOM     20  C   UNL A   1      28.757  32.437  23.232  1.00  0.00     0.002 A 
ATOM     21  C   UNL A   1      28.244  32.810  21.988  1.00  0.00     0.000 A 
ENDBRANCH  15  16
ENDBRANCH  10  11
ENDBRANCH   6  10
ENDBRANCH   3   6
ENDBRANCH   1   2
BRANCH   1  22
ATOM     22  C   UNL A   1      33.045  29.015  26.343  1.00  0.00     0.042 C 
BRANCH  22  23
ATOM     23  C   UNL A   1      34.357  29.697  26.678  1.00  0.00     0.118 C 
BRANCH  23  24
ATOM     24  N   UNL A   1      34.158  31.028  27.252  1.00  0.00    -0.352 N 
ATOM     25  C   UNL A   1      34.781  31.587  28.343  1.00  0.00     0.251 C 
ATOM     26  H   UNL A   1      33.492  31.596  26.800  1.00  0.00     0.163 HD
ATOM     27  O   UNL A   1      34.286  32.557  28.917  1.00  0.00    -0.269 OA
BRANCH  25  28
ATOM     28  C   UNL A   1      36.039  31.004  28.831  1.00  0.00     0.039 A 
ATOM     29  C   UNL A   1      36.094  29.657  29.200  1.00  0.00     0.014 A 
ATOM     30  C   UNL A   1      37.176  31.808  28.895  1.00  0.00     0.014 A 
ATOM     31  C   UNL A   1      37.323  29.108  29.550  1.00  0.00     0.010 A 
ATOM     32  C   UNL A   1      38.408  31.237  29.111  1.00  0.00     0.010 A 
ATOM     33  C   UNL A   1      38.483  29.896  29.471  1.00  0.00    -0.014 A 
BRANCH  33  34
ATOM     34  C   UNL A   1      39.797  29.274  29.603  1.00  0.00     0.031 A 
ATOM     35  C   UNL A   1      40.246  29.096  31.009  1.00  0.00     0.074 A 
ATOM     36  C   UNL A   1      40.469  28.717  28.574  1.00  0.00     0.049 A 
ATOM     37  N   UNL A   1      41.275  29.635  31.571  1.00  0.00    -0.248 NA
ATOM     38  C   UNL A   1      39.390  28.343  31.939  1.00  0.00     0.031 C 
ATOM     39  C   UNL A   1      40.029  28.566  27.184  1.00  0.00     0.029 A 
ATOM     40  N   UNL A   1      41.664  28.060  28.580  1.00  0.00    -0.354 N 
ATOM     41  C   UNL A   1      41.316  29.140  32.870  1.00  0.00     0.074 A 
ATOM     42  C   UNL A   1      40.051  28.487  33.090  1.00  0.00     0.031 C 
ATOM     43  C   UNL A   1      40.821  27.670  26.555  1.00  0.00     0.029 A 
ATOM     44  C   UNL A   1      41.908  27.297  27.442  1.00  0.00     0.049 A 
ATOM     45  H   UNL A   1      42.301  28.121  29.329  1.00  0.00     0.167 HD
ATOM     46  C   UNL A   1      42.496  29.099  33.549  1.00  0.00     0.037 A 
ATOM     47  C   UNL A   1      42.910  26.401  27.255  1.00  0.00     0.037 A 
ATOM     48  C   UNL A   1      43.463  29.989  32.946  1.00  0.00     0.049 A 
ATOM     49  C   UNL A   1      43.972  26.718  28.242  1.00  0.00     0.074 A 
ATOM     50  C   UNL A   1      43.478  31.339  32.644  1.00  0.00     0.029 A 
ATOM     51  N   UNL A   1      44.473  29.437  32.197  1.00  0.00    -0.354 N 
ATOM     52  N   UNL A   1      44.723  27.781  28.176  1.00  0.00    -0.248 NA
ATOM     53  C   UNL A   1      43.895  26.089  29.552  1.00  0.00     0.031 C 
ATOM     54  C   UNL A   1      44.130  31.426  31.378  1.00  0.00     0.029 A 
ATOM     55  C   UNL A   1      44.550  30.143  31.027  1.00  0.00     0.049 A 
ATOM     56  H   UNL A   1      45.039  28.674  32.455  1.00  0.00     0.167 HD
ATOM     57  C   UNL A   1      44.810  28.220  29.486  1.00  0.00     0.074 A 
ATOM     58  C   UNL A   1      44.378  27.085  30.300  1.00  0.00     0.031 C 
ATOM     59  C   UNL A   1      44.931  29.549  29.771  1.00  0.00     0.037 A 
BRANCH  46  60
ATOM     60  C   UNL A   1      42.917  27.967  34.462  1.00  0.00     0.064 A 
ATOM     61  C   UNL A   1      43.293  28.276  35.787  1.00  0.00     0.173 A 
ATOM     62  C   UNL A   1      43.294  26.683  34.012  1.00  0.00     0.173 A 
ATOM     63  F   UNL A   1      42.981  29.464  36.327  1.00  0.00    -0.203 F 
ATOM     64  C   UNL A   1      44.104  27.426  36.543  1.00  0.00     0.198 A 
ATOM     65  C   UNL A   1      44.059  25.816  34.791  1.00  0.00     0.198 A 
ATOM     66  F   UNL A   1      43.046  26.251  32.772  1.00  0.00    -0.203 F 
ATOM     67  F   UNL A   1      44.570  27.838  37.730  1.00  0.00    -0.200 F 
ATOM     68  C   UNL A   1      44.501  26.204  36.038  1.00  0.00     0.200 A 
ATOM     69  F   UNL A   1      44.442  24.638  34.277  1.00  0.00    -0.200 F 
ATOM     70  F   UNL A   1      45.344  25.423  36.724  1.00  0.00    -0.200 F 
ENDBRANCH  46  60
BRANCH  47  71
ATOM     71  C   UNL A   1      42.943  25.164  26.435  1.00  0.00     0.064 A 
ATOM     72  C   UNL A   1      43.890  25.005  25.407  1.00  0.00     0.173 A 
ATOM     73  C   UNL A   1      42.243  24.004  26.817  1.00  0.00     0.173 A 
ATOM     74  F   UNL A   1      44.630  26.048  25.000  1.00  0.00    -0.203 F 
ATOM     75  C   UNL A   1      44.153  23.756  24.834  1.00  0.00     0.198 A 
ATOM     76  C   UNL A   1      42.497  22.760  26.234  1.00  0.00     0.198 A 
ATOM     77  F   UNL A   1      41.368  24.026  27.831  1.00  0.00    -0.203 F 
ATOM     78  F   UNL A   1      45.122  23.635  23.914  1.00  0.00    -0.200 F 
ATOM     79  C   UNL A   1      43.467  22.633  25.257  1.00  0.00     0.200 A 
ATOM     80  F   UNL A   1      41.849  21.674  26.677  1.00  0.00    -0.200 F 
ATOM     81  F   UNL A   1      43.768  21.425  24.760  1.00  0.00    -0.200 F 
ENDBRANCH  47  71
BRANCH  59  82
ATOM     82  C   UNL A   1      45.267  30.483  28.643  1.00  0.00     0.064 A 
ATOM     83  C   UNL A   1      44.324  31.045  27.765  1.00  0.00     0.173 A 
ATOM     84  C   UNL A   1      46.594  30.917  28.524  1.00  0.00     0.173 A 
ATOM     85  F   UNL A   1      43.018  30.770  27.878  1.00  0.00    -0.203 F 
ATOM     86  C   UNL A   1      44.707  31.949  26.774  1.00  0.00     0.198 A 
ATOM     87  C   UNL A   1      46.966  31.851  27.563  1.00  0.00     0.198 A 
ATOM     88  F   UNL A   1      47.530  30.459  29.371  1.00  0.00    -0.203 F 
ATOM     89  F   UNL A   1      43.792  32.448  25.931  1.00  0.00    -0.200 F 
ATOM     90  C   UNL A   1      46.026  32.355  26.678  1.00  0.00     0.200 A 
ATOM     91  F   UNL A   1      48.235  32.279  27.507  1.00  0.00    -0.200 F 
ATOM     92  F   UNL A   1      46.390  33.250  25.750  1.00  0.00    -0.200 F 
ENDBRANCH  59  82
ENDBRANCH  33  34
ENDBRANCH  25  28
ENDBRANCH  23  24
ENDBRANCH  22  23
ENDBRANCH   1  22
TORSDOF 15
ENDMDL
MODEL 2
REMARK VINA RESULT:     -12.1      4.146      9.397
REMARK SMILES CCC[C@H](Cc1ccn(-c2ccccc2)n1)C(=O)NCCCNC(=O)c1ccc(-c2c3nc(c(-c4c(F)c(F)c(F)c(F)c4F)c4ccc([nH]4)c(-c4c(F)c(F)c(F)c(F)c4F)c4nc(c(-c5c(F)c(F)c(F)c(F)c5F)c5ccc2[nH]5)C=C4)C=C3)cc1
REMARK SMILES IDX 20 1 19 2 17 3 18 4 4 6 3 7 2 8 1 9 5 10 6 11 7 12 16 13
REMARK SMILES IDX 8 14 9 15 10 16 11 17 15 18 12 19 14 20 13 21 21 22 22 23
REMARK SMILES IDX 23 24 24 25 25 27 26 28 27 29 88 30 28 31 87 32 29 33 30 34
REMARK SMILES IDX 31 35 81 36 32 37 86 38 80 39 82 40 33 41 85 42 79 43 78 44
REMARK SMILES IDX 34 46 66 47 46 48 65 49 47 50 50 51 64 52 83 53 48 54 49 55
REMARK SMILES IDX 63 57 84 58 51 59 35 60 36 61 44 62 37 63 38 64 42 65 45 66
REMARK SMILES IDX 39 67 40 68 43 69 41 70 67 71 68 72 76 73 69 74 70 75 74 76
REMARK SMILES IDX 77 77 71 78 72 79 75 80 73 81 52 82 53 83 61 84 54 85 55 86
REMARK SMILES IDX 59 87 62 88 56 89 57 90 60 91 58 92
REMARK H PARENT 19 5 23 26 82 45 50 56
REMARK Flexibility Score: inf
ROOT
ATOM      1  C   UNL A   1      35.775  21.330  25.338  1.00  0.00     0.117 C 
ENDROOT
BRANCH   1   2
ATOM      2  N   UNL A   1      35.153  21.675  26.605  1.00  0.00    -0.356 N 
ATOM      3  C   UNL A   1      34.087  22.466  26.899  1.00  0.00     0.223 C 
ATOM      4  O   UNL A   1      33.721  22.517  28.077  1.00  0.00    -0.275 OA
ATOM      5  H   UNL A   1      35.578  21.261  27.391  1.00  0.00     0.163 HD
BRANCH   3   6
ATOM      6  C   UNL A   1      33.351  23.275  25.829  1.00  0.00     0.084 C 
BRANCH   6   7
ATOM      7  C   UNL A   1      33.304  24.772  26.197  1.00  0.00     0.013 C 
BRANCH   7   8
ATOM      8  C   UNL A   1      33.019  25.721  25.031  1.00  0.00    -0.003 C 
ATOM      9  C   UNL A   1      33.920  25.482  23.834  1.00  0.00     0.004 C 
ENDBRANCH   7   8
ENDBRANCH   6   7
BRANCH   6  10
ATOM     10  C   UNL A   1      31.979  22.647  25.501  1.00  0.00     0.071 C 
BRANCH  10  11
ATOM     11  C   UNL A   1      32.114  21.362  24.736  1.00  0.00     0.064 A 
ATOM     12  C   UNL A   1      32.148  21.216  23.332  1.00  0.00     0.046 A 
ATOM     13  N   UNL A   1      32.288  20.187  25.361  1.00  0.00    -0.173 NA
ATOM     14  C   UNL A   1      32.531  19.916  23.128  1.00  0.00     0.115 A 
ATOM     15  N   UNL A   1      32.652  19.333  24.367  1.00  0.00    -0.241 N 
BRANCH  15  16
ATOM     16  C   UNL A   1      33.105  18.015  24.628  1.00  0.00     0.065 A 
ATOM     17  C   UNL A   1      32.287  17.128  25.342  1.00  0.00     0.028 A 
ATOM     18  C   UNL A   1      34.377  17.615  24.205  1.00  0.00     0.028 A 
ATOM     19  C   UNL A   1      32.750  15.849  25.654  1.00  0.00     0.002 A 
ATOM     20  C   UNL A   1      34.853  16.351  24.570  1.00  0.00     0.002 A 
ATOM     21  C   UNL A   1      34.043  15.473  25.293  1.00  0.00     0.000 A 
ENDBRANCH  15  16
ENDBRANCH  10  11
ENDBRANCH   6  10
ENDBRANCH   3   6
ENDBRANCH   1   2
BRANCH   1  22
ATOM     22  C   UNL A   1      36.604  22.457  24.726  1.00  0.00     0.042 C 
BRANCH  22  23
ATOM     23  C   UNL A   1      37.606  23.045  25.701  1.00  0.00     0.118 C 
BRANCH  23  24
ATOM     24  N   UNL A   1      38.556  22.044  26.187  1.00  0.00    -0.352 N 
ATOM     25  C   UNL A   1      39.841  22.238  26.638  1.00  0.00     0.251 C 
ATOM     26  H   UNL A   1      38.236  21.113  26.192  1.00  0.00     0.163 HD
ATOM     27  O   UNL A   1      40.635  21.299  26.689  1.00  0.00    -0.269 OA
BRANCH  25  28
ATOM     28  C   UNL A   1      40.266  23.586  27.043  1.00  0.00     0.039 A 
ATOM     29  C   UNL A   1      39.514  24.704  26.670  1.00  0.00     0.014 A 
ATOM     30  C   UNL A   1      41.413  23.726  27.823  1.00  0.00     0.014 A 
ATOM     31  C   UNL A   1      39.879  25.952  27.163  1.00  0.00     0.010 A 
ATOM     32  C   UNL A   1      41.695  24.934  28.415  1.00  0.00     0.010 A 
ATOM     33  C   UNL A   1      40.953  26.056  28.062  1.00  0.00    -0.014 A 
BRANCH  33  34
ATOM     34  C   UNL A   1      41.194  27.311  28.767  1.00  0.00     0.031 A 
ATOM     35  C   UNL A   1      42.391  28.054  28.290  1.00  0.00     0.074 A 
ATOM     36  C   UNL A   1      40.316  27.868  29.628  1.00  0.00     0.049 A 
ATOM     37  N   UNL A   1      43.451  28.338  28.970  1.00  0.00    -0.248 NA
ATOM     38  C   UNL A   1      42.487  28.410  26.866  1.00  0.00     0.031 C 
ATOM     39  C   UNL A   1      38.975  27.396  29.983  1.00  0.00     0.029 A 
ATOM     40  N   UNL A   1      40.400  29.054  30.296  1.00  0.00    -0.354 N 
ATOM     41  C   UNL A   1      44.270  29.079  28.124  1.00  0.00     0.074 A 
ATOM     42  C   UNL A   1      43.706  28.950  26.806  1.00  0.00     0.031 C 
ATOM     43  C   UNL A   1      38.296  28.389  30.598  1.00  0.00     0.029 A 
ATOM     44  C   UNL A   1      39.192  29.510  30.814  1.00  0.00     0.049 A 
ATOM     45  H   UNL A   1      41.246  29.547  30.402  1.00  0.00     0.167 HD
ATOM     46  C   UNL A   1      45.192  29.936  28.645  1.00  0.00     0.037 A 
ATOM     47  C   UNL A   1      38.938  30.730  31.352  1.00  0.00     0.037 A 
ATOM     48  C   UNL A   1      45.463  29.615  30.028  1.00  0.00     0.049 A 
ATOM     49  C   UNL A   1      40.244  31.315  31.748  1.00  0.00     0.074 A 
ATOM     50  C   UNL A   1      45.883  28.477  30.693  1.00  0.00     0.029 A 
ATOM     51  N   UNL A   1      44.927  30.426  30.999  1.00  0.00    -0.354 N 
ATOM     52  N   UNL A   1      40.960  30.872  32.742  1.00  0.00    -0.248 NA
ATOM     53  C   UNL A   1      40.967  32.100  30.758  1.00  0.00     0.031 C 
ATOM     54  C   UNL A   1      45.123  28.453  31.900  1.00  0.00     0.029 A 
ATOM     55  C   UNL A   1      44.354  29.616  31.942  1.00  0.00     0.049 A 
ATOM     56  H   UNL A   1      44.952  31.411  31.014  1.00  0.00     0.167 HD
ATOM     57  C   UNL A   1      42.260  30.900  32.266  1.00  0.00     0.074 A 
ATOM     58  C   UNL A   1      42.218  31.765  31.088  1.00  0.00     0.031 C 
ATOM     59  C   UNL A   1      43.179  29.984  32.689  1.00  0.00     0.037 A 
BRANCH  46  60
ATOM     60  C   UNL A   1      45.515  31.297  28.064  1.00  0.00     0.064 A 
ATOM     61  C   UNL A   1      44.446  32.146  27.707  1.00  0.00     0.173 A 
ATOM     62  C   UNL A   1      46.772  31.654  27.531  1.00  0.00     0.173 A 
ATOM     63  F   UNL A   1      43.205  31.913  28.162  1.00  0.00    -0.203 F 
ATOM     64  C   UNL A   1      44.600  33.179  26.780  1.00  0.00     0.198 A 
ATOM     65  C   UNL A   1      46.931  32.719  26.646  1.00  0.00     0.198 A 
ATOM     66  F   UNL A   1      47.878  30.932  27.743  1.00  0.00    -0.203 F 
ATOM     67  F   UNL A   1      43.523  33.850  26.349  1.00  0.00    -0.200 F 
ATOM     68  C   UNL A   1      45.839  33.454  26.236  1.00  0.00     0.200 A 
ATOM     69  F   UNL A   1      48.141  32.962  26.123  1.00  0.00    -0.200 F 
ATOM     70  F   UNL A   1      45.976  34.387  25.286  1.00  0.00    -0.200 F 
ENDBRANCH  46  60
BRANCH  47  71
ATOM     71  C   UNL A   1      37.684  31.523  31.367  1.00  0.00     0.064 A 
ATOM     72  C   UNL A   1      36.928  31.657  32.547  1.00  0.00     0.173 A 
ATOM     73  C   UNL A   1      37.347  32.396  30.314  1.00  0.00     0.173 A 
ATOM     74  F   UNL A   1      37.200  30.893  33.615  1.00  0.00    -0.203 F 
ATOM     75  C   UNL A   1      35.934  32.632  32.679  1.00  0.00     0.198 A 
ATOM     76  C   UNL A   1      36.345  33.360  30.443  1.00  0.00     0.198 A 
ATOM     77  F   UNL A   1      38.046  32.402  29.171  1.00  0.00    -0.203 F 
ATOM     78  F   UNL A   1      35.294  32.778  33.848  1.00  0.00    -0.200 F 
ATOM     79  C   UNL A   1      35.652  33.491  31.632  1.00  0.00     0.200 A 
ATOM     80  F   UNL A   1      36.105  34.208  29.433  1.00  0.00    -0.200 F 
ATOM     81  F   UNL A   1      34.751  34.472  31.782  1.00  0.00    -0.200 F 
ENDBRANCH  47  71
BRANCH  59  82
ATOM     82  C   UNL A   1      42.838  29.146  33.888  1.00  0.00     0.064 A 
ATOM     83  C   UNL A   1      42.103  27.949  33.843  1.00  0.00     0.173 A 
ATOM     84  C   UNL A   1      43.383  29.519  35.125  1.00  0.00     0.173 A 
ATOM     85  F   UNL A   1      41.639  27.462  32.685  1.00  0.00    -0.203 F 
ATOM     86  C   UNL A   1      41.873  27.197  34.995  1.00  0.00     0.198 A 
ATOM     87  C   UNL A   1      43.188  28.745  36.264  1.00  0.00     0.198 A 
ATOM     88  F   UNL A   1      44.141  30.624  35.220  1.00  0.00    -0.203 F 
ATOM     89  F   UNL A   1      41.144  26.073  34.929  1.00  0.00    -0.200 F 
ATOM     90  C   UNL A   1      42.421  27.594  36.203  1.00  0.00     0.200 A 
ATOM     91  F   UNL A   1      43.763  29.107  37.420  1.00  0.00    -0.200 F 
ATOM     92  F   UNL A   1      42.230  26.854  37.304  1.00  0.00    -0.200 F 
ENDBRANCH  59  82
ENDBRANCH  33  34
ENDBRANCH  25  28
ENDBRANCH  23  24
ENDBRANCH  22  23
ENDBRANCH   1  22
TORSDOF 15
ENDMDL
MODEL 3
REMARK VINA RESULT:     -11.8      4.052      9.238
REMARK SMILES CCC[C@H](Cc1ccn(-c2ccccc2)n1)C(=O)NCCCNC(=O)c1ccc(-c2c3nc(c(-c4c(F)c(F)c(F)c(F)c4F)c4ccc([nH]4)c(-c4c(F)c(F)c(F)c(F)c4F)c4nc(c(-c5c(F)c(F)c(F)c(F)c5F)c5ccc2[nH]5)C=C4)C=C3)cc1
REMARK SMILES IDX 20 1 19 2 17 3 18 4 4 6 3 7 2 8 1 9 5 10 6 11 7 12 16 13
REMARK SMILES IDX 8 14 9 15 10 16 11 17 15 18 12 19 14 20 13 21 21 22 22 23
REMARK SMILES IDX 23 24 24 25 25 27 26 28 27 29 88 30 28 31 87 32 29 33 30 34
REMARK SMILES IDX 31 35 81 36 32 37 86 38 80 39 82 40 33 41 85 42 79 43 78 44
REMARK SMILES IDX 34 46 66 47 46 48 65 49 47 50 50 51 64 52 83 53 48 54 49 55
REMARK SMILES IDX 63 57 84 58 51 59 35 60 36 61 44 62 37 63 38 64 42 65 45 66
REMARK SMILES IDX 39 67 40 68 43 69 41 70 67 71 68 72 76 73 69 74 70 75 74 76
REMARK SMILES IDX 77 77 71 78 72 79 75 80 73 81 52 82 53 83 61 84 54 85 55 86
REMARK SMILES IDX 59 87 62 88 56 89 57 90 60 91 58 92
REMARK H PARENT 19 5 23 26 82 45 50 56
REMARK Flexibility Score: inf
ROOT
ATOM      1  C   UNL A   1      35.889  21.335  25.091  1.00  0.00     0.117 C 
ENDROOT
BRANCH   1   2
ATOM      2  N   UNL A   1      35.397  21.721  26.404  1.00  0.00    -0.356 N 
ATOM      3  C   UNL A   1      34.371  22.531  26.777  1.00  0.00     0.223 C 
ATOM      4  O   UNL A   1      34.123  22.618  27.984  1.00  0.00    -0.275 OA
ATOM      5  H   UNL A   1      35.895  21.325  27.155  1.00  0.00     0.163 HD
BRANCH   3   6
ATOM      6  C   UNL A   1      33.539  23.317  25.762  1.00  0.00     0.084 C 
BRANCH   6   7
ATOM      7  C   UNL A   1      33.515  24.819  26.107  1.00  0.00     0.013 C 
BRANCH   7   8
ATOM      8  C   UNL A   1      33.174  25.750  24.941  1.00  0.00    -0.003 C 
ATOM      9  C   UNL A   1      33.784  27.132  25.082  1.00  0.00     0.004 C 
ENDBRANCH   7   8
ENDBRANCH   6   7
BRANCH   6  10
ATOM     10  C   UNL A   1      32.148  22.677  25.567  1.00  0.00     0.071 C 
BRANCH  10  11
ATOM     11  C   UNL A   1      32.220  21.389  24.797  1.00  0.00     0.064 A 
ATOM     12  C   UNL A   1      32.196  21.243  23.394  1.00  0.00     0.046 A 
ATOM     13  N   UNL A   1      32.390  20.210  25.416  1.00  0.00    -0.173 NA
ATOM     14  C   UNL A   1      32.539  19.934  23.175  1.00  0.00     0.115 A 
ATOM     15  N   UNL A   1      32.693  19.347  24.408  1.00  0.00    -0.241 N 
BRANCH  15  16
ATOM     16  C   UNL A   1      33.124  18.019  24.651  1.00  0.00     0.065 A 
ATOM     17  C   UNL A   1      32.273  17.123  25.316  1.00  0.00     0.028 A 
ATOM     18  C   UNL A   1      34.405  17.614  24.262  1.00  0.00     0.028 A 
ATOM     19  C   UNL A   1      32.712  15.833  25.611  1.00  0.00     0.002 A 
ATOM     20  C   UNL A   1      34.856  16.337  24.611  1.00  0.00     0.002 A 
ATOM     21  C   UNL A   1      34.012  15.451  25.285  1.00  0.00     0.000 A 
ENDBRANCH  15  16
ENDBRANCH  10  11
ENDBRANCH   6  10
ENDBRANCH   3   6
ENDBRANCH   1   2
BRANCH   1  22
ATOM     22  C   UNL A   1      37.341  21.729  24.832  1.00  0.00     0.042 C 
BRANCH  22  23
ATOM     23  C   UNL A   1      38.169  21.791  26.100  1.00  0.00     0.118 C 
BRANCH  23  24
ATOM     24  N   UNL A   1      39.509  21.235  25.913  1.00  0.00    -0.352 N 
ATOM     25  C   UNL A   1      40.722  21.858  26.087  1.00  0.00     0.251 C 
ATOM     26  H   UNL A   1      39.548  20.293  25.626  1.00  0.00     0.163 HD
ATOM     27  O   UNL A   1      41.742  21.398  25.574  1.00  0.00    -0.269 OA
BRANCH  25  28
ATOM     28  C   UNL A   1      40.789  23.096  26.879  1.00  0.00     0.039 A 
ATOM     29  C   UNL A   1      41.669  23.194  27.960  1.00  0.00     0.014 A 
ATOM     30  C   UNL A   1      39.980  24.172  26.518  1.00  0.00     0.014 A 
ATOM     31  C   UNL A   1      41.790  24.413  28.617  1.00  0.00     0.010 A 
ATOM     32  C   UNL A   1      40.193  25.408  27.080  1.00  0.00     0.010 A 
ATOM     33  C   UNL A   1      41.073  25.527  28.151  1.00  0.00    -0.014 A 
BRANCH  33  34
ATOM     34  C   UNL A   1      41.368  26.856  28.676  1.00  0.00     0.031 A 
ATOM     35  C   UNL A   1      42.537  27.515  28.036  1.00  0.00     0.074 A 
ATOM     36  C   UNL A   1      40.553  27.529  29.516  1.00  0.00     0.049 A 
ATOM     37  N   UNL A   1      43.641  27.866  28.605  1.00  0.00    -0.248 NA
ATOM     38  C   UNL A   1      42.542  27.691  26.575  1.00  0.00     0.031 C 
ATOM     39  C   UNL A   1      39.235  27.125  30.011  1.00  0.00     0.029 A 
ATOM     40  N   UNL A   1      40.688  28.787  30.024  1.00  0.00    -0.354 N 
ATOM     41  C   UNL A   1      44.408  28.484  27.623  1.00  0.00     0.074 A 
ATOM     42  C   UNL A   1      43.759  28.201  26.370  1.00  0.00     0.031 C 
ATOM     43  C   UNL A   1      38.603  28.196  30.540  1.00  0.00     0.029 A 
ATOM     44  C   UNL A   1      39.520  29.322  30.557  1.00  0.00     0.049 A 
ATOM     45  H   UNL A   1      41.543  29.276  30.014  1.00  0.00     0.167 HD
ATOM     46  C   UNL A   1      45.369  29.385  27.973  1.00  0.00     0.037 A 
ATOM     47  C   UNL A   1      39.311  30.603  30.954  1.00  0.00     0.037 A 
ATOM     48  C   UNL A   1      45.727  29.233  29.366  1.00  0.00     0.049 A 
ATOM     49  C   UNL A   1      40.643  31.212  31.190  1.00  0.00     0.074 A 
ATOM     50  C   UNL A   1      46.182  28.180  30.139  1.00  0.00     0.029 A 
ATOM     51  N   UNL A   1      45.262  30.167  30.260  1.00  0.00    -0.354 N 
ATOM     52  N   UNL A   1      41.420  30.885  32.183  1.00  0.00    -0.248 NA
ATOM     53  C   UNL A   1      41.306  31.857  30.066  1.00  0.00     0.031 C 
ATOM     54  C   UNL A   1      45.501  28.317  31.385  1.00  0.00     0.029 A 
ATOM     55  C   UNL A   1      44.745  29.488  31.331  1.00  0.00     0.049 A 
ATOM     56  H   UNL A   1      45.294  31.145  30.150  1.00  0.00     0.167 HD
ATOM     57  C   UNL A   1      42.686  30.834  31.625  1.00  0.00     0.074 A 
ATOM     58  C   UNL A   1      42.573  31.547  30.354  1.00  0.00     0.031 C 
ATOM     59  C   UNL A   1      43.624  29.964  32.100  1.00  0.00     0.037 A 
BRANCH  46  60
ATOM     60  C   UNL A   1      45.663  30.658  27.208  1.00  0.00     0.064 A 
ATOM     61  C   UNL A   1      47.012  31.020  27.001  1.00  0.00     0.173 A 
ATOM     62  C   UNL A   1      44.722  31.685  26.984  1.00  0.00     0.173 A 
ATOM     63  F   UNL A   1      47.995  30.124  27.175  1.00  0.00    -0.203 F 
ATOM     64  C   UNL A   1      47.391  32.338  26.733  1.00  0.00     0.198 A 
ATOM     65  C   UNL A   1      45.102  32.987  26.664  1.00  0.00     0.198 A 
ATOM     66  F   UNL A   1      43.409  31.515  27.172  1.00  0.00    -0.203 F 
ATOM     67  F   UNL A   1      48.690  32.662  26.710  1.00  0.00    -0.200 F 
ATOM     68  C   UNL A   1      46.436  33.324  26.582  1.00  0.00     0.200 A 
ATOM     69  F   UNL A   1      44.160  33.932  26.532  1.00  0.00    -0.200 F 
ATOM     70  F   UNL A   1      46.797  34.602  26.409  1.00  0.00    -0.200 F 
ENDBRANCH  46  60
BRANCH  47  71
ATOM     71  C   UNL A   1      38.066  31.411  30.950  1.00  0.00     0.064 A 
ATOM     72  C   UNL A   1      37.399  31.701  29.745  1.00  0.00     0.173 A 
ATOM     73  C   UNL A   1      37.350  31.675  32.133  1.00  0.00     0.173 A 
ATOM     74  F   UNL A   1      37.988  31.450  28.567  1.00  0.00    -0.203 F 
ATOM     75  C   UNL A   1      36.083  32.178  29.727  1.00  0.00     0.198 A 
ATOM     76  C   UNL A   1      36.042  32.164  32.114  1.00  0.00     0.198 A 
ATOM     77  F   UNL A   1      37.863  31.373  33.333  1.00  0.00    -0.203 F 
ATOM     78  F   UNL A   1      35.457  32.364  28.556  1.00  0.00    -0.200 F 
ATOM     79  C   UNL A   1      35.402  32.397  30.911  1.00  0.00     0.200 A 
ATOM     80  F   UNL A   1      35.382  32.340  33.267  1.00  0.00    -0.200 F 
ATOM     81  F   UNL A   1      34.119  32.784  30.894  1.00  0.00    -0.200 F 
ENDBRANCH  47  71
BRANCH  59  82
ATOM     82  C   UNL A   1      43.356  29.287  33.414  1.00  0.00     0.064 A 
ATOM     83  C   UNL A   1      42.596  28.114  33.567  1.00  0.00     0.173 A 
ATOM     84  C   UNL A   1      43.998  29.790  34.554  1.00  0.00     0.173 A 
ATOM     85  F   UNL A   1      42.038  27.505  32.513  1.00  0.00    -0.203 F 
ATOM     86  C   UNL A   1      42.437  27.513  34.815  1.00  0.00     0.198 A 
ATOM     87  C   UNL A   1      43.873  29.164  35.790  1.00  0.00     0.198 A 
ATOM     88  F   UNL A   1      44.783  30.875  34.459  1.00  0.00    -0.203 F 
ATOM     89  F   UNL A   1      41.683  26.411  34.939  1.00  0.00    -0.200 F 
ATOM     90  C   UNL A   1      43.080  28.036  35.924  1.00  0.00     0.200 A 
ATOM     91  F   UNL A   1      44.538  29.646  36.849  1.00  0.00    -0.200 F 
ATOM     92  F   UNL A   1      42.956  27.440  37.118  1.00  0.00    -0.200 F 
ENDBRANCH  59  82
ENDBRANCH  33  34
ENDBRANCH  25  28
ENDBRANCH  23  24
ENDBRANCH  22  23
ENDBRANCH   1  22
TORSDOF 15
ENDMDL
