MODEL 1
REMARK VINA RESULT:     -12.7      0.000      0.000
REMARK SMILES CC(C)[C@H](C)n1c(SCC(=O)NCCCNC(=O)c2ccc(-c3c4nc(c(-c5c(F)c(F)c(F)c(F)c5F)c5ccc([nH]5)c(-c5c(F)c(F)c(F)c(F)c5F)c5nc(c(-c6c(F)c(F)c(F)c(F)c6F)c6ccc3[nH]6)C=C5)C=C4)cc2)nc2cc(Br)cnc21
REMARK SMILES IDX 13 1 12 2 10 3 11 4 9 6 8 7 7 8 6 9 89 10 82 11 83 12 88 13
REMARK SMILES IDX 84 14 87 15 85 16 86 17 4 18 5 19 2 20 1 21 3 22 14 23 15 24
REMARK SMILES IDX 16 25 17 26 18 28 19 29 20 30 81 31 21 32 80 33 22 34 23 35
REMARK SMILES IDX 24 36 74 37 25 38 79 39 73 40 75 41 26 42 78 43 72 44 71 45
REMARK SMILES IDX 27 47 59 48 39 49 58 50 40 51 43 52 57 53 76 54 41 55 42 56
REMARK SMILES IDX 56 58 77 59 44 60 28 61 29 62 37 63 30 64 31 65 35 66 38 67
REMARK SMILES IDX 32 68 33 69 36 70 34 71 60 72 61 73 69 74 62 75 63 76 67 77
REMARK SMILES IDX 70 78 64 79 65 80 68 81 66 82 45 83 46 84 54 85 47 86 48 87
REMARK SMILES IDX 52 88 55 89 49 90 50 91 53 92 51 93
REMARK H PARENT 12 5 16 27 75 46 43 57
REMARK Flexibility Score: inf
ROOT
ATOM      1  C   UNL A   1      36.242  21.170  25.494  1.00  0.00     0.117 C 
ENDROOT
BRANCH   1   2
ATOM      2  N   UNL A   1      35.631  21.910  26.588  1.00  0.00    -0.355 N 
ATOM      3  C   UNL A   1      34.318  22.157  26.849  1.00  0.00     0.230 C 
ATOM      4  O   UNL A   1      34.041  22.551  27.987  1.00  0.00    -0.274 OA
ATOM      5  H   UNL A   1      36.264  22.289  27.239  1.00  0.00     0.163 HD
BRANCH   3   6
ATOM      6  C   UNL A   1      33.219  21.903  25.834  1.00  0.00     0.178 C 
BRANCH   6   7
ATOM      7  S   UNL A   1      31.887  23.087  25.831  1.00  0.00    -0.078 SA
BRANCH   7   8
ATOM      8  C   UNL A   1      32.348  24.751  25.689  1.00  0.00     0.171 A 
ATOM      9  N   UNL A   1      33.051  25.461  24.726  1.00  0.00    -0.301 N 
ATOM     10  C   UNL A   1      32.848  26.800  25.015  1.00  0.00     0.161 A 
ATOM     11  N   UNL A   1      31.865  25.561  26.617  1.00  0.00    -0.221 NA
ATOM     12  C   UNL A   1      32.164  26.825  26.219  1.00  0.00     0.110 A 
ATOM     13  N   UNL A   1      33.233  27.872  24.294  1.00  0.00    -0.235 NA
ATOM     14  C   UNL A   1      31.876  28.063  26.805  1.00  0.00     0.049 A 
ATOM     15  C   UNL A   1      32.979  29.049  24.914  1.00  0.00     0.129 A 
ATOM     16  C   UNL A   1      32.329  29.195  26.133  1.00  0.00     0.038 A 
ATOM     17  Br  UNL A   1      32.066  30.909  26.876  1.00  0.00    -0.049 Br
BRANCH   9  18
ATOM     18  C   UNL A   1      33.737  24.991  23.526  1.00  0.00     0.091 C 
ATOM     19  C   UNL A   1      34.999  24.206  23.905  1.00  0.00     0.032 C 
BRANCH  18  20
ATOM     20  C   UNL A   1      32.872  24.360  22.379  1.00  0.00     0.006 C 
ATOM     21  C   UNL A   1      32.855  25.281  21.146  1.00  0.00     0.009 C 
ATOM     22  C   UNL A   1      33.250  22.959  21.902  1.00  0.00     0.009 C 
ENDBRANCH  18  20
ENDBRANCH   9  18
ENDBRANCH   7   8
ENDBRANCH   6   7
ENDBRANCH   3   6
ENDBRANCH   1   2
BRANCH   1  23
ATOM     23  C   UNL A   1      37.560  21.764  24.994  1.00  0.00     0.042 C 
BRANCH  23  24
ATOM     24  C   UNL A   1      38.267  22.611  26.035  1.00  0.00     0.118 C 
BRANCH  24  25
ATOM     25  N   UNL A   1      39.335  21.919  26.755  1.00  0.00    -0.352 N 
ATOM     26  C   UNL A   1      40.471  22.466  27.335  1.00  0.00     0.251 C 
ATOM     27  H   UNL A   1      39.235  20.943  26.841  1.00  0.00     0.163 HD
ATOM     28  O   UNL A   1      41.407  21.762  27.666  1.00  0.00    -0.269 OA
BRANCH  26  29
ATOM     29  C   UNL A   1      40.530  23.930  27.532  1.00  0.00     0.039 A 
ATOM     30  C   UNL A   1      39.514  24.769  27.072  1.00  0.00     0.014 A 
ATOM     31  C   UNL A   1      41.616  24.454  28.223  1.00  0.00     0.014 A 
ATOM     32  C   UNL A   1      39.577  26.125  27.388  1.00  0.00     0.010 A 
ATOM     33  C   UNL A   1      41.565  25.727  28.718  1.00  0.00     0.010 A 
ATOM     34  C   UNL A   1      40.600  26.591  28.233  1.00  0.00    -0.014 A 
BRANCH  34  35
ATOM     35  C   UNL A   1      40.630  27.973  28.690  1.00  0.00     0.031 A 
ATOM     36  C   UNL A   1      41.742  28.762  28.109  1.00  0.00     0.074 A 
ATOM     37  C   UNL A   1      39.656  28.541  29.436  1.00  0.00     0.049 A 
ATOM     38  N   UNL A   1      42.819  29.137  28.712  1.00  0.00    -0.248 NA
ATOM     39  C   UNL A   1      41.748  29.020  26.662  1.00  0.00     0.031 C 
ATOM     40  C   UNL A   1      38.347  27.982  29.802  1.00  0.00     0.029 A 
ATOM     41  N   UNL A   1      39.598  29.796  29.966  1.00  0.00    -0.354 N 
ATOM     42  C   UNL A   1      43.530  29.890  27.782  1.00  0.00     0.074 A 
ATOM     43  C   UNL A   1      42.936  29.611  26.503  1.00  0.00     0.031 C 
ATOM     44  C   UNL A   1      37.547  28.958  30.283  1.00  0.00     0.029 A 
ATOM     45  C   UNL A   1      38.346  30.156  30.450  1.00  0.00     0.049 A 
ATOM     46  H   UNL A   1      40.378  30.396  30.004  1.00  0.00     0.167 HD
ATOM     47  C   UNL A   1      44.326  30.908  28.212  1.00  0.00     0.037 A 
ATOM     48  C   UNL A   1      37.994  31.353  30.974  1.00  0.00     0.037 A 
ATOM     49  C   UNL A   1      44.541  30.803  29.636  1.00  0.00     0.049 A 
ATOM     50  C   UNL A   1      39.236  31.990  31.465  1.00  0.00     0.074 A 
ATOM     51  C   UNL A   1      45.285  30.014  30.484  1.00  0.00     0.029 A 
ATOM     52  N   UNL A   1      43.543  31.375  30.380  1.00  0.00    -0.354 N 
ATOM     53  N   UNL A   1      39.945  31.517  32.453  1.00  0.00    -0.248 NA
ATOM     54  C   UNL A   1      39.905  32.980  30.629  1.00  0.00     0.031 C 
ATOM     55  C   UNL A   1      44.590  30.005  31.732  1.00  0.00     0.029 A 
ATOM     56  C   UNL A   1      43.467  30.824  31.628  1.00  0.00     0.049 A 
ATOM     57  H   UNL A   1      42.954  32.094  30.055  1.00  0.00     0.167 HD
ATOM     58  C   UNL A   1      41.247  31.816  32.109  1.00  0.00     0.074 A 
ATOM     59  C   UNL A   1      41.150  32.861  31.098  1.00  0.00     0.031 C 
ATOM     60  C   UNL A   1      42.265  30.964  32.421  1.00  0.00     0.037 A 
BRANCH  47  61
ATOM     61  C   UNL A   1      44.469  32.249  27.517  1.00  0.00     0.064 A 
ATOM     62  C   UNL A   1      45.621  32.487  26.736  1.00  0.00     0.173 A 
ATOM     63  C   UNL A   1      43.717  33.399  27.842  1.00  0.00     0.173 A 
ATOM     64  F   UNL A   1      46.427  31.476  26.381  1.00  0.00    -0.203 F 
ATOM     65  C   UNL A   1      46.026  33.779  26.382  1.00  0.00     0.198 A 
ATOM     66  C   UNL A   1      44.098  34.681  27.445  1.00  0.00     0.198 A 
ATOM     67  F   UNL A   1      42.652  33.358  28.647  1.00  0.00    -0.203 F 
ATOM     68  F   UNL A   1      47.193  33.961  25.749  1.00  0.00    -0.200 F 
ATOM     69  C   UNL A   1      45.267  34.875  26.743  1.00  0.00     0.200 A 
ATOM     70  F   UNL A   1      43.361  35.734  27.829  1.00  0.00    -0.200 F 
ATOM     71  F   UNL A   1      45.682  36.117  26.460  1.00  0.00    -0.200 F 
ENDBRANCH  47  61
BRANCH  48  72
ATOM     72  C   UNL A   1      36.724  32.101  30.821  1.00  0.00     0.064 A 
ATOM     73  C   UNL A   1      35.880  32.310  31.924  1.00  0.00     0.173 A 
ATOM     74  C   UNL A   1      36.482  32.896  29.685  1.00  0.00     0.173 A 
ATOM     75  F   UNL A   1      36.061  31.611  33.054  1.00  0.00    -0.203 F 
ATOM     76  C   UNL A   1      34.897  33.304  31.917  1.00  0.00     0.198 A 
ATOM     77  C   UNL A   1      35.497  33.885  29.677  1.00  0.00     0.198 A 
ATOM     78  F   UNL A   1      37.266  32.801  28.601  1.00  0.00    -0.203 F 
ATOM     79  F   UNL A   1      34.170  33.533  33.019  1.00  0.00    -0.200 F 
ATOM     80  C   UNL A   1      34.720  34.103  30.800  1.00  0.00     0.200 A 
ATOM     81  F   UNL A   1      35.357  34.676  28.603  1.00  0.00    -0.200 F 
ATOM     82  F   UNL A   1      33.837  35.111  30.822  1.00  0.00    -0.200 F 
ENDBRANCH  48  72
BRANCH  60  83
ATOM     83  C   UNL A   1      42.054  30.012  33.557  1.00  0.00     0.064 A 
ATOM     84  C   UNL A   1      41.637  28.680  33.419  1.00  0.00     0.173 A 
ATOM     85  C   UNL A   1      42.387  30.458  34.843  1.00  0.00     0.173 A 
ATOM     86  F   UNL A   1      41.363  28.162  32.215  1.00  0.00    -0.203 F 
ATOM     87  C   UNL A   1      41.538  27.839  34.529  1.00  0.00     0.198 A 
ATOM     88  C   UNL A   1      42.322  29.608  35.943  1.00  0.00     0.198 A 
ATOM     89  F   UNL A   1      42.822  31.714  35.027  1.00  0.00    -0.203 F 
ATOM     90  F   UNL A   1      41.126  26.571  34.377  1.00  0.00    -0.200 F 
ATOM     91  C   UNL A   1      41.890  28.302  35.786  1.00  0.00     0.200 A 
ATOM     92  F   UNL A   1      42.700  30.051  37.149  1.00  0.00    -0.200 F 
ATOM     93  F   UNL A   1      41.834  27.483  36.846  1.00  0.00    -0.200 F 
ENDBRANCH  60  83
ENDBRANCH  34  35
ENDBRANCH  26  29
ENDBRANCH  24  25
ENDBRANCH  23  24
ENDBRANCH   1  23
TORSDOF 14
ENDMDL
MODEL 2
REMARK VINA RESULT:     -12.7      2.646      3.889
REMARK SMILES CC(C)[C@H](C)n1c(SCC(=O)NCCCNC(=O)c2ccc(-c3c4nc(c(-c5c(F)c(F)c(F)c(F)c5F)c5ccc([nH]5)c(-c5c(F)c(F)c(F)c(F)c5F)c5nc(c(-c6c(F)c(F)c(F)c(F)c6F)c6ccc3[nH]6)C=C5)C=C4)cc2)nc2cc(Br)cnc21
REMARK SMILES IDX 13 1 12 2 10 3 11 4 9 6 8 7 7 8 6 9 89 10 82 11 83 12 88 13
REMARK SMILES IDX 84 14 87 15 85 16 86 17 4 18 5 19 2 20 1 21 3 22 14 23 15 24
REMARK SMILES IDX 16 25 17 26 18 28 19 29 20 30 81 31 21 32 80 33 22 34 23 35
REMARK SMILES IDX 24 36 74 37 25 38 79 39 73 40 75 41 26 42 78 43 72 44 71 45
REMARK SMILES IDX 27 47 59 48 39 49 58 50 40 51 43 52 57 53 76 54 41 55 42 56
REMARK SMILES IDX 56 58 77 59 44 60 28 61 29 62 37 63 30 64 31 65 35 66 38 67
REMARK SMILES IDX 32 68 33 69 36 70 34 71 60 72 61 73 69 74 62 75 63 76 67 77
REMARK SMILES IDX 70 78 64 79 65 80 68 81 66 82 45 83 46 84 54 85 47 86 48 87
REMARK SMILES IDX 52 88 55 89 49 90 50 91 53 92 51 93
REMARK H PARENT 12 5 16 27 75 46 43 57
REMARK Flexibility Score: inf
ROOT
ATOM      1  C   UNL A   1      39.540  19.649  25.878  1.00  0.00     0.117 C 
ENDROOT
BRANCH   1   2
ATOM      2  N   UNL A   1      39.524  21.104  25.899  1.00  0.00    -0.355 N 
ATOM      3  C   UNL A   1      38.475  21.967  25.796  1.00  0.00     0.230 C 
ATOM      4  O   UNL A   1      38.681  23.136  26.137  1.00  0.00    -0.274 OA
ATOM      5  H   UNL A   1      40.405  21.530  26.006  1.00  0.00     0.163 HD
BRANCH   3   6
ATOM      6  C   UNL A   1      37.093  21.527  25.352  1.00  0.00     0.178 C 
BRANCH   6   7
ATOM      7  S   UNL A   1      36.369  22.479  24.031  1.00  0.00    -0.078 SA
BRANCH   7   8
ATOM      8  C   UNL A   1      34.970  23.413  24.444  1.00  0.00     0.171 A 
ATOM      9  N   UNL A   1      33.610  23.135  24.442  1.00  0.00    -0.301 N 
ATOM     10  C   UNL A   1      33.009  24.164  25.148  1.00  0.00     0.161 A 
ATOM     11  N   UNL A   1      35.210  24.604  24.967  1.00  0.00    -0.221 NA
ATOM     12  C   UNL A   1      34.015  25.081  25.404  1.00  0.00     0.110 A 
ATOM     13  N   UNL A   1      31.717  24.274  25.514  1.00  0.00    -0.235 NA
ATOM     14  C   UNL A   1      33.687  26.277  26.053  1.00  0.00     0.049 A 
ATOM     15  C   UNL A   1      31.428  25.463  26.097  1.00  0.00     0.129 A 
ATOM     16  C   UNL A   1      32.346  26.467  26.376  1.00  0.00     0.038 A 
ATOM     17  Br  UNL A   1      31.782  28.079  27.179  1.00  0.00    -0.049 Br
BRANCH   9  18
ATOM     18  C   UNL A   1      32.894  21.951  23.978  1.00  0.00     0.091 C 
ATOM     19  C   UNL A   1      32.585  22.065  22.480  1.00  0.00     0.032 C 
BRANCH  18  20
ATOM     20  C   UNL A   1      33.404  20.545  24.454  1.00  0.00     0.006 C 
ATOM     21  C   UNL A   1      33.346  20.440  25.989  1.00  0.00     0.009 C 
ATOM     22  C   UNL A   1      32.706  19.313  23.882  1.00  0.00     0.009 C 
ENDBRANCH  18  20
ENDBRANCH   9  18
ENDBRANCH   7   8
ENDBRANCH   6   7
ENDBRANCH   3   6
ENDBRANCH   1   2
BRANCH   1  23
ATOM     23  C   UNL A   1      40.937  19.040  25.737  1.00  0.00     0.042 C 
BRANCH  23  24
ATOM     24  C   UNL A   1      42.047  19.988  26.152  1.00  0.00     0.118 C 
BRANCH  24  25
ATOM     25  N   UNL A   1      43.330  19.741  25.496  1.00  0.00    -0.352 N 
ATOM     26  C   UNL A   1      44.245  20.672  25.025  1.00  0.00     0.251 C 
ATOM     27  H   UNL A   1      43.577  18.795  25.375  1.00  0.00     0.163 HD
ATOM     28  O   UNL A   1      45.138  20.344  24.265  1.00  0.00    -0.269 OA
BRANCH  26  29
ATOM     29  C   UNL A   1      44.104  22.080  25.452  1.00  0.00     0.039 A 
ATOM     30  C   UNL A   1      43.311  22.983  24.743  1.00  0.00     0.014 A 
ATOM     31  C   UNL A   1      44.760  22.480  26.611  1.00  0.00     0.014 A 
ATOM     32  C   UNL A   1      43.133  24.263  25.263  1.00  0.00     0.010 A 
ATOM     33  C   UNL A   1      44.411  23.648  27.229  1.00  0.00     0.010 A 
ATOM     34  C   UNL A   1      43.672  24.579  26.523  1.00  0.00    -0.014 A 
BRANCH  34  35
ATOM     35  C   UNL A   1      43.403  25.861  27.158  1.00  0.00     0.031 A 
ATOM     36  C   UNL A   1      44.344  26.931  26.749  1.00  0.00     0.074 A 
ATOM     37  C   UNL A   1      42.313  26.111  27.917  1.00  0.00     0.049 A 
ATOM     38  N   UNL A   1      45.303  27.427  27.454  1.00  0.00    -0.248 NA
ATOM     39  C   UNL A   1      44.335  27.385  25.351  1.00  0.00     0.031 C 
ATOM     40  C   UNL A   1      41.138  25.254  28.135  1.00  0.00     0.029 A 
ATOM     41  N   UNL A   1      41.983  27.242  28.605  1.00  0.00    -0.354 N 
ATOM     42  C   UNL A   1      45.867  28.430  26.672  1.00  0.00     0.074 A 
ATOM     43  C   UNL A   1      45.379  28.219  25.336  1.00  0.00     0.031 C 
ATOM     44  C   UNL A   1      40.142  25.973  28.695  1.00  0.00     0.029 A 
ATOM     45  C   UNL A   1      40.671  27.272  29.062  1.00  0.00     0.049 A 
ATOM     46  H   UNL A   1      42.620  27.976  28.764  1.00  0.00     0.167 HD
ATOM     47  C   UNL A   1      46.424  29.516  27.275  1.00  0.00     0.037 A 
ATOM     48  C   UNL A   1      40.065  28.288  29.719  1.00  0.00     0.037 A 
ATOM     49  C   UNL A   1      46.618  29.259  28.682  1.00  0.00     0.049 A 
ATOM     50  C   UNL A   1      41.135  29.086  30.357  1.00  0.00     0.074 A 
ATOM     51  C   UNL A   1      47.486  28.525  29.459  1.00  0.00     0.029 A 
ATOM     52  N   UNL A   1      45.503  29.508  29.439  1.00  0.00    -0.354 N 
ATOM     53  N   UNL A   1      41.899  28.632  31.312  1.00  0.00    -0.248 NA
ATOM     54  C   UNL A   1      41.607  30.298  29.697  1.00  0.00     0.031 C 
ATOM     55  C   UNL A   1      46.774  28.201  30.654  1.00  0.00     0.029 A 
ATOM     56  C   UNL A   1      45.509  28.783  30.598  1.00  0.00     0.049 A 
ATOM     57  H   UNL A   1      44.787  30.133  29.180  1.00  0.00     0.167 HD
ATOM     58  C   UNL A   1      43.121  29.231  31.082  1.00  0.00     0.074 A 
ATOM     59  C   UNL A   1      42.836  30.367  30.214  1.00  0.00     0.031 C 
ATOM     60  C   UNL A   1      44.284  28.567  31.335  1.00  0.00     0.037 A 
BRANCH  47  61
ATOM     61  C   UNL A   1      46.305  30.943  26.772  1.00  0.00     0.064 A 
ATOM     62  C   UNL A   1      47.452  31.768  26.799  1.00  0.00     0.173 A 
ATOM     63  C   UNL A   1      45.082  31.623  26.584  1.00  0.00     0.173 A 
ATOM     64  F   UNL A   1      48.669  31.240  26.992  1.00  0.00    -0.203 F 
ATOM     65  C   UNL A   1      47.366  33.163  26.726  1.00  0.00     0.198 A 
ATOM     66  C   UNL A   1      45.006  33.011  26.462  1.00  0.00     0.198 A 
ATOM     67  F   UNL A   1      43.901  31.000  26.624  1.00  0.00    -0.203 F 
ATOM     68  F   UNL A   1      48.469  33.907  26.884  1.00  0.00    -0.200 F 
ATOM     69  C   UNL A   1      46.142  33.782  26.565  1.00  0.00     0.200 A 
ATOM     70  F   UNL A   1      43.806  33.594  26.333  1.00  0.00    -0.200 F 
ATOM     71  F   UNL A   1      46.049  35.119  26.556  1.00  0.00    -0.200 F 
ENDBRANCH  47  61
BRANCH  48  72
ATOM     72  C   UNL A   1      38.673  28.779  29.596  1.00  0.00     0.064 A 
ATOM     73  C   UNL A   1      37.875  28.959  30.738  1.00  0.00     0.173 A 
ATOM     74  C   UNL A   1      38.219  29.387  28.410  1.00  0.00     0.173 A 
ATOM     75  F   UNL A   1      38.250  28.433  31.913  1.00  0.00    -0.203 F 
ATOM     76  C   UNL A   1      36.727  29.757  30.712  1.00  0.00     0.198 A 
ATOM     77  C   UNL A   1      37.071  30.180  28.385  1.00  0.00     0.198 A 
ATOM     78  F   UNL A   1      38.938  29.311  27.281  1.00  0.00    -0.203 F 
ATOM     79  F   UNL A   1      36.040  29.976  31.842  1.00  0.00    -0.200 F 
ATOM     80  C   UNL A   1      36.338  30.383  29.541  1.00  0.00     0.200 A 
ATOM     81  F   UNL A   1      36.722  30.810  27.254  1.00  0.00    -0.200 F 
ATOM     82  F   UNL A   1      35.288  31.216  29.534  1.00  0.00    -0.200 F 
ENDBRANCH  48  72
BRANCH  60  83
ATOM     83  C   UNL A   1      44.244  27.442  32.322  1.00  0.00     0.064 A 
ATOM     84  C   UNL A   1      44.120  27.597  33.711  1.00  0.00     0.173 A 
ATOM     85  C   UNL A   1      44.236  26.136  31.812  1.00  0.00     0.173 A 
ATOM     86  F   UNL A   1      44.055  28.813  34.267  1.00  0.00    -0.203 F 
ATOM     87  C   UNL A   1      44.016  26.489  34.552  1.00  0.00     0.198 A 
ATOM     88  C   UNL A   1      44.096  25.034  32.649  1.00  0.00     0.198 A 
ATOM     89  F   UNL A   1      44.321  25.932  30.489  1.00  0.00    -0.203 F 
ATOM     90  F   UNL A   1      43.908  26.658  35.879  1.00  0.00    -0.200 F 
ATOM     91  C   UNL A   1      43.993  25.210  34.018  1.00  0.00     0.200 A 
ATOM     92  F   UNL A   1      44.037  23.803  32.123  1.00  0.00    -0.200 F 
ATOM     93  F   UNL A   1      43.852  24.146  34.822  1.00  0.00    -0.200 F 
ENDBRANCH  60  83
ENDBRANCH  34  35
ENDBRANCH  26  29
ENDBRANCH  24  25
ENDBRANCH  23  24
ENDBRANCH   1  23
TORSDOF 14
ENDMDL
MODEL 3
REMARK VINA RESULT:     -12.7      3.472      8.951
REMARK SMILES CC(C)[C@H](C)n1c(SCC(=O)NCCCNC(=O)c2ccc(-c3c4nc(c(-c5c(F)c(F)c(F)c(F)c5F)c5ccc([nH]5)c(-c5c(F)c(F)c(F)c(F)c5F)c5nc(c(-c6c(F)c(F)c(F)c(F)c6F)c6ccc3[nH]6)C=C5)C=C4)cc2)nc2cc(Br)cnc21
REMARK SMILES IDX 13 1 12 2 10 3 11 4 9 6 8 7 7 8 6 9 89 10 82 11 83 12 88 13
REMARK SMILES IDX 84 14 87 15 85 16 86 17 4 18 5 19 2 20 1 21 3 22 14 23 15 24
REMARK SMILES IDX 16 25 17 26 18 28 19 29 20 30 81 31 21 32 80 33 22 34 23 35
REMARK SMILES IDX 24 36 74 37 25 38 79 39 73 40 75 41 26 42 78 43 72 44 71 45
REMARK SMILES IDX 27 47 59 48 39 49 58 50 40 51 43 52 57 53 76 54 41 55 42 56
REMARK SMILES IDX 56 58 77 59 44 60 28 61 29 62 37 63 30 64 31 65 35 66 38 67
REMARK SMILES IDX 32 68 33 69 36 70 34 71 60 72 61 73 69 74 62 75 63 76 67 77
REMARK SMILES IDX 70 78 64 79 65 80 68 81 66 82 45 83 46 84 54 85 47 86 48 87
REMARK SMILES IDX 52 88 55 89 49 90 50 91 53 92 51 93
REMARK H PARENT 12 5 16 27 75 46 43 57
REMARK Flexibility Score: inf
ROOT
ATOM      1  C   UNL A   1      33.069  30.569  26.806  1.00  0.00     0.117 C 
ENDROOT
BRANCH   1   2
ATOM      2  N   UNL A   1      32.109  29.527  27.140  1.00  0.00    -0.355 N 
ATOM      3  C   UNL A   1      32.212  28.175  27.021  1.00  0.00     0.230 C 
ATOM      4  O   UNL A   1      31.387  27.497  27.642  1.00  0.00    -0.274 OA
ATOM      5  H   UNL A   1      31.255  29.849  27.508  1.00  0.00     0.163 HD
BRANCH   3   6
ATOM      6  C   UNL A   1      33.319  27.504  26.228  1.00  0.00     0.178 C 
BRANCH   6   7
ATOM      7  S   UNL A   1      32.833  26.066  25.295  1.00  0.00    -0.078 SA
BRANCH   7   8
ATOM      8  C   UNL A   1      33.832  24.664  25.482  1.00  0.00     0.171 A 
ATOM      9  N   UNL A   1      33.601  23.306  25.311  1.00  0.00    -0.301 N 
ATOM     10  C   UNL A   1      34.848  22.702  25.322  1.00  0.00     0.161 A 
ATOM     11  N   UNL A   1      35.107  24.899  25.743  1.00  0.00    -0.221 NA
ATOM     12  C   UNL A   1      35.746  23.704  25.650  1.00  0.00     0.110 A 
ATOM     13  N   UNL A   1      35.147  21.412  25.074  1.00  0.00    -0.235 NA
ATOM     14  C   UNL A   1      37.098  23.373  25.805  1.00  0.00     0.049 A 
ATOM     15  C   UNL A   1      36.454  21.119  25.280  1.00  0.00     0.129 A 
ATOM     16  C   UNL A   1      37.437  22.033  25.639  1.00  0.00     0.038 A 
ATOM     17  Br  UNL A   1      39.217  21.464  25.906  1.00  0.00    -0.049 Br
BRANCH   9  18
ATOM     18  C   UNL A   1      32.365  22.594  25.001  1.00  0.00     0.091 C 
ATOM     19  C   UNL A   1      31.315  22.846  26.091  1.00  0.00     0.032 C 
BRANCH  18  20
ATOM     20  C   UNL A   1      31.830  22.649  23.527  1.00  0.00     0.006 C 
ATOM     21  C   UNL A   1      30.726  23.712  23.392  1.00  0.00     0.009 C 
ATOM     22  C   UNL A   1      32.849  22.899  22.418  1.00  0.00     0.009 C 
ENDBRANCH  18  20
ENDBRANCH   9  18
ENDBRANCH   7   8
ENDBRANCH   6   7
ENDBRANCH   3   6
ENDBRANCH   1   2
BRANCH   1  23
ATOM     23  C   UNL A   1      34.352  30.528  27.639  1.00  0.00     0.042 C 
BRANCH  23  24
ATOM     24  C   UNL A   1      34.905  31.905  27.953  1.00  0.00     0.118 C 
BRANCH  24  25
ATOM     25  N   UNL A   1      34.776  32.304  29.354  1.00  0.00    -0.352 N 
ATOM     26  C   UNL A   1      35.518  31.868  30.442  1.00  0.00     0.251 C 
ATOM     27  H   UNL A   1      34.074  32.967  29.549  1.00  0.00     0.163 HD
ATOM     28  O   UNL A   1      35.140  32.070  31.581  1.00  0.00    -0.269 OA
BRANCH  26  29
ATOM     29  C   UNL A   1      36.778  31.138  30.190  1.00  0.00     0.039 A 
ATOM     30  C   UNL A   1      37.986  31.810  29.992  1.00  0.00     0.014 A 
ATOM     31  C   UNL A   1      36.739  29.748  30.188  1.00  0.00     0.014 A 
ATOM     32  C   UNL A   1      39.153  31.058  29.871  1.00  0.00     0.010 A 
ATOM     33  C   UNL A   1      37.896  29.028  30.292  1.00  0.00     0.010 A 
ATOM     34  C   UNL A   1      39.099  29.664  30.045  1.00  0.00    -0.014 A 
BRANCH  34  35
ATOM     35  C   UNL A   1      40.311  28.858  30.053  1.00  0.00     0.031 A 
ATOM     36  C   UNL A   1      40.893  28.679  31.404  1.00  0.00     0.074 A 
ATOM     37  C   UNL A   1      40.780  28.193  28.972  1.00  0.00     0.049 A 
ATOM     38  N   UNL A   1      41.951  29.249  31.870  1.00  0.00    -0.248 NA
ATOM     39  C   UNL A   1      40.133  27.920  32.408  1.00  0.00     0.031 C 
ATOM     40  C   UNL A   1      40.134  28.010  27.664  1.00  0.00     0.029 A 
ATOM     41  N   UNL A   1      41.922  27.459  28.841  1.00  0.00    -0.354 N 
ATOM     42  C   UNL A   1      42.126  28.732  33.151  1.00  0.00     0.074 A 
ATOM     43  C   UNL A   1      40.886  28.095  33.498  1.00  0.00     0.031 C 
ATOM     44  C   UNL A   1      40.768  27.043  26.969  1.00  0.00     0.029 A 
ATOM     45  C   UNL A   1      41.975  26.686  27.687  1.00  0.00     0.049 A 
ATOM     46  H   UNL A   1      42.647  27.476  29.507  1.00  0.00     0.167 HD
ATOM     47  C   UNL A   1      43.384  28.609  33.658  1.00  0.00     0.037 A 
ATOM     48  C   UNL A   1      42.959  25.827  27.333  1.00  0.00     0.037 A 
ATOM     49  C   UNL A   1      44.317  29.370  32.861  1.00  0.00     0.049 A 
ATOM     50  C   UNL A   1      44.182  26.256  28.047  1.00  0.00     0.074 A 
ATOM     51  C   UNL A   1      44.640  30.697  32.686  1.00  0.00     0.029 A 
ATOM     52  N   UNL A   1      44.778  28.689  31.765  1.00  0.00    -0.354 N 
ATOM     53  N   UNL A   1      44.789  27.388  27.819  1.00  0.00    -0.248 NA
ATOM     54  C   UNL A   1      44.557  25.580  29.283  1.00  0.00     0.031 C 
ATOM     55  C   UNL A   1      45.163  30.808  31.361  1.00  0.00     0.029 A 
ATOM     56  C   UNL A   1      45.191  29.542  30.780  1.00  0.00     0.049 A 
ATOM     57  H   UNL A   1      44.808  27.707  31.696  1.00  0.00     0.167 HD
ATOM     58  C   UNL A   1      45.276  27.766  29.054  1.00  0.00     0.074 A 
ATOM     59  C   UNL A   1      45.272  26.551  29.859  1.00  0.00     0.031 C 
ATOM     60  C   UNL A   1      45.320  29.080  29.415  1.00  0.00     0.037 A 
BRANCH  47  61
ATOM     61  C   UNL A   1      43.872  27.440  34.492  1.00  0.00     0.064 A 
ATOM     62  C   UNL A   1      43.844  26.146  33.924  1.00  0.00     0.173 A 
ATOM     63  C   UNL A   1      44.045  27.476  35.892  1.00  0.00     0.173 A 
ATOM     64  F   UNL A   1      43.666  25.981  32.605  1.00  0.00    -0.203 F 
ATOM     65  C   UNL A   1      43.903  24.988  34.709  1.00  0.00     0.198 A 
ATOM     66  C   UNL A   1      44.153  26.320  36.665  1.00  0.00     0.198 A 
ATOM     67  F   UNL A   1      44.003  28.613  36.592  1.00  0.00    -0.203 F 
ATOM     68  F   UNL A   1      43.746  23.787  34.136  1.00  0.00    -0.200 F 
ATOM     69  C   UNL A   1      44.050  25.077  36.079  1.00  0.00     0.200 A 
ATOM     70  F   UNL A   1      44.268  26.428  37.997  1.00  0.00    -0.200 F 
ATOM     71  F   UNL A   1      44.045  23.974  36.840  1.00  0.00    -0.200 F 
ENDBRANCH  47  61
BRANCH  48  72
ATOM     72  C   UNL A   1      42.851  24.510  26.663  1.00  0.00     0.064 A 
ATOM     73  C   UNL A   1      43.403  24.310  25.387  1.00  0.00     0.173 A 
ATOM     74  C   UNL A   1      42.503  23.354  27.386  1.00  0.00     0.173 A 
ATOM     75  F   UNL A   1      43.783  25.359  24.645  1.00  0.00    -0.203 F 
ATOM     76  C   UNL A   1      43.657  23.028  24.891  1.00  0.00     0.198 A 
ATOM     77  C   UNL A   1      42.754  22.074  26.889  1.00  0.00     0.198 A 
ATOM     78  F   UNL A   1      42.014  23.444  28.631  1.00  0.00    -0.203 F 
ATOM     79  F   UNL A   1      44.266  22.878  23.706  1.00  0.00    -0.200 F 
ATOM     80  C   UNL A   1      43.351  21.912  25.651  1.00  0.00     0.200 A 
ATOM     81  F   UNL A   1      42.485  21.001  27.646  1.00  0.00    -0.200 F 
ATOM     82  F   UNL A   1      43.671  20.686  25.214  1.00  0.00    -0.200 F 
ENDBRANCH  48  72
BRANCH  60  83
ATOM     83  C   UNL A   1      45.344  30.103  28.323  1.00  0.00     0.064 A 
ATOM     84  C   UNL A   1      44.209  30.729  27.785  1.00  0.00     0.173 A 
ATOM     85  C   UNL A   1      46.598  30.535  27.870  1.00  0.00     0.173 A 
ATOM     86  F   UNL A   1      42.980  30.417  28.213  1.00  0.00    -0.203 F 
ATOM     87  C   UNL A   1      44.330  31.728  26.819  1.00  0.00     0.198 A 
ATOM     88  C   UNL A   1      46.717  31.556  26.933  1.00  0.00     0.198 A 
ATOM     89  F   UNL A   1      47.717  29.992  28.375  1.00  0.00    -0.203 F 
ATOM     90  F   UNL A   1      43.231  32.307  26.309  1.00  0.00    -0.200 F 
ATOM     91  C   UNL A   1      45.583  32.147  26.403  1.00  0.00     0.200 A 
ATOM     92  F   UNL A   1      47.933  31.981  26.564  1.00  0.00    -0.200 F 
ATOM     93  F   UNL A   1      45.700  33.135  25.505  1.00  0.00    -0.200 F 
ENDBRANCH  60  83
ENDBRANCH  34  35
ENDBRANCH  26  29
ENDBRANCH  24  25
ENDBRANCH  23  24
ENDBRANCH   1  23
TORSDOF 14
ENDMDL
