MODEL 1
REMARK VINA RESULT:     -14.1      0.000      0.000
REMARK SMILES Cc1ccc(Nc2c(Cl)cccc2Cl)c(CC(=O)NCCCNC(=O)c2ccc(-c3c4nc(c(-c5c(F)c(F)c(F)c(F)c5F)c5ccc([nH]5)c(-c5c(F)c(F)c(F)c(F)c5F)c5nc(c(-c6c(F)c(F)c(F)c(F)c6F)c6ccc3[nH]6)C=C5)C=C4)cc2)c1
REMARK SMILES IDX 20 1 19 2 17 3 18 4 16 6 15 7 1 8 2 9 3 10 89 11 4 12 5 13
REMARK SMILES IDX 6 14 7 16 8 17 13 18 9 19 10 20 12 21 14 22 11 23 21 24
REMARK SMILES IDX 22 25 23 26 24 27 25 29 26 30 27 31 88 32 28 33 87 34 29 35
REMARK SMILES IDX 30 36 31 37 81 38 32 39 86 40 80 41 82 42 33 43 85 44 79 45
REMARK SMILES IDX 78 46 34 48 66 49 46 50 65 51 47 52 50 53 64 54 83 55 48 56
REMARK SMILES IDX 49 57 63 59 84 60 51 61 35 62 36 63 44 64 37 65 38 66 42 67
REMARK SMILES IDX 45 68 39 69 40 70 43 71 41 72 67 73 68 74 76 75 69 76 70 77
REMARK SMILES IDX 74 78 77 79 71 80 72 81 75 82 73 83 52 84 53 85 61 86 54 87
REMARK SMILES IDX 55 88 59 89 62 90 56 91 57 92 60 93 58 94
REMARK H PARENT 19 5 6 15 23 28 82 47 50 58
REMARK Flexibility Score: inf
ROOT
ATOM      1  C   UNL A   1      33.458  28.292  26.410  1.00  0.00     0.117 C 
ENDROOT
BRANCH   1   2
ATOM      2  N   UNL A   1      32.283  27.442  26.543  1.00  0.00    -0.356 N 
ATOM      3  C   UNL A   1      32.179  26.088  26.396  1.00  0.00     0.224 C 
ATOM      4  O   UNL A   1      31.058  25.576  26.457  1.00  0.00    -0.275 OA
ATOM      5  H   UNL A   1      31.447  27.910  26.772  1.00  0.00     0.163 HD
BRANCH   3   6
ATOM      6  C   UNL A   1      33.403  25.227  26.127  1.00  0.00     0.137 C 
BRANCH   6   7
ATOM      7  C   UNL A   1      33.459  24.702  24.708  1.00  0.00    -0.015 A 
ATOM      8  C   UNL A   1      32.249  25.944  21.297  1.00  0.00     0.044 C 
ATOM      9  C   UNL A   1      32.858  25.085  22.364  1.00  0.00    -0.051 A 
ATOM     10  C   UNL A   1      33.275  23.791  22.064  1.00  0.00     0.005 A 
ATOM     11  C   UNL A   1      32.988  25.545  23.677  1.00  0.00     0.009 A 
ATOM     12  C   UNL A   1      33.800  22.968  23.063  1.00  0.00     0.026 A 
ATOM     13  C   UNL A   1      33.892  23.392  24.400  1.00  0.00     0.042 A 
BRANCH  13  14
ATOM     14  N   UNL A   1      34.443  22.550  25.392  1.00  0.00    -0.353 N 
ATOM     15  H   UNL A   1      33.945  22.514  26.240  1.00  0.00     0.167 HD
BRANCH  14  16
ATOM     16  C   UNL A   1      35.613  21.749  25.335  1.00  0.00     0.076 A 
ATOM     17  C   UNL A   1      36.910  22.271  25.515  1.00  0.00     0.066 A 
ATOM     18  C   UNL A   1      35.505  20.382  25.001  1.00  0.00     0.066 A 
ATOM     19  Cl  UNL A   1      37.185  23.904  26.027  1.00  0.00    -0.082 Cl
ATOM     20  C   UNL A   1      38.044  21.465  25.344  1.00  0.00     0.023 A 
ATOM     21  C   UNL A   1      36.639  19.578  24.839  1.00  0.00     0.023 A 
ATOM     22  Cl  UNL A   1      33.960  19.646  24.732  1.00  0.00    -0.082 Cl
ATOM     23  C   UNL A   1      37.909  20.121  25.002  1.00  0.00     0.003 A 
ENDBRANCH  14  16
ENDBRANCH  13  14
ENDBRANCH   6   7
ENDBRANCH   3   6
ENDBRANCH   1   2
BRANCH   1  24
ATOM     24  C   UNL A   1      33.631  29.238  27.595  1.00  0.00     0.042 C 
BRANCH  24  25
ATOM     25  C   UNL A   1      34.365  30.529  27.275  1.00  0.00     0.118 C 
BRANCH  25  26
ATOM     26  N   UNL A   1      34.777  31.284  28.455  1.00  0.00    -0.352 N 
ATOM     27  C   UNL A   1      35.821  31.019  29.330  1.00  0.00     0.251 C 
ATOM     28  H   UNL A   1      34.245  32.087  28.658  1.00  0.00     0.163 HD
ATOM     29  O   UNL A   1      36.066  31.762  30.262  1.00  0.00    -0.269 OA
BRANCH  27  30
ATOM     30  C   UNL A   1      36.708  29.871  29.027  1.00  0.00     0.039 A 
ATOM     31  C   UNL A   1      36.976  28.962  30.054  1.00  0.00     0.014 A 
ATOM     32  C   UNL A   1      37.440  29.846  27.844  1.00  0.00     0.014 A 
ATOM     33  C   UNL A   1      38.144  28.205  29.996  1.00  0.00     0.010 A 
ATOM     34  C   UNL A   1      38.646  29.175  27.830  1.00  0.00     0.010 A 
ATOM     35  C   UNL A   1      39.032  28.415  28.941  1.00  0.00    -0.014 A 
BRANCH  35  36
ATOM     36  C   UNL A   1      40.431  28.002  28.985  1.00  0.00     0.031 A 
ATOM     37  C   UNL A   1      40.852  26.685  28.471  1.00  0.00     0.074 A 
ATOM     38  C   UNL A   1      41.365  28.882  29.412  1.00  0.00     0.049 A 
ATOM     39  N   UNL A   1      41.971  26.111  28.765  1.00  0.00    -0.248 NA
ATOM     40  C   UNL A   1      40.008  25.882  27.600  1.00  0.00     0.031 C 
ATOM     41  C   UNL A   1      42.815  28.780  29.271  1.00  0.00     0.029 A 
ATOM     42  N   UNL A   1      41.179  29.973  30.280  1.00  0.00    -0.354 N 
ATOM     43  C   UNL A   1      42.123  25.025  27.935  1.00  0.00     0.074 A 
ATOM     44  C   UNL A   1      40.842  24.889  27.278  1.00  0.00     0.031 C 
ATOM     45  C   UNL A   1      43.393  29.509  30.237  1.00  0.00     0.029 A 
ATOM     46  C   UNL A   1      42.332  29.982  31.107  1.00  0.00     0.049 A 
ATOM     47  H   UNL A   1      40.415  30.593  30.308  1.00  0.00     0.167 HD
ATOM     48  C   UNL A   1      43.356  24.446  27.820  1.00  0.00     0.037 A 
ATOM     49  C   UNL A   1      42.236  29.736  32.446  1.00  0.00     0.037 A 
ATOM     50  C   UNL A   1      44.310  25.020  28.772  1.00  0.00     0.049 A 
ATOM     51  C   UNL A   1      43.024  28.537  32.933  1.00  0.00     0.074 A 
ATOM     52  C   UNL A   1      45.343  25.940  28.688  1.00  0.00     0.029 A 
ATOM     53  N   UNL A   1      44.082  24.834  30.124  1.00  0.00    -0.354 N 
ATOM     54  N   UNL A   1      43.668  27.712  32.155  1.00  0.00    -0.248 NA
ATOM     55  C   UNL A   1      43.053  28.114  34.335  1.00  0.00     0.031 C 
ATOM     56  C   UNL A   1      45.728  26.304  30.012  1.00  0.00     0.029 A 
ATOM     57  C   UNL A   1      44.925  25.607  30.896  1.00  0.00     0.049 A 
ATOM     58  H   UNL A   1      43.400  24.225  30.490  1.00  0.00     0.167 HD
ATOM     59  C   UNL A   1      44.127  26.657  32.895  1.00  0.00     0.074 A 
ATOM     60  C   UNL A   1      43.722  26.952  34.255  1.00  0.00     0.031 C 
ATOM     61  C   UNL A   1      44.765  25.591  32.338  1.00  0.00     0.037 A 
BRANCH  48  62
ATOM     62  C   UNL A   1      43.769  23.522  26.691  1.00  0.00     0.064 A 
ATOM     63  C   UNL A   1      43.308  22.186  26.650  1.00  0.00     0.173 A 
ATOM     64  C   UNL A   1      44.657  23.860  25.654  1.00  0.00     0.173 A 
ATOM     65  F   UNL A   1      42.363  21.742  27.487  1.00  0.00    -0.203 F 
ATOM     66  C   UNL A   1      43.800  21.246  25.739  1.00  0.00     0.198 A 
ATOM     67  C   UNL A   1      45.194  22.909  24.779  1.00  0.00     0.198 A 
ATOM     68  F   UNL A   1      44.981  25.131  25.397  1.00  0.00    -0.203 F 
ATOM     69  F   UNL A   1      43.329  19.991  25.760  1.00  0.00    -0.200 F 
ATOM     70  C   UNL A   1      44.777  21.597  24.832  1.00  0.00     0.200 A 
ATOM     71  F   UNL A   1      46.117  23.280  23.881  1.00  0.00    -0.200 F 
ATOM     72  F   UNL A   1      45.286  20.687  23.992  1.00  0.00    -0.200 F 
ENDBRANCH  48  62
BRANCH  49  73
ATOM     73  C   UNL A   1      40.944  30.192  33.026  1.00  0.00     0.064 A 
ATOM     74  C   UNL A   1      40.711  31.576  33.148  1.00  0.00     0.173 A 
ATOM     75  C   UNL A   1      39.839  29.339  33.118  1.00  0.00     0.173 A 
ATOM     76  F   UNL A   1      41.736  32.441  33.064  1.00  0.00    -0.203 F 
ATOM     77  C   UNL A   1      39.418  32.088  33.229  1.00  0.00     0.198 A 
ATOM     78  C   UNL A   1      38.547  29.855  33.225  1.00  0.00     0.198 A 
ATOM     79  F   UNL A   1      39.988  28.013  32.986  1.00  0.00    -0.203 F 
ATOM     80  F   UNL A   1      39.222  33.414  33.212  1.00  0.00    -0.200 F 
ATOM     81  C   UNL A   1      38.336  31.227  33.243  1.00  0.00     0.200 A 
ATOM     82  F   UNL A   1      37.497  29.022  33.210  1.00  0.00    -0.200 F 
ATOM     83  F   UNL A   1      37.088  31.715  33.227  1.00  0.00    -0.200 F 
ENDBRANCH  49  73
BRANCH  61  84
ATOM     84  C   UNL A   1      45.285  24.432  33.132  1.00  0.00     0.064 A 
ATOM     85  C   UNL A   1      44.472  23.344  33.486  1.00  0.00     0.173 A 
ATOM     86  C   UNL A   1      46.589  24.438  33.667  1.00  0.00     0.173 A 
ATOM     87  F   UNL A   1      43.201  23.274  33.063  1.00  0.00    -0.203 F 
ATOM     88  C   UNL A   1      44.946  22.313  34.299  1.00  0.00     0.198 A 
ATOM     89  C   UNL A   1      47.043  23.434  34.518  1.00  0.00     0.198 A 
ATOM     90  F   UNL A   1      47.464  25.407  33.357  1.00  0.00    -0.203 F 
ATOM     91  F   UNL A   1      44.154  21.268  34.577  1.00  0.00    -0.200 F 
ATOM     92  C   UNL A   1      46.225  22.365  34.826  1.00  0.00     0.200 A 
ATOM     93  F   UNL A   1      48.279  23.505  35.033  1.00  0.00    -0.200 F 
ATOM     94  F   UNL A   1      46.669  21.385  35.625  1.00  0.00    -0.200 F 
ENDBRANCH  61  84
ENDBRANCH  35  36
ENDBRANCH  27  30
ENDBRANCH  25  26
ENDBRANCH  24  25
ENDBRANCH   1  24
TORSDOF 13
ENDMDL
MODEL 2
REMARK VINA RESULT:     -14.1      3.977     10.106
REMARK SMILES Cc1ccc(Nc2c(Cl)cccc2Cl)c(CC(=O)NCCCNC(=O)c2ccc(-c3c4nc(c(-c5c(F)c(F)c(F)c(F)c5F)c5ccc([nH]5)c(-c5c(F)c(F)c(F)c(F)c5F)c5nc(c(-c6c(F)c(F)c(F)c(F)c6F)c6ccc3[nH]6)C=C5)C=C4)cc2)c1
REMARK SMILES IDX 20 1 19 2 17 3 18 4 16 6 15 7 1 8 2 9 3 10 89 11 4 12 5 13
REMARK SMILES IDX 6 14 7 16 8 17 13 18 9 19 10 20 12 21 14 22 11 23 21 24
REMARK SMILES IDX 22 25 23 26 24 27 25 29 26 30 27 31 88 32 28 33 87 34 29 35
REMARK SMILES IDX 30 36 31 37 81 38 32 39 86 40 80 41 82 42 33 43 85 44 79 45
REMARK SMILES IDX 78 46 34 48 66 49 46 50 65 51 47 52 50 53 64 54 83 55 48 56
REMARK SMILES IDX 49 57 63 59 84 60 51 61 35 62 36 63 44 64 37 65 38 66 42 67
REMARK SMILES IDX 45 68 39 69 40 70 43 71 41 72 67 73 68 74 76 75 69 76 70 77
REMARK SMILES IDX 74 78 77 79 71 80 72 81 75 82 73 83 52 84 53 85 61 86 54 87
REMARK SMILES IDX 55 88 59 89 62 90 56 91 57 92 60 93 58 94
REMARK H PARENT 19 5 6 15 23 28 82 47 50 58
REMARK Flexibility Score: inf
ROOT
ATOM      1  C   UNL A   1      36.965  21.409  25.023  1.00  0.00     0.117 C 
ENDROOT
BRANCH   1   2
ATOM      2  N   UNL A   1      36.086  21.145  26.154  1.00  0.00    -0.356 N 
ATOM      3  C   UNL A   1      34.929  21.777  26.511  1.00  0.00     0.224 C 
ATOM      4  O   UNL A   1      34.388  21.454  27.572  1.00  0.00    -0.275 OA
ATOM      5  H   UNL A   1      36.366  20.406  26.742  1.00  0.00     0.163 HD
BRANCH   3   6
ATOM      6  C   UNL A   1      34.333  22.878  25.648  1.00  0.00     0.137 C 
BRANCH   6   7
ATOM      7  C   UNL A   1      33.476  22.348  24.518  1.00  0.00    -0.015 A 
ATOM      8  C   UNL A   1      32.316  18.884  23.377  1.00  0.00     0.044 C 
ATOM      9  C   UNL A   1      32.528  20.367  23.432  1.00  0.00    -0.051 A 
ATOM     10  C   UNL A   1      32.104  21.171  22.377  1.00  0.00     0.005 A 
ATOM     11  C   UNL A   1      33.178  20.967  24.514  1.00  0.00     0.009 A 
ATOM     12  C   UNL A   1      32.339  22.548  22.399  1.00  0.00     0.026 A 
ATOM     13  C   UNL A   1      33.036  23.164  23.452  1.00  0.00     0.042 A 
BRANCH  13  14
ATOM     14  N   UNL A   1      33.248  24.562  23.463  1.00  0.00    -0.353 N 
ATOM     15  H   UNL A   1      34.189  24.847  23.433  1.00  0.00     0.167 HD
BRANCH  14  16
ATOM     16  C   UNL A   1      32.292  25.609  23.510  1.00  0.00     0.076 A 
ATOM     17  C   UNL A   1      31.678  26.035  24.705  1.00  0.00     0.066 A 
ATOM     18  C   UNL A   1      31.859  26.211  22.309  1.00  0.00     0.066 A 
ATOM     19  Cl  UNL A   1      32.183  25.456  26.259  1.00  0.00    -0.082 Cl
ATOM     20  C   UNL A   1      30.661  26.999  24.693  1.00  0.00     0.023 A 
ATOM     21  C   UNL A   1      30.849  27.180  22.300  1.00  0.00     0.023 A 
ATOM     22  Cl  UNL A   1      32.529  25.743  20.782  1.00  0.00    -0.082 Cl
ATOM     23  C   UNL A   1      30.244  27.568  23.491  1.00  0.00     0.003 A 
ENDBRANCH  14  16
ENDBRANCH  13  14
ENDBRANCH   6   7
ENDBRANCH   3   6
ENDBRANCH   1   2
BRANCH   1  24
ATOM     24  C   UNL A   1      38.438  21.441  25.423  1.00  0.00     0.042 C 
BRANCH  24  25
ATOM     25  C   UNL A   1      38.877  22.717  26.122  1.00  0.00     0.118 C 
BRANCH  25  26
ATOM     26  N   UNL A   1      40.324  22.835  26.284  1.00  0.00    -0.352 N 
ATOM     27  C   UNL A   1      41.070  23.965  26.583  1.00  0.00     0.251 C 
ATOM     28  H   UNL A   1      40.837  22.004  26.165  1.00  0.00     0.163 HD
ATOM     29  O   UNL A   1      42.278  23.905  26.719  1.00  0.00    -0.269 OA
BRANCH  27  30
ATOM     30  C   UNL A   1      40.344  25.228  26.854  1.00  0.00     0.039 A 
ATOM     31  C   UNL A   1      40.772  26.385  26.197  1.00  0.00     0.014 A 
ATOM     32  C   UNL A   1      39.439  25.301  27.909  1.00  0.00     0.014 A 
ATOM     33  C   UNL A   1      40.495  27.625  26.767  1.00  0.00     0.010 A 
ATOM     34  C   UNL A   1      39.249  26.519  28.531  1.00  0.00     0.010 A 
ATOM     35  C   UNL A   1      39.843  27.671  28.000  1.00  0.00    -0.014 A 
BRANCH  35  36
ATOM     36  C   UNL A   1      39.864  28.844  28.867  1.00  0.00     0.031 A 
ATOM     37  C   UNL A   1      38.837  29.896  28.750  1.00  0.00     0.074 A 
ATOM     38  C   UNL A   1      40.782  28.915  29.858  1.00  0.00     0.049 A 
ATOM     39  N   UNL A   1      38.960  31.091  29.222  1.00  0.00    -0.248 NA
ATOM     40  C   UNL A   1      37.584  29.686  28.040  1.00  0.00     0.031 C 
ATOM     41  C   UNL A   1      40.799  29.837  30.991  1.00  0.00     0.029 A 
ATOM     42  N   UNL A   1      42.036  28.281  29.909  1.00  0.00    -0.354 N 
ATOM     43  C   UNL A   1      37.736  31.712  29.132  1.00  0.00     0.074 A 
ATOM     44  C   UNL A   1      36.934  30.818  28.327  1.00  0.00     0.031 C 
ATOM     45  C   UNL A   1      42.064  29.965  31.420  1.00  0.00     0.029 A 
ATOM     46  C   UNL A   1      42.906  29.242  30.486  1.00  0.00     0.049 A 
ATOM     47  H   UNL A   1      42.261  27.371  29.609  1.00  0.00     0.167 HD
ATOM     48  C   UNL A   1      37.517  32.854  29.852  1.00  0.00     0.037 A 
ATOM     49  C   UNL A   1      43.934  29.779  29.765  1.00  0.00     0.037 A 
ATOM     50  C   UNL A   1      38.743  33.322  30.503  1.00  0.00     0.049 A 
ATOM     51  C   UNL A   1      43.877  31.284  29.598  1.00  0.00     0.074 A 
ATOM     52  C   UNL A   1      39.251  33.265  31.790  1.00  0.00     0.029 A 
ATOM     53  N   UNL A   1      39.792  33.738  29.703  1.00  0.00    -0.354 N 
ATOM     54  N   UNL A   1      42.889  32.034  29.998  1.00  0.00    -0.248 NA
ATOM     55  C   UNL A   1      44.889  32.046  28.863  1.00  0.00     0.031 C 
ATOM     56  C   UNL A   1      40.622  33.652  31.749  1.00  0.00     0.029 A 
ATOM     57  C   UNL A   1      40.945  33.938  30.435  1.00  0.00     0.049 A 
ATOM     58  H   UNL A   1      39.726  33.874  28.730  1.00  0.00     0.167 HD
ATOM     59  C   UNL A   1      43.079  33.312  29.547  1.00  0.00     0.074 A 
ATOM     60  C   UNL A   1      44.346  33.273  28.843  1.00  0.00     0.031 C 
ATOM     61  C   UNL A   1      42.164  34.302  29.738  1.00  0.00     0.037 A 
BRANCH  48  62
ATOM     62  C   UNL A   1      36.147  33.424  30.162  1.00  0.00     0.064 A 
ATOM     63  C   UNL A   1      35.357  33.995  29.138  1.00  0.00     0.173 A 
ATOM     64  C   UNL A   1      35.574  33.498  31.444  1.00  0.00     0.173 A 
ATOM     65  F   UNL A   1      35.698  33.895  27.847  1.00  0.00    -0.203 F 
ATOM     66  C   UNL A   1      34.174  34.694  29.398  1.00  0.00     0.198 A 
ATOM     67  C   UNL A   1      34.422  34.246  31.715  1.00  0.00     0.198 A 
ATOM     68  F   UNL A   1      36.059  32.791  32.469  1.00  0.00    -0.203 F 
ATOM     69  F   UNL A   1      33.477  35.222  28.382  1.00  0.00    -0.200 F 
ATOM     70  C   UNL A   1      33.730  34.858  30.693  1.00  0.00     0.200 A 
ATOM     71  F   UNL A   1      33.988  34.362  32.978  1.00  0.00    -0.200 F 
ATOM     72  F   UNL A   1      32.625  35.570  30.950  1.00  0.00    -0.200 F 
ENDBRANCH  48  62
BRANCH  49  73
ATOM     73  C   UNL A   1      44.487  28.835  28.757  1.00  0.00     0.064 A 
ATOM     74  C   UNL A   1      45.260  27.746  29.206  1.00  0.00     0.173 A 
ATOM     75  C   UNL A   1      43.989  28.781  27.451  1.00  0.00     0.173 A 
ATOM     76  F   UNL A   1      45.760  27.744  30.453  1.00  0.00    -0.203 F 
ATOM     77  C   UNL A   1      45.415  26.600  28.429  1.00  0.00     0.198 A 
ATOM     78  C   UNL A   1      44.170  27.642  26.666  1.00  0.00     0.198 A 
ATOM     79  F   UNL A   1      43.227  29.774  26.970  1.00  0.00    -0.203 F 
ATOM     80  F   UNL A   1      46.045  25.530  28.935  1.00  0.00    -0.200 F 
ATOM     81  C   UNL A   1      44.850  26.541  27.168  1.00  0.00     0.200 A 
ATOM     82  F   UNL A   1      43.597  27.573  25.456  1.00  0.00    -0.200 F 
ATOM     83  F   UNL A   1      44.917  25.409  26.454  1.00  0.00    -0.200 F 
ENDBRANCH  49  73
BRANCH  61  84
ATOM     84  C   UNL A   1      42.358  35.709  29.261  1.00  0.00     0.064 A 
ATOM     85  C   UNL A   1      41.837  36.162  28.039  1.00  0.00     0.173 A 
ATOM     86  C   UNL A   1      43.180  36.612  29.964  1.00  0.00     0.173 A 
ATOM     87  F   UNL A   1      41.081  35.358  27.277  1.00  0.00    -0.203 F 
ATOM     88  C   UNL A   1      42.098  37.450  27.567  1.00  0.00     0.198 A 
ATOM     89  C   UNL A   1      43.480  37.878  29.468  1.00  0.00     0.198 A 
ATOM     90  F   UNL A   1      43.693  36.299  31.164  1.00  0.00    -0.203 F 
ATOM     91  F   UNL A   1      41.545  37.862  26.418  1.00  0.00    -0.200 F 
ATOM     92  C   UNL A   1      42.931  38.302  28.273  1.00  0.00     0.200 A 
ATOM     93  F   UNL A   1      44.299  38.687  30.155  1.00  0.00    -0.200 F 
ATOM     94  F   UNL A   1      43.199  39.529  27.806  1.00  0.00    -0.200 F 
ENDBRANCH  61  84
ENDBRANCH  35  36
ENDBRANCH  27  30
ENDBRANCH  25  26
ENDBRANCH  24  25
ENDBRANCH   1  24
TORSDOF 13
ENDMDL
MODEL 3
REMARK VINA RESULT:     -14.0      3.932      9.941
REMARK SMILES Cc1ccc(Nc2c(Cl)cccc2Cl)c(CC(=O)NCCCNC(=O)c2ccc(-c3c4nc(c(-c5c(F)c(F)c(F)c(F)c5F)c5ccc([nH]5)c(-c5c(F)c(F)c(F)c(F)c5F)c5nc(c(-c6c(F)c(F)c(F)c(F)c6F)c6ccc3[nH]6)C=C5)C=C4)cc2)c1
REMARK SMILES IDX 20 1 19 2 17 3 18 4 16 6 15 7 1 8 2 9 3 10 89 11 4 12 5 13
REMARK SMILES IDX 6 14 7 16 8 17 13 18 9 19 10 20 12 21 14 22 11 23 21 24
REMARK SMILES IDX 22 25 23 26 24 27 25 29 26 30 27 31 88 32 28 33 87 34 29 35
REMARK SMILES IDX 30 36 31 37 81 38 32 39 86 40 80 41 82 42 33 43 85 44 79 45
REMARK SMILES IDX 78 46 34 48 66 49 46 50 65 51 47 52 50 53 64 54 83 55 48 56
REMARK SMILES IDX 49 57 63 59 84 60 51 61 35 62 36 63 44 64 37 65 38 66 42 67
REMARK SMILES IDX 45 68 39 69 40 70 43 71 41 72 67 73 68 74 76 75 69 76 70 77
REMARK SMILES IDX 74 78 77 79 71 80 72 81 75 82 73 83 52 84 53 85 61 86 54 87
REMARK SMILES IDX 55 88 59 89 62 90 56 91 57 92 60 93 58 94
REMARK H PARENT 19 5 6 15 23 28 82 47 50 58
REMARK Flexibility Score: inf
ROOT
ATOM      1  C   UNL A   1      36.777  21.486  25.232  1.00  0.00     0.117 C 
ENDROOT
BRANCH   1   2
ATOM      2  N   UNL A   1      36.225  22.265  24.133  1.00  0.00    -0.356 N 
ATOM      3  C   UNL A   1      35.484  23.412  24.178  1.00  0.00     0.224 C 
ATOM      4  O   UNL A   1      35.030  23.859  23.121  1.00  0.00    -0.275 OA
ATOM      5  H   UNL A   1      36.414  21.917  23.231  1.00  0.00     0.163 HD
BRANCH   3   6
ATOM      6  C   UNL A   1      35.189  24.110  25.496  1.00  0.00     0.137 C 
BRANCH   6   7
ATOM      7  C   UNL A   1      34.011  25.056  25.416  1.00  0.00    -0.015 A 
ATOM      8  C   UNL A   1      33.562  28.790  24.709  1.00  0.00     0.044 C 
ATOM      9  C   UNL A   1      33.264  27.360  25.043  1.00  0.00    -0.051 A 
ATOM     10  C   UNL A   1      31.982  26.990  25.441  1.00  0.00     0.005 A 
ATOM     11  C   UNL A   1      34.261  26.382  24.997  1.00  0.00     0.009 A 
ATOM     12  C   UNL A   1      31.707  25.667  25.799  1.00  0.00     0.026 A 
ATOM     13  C   UNL A   1      32.706  24.679  25.809  1.00  0.00     0.042 A 
BRANCH  13  14
ATOM     14  N   UNL A   1      32.402  23.344  26.158  1.00  0.00    -0.353 N 
ATOM     15  H   UNL A   1      31.998  23.220  27.047  1.00  0.00     0.167 HD
BRANCH  14  16
ATOM     16  C   UNL A   1      32.599  22.158  25.405  1.00  0.00     0.076 A 
ATOM     17  C   UNL A   1      32.079  21.976  24.108  1.00  0.00     0.066 A 
ATOM     18  C   UNL A   1      33.272  21.064  25.993  1.00  0.00     0.066 A 
ATOM     19  Cl  UNL A   1      31.322  23.263  23.229  1.00  0.00    -0.082 Cl
ATOM     20  C   UNL A   1      32.205  20.748  23.443  1.00  0.00     0.023 A 
ATOM     21  C   UNL A   1      33.404  19.843  25.324  1.00  0.00     0.023 A 
ATOM     22  Cl  UNL A   1      33.927  21.173  27.593  1.00  0.00    -0.082 Cl
ATOM     23  C   UNL A   1      32.863  19.681  24.052  1.00  0.00     0.003 A 
ENDBRANCH  14  16
ENDBRANCH  13  14
ENDBRANCH   6   7
ENDBRANCH   3   6
ENDBRANCH   1   2
BRANCH   1  24
ATOM     24  C   UNL A   1      38.291  21.644  25.358  1.00  0.00     0.042 C 
BRANCH  24  25
ATOM     25  C   UNL A   1      38.739  22.902  26.083  1.00  0.00     0.118 C 
BRANCH  25  26
ATOM     26  N   UNL A   1      40.176  22.957  26.338  1.00  0.00    -0.352 N 
ATOM     27  C   UNL A   1      40.943  24.046  26.725  1.00  0.00     0.251 C 
ATOM     28  H   UNL A   1      40.666  22.112  26.219  1.00  0.00     0.163 HD
ATOM     29  O   UNL A   1      42.138  23.933  26.933  1.00  0.00    -0.269 OA
BRANCH  27  30
ATOM     30  C   UNL A   1      40.248  25.325  27.001  1.00  0.00     0.039 A 
ATOM     31  C   UNL A   1      40.682  26.467  26.321  1.00  0.00     0.014 A 
ATOM     32  C   UNL A   1      39.372  25.426  28.077  1.00  0.00     0.014 A 
ATOM     33  C   UNL A   1      40.443  27.717  26.884  1.00  0.00     0.010 A 
ATOM     34  C   UNL A   1      39.220  26.654  28.690  1.00  0.00     0.010 A 
ATOM     35  C   UNL A   1      39.823  27.789  28.132  1.00  0.00    -0.014 A 
BRANCH  35  36
ATOM     36  C   UNL A   1      39.888  28.970  28.986  1.00  0.00     0.031 A 
ATOM     37  C   UNL A   1      38.859  30.024  28.906  1.00  0.00     0.074 A 
ATOM     38  C   UNL A   1      40.850  29.047  29.933  1.00  0.00     0.049 A 
ATOM     39  N   UNL A   1      39.008  31.224  29.360  1.00  0.00    -0.248 NA
ATOM     40  C   UNL A   1      37.574  29.813  28.257  1.00  0.00     0.031 C 
ATOM     41  C   UNL A   1      40.923  29.980  31.055  1.00  0.00     0.029 A 
ATOM     42  N   UNL A   1      42.104  28.410  29.932  1.00  0.00    -0.354 N 
ATOM     43  C   UNL A   1      37.782  31.848  29.321  1.00  0.00     0.074 A 
ATOM     44  C   UNL A   1      36.941  30.949  28.562  1.00  0.00     0.031 C 
ATOM     45  C   UNL A   1      42.206  30.108  31.423  1.00  0.00     0.029 A 
ATOM     46  C   UNL A   1      43.002  29.373  30.458  1.00  0.00     0.049 A 
ATOM     47  H   UNL A   1      42.312  27.496  29.631  1.00  0.00     0.167 HD
ATOM     48  C   UNL A   1      37.601  32.998  30.039  1.00  0.00     0.037 A 
ATOM     49  C   UNL A   1      43.997  29.899  29.685  1.00  0.00     0.037 A 
ATOM     50  C   UNL A   1      38.857  33.468  30.627  1.00  0.00     0.049 A 
ATOM     51  C   UNL A   1      43.938  31.403  29.506  1.00  0.00     0.074 A 
ATOM     52  C   UNL A   1      39.424  33.421  31.890  1.00  0.00     0.029 A 
ATOM     53  N   UNL A   1      39.870  33.873  29.776  1.00  0.00    -0.354 N 
ATOM     54  N   UNL A   1      42.972  32.160  29.944  1.00  0.00    -0.248 NA
ATOM     55  C   UNL A   1      44.917  32.154  28.717  1.00  0.00     0.031 C 
ATOM     56  C   UNL A   1      40.793  33.803  31.782  1.00  0.00     0.029 A 
ATOM     57  C   UNL A   1      41.055  34.076  30.452  1.00  0.00     0.049 A 
ATOM     58  H   UNL A   1      39.759  33.999  28.805  1.00  0.00     0.167 HD
ATOM     59  C   UNL A   1      43.145  33.433  29.472  1.00  0.00     0.074 A 
ATOM     60  C   UNL A   1      44.377  33.383  28.711  1.00  0.00     0.031 C 
ATOM     61  C   UNL A   1      42.242  34.428  29.695  1.00  0.00     0.037 A 
BRANCH  48  62
ATOM     62  C   UNL A   1      36.248  33.576  30.405  1.00  0.00     0.064 A 
ATOM     63  C   UNL A   1      35.407  34.125  29.411  1.00  0.00     0.173 A 
ATOM     64  C   UNL A   1      35.742  33.678  31.714  1.00  0.00     0.173 A 
ATOM     65  F   UNL A   1      35.681  33.996  28.107  1.00  0.00    -0.203 F 
ATOM     66  C   UNL A   1      34.238  34.831  29.717  1.00  0.00     0.198 A 
ATOM     67  C   UNL A   1      34.605  34.433  32.027  1.00  0.00     0.198 A 
ATOM     68  F   UNL A   1      36.279  32.994  32.728  1.00  0.00    -0.203 F 
ATOM     69  F   UNL A   1      33.490  35.337  28.726  1.00  0.00    -0.200 F 
ATOM     70  C   UNL A   1      33.862  35.024  31.028  1.00  0.00     0.200 A 
ATOM     71  F   UNL A   1      34.237  34.577  33.308  1.00  0.00    -0.200 F 
ATOM     72  F   UNL A   1      32.771  35.741  31.326  1.00  0.00    -0.200 F 
ENDBRANCH  48  62
BRANCH  49  73
ATOM     73  C   UNL A   1      44.500  28.944  28.662  1.00  0.00     0.064 A 
ATOM     74  C   UNL A   1      45.274  27.845  29.087  1.00  0.00     0.173 A 
ATOM     75  C   UNL A   1      43.954  28.891  27.375  1.00  0.00     0.173 A 
ATOM     76  F   UNL A   1      45.819  27.842  30.315  1.00  0.00    -0.203 F 
ATOM     77  C   UNL A   1      45.385  26.695  28.311  1.00  0.00     0.198 A 
ATOM     78  C   UNL A   1      44.090  27.746  26.589  1.00  0.00     0.198 A 
ATOM     79  F   UNL A   1      43.189  29.892  26.918  1.00  0.00    -0.203 F 
ATOM     80  F   UNL A   1      46.018  25.618  28.798  1.00  0.00    -0.200 F 
ATOM     81  C   UNL A   1      44.773  26.638  27.072  1.00  0.00     0.200 A 
ATOM     82  F   UNL A   1      43.473  27.680  25.402  1.00  0.00    -0.200 F 
ATOM     83  F   UNL A   1      44.799  25.502  26.361  1.00  0.00    -0.200 F 
ENDBRANCH  49  73
BRANCH  61  84
ATOM     84  C   UNL A   1      42.419  35.830  29.196  1.00  0.00     0.064 A 
ATOM     85  C   UNL A   1      41.855  36.269  27.988  1.00  0.00     0.173 A 
ATOM     86  C   UNL A   1      43.264  36.741  29.860  1.00  0.00     0.173 A 
ATOM     87  F   UNL A   1      41.073  35.456  27.262  1.00  0.00    -0.203 F 
ATOM     88  C   UNL A   1      42.098  37.551  27.493  1.00  0.00     0.198 A 
ATOM     89  C   UNL A   1      43.545  38.002  29.339  1.00  0.00     0.198 A 
ATOM     90  F   UNL A   1      43.819  36.441  31.044  1.00  0.00    -0.203 F 
ATOM     91  F   UNL A   1      41.504  37.950  26.359  1.00  0.00    -0.200 F 
ATOM     92  C   UNL A   1      42.954  38.411  28.159  1.00  0.00     0.200 A 
ATOM     93  F   UNL A   1      44.388  38.818  29.988  1.00  0.00    -0.200 F 
ATOM     94  F   UNL A   1      43.205  39.633  27.669  1.00  0.00    -0.200 F 
ENDBRANCH  61  84
ENDBRANCH  35  36
ENDBRANCH  27  30
ENDBRANCH  25  26
ENDBRANCH  24  25
ENDBRANCH   1  24
TORSDOF 13
ENDMDL
