MODEL 1
REMARK VINA RESULT:     -11.4      0.000      0.000
REMARK SMILES COc1ncnc(N2CCSC[C@@H]2CC(=O)NCCCNC(=O)c2ccc(-c3c4nc(c(-c5c(F)c(F)c(F)c(F)c5F)c5ccc([nH]5)c(-c5c(F)c(F)c(F)c(F)c5F)c5nc(c(-c6c(F)c(F)c(F)c(F)c6F)c6ccc3[nH]6)C=C5)C=C4)cc2)c1[N+](=O)[O-]
REMARK SMILES IDX 18 1 17 2 15 3 16 4 14 6 13 7 8 8 9 9 10 10 12 11 11 12 7 13
REMARK SMILES IDX 3 14 4 15 87 16 5 17 6 18 2 19 1 20 88 21 89 22 90 23 19 24
REMARK SMILES IDX 20 25 21 26 22 27 23 29 24 30 25 31 86 32 26 33 85 34 27 35
REMARK SMILES IDX 28 36 29 37 79 38 30 39 84 40 78 41 80 42 31 43 83 44 77 45
REMARK SMILES IDX 76 46 32 48 64 49 44 50 63 51 45 52 48 53 62 54 81 55 46 56
REMARK SMILES IDX 47 57 61 59 82 60 49 61 33 62 34 63 42 64 35 65 36 66 40 67
REMARK SMILES IDX 43 68 37 69 38 70 41 71 39 72 65 73 66 74 74 75 67 76 68 77
REMARK SMILES IDX 72 78 75 79 69 80 70 81 73 82 71 83 50 84 51 85 59 86 52 87
REMARK SMILES IDX 53 88 57 89 60 90 54 91 55 92 58 93 56 94
REMARK H PARENT 17 5 21 28 80 47 48 58
REMARK Flexibility Score: inf
ROOT
ATOM      1  C   UNL A   1      37.181  20.742  24.996  1.00  0.00     0.117 C 
ENDROOT
BRANCH   1   2
ATOM      2  N   UNL A   1      37.251  21.637  23.849  1.00  0.00    -0.356 N 
ATOM      3  C   UNL A   1      36.605  22.817  23.623  1.00  0.00     0.222 C 
ATOM      4  O   UNL A   1      36.654  23.319  22.501  1.00  0.00    -0.275 OA
ATOM      5  H   UNL A   1      37.855  21.347  23.128  1.00  0.00     0.163 HD
BRANCH   3   6
ATOM      6  C   UNL A   1      35.852  23.474  24.749  1.00  0.00     0.126 C 
BRANCH   6   7
ATOM      7  C   UNL A   1      34.334  23.207  24.773  1.00  0.00     0.103 C 
ATOM      8  N   UNL A   1      33.798  23.688  26.061  1.00  0.00    -0.345 N 
ATOM      9  C   UNL A   1      34.133  22.961  27.289  1.00  0.00     0.129 C 
ATOM     10  C   UNL A   1      33.914  21.447  27.234  1.00  0.00     0.091 C 
ATOM     11  C   UNL A   1      33.847  21.785  24.425  1.00  0.00     0.095 C 
ATOM     12  S   UNL A   1      33.183  20.705  25.747  1.00  0.00    -0.158 SA
BRANCH   8  13
ATOM     13  C   UNL A   1      32.578  24.354  26.041  1.00  0.00     0.215 A 
ATOM     14  C   UNL A   1      31.215  26.256  25.712  1.00  0.00     0.299 A 
ATOM     15  N   UNL A   1      30.104  25.577  26.051  1.00  0.00    -0.196 NA
ATOM     16  C   UNL A   1      32.465  25.693  25.728  1.00  0.00     0.372 A 
ATOM     17  C   UNL A   1      30.295  24.288  26.356  1.00  0.00     0.228 A 
ATOM     18  N   UNL A   1      31.472  23.641  26.336  1.00  0.00    -0.212 NA
BRANCH  14  19
ATOM     19  O   UNL A   1      31.023  27.576  25.396  1.00  0.00    -0.476 OA
ATOM     20  C   UNL A   1      30.421  27.677  24.106  1.00  0.00     0.280 C 
ENDBRANCH  14  19
BRANCH  16  21
ATOM     21  N   UNL A   1      33.593  26.451  25.304  1.00  0.00     0.072 N 
ATOM     22  O   UNL A   1      34.191  27.108  26.168  1.00  0.00    -0.258 OA
ATOM     23  O   UNL A   1      33.894  26.400  24.104  1.00  0.00    -0.258 OA
ENDBRANCH  16  21
ENDBRANCH   8  13
ENDBRANCH   6   7
ENDBRANCH   3   6
ENDBRANCH   1   2
BRANCH   1  24
ATOM     24  C   UNL A   1      38.350  19.762  24.995  1.00  0.00     0.042 C 
BRANCH  24  25
ATOM     25  C   UNL A   1      39.246  19.907  26.215  1.00  0.00     0.118 C 
BRANCH  25  26
ATOM     26  N   UNL A   1      40.416  19.048  26.125  1.00  0.00    -0.352 N 
ATOM     27  C   UNL A   1      41.748  19.371  26.044  1.00  0.00     0.251 C 
ATOM     28  H   UNL A   1      40.223  18.083  26.121  1.00  0.00     0.163 HD
ATOM     29  O   UNL A   1      42.553  18.498  25.716  1.00  0.00    -0.269 OA
BRANCH  27  30
ATOM     30  C   UNL A   1      42.236  20.742  26.329  1.00  0.00     0.039 A 
ATOM     31  C   UNL A   1      42.456  21.113  27.660  1.00  0.00     0.014 A 
ATOM     32  C   UNL A   1      42.410  21.689  25.318  1.00  0.00     0.014 A 
ATOM     33  C   UNL A   1      42.890  22.408  27.968  1.00  0.00     0.010 A 
ATOM     34  C   UNL A   1      42.934  22.947  25.614  1.00  0.00     0.010 A 
ATOM     35  C   UNL A   1      43.158  23.329  26.944  1.00  0.00    -0.014 A 
BRANCH  35  36
ATOM     36  C   UNL A   1      43.634  24.706  27.245  1.00  0.00     0.031 A 
ATOM     37  C   UNL A   1      42.670  25.751  27.743  1.00  0.00     0.074 A 
ATOM     38  C   UNL A   1      44.915  25.043  27.002  1.00  0.00     0.049 A 
ATOM     39  N   UNL A   1      42.874  27.023  27.979  1.00  0.00    -0.248 NA
ATOM     40  C   UNL A   1      41.284  25.315  27.971  1.00  0.00     0.031 C 
ATOM     41  C   UNL A   1      45.935  24.147  26.456  1.00  0.00     0.029 A 
ATOM     42  N   UNL A   1      45.572  26.236  27.166  1.00  0.00    -0.354 N 
ATOM     43  C   UNL A   1      41.639  27.543  28.343  1.00  0.00     0.074 A 
ATOM     44  C   UNL A   1      40.683  26.460  28.258  1.00  0.00     0.031 C 
ATOM     45  C   UNL A   1      47.091  24.818  26.341  1.00  0.00     0.029 A 
ATOM     46  C   UNL A   1      46.888  26.198  26.775  1.00  0.00     0.049 A 
ATOM     47  H   UNL A   1      45.141  27.044  27.528  1.00  0.00     0.167 HD
ATOM     48  C   UNL A   1      41.331  28.803  28.734  1.00  0.00     0.037 A 
ATOM     49  C   UNL A   1      47.824  27.165  26.760  1.00  0.00     0.037 A 
ATOM     50  C   UNL A   1      42.291  29.865  28.877  1.00  0.00     0.049 A 
ATOM     51  C   UNL A   1      47.475  28.541  27.252  1.00  0.00     0.074 A 
ATOM     52  C   UNL A   1      42.099  31.141  29.377  1.00  0.00     0.029 A 
ATOM     53  N   UNL A   1      43.627  29.773  28.516  1.00  0.00    -0.354 N 
ATOM     54  N   UNL A   1      46.323  28.999  27.677  1.00  0.00    -0.248 NA
ATOM     55  C   UNL A   1      48.559  29.536  27.268  1.00  0.00     0.031 C 
ATOM     56  C   UNL A   1      43.311  31.835  29.282  1.00  0.00     0.029 A 
ATOM     57  C   UNL A   1      44.266  30.978  28.759  1.00  0.00     0.049 A 
ATOM     58  H   UNL A   1      44.058  28.971  28.143  1.00  0.00     0.167 HD
ATOM     59  C   UNL A   1      46.542  30.326  28.021  1.00  0.00     0.074 A 
ATOM     60  C   UNL A   1      47.943  30.595  27.774  1.00  0.00     0.031 C 
ATOM     61  C   UNL A   1      45.659  31.237  28.498  1.00  0.00     0.037 A 
BRANCH  48  62
ATOM     62  C   UNL A   1      39.891  29.102  29.038  1.00  0.00     0.064 A 
ATOM     63  C   UNL A   1      39.389  29.061  30.348  1.00  0.00     0.173 A 
ATOM     64  C   UNL A   1      39.008  29.452  28.007  1.00  0.00     0.173 A 
ATOM     65  F   UNL A   1      40.190  28.721  31.369  1.00  0.00    -0.203 F 
ATOM     66  C   UNL A   1      38.045  29.322  30.608  1.00  0.00     0.198 A 
ATOM     67  C   UNL A   1      37.672  29.743  28.274  1.00  0.00     0.198 A 
ATOM     68  F   UNL A   1      39.438  29.513  26.738  1.00  0.00    -0.203 F 
ATOM     69  F   UNL A   1      37.575  29.222  31.859  1.00  0.00    -0.200 F 
ATOM     70  C   UNL A   1      37.190  29.668  29.572  1.00  0.00     0.200 A 
ATOM     71  F   UNL A   1      36.849  30.087  27.274  1.00  0.00    -0.200 F 
ATOM     72  F   UNL A   1      35.898  29.919  29.824  1.00  0.00    -0.200 F 
ENDBRANCH  48  62
BRANCH  49  73
ATOM     73  C   UNL A   1      49.191  26.847  26.279  1.00  0.00     0.064 A 
ATOM     74  C   UNL A   1      49.529  26.984  24.926  1.00  0.00     0.173 A 
ATOM     75  C   UNL A   1      50.195  26.434  27.167  1.00  0.00     0.173 A 
ATOM     76  F   UNL A   1      48.595  27.357  24.038  1.00  0.00    -0.203 F 
ATOM     77  C   UNL A   1      50.820  26.715  24.478  1.00  0.00     0.198 A 
ATOM     78  C   UNL A   1      51.492  26.187  26.720  1.00  0.00     0.198 A 
ATOM     79  F   UNL A   1      49.920  26.292  28.472  1.00  0.00    -0.203 F 
ATOM     80  F   UNL A   1      51.111  26.829  23.175  1.00  0.00    -0.200 F 
ATOM     81  C   UNL A   1      51.802  26.325  25.376  1.00  0.00     0.200 A 
ATOM     82  F   UNL A   1      52.441  25.822  27.593  1.00  0.00    -0.200 F 
ATOM     83  F   UNL A   1      53.047  26.080  24.946  1.00  0.00    -0.200 F 
ENDBRANCH  49  73
BRANCH  61  84
ATOM     84  C   UNL A   1      46.182  32.613  28.787  1.00  0.00     0.064 A 
ATOM     85  C   UNL A   1      46.138  33.628  27.821  1.00  0.00     0.173 A 
ATOM     86  C   UNL A   1      46.693  32.930  30.054  1.00  0.00     0.173 A 
ATOM     87  F   UNL A   1      45.673  33.370  26.590  1.00  0.00    -0.203 F 
ATOM     88  C   UNL A   1      46.604  34.909  28.109  1.00  0.00     0.198 A 
ATOM     89  C   UNL A   1      47.134  34.218  30.347  1.00  0.00     0.198 A 
ATOM     90  F   UNL A   1      46.751  31.994  31.013  1.00  0.00    -0.203 F 
ATOM     91  F   UNL A   1      46.588  35.855  27.159  1.00  0.00    -0.200 F 
ATOM     92  C   UNL A   1      47.095  35.204  29.372  1.00  0.00     0.200 A 
ATOM     93  F   UNL A   1      47.599  34.505  31.570  1.00  0.00    -0.200 F 
ATOM     94  F   UNL A   1      47.536  36.439  29.649  1.00  0.00    -0.200 F 
ENDBRANCH  61  84
ENDBRANCH  35  36
ENDBRANCH  27  30
ENDBRANCH  25  26
ENDBRANCH  24  25
ENDBRANCH   1  24
TORSDOF 14
ENDMDL
MODEL 2
REMARK VINA RESULT:     -11.3      1.238      2.157
REMARK SMILES COc1ncnc(N2CCSC[C@@H]2CC(=O)NCCCNC(=O)c2ccc(-c3c4nc(c(-c5c(F)c(F)c(F)c(F)c5F)c5ccc([nH]5)c(-c5c(F)c(F)c(F)c(F)c5F)c5nc(c(-c6c(F)c(F)c(F)c(F)c6F)c6ccc3[nH]6)C=C5)C=C4)cc2)c1[N+](=O)[O-]
REMARK SMILES IDX 18 1 17 2 15 3 16 4 14 6 13 7 8 8 9 9 10 10 12 11 11 12 7 13
REMARK SMILES IDX 3 14 4 15 87 16 5 17 6 18 2 19 1 20 88 21 89 22 90 23 19 24
REMARK SMILES IDX 20 25 21 26 22 27 23 29 24 30 25 31 86 32 26 33 85 34 27 35
REMARK SMILES IDX 28 36 29 37 79 38 30 39 84 40 78 41 80 42 31 43 83 44 77 45
REMARK SMILES IDX 76 46 32 48 64 49 44 50 63 51 45 52 48 53 62 54 81 55 46 56
REMARK SMILES IDX 47 57 61 59 82 60 49 61 33 62 34 63 42 64 35 65 36 66 40 67
REMARK SMILES IDX 43 68 37 69 38 70 41 71 39 72 65 73 66 74 74 75 67 76 68 77
REMARK SMILES IDX 72 78 75 79 69 80 70 81 73 82 71 83 50 84 51 85 59 86 52 87
REMARK SMILES IDX 53 88 57 89 60 90 54 91 55 92 58 93 56 94
REMARK H PARENT 17 5 21 28 80 47 48 58
REMARK Flexibility Score: inf
ROOT
ATOM      1  C   UNL A   1      36.499  20.198  25.000  1.00  0.00     0.117 C 
ENDROOT
BRANCH   1   2
ATOM      2  N   UNL A   1      35.336  19.322  25.002  1.00  0.00    -0.356 N 
ATOM      3  C   UNL A   1      34.037  19.597  24.688  1.00  0.00     0.222 C 
ATOM      4  O   UNL A   1      33.171  18.761  24.943  1.00  0.00    -0.275 OA
ATOM      5  H   UNL A   1      35.513  18.392  25.270  1.00  0.00     0.163 HD
BRANCH   3   6
ATOM      6  C   UNL A   1      33.696  20.911  24.035  1.00  0.00     0.126 C 
BRANCH   6   7
ATOM      7  C   UNL A   1      32.976  21.930  24.940  1.00  0.00     0.103 C 
ATOM      8  N   UNL A   1      33.459  23.281  24.592  1.00  0.00    -0.345 N 
ATOM      9  C   UNL A   1      34.831  23.659  24.944  1.00  0.00     0.129 C 
ATOM     10  C   UNL A   1      35.237  23.382  26.393  1.00  0.00     0.091 C 
ATOM     11  C   UNL A   1      32.981  21.673  26.461  1.00  0.00     0.095 C 
ATOM     12  S   UNL A   1      34.004  22.729  27.554  1.00  0.00    -0.158 SA
BRANCH   8  13
ATOM     13  C   UNL A   1      32.521  24.305  24.541  1.00  0.00     0.215 A 
ATOM     14  C   UNL A   1      31.416  26.107  23.483  1.00  0.00     0.299 A 
ATOM     15  N   UNL A   1      30.635  26.320  24.557  1.00  0.00    -0.196 NA
ATOM     16  C   UNL A   1      32.387  25.139  23.450  1.00  0.00     0.372 A 
ATOM     17  C   UNL A   1      30.832  25.481  25.581  1.00  0.00     0.228 A 
ATOM     18  N   UNL A   1      31.715  24.468  25.609  1.00  0.00    -0.212 NA
BRANCH  14  19
ATOM     19  O   UNL A   1      31.215  26.962  22.431  1.00  0.00    -0.476 OA
ATOM     20  C   UNL A   1      30.165  27.875  22.751  1.00  0.00     0.280 C 
ENDBRANCH  14  19
BRANCH  16  21
ATOM     21  N   UNL A   1      33.143  24.929  22.262  1.00  0.00     0.072 N 
ATOM     22  O   UNL A   1      34.028  25.756  22.000  1.00  0.00    -0.258 OA
ATOM     23  O   UNL A   1      32.861  23.936  21.578  1.00  0.00    -0.258 OA
ENDBRANCH  16  21
ENDBRANCH   8  13
ENDBRANCH   6   7
ENDBRANCH   3   6
ENDBRANCH   1   2
BRANCH   1  24
ATOM     24  C   UNL A   1      37.791  19.389  24.962  1.00  0.00     0.042 C 
BRANCH  24  25
ATOM     25  C   UNL A   1      38.929  20.051  25.722  1.00  0.00     0.118 C 
BRANCH  25  26
ATOM     26  N   UNL A   1      40.033  19.130  25.942  1.00  0.00    -0.352 N 
ATOM     27  C   UNL A   1      41.371  19.378  26.117  1.00  0.00     0.251 C 
ATOM     28  H   UNL A   1      39.780  18.180  25.971  1.00  0.00     0.163 HD
ATOM     29  O   UNL A   1      42.167  18.440  26.031  1.00  0.00    -0.269 OA
BRANCH  27  30
ATOM     30  C   UNL A   1      41.882  20.742  26.394  1.00  0.00     0.039 A 
ATOM     31  C   UNL A   1      42.164  21.098  27.718  1.00  0.00     0.014 A 
ATOM     32  C   UNL A   1      42.018  21.698  25.386  1.00  0.00     0.014 A 
ATOM     33  C   UNL A   1      42.621  22.386  28.018  1.00  0.00     0.010 A 
ATOM     34  C   UNL A   1      42.564  22.950  25.671  1.00  0.00     0.010 A 
ATOM     35  C   UNL A   1      42.850  23.316  26.993  1.00  0.00    -0.014 A 
BRANCH  35  36
ATOM     36  C   UNL A   1      43.349  24.686  27.287  1.00  0.00     0.031 A 
ATOM     37  C   UNL A   1      42.413  25.737  27.824  1.00  0.00     0.074 A 
ATOM     38  C   UNL A   1      44.624  25.013  27.002  1.00  0.00     0.049 A 
ATOM     39  N   UNL A   1      42.637  27.005  28.061  1.00  0.00    -0.248 NA
ATOM     40  C   UNL A   1      41.031  25.313  28.097  1.00  0.00     0.031 C 
ATOM     41  C   UNL A   1      45.616  24.111  26.416  1.00  0.00     0.029 A 
ATOM     42  N   UNL A   1      45.298  26.199  27.151  1.00  0.00    -0.354 N 
ATOM     43  C   UNL A   1      41.420  27.535  28.470  1.00  0.00     0.074 A 
ATOM     44  C   UNL A   1      40.451  26.462  28.411  1.00  0.00     0.031 C 
ATOM     45  C   UNL A   1      46.775  24.772  26.266  1.00  0.00     0.029 A 
ATOM     46  C   UNL A   1      46.600  26.151  26.716  1.00  0.00     0.049 A 
ATOM     47  H   UNL A   1      44.887  27.008  27.533  1.00  0.00     0.167 HD
ATOM     48  C   UNL A   1      41.138  28.795  28.880  1.00  0.00     0.037 A 
ATOM     49  C   UNL A   1      47.544  27.109  26.675  1.00  0.00     0.037 A 
ATOM     50  C   UNL A   1      42.112  29.847  28.996  1.00  0.00     0.049 A 
ATOM     51  C   UNL A   1      47.225  28.486  27.187  1.00  0.00     0.074 A 
ATOM     52  C   UNL A   1      41.950  31.122  29.512  1.00  0.00     0.029 A 
ATOM     53  N   UNL A   1      43.434  29.745  28.590  1.00  0.00    -0.354 N 
ATOM     54  N   UNL A   1      46.092  28.951  27.655  1.00  0.00    -0.248 NA
ATOM     55  C   UNL A   1      48.318  29.469  27.173  1.00  0.00     0.031 C 
ATOM     56  C   UNL A   1      43.164  31.804  29.379  1.00  0.00     0.029 A 
ATOM     57  C   UNL A   1      44.093  30.942  28.819  1.00  0.00     0.049 A 
ATOM     58  H   UNL A   1      43.845  28.941  28.198  1.00  0.00     0.167 HD
ATOM     59  C   UNL A   1      46.336  30.274  27.999  1.00  0.00     0.074 A 
ATOM     60  C   UNL A   1      47.730  30.531  27.706  1.00  0.00     0.031 C 
ATOM     61  C   UNL A   1      45.479  31.190  28.512  1.00  0.00     0.037 A 
BRANCH  48  62
ATOM     62  C   UNL A   1      39.712  29.105  29.235  1.00  0.00     0.064 A 
ATOM     63  C   UNL A   1      38.785  29.528  28.270  1.00  0.00     0.173 A 
ATOM     64  C   UNL A   1      39.264  28.959  30.556  1.00  0.00     0.173 A 
ATOM     65  F   UNL A   1      39.165  29.695  26.995  1.00  0.00    -0.203 F 
ATOM     66  C   UNL A   1      37.472  29.831  28.623  1.00  0.00     0.198 A 
ATOM     67  C   UNL A   1      37.942  29.232  30.899  1.00  0.00     0.198 A 
ATOM     68  F   UNL A   1      40.107  28.550  31.515  1.00  0.00    -0.203 F 
ATOM     69  F   UNL A   1      36.619  30.288  27.695  1.00  0.00    -0.200 F 
ATOM     70  C   UNL A   1      37.050  29.677  29.935  1.00  0.00     0.200 A 
ATOM     71  F   UNL A   1      37.533  29.073  32.166  1.00  0.00    -0.200 F 
ATOM     72  F   UNL A   1      35.787  29.968  30.273  1.00  0.00    -0.200 F 
ENDBRANCH  48  62
BRANCH  49  73
ATOM     73  C   UNL A   1      48.891  26.781  26.145  1.00  0.00     0.064 A 
ATOM     74  C   UNL A   1      49.847  26.150  26.951  1.00  0.00     0.173 A 
ATOM     75  C   UNL A   1      49.235  27.060  24.814  1.00  0.00     0.173 A 
ATOM     76  F   UNL A   1      49.568  25.884  28.236  1.00  0.00    -0.203 F 
ATOM     77  C   UNL A   1      51.101  25.814  26.448  1.00  0.00     0.198 A 
ATOM     78  C   UNL A   1      50.482  26.703  24.306  1.00  0.00     0.198 A 
ATOM     79  F   UNL A   1      48.351  27.659  24.004  1.00  0.00    -0.203 F 
ATOM     80  F   UNL A   1      52.008  25.235  27.247  1.00  0.00    -0.200 F 
ATOM     81  C   UNL A   1      51.415  26.083  25.123  1.00  0.00     0.200 A 
ATOM     82  F   UNL A   1      50.777  26.952  23.023  1.00  0.00    -0.200 F 
ATOM     83  F   UNL A   1      52.617  25.747  24.636  1.00  0.00    -0.200 F 
ENDBRANCH  49  73
BRANCH  61  84
ATOM     84  C   UNL A   1      46.024  32.558  28.792  1.00  0.00     0.064 A 
ATOM     85  C   UNL A   1      45.959  33.580  27.833  1.00  0.00     0.173 A 
ATOM     86  C   UNL A   1      46.579  32.863  30.044  1.00  0.00     0.173 A 
ATOM     87  F   UNL A   1      45.452  33.334  26.617  1.00  0.00    -0.203 F 
ATOM     88  C   UNL A   1      46.446  34.854  28.113  1.00  0.00     0.198 A 
ATOM     89  C   UNL A   1      47.042  34.144  30.329  1.00  0.00     0.198 A 
ATOM     90  F   UNL A   1      46.659  31.921  30.995  1.00  0.00    -0.203 F 
ATOM     91  F   UNL A   1      46.410  35.806  27.171  1.00  0.00    -0.200 F 
ATOM     92  C   UNL A   1      46.981  35.136  29.362  1.00  0.00     0.200 A 
ATOM     93  F   UNL A   1      47.549  34.419  31.538  1.00  0.00    -0.200 F 
ATOM     94  F   UNL A   1      47.443  36.366  29.631  1.00  0.00    -0.200 F 
ENDBRANCH  61  84
ENDBRANCH  35  36
ENDBRANCH  27  30
ENDBRANCH  25  26
ENDBRANCH  24  25
ENDBRANCH   1  24
TORSDOF 14
ENDMDL
MODEL 3
REMARK VINA RESULT:     -11.3      5.382     10.879
REMARK SMILES COc1ncnc(N2CCSC[C@@H]2CC(=O)NCCCNC(=O)c2ccc(-c3c4nc(c(-c5c(F)c(F)c(F)c(F)c5F)c5ccc([nH]5)c(-c5c(F)c(F)c(F)c(F)c5F)c5nc(c(-c6c(F)c(F)c(F)c(F)c6F)c6ccc3[nH]6)C=C5)C=C4)cc2)c1[N+](=O)[O-]
REMARK SMILES IDX 18 1 17 2 15 3 16 4 14 6 13 7 8 8 9 9 10 10 12 11 11 12 7 13
REMARK SMILES IDX 3 14 4 15 87 16 5 17 6 18 2 19 1 20 88 21 89 22 90 23 19 24
REMARK SMILES IDX 20 25 21 26 22 27 23 29 24 30 25 31 86 32 26 33 85 34 27 35
REMARK SMILES IDX 28 36 29 37 79 38 30 39 84 40 78 41 80 42 31 43 83 44 77 45
REMARK SMILES IDX 76 46 32 48 64 49 44 50 63 51 45 52 48 53 62 54 81 55 46 56
REMARK SMILES IDX 47 57 61 59 82 60 49 61 33 62 34 63 42 64 35 65 36 66 40 67
REMARK SMILES IDX 43 68 37 69 38 70 41 71 39 72 65 73 66 74 74 75 67 76 68 77
REMARK SMILES IDX 72 78 75 79 69 80 70 81 73 82 71 83 50 84 51 85 59 86 52 87
REMARK SMILES IDX 53 88 57 89 60 90 54 91 55 92 58 93 56 94
REMARK H PARENT 17 5 21 28 80 47 48 58
REMARK Flexibility Score: inf
ROOT
ATOM      1  C   UNL A   1      31.282  30.678  25.547  1.00  0.00     0.117 C 
ENDROOT
BRANCH   1   2
ATOM      2  N   UNL A   1      30.477  30.591  24.336  1.00  0.00    -0.356 N 
ATOM      3  C   UNL A   1      30.107  29.497  23.611  1.00  0.00     0.222 C 
ATOM      4  O   UNL A   1      29.588  29.658  22.507  1.00  0.00    -0.275 OA
ATOM      5  H   UNL A   1      30.151  31.453  23.988  1.00  0.00     0.163 HD
BRANCH   3   6
ATOM      6  C   UNL A   1      30.339  28.121  24.179  1.00  0.00     0.126 C 
BRANCH   6   7
ATOM      7  C   UNL A   1      31.514  27.340  23.558  1.00  0.00     0.103 C 
ATOM      8  N   UNL A   1      32.218  26.625  24.640  1.00  0.00    -0.345 N 
ATOM      9  C   UNL A   1      33.001  27.394  25.612  1.00  0.00     0.129 C 
ATOM     10  C   UNL A   1      33.982  28.404  25.011  1.00  0.00     0.091 C 
ATOM     11  C   UNL A   1      32.480  28.107  22.631  1.00  0.00     0.095 C 
ATOM     12  S   UNL A   1      34.174  28.497  23.209  1.00  0.00    -0.158 SA
BRANCH   8  13
ATOM     13  C   UNL A   1      32.643  25.327  24.381  1.00  0.00     0.215 A 
ATOM     14  C   UNL A   1      32.654  22.993  24.756  1.00  0.00     0.299 A 
ATOM     15  N   UNL A   1      33.570  22.795  23.792  1.00  0.00    -0.196 NA
ATOM     16  C   UNL A   1      32.194  24.238  25.101  1.00  0.00     0.372 A 
ATOM     17  C   UNL A   1      33.968  23.898  23.148  1.00  0.00     0.228 A 
ATOM     18  N   UNL A   1      33.525  25.146  23.377  1.00  0.00    -0.212 NA
BRANCH  14  19
ATOM     19  O   UNL A   1      32.242  21.865  25.416  1.00  0.00    -0.476 OA
ATOM     20  C   UNL A   1      33.332  21.323  26.163  1.00  0.00     0.280 C 
ENDBRANCH  14  19
BRANCH  16  21
ATOM     21  N   UNL A   1      31.183  24.375  26.093  1.00  0.00     0.072 N 
ATOM     22  O   UNL A   1      30.019  24.529  25.698  1.00  0.00    -0.258 OA
ATOM     23  O   UNL A   1      31.540  24.329  27.278  1.00  0.00    -0.258 OA
ENDBRANCH  16  21
ENDBRANCH   8  13
ENDBRANCH   6   7
ENDBRANCH   3   6
ENDBRANCH   1   2
BRANCH   1  24
ATOM     24  C   UNL A   1      31.145  32.051  26.196  1.00  0.00     0.042 C 
BRANCH  24  25
ATOM     25  C   UNL A   1      32.348  32.428  27.046  1.00  0.00     0.118 C 
BRANCH  25  26
ATOM     26  N   UNL A   1      32.329  33.836  27.406  1.00  0.00    -0.352 N 
ATOM     27  C   UNL A   1      33.033  34.513  28.371  1.00  0.00     0.251 C 
ATOM     28  H   UNL A   1      31.715  34.392  26.875  1.00  0.00     0.163 HD
ATOM     29  O   UNL A   1      32.676  35.652  28.679  1.00  0.00    -0.269 OA
BRANCH  27  30
ATOM     30  C   UNL A   1      34.199  33.906  29.056  1.00  0.00     0.039 A 
ATOM     31  C   UNL A   1      35.475  34.413  28.788  1.00  0.00     0.014 A 
ATOM     32  C   UNL A   1      34.066  32.801  29.899  1.00  0.00     0.014 A 
ATOM     33  C   UNL A   1      36.600  33.845  29.396  1.00  0.00     0.010 A 
ATOM     34  C   UNL A   1      35.174  32.296  30.579  1.00  0.00     0.010 A 
ATOM     35  C   UNL A   1      36.458  32.797  30.317  1.00  0.00    -0.014 A 
BRANCH  35  36
ATOM     36  C   UNL A   1      37.637  32.187  30.987  1.00  0.00     0.031 A 
ATOM     37  C   UNL A   1      38.460  31.146  30.275  1.00  0.00     0.074 A 
ATOM     38  C   UNL A   1      37.929  32.510  32.261  1.00  0.00     0.049 A 
ATOM     39  N   UNL A   1      39.469  30.439  30.720  1.00  0.00    -0.248 NA
ATOM     40  C   UNL A   1      38.075  30.832  28.891  1.00  0.00     0.031 C 
ATOM     41  C   UNL A   1      37.173  33.452  33.088  1.00  0.00     0.029 A 
ATOM     42  N   UNL A   1      38.929  32.067  33.090  1.00  0.00    -0.354 N 
ATOM     43  C   UNL A   1      39.810  29.574  29.688  1.00  0.00     0.074 A 
ATOM     44  C   UNL A   1      38.875  29.815  28.610  1.00  0.00     0.031 C 
ATOM     45  C   UNL A   1      37.743  33.525  34.301  1.00  0.00     0.029 A 
ATOM     46  C   UNL A   1      38.884  32.614  34.349  1.00  0.00     0.049 A 
ATOM     47  H   UNL A   1      39.614  31.418  32.809  1.00  0.00     0.167 HD
ATOM     48  C   UNL A   1      40.822  28.676  29.633  1.00  0.00     0.037 A 
ATOM     49  C   UNL A   1      39.666  32.401  35.423  1.00  0.00     0.037 A 
ATOM     50  C   UNL A   1      41.788  28.477  30.681  1.00  0.00     0.049 A 
ATOM     51  C   UNL A   1      40.819  31.442  35.322  1.00  0.00     0.074 A 
ATOM     52  C   UNL A   1      42.918  27.677  30.675  1.00  0.00     0.029 A 
ATOM     53  N   UNL A   1      41.737  29.087  31.926  1.00  0.00    -0.354 N 
ATOM     54  N   UNL A   1      41.184  30.694  34.310  1.00  0.00    -0.248 NA
ATOM     55  C   UNL A   1      41.672  31.302  36.511  1.00  0.00     0.031 C 
ATOM     56  C   UNL A   1      43.527  27.772  31.931  1.00  0.00     0.029 A 
ATOM     57  C   UNL A   1      42.800  28.662  32.705  1.00  0.00     0.049 A 
ATOM     58  H   UNL A   1      41.048  29.728  32.213  1.00  0.00     0.167 HD
ATOM     59  C   UNL A   1      42.312  30.003  34.732  1.00  0.00     0.074 A 
ATOM     60  C   UNL A   1      42.583  30.437  36.087  1.00  0.00     0.031 C 
ATOM     61  C   UNL A   1      43.053  29.092  34.056  1.00  0.00     0.037 A 
BRANCH  48  62
ATOM     62  C   UNL A   1      40.938  27.836  28.394  1.00  0.00     0.064 A 
ATOM     63  C   UNL A   1      41.686  28.256  27.284  1.00  0.00     0.173 A 
ATOM     64  C   UNL A   1      40.305  26.586  28.324  1.00  0.00     0.173 A 
ATOM     65  F   UNL A   1      42.302  29.448  27.296  1.00  0.00    -0.203 F 
ATOM     66  C   UNL A   1      41.766  27.473  26.135  1.00  0.00     0.198 A 
ATOM     67  C   UNL A   1      40.412  25.791  27.185  1.00  0.00     0.198 A 
ATOM     68  F   UNL A   1      39.584  26.134  29.359  1.00  0.00    -0.203 F 
ATOM     69  F   UNL A   1      42.439  27.920  25.066  1.00  0.00    -0.200 F 
ATOM     70  C   UNL A   1      41.133  26.239  26.088  1.00  0.00     0.200 A 
ATOM     71  F   UNL A   1      39.809  24.595  27.145  1.00  0.00    -0.200 F 
ATOM     72  F   UNL A   1      41.210  25.487  24.982  1.00  0.00    -0.200 F 
ENDBRANCH  48  62
BRANCH  49  73
ATOM     73  C   UNL A   1      39.390  33.138  36.682  1.00  0.00     0.064 A 
ATOM     74  C   UNL A   1      38.534  32.606  37.654  1.00  0.00     0.173 A 
ATOM     75  C   UNL A   1      40.004  34.370  36.951  1.00  0.00     0.173 A 
ATOM     76  F   UNL A   1      37.908  31.440  37.429  1.00  0.00    -0.203 F 
ATOM     77  C   UNL A   1      38.297  33.281  38.849  1.00  0.00     0.198 A 
ATOM     78  C   UNL A   1      39.784  35.033  38.157  1.00  0.00     0.198 A 
ATOM     79  F   UNL A   1      40.835  34.916  36.053  1.00  0.00    -0.203 F 
ATOM     80  F   UNL A   1      37.453  32.763  39.752  1.00  0.00    -0.200 F 
ATOM     81  C   UNL A   1      38.928  34.490  39.103  1.00  0.00     0.200 A 
ATOM     82  F   UNL A   1      40.406  36.193  38.404  1.00  0.00    -0.200 F 
ATOM     83  F   UNL A   1      38.711  35.131  40.259  1.00  0.00    -0.200 F 
ENDBRANCH  49  73
BRANCH  61  84
ATOM     84  C   UNL A   1      44.233  28.503  34.770  1.00  0.00     0.064 A 
ATOM     85  C   UNL A   1      45.487  29.129  34.749  1.00  0.00     0.173 A 
ATOM     86  C   UNL A   1      44.098  27.323  35.518  1.00  0.00     0.173 A 
ATOM     87  F   UNL A   1      45.670  30.250  34.036  1.00  0.00    -0.203 F 
ATOM     88  C   UNL A   1      46.569  28.585  35.436  1.00  0.00     0.198 A 
ATOM     89  C   UNL A   1      45.175  26.796  36.224  1.00  0.00     0.198 A 
ATOM     90  F   UNL A   1      42.917  26.690  35.572  1.00  0.00    -0.203 F 
ATOM     91  F   UNL A   1      47.769  29.179  35.372  1.00  0.00    -0.200 F 
ATOM     92  C   UNL A   1      46.410  27.424  36.178  1.00  0.00     0.200 A 
ATOM     93  F   UNL A   1      45.019  25.679  36.948  1.00  0.00    -0.200 F 
ATOM     94  F   UNL A   1      47.452  26.906  36.845  1.00  0.00    -0.200 F 
ENDBRANCH  61  84
ENDBRANCH  35  36
ENDBRANCH  27  30
ENDBRANCH  25  26
ENDBRANCH  24  25
ENDBRANCH   1  24
TORSDOF 14
ENDMDL
