MODEL 1
REMARK VINA RESULT:     -12.1      0.000      0.000
REMARK SMILES O=C(CNC(=O)c1cccs1)N[C@@H]1C=C[C@H](C(=O)NCCCNC(=O)c2ccc(-c3c4nc(c(-c5c(F)c(F)c(F)c(F)c5F)c5ccc([nH]5)c(-c5c(F)c(F)c(F)c(F)c5F)c5nc(c(-c6c(F)c(F)c(F)c(F)c6F)c6ccc3[nH]6)C=C5)C=C4)cc2)C1
REMARK SMILES IDX 20 1 19 2 17 3 18 4 16 6 13 7 14 8 89 9 15 10 12 11 1 12
REMARK SMILES IDX 2 13 3 15 4 16 5 17 6 19 7 20 8 21 11 22 9 23 10 24 21 25
REMARK SMILES IDX 22 26 23 27 24 28 25 30 26 31 27 32 88 33 28 34 87 35 29 36
REMARK SMILES IDX 30 37 31 38 81 39 32 40 86 41 80 42 82 43 33 44 85 45 79 46
REMARK SMILES IDX 78 47 34 49 66 50 46 51 65 52 47 53 50 54 64 55 83 56 48 57
REMARK SMILES IDX 49 58 63 60 84 61 51 62 35 63 36 64 44 65 37 66 38 67 42 68
REMARK SMILES IDX 45 69 39 70 40 71 43 72 41 73 67 74 68 75 76 76 69 77 70 78
REMARK SMILES IDX 74 79 77 80 71 81 72 82 75 83 73 84 52 85 53 86 61 87 54 88
REMARK SMILES IDX 55 89 59 90 62 91 56 92 57 93 60 94 58 95
REMARK H PARENT 19 5 12 14 4 18 23 29 82 48 50 59
REMARK Flexibility Score: inf
ROOT
ATOM      1  C   UNL A   1      36.576  20.236  25.004  1.00  0.00     0.117 C 
ENDROOT
BRANCH   1   2
ATOM      2  N   UNL A   1      36.569  21.674  25.214  1.00  0.00    -0.356 N 
ATOM      3  C   UNL A   1      35.681  22.619  24.786  1.00  0.00     0.227 C 
ATOM      4  O   UNL A   1      35.930  23.799  25.037  1.00  0.00    -0.274 OA
ATOM      5  H   UNL A   1      37.320  22.019  25.748  1.00  0.00     0.163 HD
BRANCH   3   6
ATOM      6  C   UNL A   1      34.454  22.183  23.989  1.00  0.00     0.103 C 
ATOM      7  C   UNL A   1      32.982  23.851  22.925  1.00  0.00     0.106 C 
ATOM      8  C   UNL A   1      32.381  23.280  24.163  1.00  0.00    -0.006 C 
ATOM      9  C   UNL A   1      34.282  23.054  22.736  1.00  0.00     0.047 C 
ATOM     10  C   UNL A   1      33.180  22.386  24.750  1.00  0.00    -0.016 C 
BRANCH   7  11
ATOM     11  N   UNL A   1      33.204  25.257  23.167  1.00  0.00    -0.348 N 
ATOM     12  O   UNL A   1      33.277  25.821  20.947  1.00  0.00    -0.273 OA
ATOM     13  C   UNL A   1      33.274  26.159  22.129  1.00  0.00     0.239 C 
ATOM     14  H   UNL A   1      33.308  25.577  24.092  1.00  0.00     0.164 HD
BRANCH  13  15
ATOM     15  C   UNL A   1      33.558  27.607  22.531  1.00  0.00     0.216 C 
BRANCH  15  16
ATOM     16  N   UNL A   1      32.443  28.514  22.300  1.00  0.00    -0.342 N 
ATOM     17  C   UNL A   1      31.236  28.611  22.946  1.00  0.00     0.261 C 
ATOM     18  H   UNL A   1      32.574  29.156  21.565  1.00  0.00     0.164 HD
ATOM     19  O   UNL A   1      30.424  29.427  22.502  1.00  0.00    -0.268 OA
BRANCH  17  20
ATOM     20  C   UNL A   1      30.973  27.756  24.082  1.00  0.00     0.092 A 
ATOM     21  C   UNL A   1      31.477  27.811  25.369  1.00  0.00     0.025 A 
ATOM     22  S   UNL A   1      29.847  26.478  23.904  1.00  0.00    -0.139 S 
ATOM     23  C   UNL A   1      30.987  26.751  26.188  1.00  0.00     0.012 A 
ATOM     24  C   UNL A   1      30.092  25.952  25.513  1.00  0.00     0.065 A 
ENDBRANCH  17  20
ENDBRANCH  15  16
ENDBRANCH  13  15
ENDBRANCH   7  11
ENDBRANCH   3   6
ENDBRANCH   1   2
BRANCH   1  25
ATOM     25  C   UNL A   1      37.980  19.700  24.739  1.00  0.00     0.042 C 
BRANCH  25  26
ATOM     26  C   UNL A   1      39.025  20.114  25.771  1.00  0.00     0.118 C 
BRANCH  26  27
ATOM     27  N   UNL A   1      40.144  19.187  25.858  1.00  0.00    -0.352 N 
ATOM     28  C   UNL A   1      41.480  19.413  26.079  1.00  0.00     0.251 C 
ATOM     29  H   UNL A   1      39.902  18.240  25.737  1.00  0.00     0.163 HD
ATOM     30  O   UNL A   1      42.270  18.478  25.972  1.00  0.00    -0.269 OA
BRANCH  28  31
ATOM     31  C   UNL A   1      41.990  20.762  26.417  1.00  0.00     0.039 A 
ATOM     32  C   UNL A   1      42.243  21.655  25.371  1.00  0.00     0.014 A 
ATOM     33  C   UNL A   1      42.260  21.145  27.733  1.00  0.00     0.014 A 
ATOM     34  C   UNL A   1      42.702  22.945  25.649  1.00  0.00     0.010 A 
ATOM     35  C   UNL A   1      42.641  22.458  28.016  1.00  0.00     0.010 A 
ATOM     36  C   UNL A   1      42.870  23.372  26.976  1.00  0.00    -0.014 A 
BRANCH  36  37
ATOM     37  C   UNL A   1      43.264  24.773  27.279  1.00  0.00     0.031 A 
ATOM     38  C   UNL A   1      44.660  25.259  27.004  1.00  0.00     0.074 A 
ATOM     39  C   UNL A   1      42.365  25.603  27.845  1.00  0.00     0.049 A 
ATOM     40  N   UNL A   1      45.176  26.448  27.201  1.00  0.00    -0.248 NA
ATOM     41  C   UNL A   1      45.610  24.276  26.463  1.00  0.00     0.031 C 
ATOM     42  C   UNL A   1      40.999  25.237  28.223  1.00  0.00     0.029 A 
ATOM     43  N   UNL A   1      42.466  26.924  28.205  1.00  0.00    -0.354 N 
ATOM     44  C   UNL A   1      46.508  26.351  26.820  1.00  0.00     0.074 A 
ATOM     45  C   UNL A   1      46.736  24.975  26.433  1.00  0.00     0.031 C 
ATOM     46  C   UNL A   1      40.379  26.314  28.729  1.00  0.00     0.029 A 
ATOM     47  C   UNL A   1      41.310  27.437  28.742  1.00  0.00     0.049 A 
ATOM     48  H   UNL A   1      43.287  27.454  28.088  1.00  0.00     0.167 HD
ATOM     49  C   UNL A   1      47.449  27.325  26.773  1.00  0.00     0.037 A 
ATOM     50  C   UNL A   1      41.030  28.676  29.190  1.00  0.00     0.037 A 
ATOM     51  C   UNL A   1      47.214  28.699  27.136  1.00  0.00     0.049 A 
ATOM     52  C   UNL A   1      42.083  29.746  29.105  1.00  0.00     0.074 A 
ATOM     53  C   UNL A   1      48.083  29.774  27.060  1.00  0.00     0.029 A 
ATOM     54  N   UNL A   1      46.020  29.188  27.649  1.00  0.00    -0.354 N 
ATOM     55  N   UNL A   1      43.314  29.662  28.661  1.00  0.00    -0.248 NA
ATOM     56  C   UNL A   1      41.703  31.087  29.568  1.00  0.00     0.031 C 
ATOM     57  C   UNL A   1      47.433  30.902  27.572  1.00  0.00     0.029 A 
ATOM     58  C   UNL A   1      46.139  30.544  27.913  1.00  0.00     0.049 A 
ATOM     59  H   UNL A   1      45.210  28.651  27.802  1.00  0.00     0.167 HD
ATOM     60  C   UNL A   1      43.843  30.941  28.762  1.00  0.00     0.074 A 
ATOM     61  C   UNL A   1      42.796  31.786  29.295  1.00  0.00     0.031 C 
ATOM     62  C   UNL A   1      45.086  31.376  28.437  1.00  0.00     0.037 A 
BRANCH  49  63
ATOM     63  C   UNL A   1      48.824  26.941  26.307  1.00  0.00     0.064 A 
ATOM     64  C   UNL A   1      49.787  26.433  27.193  1.00  0.00     0.173 A 
ATOM     65  C   UNL A   1      49.173  27.046  24.951  1.00  0.00     0.173 A 
ATOM     66  F   UNL A   1      49.509  26.320  28.500  1.00  0.00    -0.203 F 
ATOM     67  C   UNL A   1      51.057  26.076  26.745  1.00  0.00     0.198 A 
ATOM     68  C   UNL A   1      50.433  26.657  24.502  1.00  0.00     0.198 A 
ATOM     69  F   UNL A   1      48.289  27.516  24.060  1.00  0.00    -0.203 F 
ATOM     70  F   UNL A   1      51.977  25.643  27.620  1.00  0.00    -0.200 F 
ATOM     71  C   UNL A   1      51.376  26.182  25.400  1.00  0.00     0.200 A 
ATOM     72  F   UNL A   1      50.735  26.746  23.199  1.00  0.00    -0.200 F 
ATOM     73  F   UNL A   1      52.597  25.832  24.970  1.00  0.00    -0.200 F 
ENDBRANCH  49  63
BRANCH  50  74
ATOM     74  C   UNL A   1      39.674  28.979  29.720  1.00  0.00     0.064 A 
ATOM     75  C   UNL A   1      39.368  28.773  31.072  1.00  0.00     0.173 A 
ATOM     76  C   UNL A   1      38.664  29.489  28.891  1.00  0.00     0.173 A 
ATOM     77  F   UNL A   1      40.295  28.270  31.900  1.00  0.00    -0.203 F 
ATOM     78  C   UNL A   1      38.096  29.048  31.571  1.00  0.00     0.198 A 
ATOM     79  C   UNL A   1      37.402  29.789  29.397  1.00  0.00     0.198 A 
ATOM     80  F   UNL A   1      38.910  29.710  27.591  1.00  0.00    -0.203 F 
ATOM     81  F   UNL A   1      37.817  28.802  32.858  1.00  0.00    -0.200 F 
ATOM     82  C   UNL A   1      37.117  29.561  30.735  1.00  0.00     0.200 A 
ATOM     83  F   UNL A   1      36.464  30.302  28.591  1.00  0.00    -0.200 F 
ATOM     84  F   UNL A   1      35.896  29.833  31.218  1.00  0.00    -0.200 F 
ENDBRANCH  50  74
BRANCH  62  85
ATOM     85  C   UNL A   1      45.370  32.840  28.611  1.00  0.00     0.064 A 
ATOM     86  C   UNL A   1      45.932  33.350  29.791  1.00  0.00     0.173 A 
ATOM     87  C   UNL A   1      45.098  33.742  27.571  1.00  0.00     0.173 A 
ATOM     88  F   UNL A   1      46.197  32.532  30.821  1.00  0.00    -0.203 F 
ATOM     89  C   UNL A   1      46.185  34.712  29.933  1.00  0.00     0.198 A 
ATOM     90  C   UNL A   1      45.381  35.098  27.705  1.00  0.00     0.198 A 
ATOM     91  F   UNL A   1      44.566  33.306  26.419  1.00  0.00    -0.203 F 
ATOM     92  F   UNL A   1      46.674  35.184  31.089  1.00  0.00    -0.200 F 
ATOM     93  C   UNL A   1      45.916  35.584  28.889  1.00  0.00     0.200 A 
ATOM     94  F   UNL A   1      45.134  35.937  26.688  1.00  0.00    -0.200 F 
ATOM     95  F   UNL A   1      46.163  36.894  29.025  1.00  0.00    -0.200 F 
ENDBRANCH  62  85
ENDBRANCH  36  37
ENDBRANCH  28  31
ENDBRANCH  26  27
ENDBRANCH  25  26
ENDBRANCH   1  25
TORSDOF 14
ENDMDL
MODEL 2
REMARK VINA RESULT:     -12.0      0.616      1.736
REMARK SMILES O=C(CNC(=O)c1cccs1)N[C@@H]1C=C[C@H](C(=O)NCCCNC(=O)c2ccc(-c3c4nc(c(-c5c(F)c(F)c(F)c(F)c5F)c5ccc([nH]5)c(-c5c(F)c(F)c(F)c(F)c5F)c5nc(c(-c6c(F)c(F)c(F)c(F)c6F)c6ccc3[nH]6)C=C5)C=C4)cc2)C1
REMARK SMILES IDX 20 1 19 2 17 3 18 4 16 6 13 7 14 8 89 9 15 10 12 11 1 12
REMARK SMILES IDX 2 13 3 15 4 16 5 17 6 19 7 20 8 21 11 22 9 23 10 24 21 25
REMARK SMILES IDX 22 26 23 27 24 28 25 30 26 31 27 32 88 33 28 34 87 35 29 36
REMARK SMILES IDX 30 37 31 38 81 39 32 40 86 41 80 42 82 43 33 44 85 45 79 46
REMARK SMILES IDX 78 47 34 49 66 50 46 51 65 52 47 53 50 54 64 55 83 56 48 57
REMARK SMILES IDX 49 58 63 60 84 61 51 62 35 63 36 64 44 65 37 66 38 67 42 68
REMARK SMILES IDX 45 69 39 70 40 71 43 72 41 73 67 74 68 75 76 76 69 77 70 78
REMARK SMILES IDX 74 79 77 80 71 81 72 82 75 83 73 84 52 85 53 86 61 87 54 88
REMARK SMILES IDX 55 89 59 90 62 91 56 92 57 93 60 94 58 95
REMARK H PARENT 19 5 12 14 4 18 23 29 82 48 50 59
REMARK Flexibility Score: inf
ROOT
ATOM      1  C   UNL A   1      36.636  20.416  25.006  1.00  0.00     0.117 C 
ENDROOT
BRANCH   1   2
ATOM      2  N   UNL A   1      36.507  21.829  25.321  1.00  0.00    -0.356 N 
ATOM      3  C   UNL A   1      35.577  22.739  24.909  1.00  0.00     0.227 C 
ATOM      4  O   UNL A   1      35.720  23.911  25.263  1.00  0.00    -0.274 OA
ATOM      5  H   UNL A   1      37.197  22.183  25.928  1.00  0.00     0.163 HD
BRANCH   3   6
ATOM      6  C   UNL A   1      34.437  22.282  24.003  1.00  0.00     0.103 C 
ATOM      7  C   UNL A   1      33.018  23.925  22.831  1.00  0.00     0.106 C 
ATOM      8  C   UNL A   1      32.327  23.322  24.006  1.00  0.00    -0.006 C 
ATOM      9  C   UNL A   1      34.351  23.164  22.749  1.00  0.00     0.047 C 
ATOM     10  C   UNL A   1      33.096  22.442  24.651  1.00  0.00    -0.016 C 
BRANCH   7  11
ATOM     11  N   UNL A   1      33.181  25.333  23.106  1.00  0.00    -0.348 N 
ATOM     12  O   UNL A   1      33.277  25.946  20.900  1.00  0.00    -0.273 OA
ATOM     13  C   UNL A   1      33.237  26.259  22.089  1.00  0.00     0.239 C 
ATOM     14  H   UNL A   1      33.253  25.637  24.040  1.00  0.00     0.164 HD
BRANCH  13  15
ATOM     15  C   UNL A   1      33.456  27.708  22.526  1.00  0.00     0.216 C 
BRANCH  15  16
ATOM     16  N   UNL A   1      32.290  28.561  22.347  1.00  0.00    -0.342 N 
ATOM     17  C   UNL A   1      31.347  28.969  23.258  1.00  0.00     0.261 C 
ATOM     18  H   UNL A   1      32.157  28.897  21.432  1.00  0.00     0.164 HD
ATOM     19  O   UNL A   1      30.406  29.640  22.829  1.00  0.00    -0.268 OA
BRANCH  17  20
ATOM     20  C   UNL A   1      31.491  28.582  24.643  1.00  0.00     0.092 A 
ATOM     21  C   UNL A   1      31.109  27.418  25.284  1.00  0.00     0.025 A 
ATOM     22  S   UNL A   1      32.281  29.658  25.718  1.00  0.00    -0.139 S 
ATOM     23  C   UNL A   1      31.403  27.446  26.679  1.00  0.00     0.012 A 
ATOM     24  C   UNL A   1      32.041  28.609  27.047  1.00  0.00     0.065 A 
ENDBRANCH  17  20
ENDBRANCH  15  16
ENDBRANCH  13  15
ENDBRANCH   7  11
ENDBRANCH   3   6
ENDBRANCH   1   2
BRANCH   1  25
ATOM     25  C   UNL A   1      38.085  20.012  24.753  1.00  0.00     0.042 C 
BRANCH  25  26
ATOM     26  C   UNL A   1      38.991  20.091  25.979  1.00  0.00     0.118 C 
BRANCH  26  27
ATOM     27  N   UNL A   1      40.136  19.196  25.904  1.00  0.00    -0.352 N 
ATOM     28  C   UNL A   1      41.481  19.449  26.018  1.00  0.00     0.251 C 
ATOM     29  H   UNL A   1      39.909  18.251  25.744  1.00  0.00     0.163 HD
ATOM     30  O   UNL A   1      42.281  18.548  25.778  1.00  0.00    -0.269 OA
BRANCH  28  31
ATOM     31  C   UNL A   1      41.985  20.789  26.395  1.00  0.00     0.039 A 
ATOM     32  C   UNL A   1      42.202  21.725  25.379  1.00  0.00     0.014 A 
ATOM     33  C   UNL A   1      42.285  21.124  27.718  1.00  0.00     0.014 A 
ATOM     34  C   UNL A   1      42.655  23.009  25.695  1.00  0.00     0.010 A 
ATOM     35  C   UNL A   1      42.659  22.430  28.042  1.00  0.00     0.010 A 
ATOM     36  C   UNL A   1      42.852  23.386  27.034  1.00  0.00    -0.014 A 
BRANCH  36  37
ATOM     37  C   UNL A   1      43.239  24.778  27.381  1.00  0.00     0.031 A 
ATOM     38  C   UNL A   1      44.650  25.260  27.183  1.00  0.00     0.074 A 
ATOM     39  C   UNL A   1      42.319  25.604  27.919  1.00  0.00     0.049 A 
ATOM     40  N   UNL A   1      45.163  26.441  27.427  1.00  0.00    -0.248 NA
ATOM     41  C   UNL A   1      45.620  24.280  26.670  1.00  0.00     0.031 C 
ATOM     42  C   UNL A   1      40.934  25.240  28.223  1.00  0.00     0.029 A 
ATOM     43  N   UNL A   1      42.410  26.917  28.308  1.00  0.00    -0.354 N 
ATOM     44  C   UNL A   1      46.511  26.342  27.108  1.00  0.00     0.074 A 
ATOM     45  C   UNL A   1      46.750  24.972  26.707  1.00  0.00     0.031 C 
ATOM     46  C   UNL A   1      40.297  26.311  28.719  1.00  0.00     0.029 A 
ATOM     47  C   UNL A   1      41.233  27.428  28.798  1.00  0.00     0.049 A 
ATOM     48  H   UNL A   1      43.239  27.444  28.241  1.00  0.00     0.167 HD
ATOM     49  C   UNL A   1      47.459  27.310  27.125  1.00  0.00     0.037 A 
ATOM     50  C   UNL A   1      40.938  28.660  29.255  1.00  0.00     0.037 A 
ATOM     51  C   UNL A   1      47.214  28.679  27.502  1.00  0.00     0.049 A 
ATOM     52  C   UNL A   1      42.001  29.724  29.240  1.00  0.00     0.074 A 
ATOM     53  C   UNL A   1      48.092  29.749  27.488  1.00  0.00     0.029 A 
ATOM     54  N   UNL A   1      46.000  29.167  27.966  1.00  0.00    -0.354 N 
ATOM     55  N   UNL A   1      43.251  29.640  28.856  1.00  0.00    -0.248 NA
ATOM     56  C   UNL A   1      41.606  31.060  29.710  1.00  0.00     0.031 C 
ATOM     57  C   UNL A   1      47.425  30.872  27.989  1.00  0.00     0.029 A 
ATOM     58  C   UNL A   1      46.114  30.517  28.261  1.00  0.00     0.049 A 
ATOM     59  H   UNL A   1      45.180  28.632  28.070  1.00  0.00     0.167 HD
ATOM     60  C   UNL A   1      43.782  30.914  29.005  1.00  0.00     0.074 A 
ATOM     61  C   UNL A   1      42.715  31.756  29.503  1.00  0.00     0.031 C 
ATOM     62  C   UNL A   1      45.042  31.346  28.749  1.00  0.00     0.037 A 
BRANCH  49  63
ATOM     63  C   UNL A   1      48.853  26.926  26.719  1.00  0.00     0.064 A 
ATOM     64  C   UNL A   1      49.258  26.935  25.376  1.00  0.00     0.173 A 
ATOM     65  C   UNL A   1      49.807  26.580  27.688  1.00  0.00     0.173 A 
ATOM     66  F   UNL A   1      48.384  27.250  24.408  1.00  0.00    -0.203 F 
ATOM     67  C   UNL A   1      50.556  26.582  25.015  1.00  0.00     0.198 A 
ATOM     68  C   UNL A   1      51.113  26.258  27.326  1.00  0.00     0.198 A 
ATOM     69  F   UNL A   1      49.477  26.562  28.988  1.00  0.00    -0.203 F 
ATOM     70  F   UNL A   1      50.905  26.547  23.721  1.00  0.00    -0.200 F 
ATOM     71  C   UNL A   1      51.484  26.250  25.990  1.00  0.00     0.200 A 
ATOM     72  F   UNL A   1      52.013  25.952  28.272  1.00  0.00    -0.200 F 
ATOM     73  F   UNL A   1      52.735  25.916  25.642  1.00  0.00    -0.200 F 
ENDBRANCH  49  63
BRANCH  50  74
ATOM     74  C   UNL A   1      39.560  28.962  29.724  1.00  0.00     0.064 A 
ATOM     75  C   UNL A   1      38.594  29.466  28.842  1.00  0.00     0.173 A 
ATOM     76  C   UNL A   1      39.179  28.745  31.056  1.00  0.00     0.173 A 
ATOM     77  F   UNL A   1      38.916  29.708  27.564  1.00  0.00    -0.203 F 
ATOM     78  C   UNL A   1      37.304  29.759  29.280  1.00  0.00     0.198 A 
ATOM     79  C   UNL A   1      37.881  29.011  31.486  1.00  0.00     0.198 A 
ATOM     80  F   UNL A   1      40.065  28.257  31.937  1.00  0.00    -0.203 F 
ATOM     81  F   UNL A   1      36.412  30.280  28.426  1.00  0.00    -0.200 F 
ATOM     82  C   UNL A   1      36.947  29.526  30.599  1.00  0.00     0.200 A 
ATOM     83  F   UNL A   1      37.535  28.768  32.756  1.00  0.00    -0.200 F 
ATOM     84  F   UNL A   1      35.704  29.800  31.017  1.00  0.00    -0.200 F 
ENDBRANCH  50  74
BRANCH  62  85
ATOM     85  C   UNL A   1      45.325  32.805  28.964  1.00  0.00     0.064 A 
ATOM     86  C   UNL A   1      45.833  33.290  30.179  1.00  0.00     0.173 A 
ATOM     87  C   UNL A   1      45.110  33.727  27.928  1.00  0.00     0.173 A 
ATOM     88  F   UNL A   1      46.043  32.451  31.205  1.00  0.00    -0.203 F 
ATOM     89  C   UNL A   1      46.087  34.647  30.358  1.00  0.00     0.198 A 
ATOM     90  C   UNL A   1      45.394  35.079  28.101  1.00  0.00     0.198 A 
ATOM     91  F   UNL A   1      44.631  33.316  26.744  1.00  0.00    -0.203 F 
ATOM     92  F   UNL A   1      46.521  35.094  31.544  1.00  0.00    -0.200 F 
ATOM     93  C   UNL A   1      45.873  35.539  29.318  1.00  0.00     0.200 A 
ATOM     94  F   UNL A   1      45.201  35.938  27.090  1.00  0.00    -0.200 F 
ATOM     95  F   UNL A   1      46.121  36.845  29.491  1.00  0.00    -0.200 F 
ENDBRANCH  62  85
ENDBRANCH  36  37
ENDBRANCH  28  31
ENDBRANCH  26  27
ENDBRANCH  25  26
ENDBRANCH   1  25
TORSDOF 14
ENDMDL
MODEL 3
REMARK VINA RESULT:     -12.0      0.747      7.435
REMARK SMILES O=C(CNC(=O)c1cccs1)N[C@@H]1C=C[C@H](C(=O)NCCCNC(=O)c2ccc(-c3c4nc(c(-c5c(F)c(F)c(F)c(F)c5F)c5ccc([nH]5)c(-c5c(F)c(F)c(F)c(F)c5F)c5nc(c(-c6c(F)c(F)c(F)c(F)c6F)c6ccc3[nH]6)C=C5)C=C4)cc2)C1
REMARK SMILES IDX 20 1 19 2 17 3 18 4 16 6 13 7 14 8 89 9 15 10 12 11 1 12
REMARK SMILES IDX 2 13 3 15 4 16 5 17 6 19 7 20 8 21 11 22 9 23 10 24 21 25
REMARK SMILES IDX 22 26 23 27 24 28 25 30 26 31 27 32 88 33 28 34 87 35 29 36
REMARK SMILES IDX 30 37 31 38 81 39 32 40 86 41 80 42 82 43 33 44 85 45 79 46
REMARK SMILES IDX 78 47 34 49 66 50 46 51 65 52 47 53 50 54 64 55 83 56 48 57
REMARK SMILES IDX 49 58 63 60 84 61 51 62 35 63 36 64 44 65 37 66 38 67 42 68
REMARK SMILES IDX 45 69 39 70 40 71 43 72 41 73 67 74 68 75 76 76 69 77 70 78
REMARK SMILES IDX 74 79 77 80 71 81 72 82 75 83 73 84 52 85 53 86 61 87 54 88
REMARK SMILES IDX 55 89 59 90 62 91 56 92 57 93 60 94 58 95
REMARK H PARENT 19 5 12 14 4 18 23 29 82 48 50 59
REMARK Flexibility Score: inf
ROOT
ATOM      1  C   UNL A   1      36.472  20.280  25.008  1.00  0.00     0.117 C 
ENDROOT
BRANCH   1   2
ATOM      2  N   UNL A   1      36.499  21.725  25.155  1.00  0.00    -0.356 N 
ATOM      3  C   UNL A   1      35.619  22.669  24.709  1.00  0.00     0.227 C 
ATOM      4  O   UNL A   1      35.897  23.854  24.902  1.00  0.00    -0.274 OA
ATOM      5  H   UNL A   1      37.270  22.077  25.654  1.00  0.00     0.163 HD
BRANCH   3   6
ATOM      6  C   UNL A   1      34.363  22.225  23.963  1.00  0.00     0.103 C 
ATOM      7  C   UNL A   1      32.850  23.882  22.940  1.00  0.00     0.106 C 
ATOM      8  C   UNL A   1      32.297  23.321  24.204  1.00  0.00    -0.006 C 
ATOM      9  C   UNL A   1      34.143  23.084  22.709  1.00  0.00     0.047 C 
ATOM     10  C   UNL A   1      33.119  22.434  24.769  1.00  0.00    -0.016 C 
BRANCH   7  11
ATOM     11  N   UNL A   1      33.080  25.291  23.161  1.00  0.00    -0.348 N 
ATOM     12  O   UNL A   1      33.278  25.800  20.935  1.00  0.00    -0.273 OA
ATOM     13  C   UNL A   1      33.217  26.167  22.108  1.00  0.00     0.239 C 
ATOM     14  H   UNL A   1      33.139  25.631  24.083  1.00  0.00     0.164 HD
BRANCH  13  15
ATOM     15  C   UNL A   1      33.500  27.620  22.491  1.00  0.00     0.216 C 
BRANCH  15  16
ATOM     16  N   UNL A   1      32.364  28.512  22.306  1.00  0.00    -0.342 N 
ATOM     17  C   UNL A   1      31.431  28.951  23.211  1.00  0.00     0.261 C 
ATOM     18  H   UNL A   1      32.246  28.851  21.389  1.00  0.00     0.164 HD
ATOM     19  O   UNL A   1      30.515  29.653  22.778  1.00  0.00    -0.268 OA
BRANCH  17  20
ATOM     20  C   UNL A   1      31.556  28.561  24.598  1.00  0.00     0.092 A 
ATOM     21  C   UNL A   1      31.100  27.428  25.246  1.00  0.00     0.025 A 
ATOM     22  S   UNL A   1      32.422  29.585  25.664  1.00  0.00    -0.139 S 
ATOM     23  C   UNL A   1      31.402  27.441  26.639  1.00  0.00     0.012 A 
ATOM     24  C   UNL A   1      32.119  28.561  26.999  1.00  0.00     0.065 A 
ENDBRANCH  17  20
ENDBRANCH  15  16
ENDBRANCH  13  15
ENDBRANCH   7  11
ENDBRANCH   3   6
ENDBRANCH   1   2
BRANCH   1  25
ATOM     25  C   UNL A   1      37.857  19.703  24.732  1.00  0.00     0.042 C 
BRANCH  25  26
ATOM     26  C   UNL A   1      38.942  20.157  25.704  1.00  0.00     0.118 C 
BRANCH  26  27
ATOM     27  N   UNL A   1      40.012  19.184  25.865  1.00  0.00    -0.352 N 
ATOM     28  C   UNL A   1      41.349  19.357  26.127  1.00  0.00     0.251 C 
ATOM     29  H   UNL A   1      39.731  18.245  25.769  1.00  0.00     0.163 HD
ATOM     30  O   UNL A   1      42.097  18.384  26.081  1.00  0.00    -0.269 OA
BRANCH  28  31
ATOM     31  C   UNL A   1      41.909  20.692  26.436  1.00  0.00     0.039 A 
ATOM     32  C   UNL A   1      42.267  21.523  25.370  1.00  0.00     0.014 A 
ATOM     33  C   UNL A   1      42.124  21.122  27.748  1.00  0.00     0.014 A 
ATOM     34  C   UNL A   1      42.777  22.800  25.618  1.00  0.00     0.010 A 
ATOM     35  C   UNL A   1      42.557  22.426  27.996  1.00  0.00     0.010 A 
ATOM     36  C   UNL A   1      42.892  23.278  26.934  1.00  0.00    -0.014 A 
BRANCH  36  37
ATOM     37  C   UNL A   1      43.341  24.671  27.198  1.00  0.00     0.031 A 
ATOM     38  C   UNL A   1      42.391  25.698  27.748  1.00  0.00     0.074 A 
ATOM     39  C   UNL A   1      44.608  25.022  26.900  1.00  0.00     0.049 A 
ATOM     40  N   UNL A   1      42.612  26.956  28.042  1.00  0.00    -0.248 NA
ATOM     41  C   UNL A   1      41.003  25.266  27.970  1.00  0.00     0.031 C 
ATOM     42  C   UNL A   1      45.610  24.139  26.302  1.00  0.00     0.029 A 
ATOM     43  N   UNL A   1      45.269  26.215  27.058  1.00  0.00    -0.354 N 
ATOM     44  C   UNL A   1      41.393  27.465  28.472  1.00  0.00     0.074 A 
ATOM     45  C   UNL A   1      40.424  26.397  28.348  1.00  0.00     0.031 C 
ATOM     46  C   UNL A   1      46.766  24.808  26.173  1.00  0.00     0.029 A 
ATOM     47  C   UNL A   1      46.581  26.175  26.649  1.00  0.00     0.049 A 
ATOM     48  H   UNL A   1      44.845  27.022  27.428  1.00  0.00     0.167 HD
ATOM     49  C   UNL A   1      41.112  28.701  28.950  1.00  0.00     0.037 A 
ATOM     50  C   UNL A   1      47.529  27.130  26.663  1.00  0.00     0.037 A 
ATOM     51  C   UNL A   1      42.084  29.755  29.096  1.00  0.00     0.049 A 
ATOM     52  C   UNL A   1      47.200  28.487  27.221  1.00  0.00     0.074 A 
ATOM     53  C   UNL A   1      41.912  31.020  29.632  1.00  0.00     0.029 A 
ATOM     54  N   UNL A   1      43.410  29.668  28.698  1.00  0.00    -0.354 N 
ATOM     55  N   UNL A   1      46.065  28.930  27.705  1.00  0.00    -0.248 NA
ATOM     56  C   UNL A   1      48.289  29.473  27.249  1.00  0.00     0.031 C 
ATOM     57  C   UNL A   1      43.121  31.714  29.514  1.00  0.00     0.029 A 
ATOM     58  C   UNL A   1      44.062  30.864  28.958  1.00  0.00     0.049 A 
ATOM     59  H   UNL A   1      43.826  28.873  28.292  1.00  0.00     0.167 HD
ATOM     60  C   UNL A   1      46.310  30.230  28.124  1.00  0.00     0.074 A 
ATOM     61  C   UNL A   1      47.705  30.502  27.849  1.00  0.00     0.031 C 
ATOM     62  C   UNL A   1      45.454  31.118  28.688  1.00  0.00     0.037 A 
BRANCH  49  63
ATOM     63  C   UNL A   1      39.694  28.983  29.358  1.00  0.00     0.064 A 
ATOM     64  C   UNL A   1      38.743  29.452  28.439  1.00  0.00     0.173 A 
ATOM     65  C   UNL A   1      39.270  28.746  30.675  1.00  0.00     0.173 A 
ATOM     66  F   UNL A   1      39.097  29.703  27.169  1.00  0.00    -0.203 F 
ATOM     67  C   UNL A   1      37.430  29.704  28.829  1.00  0.00     0.198 A 
ATOM     68  C   UNL A   1      37.949  28.969  31.054  1.00  0.00     0.198 A 
ATOM     69  F   UNL A   1      40.135  28.290  31.592  1.00  0.00    -0.203 F 
ATOM     70  F   UNL A   1      36.554  30.202  27.946  1.00  0.00    -0.200 F 
ATOM     71  C   UNL A   1      37.032  29.456  30.134  1.00  0.00     0.200 A 
ATOM     72  F   UNL A   1      37.562  28.715  32.312  1.00  0.00    -0.200 F 
ATOM     73  F   UNL A   1      35.767  29.694  30.508  1.00  0.00    -0.200 F 
ENDBRANCH  49  63
BRANCH  50  74
ATOM     74  C   UNL A   1      48.896  26.819  26.168  1.00  0.00     0.064 A 
ATOM     75  C   UNL A   1      49.875  26.307  27.032  1.00  0.00     0.173 A 
ATOM     76  C   UNL A   1      49.248  27.015  24.825  1.00  0.00     0.173 A 
ATOM     77  F   UNL A   1      49.591  26.120  28.329  1.00  0.00    -0.203 F 
ATOM     78  C   UNL A   1      51.159  26.023  26.575  1.00  0.00     0.198 A 
ATOM     79  C   UNL A   1      50.525  26.703  24.364  1.00  0.00     0.198 A 
ATOM     80  F   UNL A   1      48.346  27.495  23.957  1.00  0.00    -0.203 F 
ATOM     81  F   UNL A   1      52.088  25.575  27.431  1.00  0.00    -0.200 F 
ATOM     82  C   UNL A   1      51.482  26.214  25.241  1.00  0.00     0.200 A 
ATOM     83  F   UNL A   1      50.827  26.873  23.070  1.00  0.00    -0.200 F 
ATOM     84  F   UNL A   1      52.715  25.932  24.800  1.00  0.00    -0.200 F 
ENDBRANCH  50  74
BRANCH  62  85
ATOM     85  C   UNL A   1      46.013  32.455  29.085  1.00  0.00     0.064 A 
ATOM     86  C   UNL A   1      45.980  33.558  28.218  1.00  0.00     0.173 A 
ATOM     87  C   UNL A   1      46.564  32.639  30.362  1.00  0.00     0.173 A 
ATOM     88  F   UNL A   1      45.477  33.430  26.981  1.00  0.00    -0.203 F 
ATOM     89  C   UNL A   1      46.506  34.788  28.605  1.00  0.00     0.198 A 
ATOM     90  C   UNL A   1      47.061  33.878  30.756  1.00  0.00     0.198 A 
ATOM     91  F   UNL A   1      46.614  31.619  31.231  1.00  0.00    -0.203 F 
ATOM     92  F   UNL A   1      46.513  35.813  27.742  1.00  0.00    -0.200 F 
ATOM     93  C   UNL A   1      47.040  34.949  29.875  1.00  0.00     0.200 A 
ATOM     94  F   UNL A   1      47.563  34.036  31.989  1.00  0.00    -0.200 F 
ATOM     95  F   UNL A   1      47.543  36.134  30.247  1.00  0.00    -0.200 F 
ENDBRANCH  62  85
ENDBRANCH  36  37
ENDBRANCH  28  31
ENDBRANCH  26  27
ENDBRANCH  25  26
ENDBRANCH   1  25
TORSDOF 14
ENDMDL
