MODEL 1
REMARK VINA RESULT:     -12.8      0.000      0.000
REMARK SMILES O=C(NCCCNC(=O)[C@H]1C[C@H]2CCCC[C@@H]2[N@@H+]1C1CCSCC1)c1ccc(-c2c3nc(c(-c4c(F)c(F)c(F)c(F)c4F)c4ccc([nH]4)c(-c4c(F)c(F)c(F)c(F)c4F)c4nc(c(-c5c(F)c(F)c(F)c(F)c5F)c5ccc2[nH]5)C=C4)C=C3)cc1
REMARK SMILES IDX 4 1 3 2 1 3 2 4 25 6 26 7 87 8 27 9 86 10 28 11 29 12 30 13
REMARK SMILES IDX 80 14 31 15 85 16 79 17 81 18 32 19 84 20 78 21 77 22 33 24
REMARK SMILES IDX 65 25 45 26 64 27 46 28 49 29 63 30 82 31 47 32 48 33 62 35
REMARK SMILES IDX 83 36 50 37 34 38 35 39 43 40 36 41 37 42 41 43 44 44 38 45
REMARK SMILES IDX 39 46 42 47 40 48 66 49 67 50 75 51 68 52 69 53 73 54 76 55
REMARK SMILES IDX 70 56 71 57 74 58 72 59 51 60 52 61 60 62 53 63 54 64 58 65
REMARK SMILES IDX 61 66 55 67 56 68 59 69 57 70 5 71 6 72 7 73 8 74 9 76 10 77
REMARK SMILES IDX 11 78 18 79 12 80 17 81 13 83 16 84 14 85 15 86 19 87 20 88
REMARK SMILES IDX 24 89 21 90 23 91 22 92
REMARK H PARENT 3 5 81 23 49 34 7 75 18 82
REMARK Flexibility Score: inf
ROOT
ATOM      1  C   UNL A   1      32.712  32.940  27.005  1.00  0.00     0.118 C 
ENDROOT
BRANCH   1   2
ATOM      2  N   UNL A   1      32.494  34.245  27.627  1.00  0.00    -0.352 N 
ATOM      3  O   UNL A   1      32.563  35.804  29.247  1.00  0.00    -0.269 OA
ATOM      4  C   UNL A   1      33.053  34.798  28.750  1.00  0.00     0.251 C 
ATOM      5  H   UNL A   1      31.841  34.818  27.164  1.00  0.00     0.163 HD
BRANCH   4   6
ATOM      6  C   UNL A   1      34.242  34.173  29.367  1.00  0.00     0.039 A 
ATOM      7  C   UNL A   1      34.097  33.212  30.369  1.00  0.00     0.014 A 
ATOM      8  C   UNL A   1      35.515  34.532  28.916  1.00  0.00     0.014 A 
ATOM      9  C   UNL A   1      35.213  32.736  31.038  1.00  0.00     0.010 A 
ATOM     10  C   UNL A   1      36.640  33.958  29.507  1.00  0.00     0.010 A 
ATOM     11  C   UNL A   1      36.497  33.076  30.589  1.00  0.00    -0.014 A 
BRANCH  11  12
ATOM     12  C   UNL A   1      37.677  32.429  31.208  1.00  0.00     0.031 A 
ATOM     13  C   UNL A   1      38.372  31.290  30.529  1.00  0.00     0.074 A 
ATOM     14  C   UNL A   1      38.095  32.872  32.408  1.00  0.00     0.049 A 
ATOM     15  N   UNL A   1      39.353  30.543  30.968  1.00  0.00    -0.248 NA
ATOM     16  C   UNL A   1      37.895  30.930  29.185  1.00  0.00     0.031 C 
ATOM     17  C   UNL A   1      37.486  33.976  33.154  1.00  0.00     0.029 A 
ATOM     18  N   UNL A   1      39.116  32.447  33.217  1.00  0.00    -0.354 N 
ATOM     19  C   UNL A   1      39.592  29.608  29.971  1.00  0.00     0.074 A 
ATOM     20  C   UNL A   1      38.636  29.865  28.914  1.00  0.00     0.031 C 
ATOM     21  C   UNL A   1      38.152  34.151  34.302  1.00  0.00     0.029 A 
ATOM     22  C   UNL A   1      39.177  33.121  34.411  1.00  0.00     0.049 A 
ATOM     23  H   UNL A   1      39.743  31.731  32.965  1.00  0.00     0.167 HD
ATOM     24  C   UNL A   1      40.524  28.625  29.950  1.00  0.00     0.037 A 
ATOM     25  C   UNL A   1      39.937  32.902  35.498  1.00  0.00     0.037 A 
ATOM     26  C   UNL A   1      41.467  28.391  31.014  1.00  0.00     0.049 A 
ATOM     27  C   UNL A   1      40.931  31.781  35.471  1.00  0.00     0.074 A 
ATOM     28  C   UNL A   1      42.482  27.454  31.076  1.00  0.00     0.029 A 
ATOM     29  N   UNL A   1      41.495  29.091  32.214  1.00  0.00    -0.354 N 
ATOM     30  N   UNL A   1      41.176  30.922  34.512  1.00  0.00    -0.248 NA
ATOM     31  C   UNL A   1      41.755  31.596  36.672  1.00  0.00     0.031 C 
ATOM     32  C   UNL A   1      43.080  27.542  32.339  1.00  0.00     0.029 A 
ATOM     33  C   UNL A   1      42.488  28.583  33.037  1.00  0.00     0.049 A 
ATOM     34  H   UNL A   1      40.899  29.840  32.445  1.00  0.00     0.167 HD
ATOM     35  C   UNL A   1      42.197  30.108  34.979  1.00  0.00     0.074 A 
ATOM     36  C   UNL A   1      42.528  30.581  36.310  1.00  0.00     0.031 C 
ATOM     37  C   UNL A   1      42.807  29.070  34.358  1.00  0.00     0.037 A 
BRANCH  24  38
ATOM     38  C   UNL A   1      40.535  27.704  28.761  1.00  0.00     0.064 A 
ATOM     39  C   UNL A   1      41.319  27.958  27.625  1.00  0.00     0.173 A 
ATOM     40  C   UNL A   1      39.747  26.542  28.762  1.00  0.00     0.173 A 
ATOM     41  F   UNL A   1      42.088  29.057  27.566  1.00  0.00    -0.203 F 
ATOM     42  C   UNL A   1      41.276  27.113  26.519  1.00  0.00     0.198 A 
ATOM     43  C   UNL A   1      39.734  25.680  27.669  1.00  0.00     0.198 A 
ATOM     44  F   UNL A   1      38.985  26.242  29.824  1.00  0.00    -0.203 F 
ATOM     45  F   UNL A   1      41.980  27.415  25.418  1.00  0.00    -0.200 F 
ATOM     46  C   UNL A   1      40.487  25.973  26.542  1.00  0.00     0.200 A 
ATOM     47  F   UNL A   1      38.983  24.569  27.702  1.00  0.00    -0.200 F 
ATOM     48  F   UNL A   1      40.443  25.163  25.476  1.00  0.00    -0.200 F 
ENDBRANCH  24  38
BRANCH  25  49
ATOM     49  C   UNL A   1      39.744  33.759  36.695  1.00  0.00     0.064 A 
ATOM     50  C   UNL A   1      40.342  35.022  36.784  1.00  0.00     0.173 A 
ATOM     51  C   UNL A   1      38.892  33.362  37.738  1.00  0.00     0.173 A 
ATOM     52  F   UNL A   1      41.170  35.442  35.816  1.00  0.00    -0.203 F 
ATOM     53  C   UNL A   1      40.097  35.855  37.874  1.00  0.00     0.198 A 
ATOM     54  C   UNL A   1      38.625  34.207  38.811  1.00  0.00     0.198 A 
ATOM     55  F   UNL A   1      38.283  32.167  37.690  1.00  0.00    -0.203 F 
ATOM     56  F   UNL A   1      40.698  37.050  37.949  1.00  0.00    -0.200 F 
ATOM     57  C   UNL A   1      39.231  35.452  38.880  1.00  0.00     0.200 A 
ATOM     58  F   UNL A   1      37.768  33.824  39.766  1.00  0.00    -0.200 F 
ATOM     59  F   UNL A   1      38.978  36.264  39.916  1.00  0.00    -0.200 F 
ENDBRANCH  25  49
BRANCH  37  60
ATOM     60  C   UNL A   1      43.932  28.394  35.085  1.00  0.00     0.064 A 
ATOM     61  C   UNL A   1      45.250  28.863  35.009  1.00  0.00     0.173 A 
ATOM     62  C   UNL A   1      43.665  27.309  35.936  1.00  0.00     0.173 A 
ATOM     63  F   UNL A   1      45.559  29.884  34.196  1.00  0.00    -0.203 F 
ATOM     64  C   UNL A   1      46.264  28.264  35.754  1.00  0.00     0.198 A 
ATOM     65  C   UNL A   1      44.675  26.735  36.702  1.00  0.00     0.198 A 
ATOM     66  F   UNL A   1      42.419  26.826  36.046  1.00  0.00    -0.203 F 
ATOM     67  F   UNL A   1      47.524  28.707  35.644  1.00  0.00    -0.200 F 
ATOM     68  C   UNL A   1      45.973  27.211  36.609  1.00  0.00     0.200 A 
ATOM     69  F   UNL A   1      44.388  25.728  37.539  1.00  0.00    -0.200 F 
ATOM     70  F   UNL A   1      46.946  26.654  37.343  1.00  0.00    -0.200 F 
ENDBRANCH  37  60
ENDBRANCH  11  12
ENDBRANCH   4   6
ENDBRANCH   1   2
BRANCH   1  71
ATOM     71  C   UNL A   1      31.403  32.225  26.729  1.00  0.00     0.042 C 
BRANCH  71  72
ATOM     72  C   UNL A   1      31.635  30.836  26.165  1.00  0.00     0.118 C 
BRANCH  72  73
ATOM     73  N   UNL A   1      31.668  29.831  27.186  1.00  0.00    -0.351 N 
ATOM     74  C   UNL A   1      31.791  28.481  27.034  1.00  0.00     0.278 C 
ATOM     75  H   UNL A   1      31.592  30.155  28.112  1.00  0.00     0.163 HD
ATOM     76  O   UNL A   1      31.735  27.829  28.082  1.00  0.00    -0.268 OA
BRANCH  74  77
ATOM     77  C   UNL A   1      32.085  27.832  25.628  1.00  0.00     0.275 C 
ATOM     78  C   UNL A   1      33.342  26.931  25.777  1.00  0.00     0.085 C 
ATOM     79  N   UNL A   1      30.957  26.941  25.183  1.00  0.00    -0.320 N 
ATOM     80  C   UNL A   1      32.861  25.541  25.422  1.00  0.00     0.054 C 
ATOM     81  C   UNL A   1      31.364  25.611  25.713  1.00  0.00     0.188 C 
ATOM     82  H   UNL A   1      30.082  27.316  25.550  1.00  0.00     0.349 HD
ATOM     83  C   UNL A   1      33.520  24.365  26.126  1.00  0.00     0.010 C 
ATOM     84  C   UNL A   1      30.656  24.324  25.274  1.00  0.00     0.065 C 
ATOM     85  C   UNL A   1      32.843  23.068  25.667  1.00  0.00     0.001 C 
ATOM     86  C   UNL A   1      31.329  23.095  25.902  1.00  0.00     0.006 C 
BRANCH  79  87
ATOM     87  C   UNL A   1      30.499  26.930  23.757  1.00  0.00     0.186 C 
ATOM     88  C   UNL A   1      29.062  27.429  23.455  1.00  0.00     0.076 C 
ATOM     89  C   UNL A   1      31.402  27.443  22.615  1.00  0.00     0.076 C 
ATOM     90  C   UNL A   1      28.866  28.938  23.331  1.00  0.00     0.075 C 
ATOM     91  C   UNL A   1      31.500  28.953  22.499  1.00  0.00     0.075 C 
ATOM     92  S   UNL A   1      29.902  29.686  22.048  1.00  0.00    -0.162 SA
ENDBRANCH  79  87
ENDBRANCH  74  77
ENDBRANCH  72  73
ENDBRANCH  71  72
ENDBRANCH   1  71
TORSDOF 11
ENDMDL
MODEL 2
REMARK VINA RESULT:     -12.7      0.284      1.173
REMARK SMILES O=C(NCCCNC(=O)[C@H]1C[C@H]2CCCC[C@@H]2[N@@H+]1C1CCSCC1)c1ccc(-c2c3nc(c(-c4c(F)c(F)c(F)c(F)c4F)c4ccc([nH]4)c(-c4c(F)c(F)c(F)c(F)c4F)c4nc(c(-c5c(F)c(F)c(F)c(F)c5F)c5ccc2[nH]5)C=C4)C=C3)cc1
REMARK SMILES IDX 4 1 3 2 1 3 2 4 25 6 26 7 87 8 27 9 86 10 28 11 29 12 30 13
REMARK SMILES IDX 80 14 31 15 85 16 79 17 81 18 32 19 84 20 78 21 77 22 33 24
REMARK SMILES IDX 65 25 45 26 64 27 46 28 49 29 63 30 82 31 47 32 48 33 62 35
REMARK SMILES IDX 83 36 50 37 34 38 35 39 43 40 36 41 37 42 41 43 44 44 38 45
REMARK SMILES IDX 39 46 42 47 40 48 66 49 67 50 75 51 68 52 69 53 73 54 76 55
REMARK SMILES IDX 70 56 71 57 74 58 72 59 51 60 52 61 60 62 53 63 54 64 58 65
REMARK SMILES IDX 61 66 55 67 56 68 59 69 57 70 5 71 6 72 7 73 8 74 9 76 10 77
REMARK SMILES IDX 11 78 18 79 12 80 17 81 13 83 16 84 14 85 15 86 19 87 20 88
REMARK SMILES IDX 24 89 21 90 23 91 22 92
REMARK H PARENT 3 5 81 23 49 34 7 75 18 82
REMARK Flexibility Score: inf
ROOT
ATOM      1  C   UNL A   1      32.718  32.873  27.064  1.00  0.00     0.118 C 
ENDROOT
BRANCH   1   2
ATOM      2  N   UNL A   1      32.512  34.206  27.625  1.00  0.00    -0.352 N 
ATOM      3  O   UNL A   1      32.585  35.835  29.176  1.00  0.00    -0.269 OA
ATOM      4  C   UNL A   1      33.066  34.801  28.730  1.00  0.00     0.251 C 
ATOM      5  H   UNL A   1      31.873  34.768  27.130  1.00  0.00     0.163 HD
BRANCH   4   6
ATOM      6  C   UNL A   1      34.238  34.187  29.388  1.00  0.00     0.039 A 
ATOM      7  C   UNL A   1      34.067  33.289  30.443  1.00  0.00     0.014 A 
ATOM      8  C   UNL A   1      35.520  34.491  28.925  1.00  0.00     0.014 A 
ATOM      9  C   UNL A   1      35.170  32.828  31.145  1.00  0.00     0.010 A 
ATOM     10  C   UNL A   1      36.630  33.928  29.555  1.00  0.00     0.010 A 
ATOM     11  C   UNL A   1      36.462  33.113  30.685  1.00  0.00    -0.014 A 
BRANCH  11  12
ATOM     12  C   UNL A   1      37.625  32.478  31.346  1.00  0.00     0.031 A 
ATOM     13  C   UNL A   1      38.341  31.330  30.705  1.00  0.00     0.074 A 
ATOM     14  C   UNL A   1      38.007  32.938  32.552  1.00  0.00     0.049 A 
ATOM     15  N   UNL A   1      39.310  30.592  31.182  1.00  0.00    -0.248 NA
ATOM     16  C   UNL A   1      37.905  30.951  29.353  1.00  0.00     0.031 C 
ATOM     17  C   UNL A   1      37.375  34.052  33.265  1.00  0.00     0.029 A 
ATOM     18  N   UNL A   1      39.005  32.527  33.396  1.00  0.00    -0.354 N 
ATOM     19  C   UNL A   1      39.579  29.643  30.206  1.00  0.00     0.074 A 
ATOM     20  C   UNL A   1      38.654  29.884  29.118  1.00  0.00     0.031 C 
ATOM     21  C   UNL A   1      38.007  34.244  34.429  1.00  0.00     0.029 A 
ATOM     22  C   UNL A   1      39.030  33.218  34.582  1.00  0.00     0.049 A 
ATOM     23  H   UNL A   1      39.640  31.809  33.173  1.00  0.00     0.167 HD
ATOM     24  C   UNL A   1      40.514  28.662  30.226  1.00  0.00     0.037 A 
ATOM     25  C   UNL A   1      39.759  33.016  35.694  1.00  0.00     0.037 A 
ATOM     26  C   UNL A   1      41.425  28.445  31.320  1.00  0.00     0.049 A 
ATOM     27  C   UNL A   1      40.755  31.897  35.711  1.00  0.00     0.074 A 
ATOM     28  C   UNL A   1      42.440  27.511  31.425  1.00  0.00     0.029 A 
ATOM     29  N   UNL A   1      41.418  29.162  32.511  1.00  0.00    -0.354 N 
ATOM     30  N   UNL A   1      41.029  31.025  34.772  1.00  0.00    -0.248 NA
ATOM     31  C   UNL A   1      41.544  31.730  36.938  1.00  0.00     0.031 C 
ATOM     32  C   UNL A   1      43.001  27.618  32.703  1.00  0.00     0.029 A 
ATOM     33  C   UNL A   1      42.387  28.668  33.369  1.00  0.00     0.049 A 
ATOM     34  H   UNL A   1      40.814  29.913  32.714  1.00  0.00     0.167 HD
ATOM     35  C   UNL A   1      42.037  30.220  35.280  1.00  0.00     0.074 A 
ATOM     36  C   UNL A   1      42.329  30.712  36.613  1.00  0.00     0.031 C 
ATOM     37  C   UNL A   1      42.667  29.174  34.691  1.00  0.00     0.037 A 
BRANCH  24  38
ATOM     38  C   UNL A   1      40.561  27.724  29.051  1.00  0.00     0.064 A 
ATOM     39  C   UNL A   1      41.416  27.935  27.960  1.00  0.00     0.173 A 
ATOM     40  C   UNL A   1      39.734  26.590  29.021  1.00  0.00     0.173 A 
ATOM     41  F   UNL A   1      42.225  29.006  27.931  1.00  0.00    -0.203 F 
ATOM     42  C   UNL A   1      41.408  27.077  26.863  1.00  0.00     0.198 A 
ATOM     43  C   UNL A   1      39.754  25.713  27.939  1.00  0.00     0.198 A 
ATOM     44  F   UNL A   1      38.902  26.331  30.041  1.00  0.00    -0.203 F 
ATOM     45  F   UNL A   1      42.183  27.339  25.801  1.00  0.00    -0.200 F 
ATOM     46  C   UNL A   1      40.580  25.964  26.855  1.00  0.00     0.200 A 
ATOM     47  F   UNL A   1      38.963  24.630  27.943  1.00  0.00    -0.200 F 
ATOM     48  F   UNL A   1      40.568  25.141  25.798  1.00  0.00    -0.200 F 
ENDBRANCH  24  38
BRANCH  25  49
ATOM     49  C   UNL A   1      39.530  33.890  36.872  1.00  0.00     0.064 A 
ATOM     50  C   UNL A   1      38.719  33.473  37.935  1.00  0.00     0.173 A 
ATOM     51  C   UNL A   1      40.182  35.127  36.991  1.00  0.00     0.173 A 
ATOM     52  F   UNL A   1      38.069  32.303  37.863  1.00  0.00    -0.203 F 
ATOM     53  C   UNL A   1      38.568  34.264  39.073  1.00  0.00     0.198 A 
ATOM     54  C   UNL A   1      40.054  35.901  38.140  1.00  0.00     0.198 A 
ATOM     55  F   UNL A   1      40.982  35.562  36.005  1.00  0.00    -0.203 F 
ATOM     56  F   UNL A   1      37.770  33.854  40.068  1.00  0.00    -0.200 F 
ATOM     57  C   UNL A   1      39.244  35.471  39.179  1.00  0.00     0.200 A 
ATOM     58  F   UNL A   1      40.729  37.053  38.249  1.00  0.00    -0.200 F 
ATOM     59  F   UNL A   1      39.115  36.219  40.284  1.00  0.00    -0.200 F 
ENDBRANCH  25  49
BRANCH  37  60
ATOM     60  C   UNL A   1      43.771  28.511  35.461  1.00  0.00     0.064 A 
ATOM     61  C   UNL A   1      45.107  28.916  35.336  1.00  0.00     0.173 A 
ATOM     62  C   UNL A   1      43.470  27.509  36.398  1.00  0.00     0.173 A 
ATOM     63  F   UNL A   1      45.448  29.855  34.442  1.00  0.00    -0.203 F 
ATOM     64  C   UNL A   1      46.104  28.336  36.118  1.00  0.00     0.198 A 
ATOM     65  C   UNL A   1      44.464  26.955  37.198  1.00  0.00     0.198 A 
ATOM     66  F   UNL A   1      42.206  27.089  36.556  1.00  0.00    -0.203 F 
ATOM     67  F   UNL A   1      47.380  28.715  35.962  1.00  0.00    -0.200 F 
ATOM     68  C   UNL A   1      45.780  27.367  37.056  1.00  0.00     0.200 A 
ATOM     69  F   UNL A   1      44.145  26.031  38.115  1.00  0.00    -0.200 F 
ATOM     70  F   UNL A   1      46.737  26.829  37.824  1.00  0.00    -0.200 F 
ENDBRANCH  37  60
ENDBRANCH  11  12
ENDBRANCH   4   6
ENDBRANCH   1   2
BRANCH   1  71
ATOM     71  C   UNL A   1      31.404  32.215  26.687  1.00  0.00     0.042 C 
BRANCH  71  72
ATOM     72  C   UNL A   1      31.619  30.821  26.128  1.00  0.00     0.118 C 
BRANCH  72  73
ATOM     73  N   UNL A   1      31.671  29.823  27.155  1.00  0.00    -0.351 N 
ATOM     74  C   UNL A   1      31.818  28.475  27.011  1.00  0.00     0.278 C 
ATOM     75  H   UNL A   1      31.590  30.151  28.079  1.00  0.00     0.163 HD
ATOM     76  O   UNL A   1      31.775  27.828  28.063  1.00  0.00    -0.268 OA
BRANCH  74  77
ATOM     77  C   UNL A   1      32.122  27.822  25.609  1.00  0.00     0.275 C 
ATOM     78  C   UNL A   1      33.383  26.928  25.766  1.00  0.00     0.085 C 
ATOM     79  N   UNL A   1      31.001  26.925  25.161  1.00  0.00    -0.320 N 
ATOM     80  C   UNL A   1      32.909  25.534  25.414  1.00  0.00     0.054 C 
ATOM     81  C   UNL A   1      31.411  25.598  25.697  1.00  0.00     0.188 C 
ATOM     82  H   UNL A   1      30.122  27.297  25.522  1.00  0.00     0.349 HD
ATOM     83  C   UNL A   1      33.570  24.363  26.125  1.00  0.00     0.010 C 
ATOM     84  C   UNL A   1      30.710  24.306  25.259  1.00  0.00     0.065 C 
ATOM     85  C   UNL A   1      32.901  23.062  25.667  1.00  0.00     0.001 C 
ATOM     86  C   UNL A   1      31.386  23.082  25.894  1.00  0.00     0.006 C 
BRANCH  79  87
ATOM     87  C   UNL A   1      30.549  26.906  23.732  1.00  0.00     0.186 C 
ATOM     88  C   UNL A   1      29.103  27.377  23.424  1.00  0.00     0.076 C 
ATOM     89  C   UNL A   1      31.447  27.441  22.596  1.00  0.00     0.076 C 
ATOM     90  C   UNL A   1      28.876  28.881  23.303  1.00  0.00     0.075 C 
ATOM     91  C   UNL A   1      31.513  28.953  22.483  1.00  0.00     0.075 C 
ATOM     92  S   UNL A   1      29.903  29.653  22.026  1.00  0.00    -0.162 SA
ENDBRANCH  79  87
ENDBRANCH  74  77
ENDBRANCH  72  73
ENDBRANCH  71  72
ENDBRANCH   1  71
TORSDOF 11
ENDMDL
MODEL 3
REMARK VINA RESULT:     -12.5      6.095     11.321
REMARK SMILES O=C(NCCCNC(=O)[C@H]1C[C@H]2CCCC[C@@H]2[N@@H+]1C1CCSCC1)c1ccc(-c2c3nc(c(-c4c(F)c(F)c(F)c(F)c4F)c4ccc([nH]4)c(-c4c(F)c(F)c(F)c(F)c4F)c4nc(c(-c5c(F)c(F)c(F)c(F)c5F)c5ccc2[nH]5)C=C4)C=C3)cc1
REMARK SMILES IDX 4 1 3 2 1 3 2 4 25 6 26 7 87 8 27 9 86 10 28 11 29 12 30 13
REMARK SMILES IDX 80 14 31 15 85 16 79 17 81 18 32 19 84 20 78 21 77 22 33 24
REMARK SMILES IDX 65 25 45 26 64 27 46 28 49 29 63 30 82 31 47 32 48 33 62 35
REMARK SMILES IDX 83 36 50 37 34 38 35 39 43 40 36 41 37 42 41 43 44 44 38 45
REMARK SMILES IDX 39 46 42 47 40 48 66 49 67 50 75 51 68 52 69 53 73 54 76 55
REMARK SMILES IDX 70 56 71 57 74 58 72 59 51 60 52 61 60 62 53 63 54 64 58 65
REMARK SMILES IDX 61 66 55 67 56 68 59 69 57 70 5 71 6 72 7 73 8 74 9 76 10 77
REMARK SMILES IDX 11 78 18 79 12 80 17 81 13 83 16 84 14 85 15 86 19 87 20 88
REMARK SMILES IDX 24 89 21 90 23 91 22 92
REMARK H PARENT 3 5 81 23 49 34 7 75 18 82
REMARK Flexibility Score: inf
ROOT
ATOM      1  C   UNL A   1      39.275  19.867  26.126  1.00  0.00     0.118 C 
ENDROOT
BRANCH   1   2
ATOM      2  N   UNL A   1      40.443  18.992  26.067  1.00  0.00    -0.352 N 
ATOM      3  O   UNL A   1      42.601  18.435  25.751  1.00  0.00    -0.269 OA
ATOM      4  C   UNL A   1      41.781  19.295  26.048  1.00  0.00     0.251 C 
ATOM      5  H   UNL A   1      40.237  18.030  26.034  1.00  0.00     0.163 HD
BRANCH   4   6
ATOM      6  C   UNL A   1      42.232  20.663  26.378  1.00  0.00     0.039 A 
ATOM      7  C   UNL A   1      42.421  21.608  25.369  1.00  0.00     0.014 A 
ATOM      8  C   UNL A   1      42.438  21.011  27.715  1.00  0.00     0.014 A 
ATOM      9  C   UNL A   1      42.977  22.841  25.672  1.00  0.00     0.010 A 
ATOM     10  C   UNL A   1      42.881  22.296  28.031  1.00  0.00     0.010 A 
ATOM     11  C   UNL A   1      43.177  23.211  27.008  1.00  0.00    -0.014 A 
BRANCH  11  12
ATOM     12  C   UNL A   1      43.615  24.590  27.322  1.00  0.00     0.031 A 
ATOM     13  C   UNL A   1      42.650  25.596  27.868  1.00  0.00     0.074 A 
ATOM     14  C   UNL A   1      44.895  24.927  27.081  1.00  0.00     0.049 A 
ATOM     15  N   UNL A   1      42.832  26.870  28.106  1.00  0.00    -0.248 NA
ATOM     16  C   UNL A   1      41.295  25.115  28.176  1.00  0.00     0.031 C 
ATOM     17  C   UNL A   1      45.917  24.021  26.550  1.00  0.00     0.029 A 
ATOM     18  N   UNL A   1      45.556  26.117  27.238  1.00  0.00    -0.354 N 
ATOM     19  C   UNL A   1      41.612  27.349  28.560  1.00  0.00     0.074 A 
ATOM     20  C   UNL A   1      40.689  26.234  28.542  1.00  0.00     0.031 C 
ATOM     21  C   UNL A   1      47.076  24.681  26.437  1.00  0.00     0.029 A 
ATOM     22  C   UNL A   1      46.859  26.074  26.808  1.00  0.00     0.049 A 
ATOM     23  H   UNL A   1      45.138  26.922  27.621  1.00  0.00     0.167 HD
ATOM     24  C   UNL A   1      41.299  28.608  28.952  1.00  0.00     0.037 A 
ATOM     25  C   UNL A   1      47.767  27.057  26.674  1.00  0.00     0.037 A 
ATOM     26  C   UNL A   1      42.238  29.701  28.964  1.00  0.00     0.049 A 
ATOM     27  C   UNL A   1      47.386  28.451  27.071  1.00  0.00     0.074 A 
ATOM     28  C   UNL A   1      42.041  31.004  29.384  1.00  0.00     0.029 A 
ATOM     29  N   UNL A   1      43.551  29.621  28.514  1.00  0.00    -0.354 N 
ATOM     30  N   UNL A   1      46.242  28.890  27.534  1.00  0.00    -0.248 NA
ATOM     31  C   UNL A   1      48.418  29.486  26.930  1.00  0.00     0.031 C 
ATOM     32  C   UNL A   1      43.210  31.728  29.126  1.00  0.00     0.029 A 
ATOM     33  C   UNL A   1      44.163  30.860  28.614  1.00  0.00     0.049 A 
ATOM     34  H   UNL A   1      43.983  28.804  28.176  1.00  0.00     0.167 HD
ATOM     35  C   UNL A   1      46.417  30.247  27.762  1.00  0.00     0.074 A 
ATOM     36  C   UNL A   1      47.784  30.556  27.390  1.00  0.00     0.031 C 
ATOM     37  C   UNL A   1      45.528  31.149  28.244  1.00  0.00     0.037 A 
BRANCH  24  38
ATOM     38  C   UNL A   1      39.875  28.877  29.353  1.00  0.00     0.064 A 
ATOM     39  C   UNL A   1      39.434  28.745  30.678  1.00  0.00     0.173 A 
ATOM     40  C   UNL A   1      38.935  29.277  28.390  1.00  0.00     0.173 A 
ATOM     41  F   UNL A   1      40.287  28.360  31.640  1.00  0.00    -0.203 F 
ATOM     42  C   UNL A   1      38.098  28.955  31.015  1.00  0.00     0.198 A 
ATOM     43  C   UNL A   1      37.609  29.522  28.736  1.00  0.00     0.198 A 
ATOM     44  F   UNL A   1      39.301  29.429  27.108  1.00  0.00    -0.203 F 
ATOM     45  F   UNL A   1      37.686  28.754  32.275  1.00  0.00    -0.200 F 
ATOM     46  C   UNL A   1      37.188  29.347  30.046  1.00  0.00     0.200 A 
ATOM     47  F   UNL A   1      36.735  29.917  27.799  1.00  0.00    -0.200 F 
ATOM     48  F   UNL A   1      35.903  29.545  30.369  1.00  0.00    -0.200 F 
ENDBRANCH  24  38
BRANCH  25  49
ATOM     49  C   UNL A   1      49.102  26.731  26.112  1.00  0.00     0.064 A 
ATOM     50  C   UNL A   1      49.387  26.938  24.757  1.00  0.00     0.173 A 
ATOM     51  C   UNL A   1      50.142  26.279  26.939  1.00  0.00     0.173 A 
ATOM     52  F   UNL A   1      48.423  27.362  23.927  1.00  0.00    -0.203 F 
ATOM     53  C   UNL A   1      50.663  26.703  24.250  1.00  0.00     0.198 A 
ATOM     54  C   UNL A   1      51.424  26.074  26.437  1.00  0.00     0.198 A 
ATOM     55  F   UNL A   1      49.922  26.080  28.248  1.00  0.00    -0.203 F 
ATOM     56  F   UNL A   1      50.907  26.888  22.946  1.00  0.00    -0.200 F 
ATOM     57  C   UNL A   1      51.683  26.282  25.091  1.00  0.00     0.200 A 
ATOM     58  F   UNL A   1      52.411  25.692  27.259  1.00  0.00    -0.200 F 
ATOM     59  F   UNL A   1      52.915  26.079  24.606  1.00  0.00    -0.200 F 
ENDBRANCH  25  49
BRANCH  37  60
ATOM     60  C   UNL A   1      46.011  32.555  28.444  1.00  0.00     0.064 A 
ATOM     61  C   UNL A   1      46.649  32.958  29.625  1.00  0.00     0.173 A 
ATOM     62  C   UNL A   1      45.904  33.490  27.401  1.00  0.00     0.173 A 
ATOM     63  F   UNL A   1      46.759  32.109  30.657  1.00  0.00    -0.203 F 
ATOM     64  C   UNL A   1      47.157  34.249  29.757  1.00  0.00     0.198 A 
ATOM     65  C   UNL A   1      46.440  34.767  27.526  1.00  0.00     0.198 A 
ATOM     66  F   UNL A   1      45.304  33.151  26.250  1.00  0.00    -0.203 F 
ATOM     67  F   UNL A   1      47.736  34.624  30.906  1.00  0.00    -0.200 F 
ATOM     68  C   UNL A   1      47.064  35.146  28.704  1.00  0.00     0.200 A 
ATOM     69  F   UNL A   1      46.363  35.627  26.500  1.00  0.00    -0.200 F 
ATOM     70  F   UNL A   1      47.575  36.379  28.824  1.00  0.00    -0.200 F 
ENDBRANCH  37  60
ENDBRANCH  11  12
ENDBRANCH   4   6
ENDBRANCH   1   2
BRANCH   1  71
ATOM     71  C   UNL A   1      38.300  19.577  25.001  1.00  0.00     0.042 C 
BRANCH  71  72
ATOM     72  C   UNL A   1      37.141  20.557  25.000  1.00  0.00     0.118 C 
BRANCH  72  73
ATOM     73  N   UNL A   1      37.309  21.600  24.032  1.00  0.00    -0.351 N 
ATOM     74  C   UNL A   1      36.426  22.582  23.692  1.00  0.00     0.278 C 
ATOM     75  H   UNL A   1      38.169  21.609  23.553  1.00  0.00     0.163 HD
ATOM     76  O   UNL A   1      36.798  23.328  22.780  1.00  0.00    -0.268 OA
BRANCH  74  77
ATOM     77  C   UNL A   1      35.080  22.793  24.484  1.00  0.00     0.275 C 
ATOM     78  C   UNL A   1      35.057  24.261  24.994  1.00  0.00     0.085 C 
ATOM     79  N   UNL A   1      33.880  22.619  23.594  1.00  0.00    -0.320 N 
ATOM     80  C   UNL A   1      33.834  24.871  24.345  1.00  0.00     0.054 C 
ATOM     81  C   UNL A   1      33.633  24.003  23.106  1.00  0.00     0.188 C 
ATOM     82  H   UNL A   1      34.104  21.929  22.877  1.00  0.00     0.349 HD
ATOM     83  C   UNL A   1      33.885  26.351  23.996  1.00  0.00     0.010 C 
ATOM     84  C   UNL A   1      32.336  24.375  22.376  1.00  0.00     0.065 C 
ATOM     85  C   UNL A   1      32.578  26.743  23.298  1.00  0.00     0.001 C 
ATOM     86  C   UNL A   1      32.303  25.878  22.064  1.00  0.00     0.006 C 
BRANCH  79  87
ATOM     87  C   UNL A   1      32.657  21.901  24.078  1.00  0.00     0.186 C 
ATOM     88  C   UNL A   1      32.153  20.690  23.250  1.00  0.00     0.076 C 
ATOM     89  C   UNL A   1      32.473  21.535  25.567  1.00  0.00     0.076 C 
ATOM     90  C   UNL A   1      32.836  19.348  23.501  1.00  0.00     0.075 C 
ATOM     91  C   UNL A   1      33.278  20.339  26.042  1.00  0.00     0.075 C 
ATOM     92  S   UNL A   1      32.734  18.812  25.228  1.00  0.00    -0.162 SA
ENDBRANCH  79  87
ENDBRANCH  74  77
ENDBRANCH  72  73
ENDBRANCH  71  72
ENDBRANCH   1  71
TORSDOF 11
ENDMDL
