MODEL 1
REMARK VINA RESULT:     -12.5      0.000      0.000
REMARK SMILES Cc1cc(Br)cc2c1O[C@H](C(F)(F)F)C(C(=O)NCCCNC(=O)c1ccc(-c3c4nc(c(-c5c(F)c(F)c(F)c(F)c5F)c5ccc([nH]5)c(-c5c(F)c(F)c(F)c(F)c5F)c5nc(c(-c6c(F)c(F)c(F)c(F)c6F)c6ccc3[nH]6)C=C5)C=C4)cc1)=C2
REMARK SMILES IDX 20 1 19 2 18 3 16 4 17 5 15 7 1 8 2 9 3 10 8 11 4 12 7 13
REMARK SMILES IDX 9 14 5 15 6 16 88 17 10 18 11 19 12 20 13 21 14 22 21 23
REMARK SMILES IDX 22 24 23 25 24 27 25 28 26 29 87 30 27 31 86 32 28 33 29 34
REMARK SMILES IDX 30 35 80 36 31 37 85 38 79 39 81 40 32 41 84 42 78 43 77 44
REMARK SMILES IDX 33 46 65 47 45 48 64 49 46 50 49 51 63 52 82 53 47 54 48 55
REMARK SMILES IDX 62 57 83 58 50 59 34 60 35 61 43 62 36 63 37 64 41 65 44 66
REMARK SMILES IDX 38 67 39 68 42 69 40 70 66 71 67 72 75 73 68 74 69 75 73 76
REMARK SMILES IDX 76 77 70 78 71 79 74 80 72 81 51 82 52 83 60 84 53 85 54 86
REMARK SMILES IDX 58 87 61 88 55 89 56 90 59 91 57 92
REMARK H PARENT 18 6 22 26 81 45 49 56
REMARK Flexibility Score: inf
ROOT
ATOM      1  C   UNL A   1      35.347  23.352  26.459  1.00  0.00     0.042 C 
ENDROOT
BRANCH   1   2
ATOM      2  C   UNL A   1      34.168  22.776  25.692  1.00  0.00     0.118 C 
BRANCH   2   3
ATOM      3  N   UNL A   1      34.302  22.984  24.258  1.00  0.00    -0.352 N 
ATOM      4  C   UNL A   1      33.978  23.942  23.360  1.00  0.00     0.251 C 
ATOM      5  O   UNL A   1      34.286  23.691  22.191  1.00  0.00    -0.270 OA
ATOM      6  H   UNL A   1      34.748  22.221  23.824  1.00  0.00     0.163 HD
BRANCH   4   7
ATOM      7  C   UNL A   1      33.297  25.227  23.687  1.00  0.00     0.067 C 
ATOM      8  C   UNL A   1      30.327  29.410  23.773  1.00  0.00     0.048 C 
ATOM      9  C   UNL A   1      31.596  28.992  24.459  1.00  0.00    -0.007 A 
ATOM     10  C   UNL A   1      32.162  29.802  25.450  1.00  0.00     0.023 A 
ATOM     11  C   UNL A   1      32.198  27.760  24.175  1.00  0.00     0.130 A 
ATOM     12  C   UNL A   1      33.323  29.395  26.111  1.00  0.00     0.019 A 
ATOM     13  C   UNL A   1      33.363  27.350  24.834  1.00  0.00     0.019 A 
ATOM     14  O   UNL A   1      31.623  27.001  23.194  1.00  0.00    -0.475 OA
ATOM     15  Br  UNL A   1      34.083  30.513  27.434  1.00  0.00    -0.051 Br
ATOM     16  C   UNL A   1      33.930  28.176  25.806  1.00  0.00     0.027 A 
ATOM     17  C   UNL A   1      33.985  26.081  24.469  1.00  0.00     0.025 C 
ATOM     18  C   UNL A   1      31.918  25.583  23.220  1.00  0.00     0.314 C 
BRANCH  18  19
ATOM     19  C   UNL A   1      30.813  24.844  23.999  1.00  0.00     0.429 C 
ATOM     20  F   UNL A   1      29.771  25.679  24.244  1.00  0.00    -0.167 F 
ATOM     21  F   UNL A   1      30.306  23.792  23.314  1.00  0.00    -0.167 F 
ATOM     22  F   UNL A   1      31.239  24.366  25.190  1.00  0.00    -0.167 F 
ENDBRANCH  18  19
ENDBRANCH   4   7
ENDBRANCH   2   3
ENDBRANCH   1   2
BRANCH   1  23
ATOM     23  C   UNL A   1      36.560  23.553  25.562  1.00  0.00     0.118 C 
BRANCH  23  24
ATOM     24  N   UNL A   1      37.620  22.594  25.868  1.00  0.00    -0.352 N 
ATOM     25  C   UNL A   1      38.904  22.802  26.300  1.00  0.00     0.251 C 
ATOM     26  H   UNL A   1      37.373  21.649  25.745  1.00  0.00     0.163 HD
ATOM     27  O   UNL A   1      39.734  21.898  26.220  1.00  0.00    -0.269 OA
BRANCH  25  28
ATOM     28  C   UNL A   1      39.290  24.109  26.859  1.00  0.00     0.039 A 
ATOM     29  C   UNL A   1      38.976  24.412  28.186  1.00  0.00     0.014 A 
ATOM     30  C   UNL A   1      39.943  25.048  26.057  1.00  0.00     0.014 A 
ATOM     31  C   UNL A   1      39.372  25.637  28.721  1.00  0.00     0.010 A 
ATOM     32  C   UNL A   1      40.436  26.214  26.621  1.00  0.00     0.010 A 
ATOM     33  C   UNL A   1      40.132  26.532  27.951  1.00  0.00    -0.014 A 
BRANCH  33  34
ATOM     34  C   UNL A   1      40.585  27.831  28.499  1.00  0.00     0.031 A 
ATOM     35  C   UNL A   1      42.046  28.056  28.766  1.00  0.00     0.074 A 
ATOM     36  C   UNL A   1      39.680  28.778  28.802  1.00  0.00     0.049 A 
ATOM     37  N   UNL A   1      42.641  29.103  29.278  1.00  0.00    -0.248 NA
ATOM     38  C   UNL A   1      42.959  26.947  28.443  1.00  0.00     0.031 C 
ATOM     39  C   UNL A   1      38.232  28.648  28.627  1.00  0.00     0.029 A 
ATOM     40  N   UNL A   1      39.843  30.039  29.315  1.00  0.00    -0.354 N 
ATOM     41  C   UNL A   1      43.988  28.773  29.341  1.00  0.00     0.074 A 
ATOM     42  C   UNL A   1      44.115  27.403  28.897  1.00  0.00     0.031 C 
ATOM     43  C   UNL A   1      37.644  29.801  28.980  1.00  0.00     0.029 A 
ATOM     44  C   UNL A   1      38.667  30.735  29.443  1.00  0.00     0.049 A 
ATOM     45  H   UNL A   1      40.719  30.409  29.569  1.00  0.00     0.167 HD
ATOM     46  C   UNL A   1      45.032  29.557  29.694  1.00  0.00     0.037 A 
ATOM     47  C   UNL A   1      38.443  31.990  29.877  1.00  0.00     0.037 A 
ATOM     48  C   UNL A   1      44.899  30.924  30.115  1.00  0.00     0.049 A 
ATOM     49  C   UNL A   1      39.613  32.833  30.303  1.00  0.00     0.074 A 
ATOM     50  C   UNL A   1      45.891  31.825  30.455  1.00  0.00     0.029 A 
ATOM     51  N   UNL A   1      43.687  31.589  30.256  1.00  0.00    -0.354 N 
ATOM     52  N   UNL A   1      40.891  32.535  30.298  1.00  0.00    -0.248 NA
ATOM     53  C   UNL A   1      39.313  34.183  30.795  1.00  0.00     0.031 C 
ATOM     54  C   UNL A   1      45.280  33.017  30.850  1.00  0.00     0.029 A 
ATOM     55  C   UNL A   1      43.907  32.880  30.706  1.00  0.00     0.049 A 
ATOM     56  H   UNL A   1      42.804  31.200  30.064  1.00  0.00     0.167 HD
ATOM     57  C   UNL A   1      41.549  33.662  30.770  1.00  0.00     0.074 A 
ATOM     58  C   UNL A   1      40.528  34.658  31.035  1.00  0.00     0.031 C 
ATOM     59  C   UNL A   1      42.876  33.854  30.968  1.00  0.00     0.037 A 
BRANCH  46  60
ATOM     60  C   UNL A   1      46.405  28.953  29.622  1.00  0.00     0.064 A 
ATOM     61  C   UNL A   1      46.984  28.315  30.733  1.00  0.00     0.173 A 
ATOM     62  C   UNL A   1      47.148  28.996  28.433  1.00  0.00     0.173 A 
ATOM     63  F   UNL A   1      46.323  28.258  31.899  1.00  0.00    -0.203 F 
ATOM     64  C   UNL A   1      48.266  27.778  30.665  1.00  0.00     0.198 A 
ATOM     65  C   UNL A   1      48.416  28.426  28.359  1.00  0.00     0.198 A 
ATOM     66  F   UNL A   1      46.643  29.589  27.341  1.00  0.00    -0.203 F 
ATOM     67  F   UNL A   1      48.819  27.231  31.756  1.00  0.00    -0.200 F 
ATOM     68  C   UNL A   1      48.979  27.827  29.477  1.00  0.00     0.200 A 
ATOM     69  F   UNL A   1      49.100  28.463  27.207  1.00  0.00    -0.200 F 
ATOM     70  F   UNL A   1      50.211  27.306  29.411  1.00  0.00    -0.200 F 
ENDBRANCH  46  60
BRANCH  47  71
ATOM     71  C   UNL A   1      37.060  32.530  29.861  1.00  0.00     0.064 A 
ATOM     72  C   UNL A   1      36.217  32.360  30.967  1.00  0.00     0.173 A 
ATOM     73  C   UNL A   1      36.574  33.277  28.777  1.00  0.00     0.173 A 
ATOM     74  F   UNL A   1      36.632  31.641  32.020  1.00  0.00    -0.203 F 
ATOM     75  C   UNL A   1      34.941  32.919  30.992  1.00  0.00     0.198 A 
ATOM     76  C   UNL A   1      35.307  33.855  28.813  1.00  0.00     0.198 A 
ATOM     77  F   UNL A   1      37.345  33.473  27.698  1.00  0.00    -0.203 F 
ATOM     78  F   UNL A   1      34.149  32.727  32.056  1.00  0.00    -0.200 F 
ATOM     79  C   UNL A   1      34.491  33.675  29.921  1.00  0.00     0.200 A 
ATOM     80  F   UNL A   1      34.883  34.601  27.784  1.00  0.00    -0.200 F 
ATOM     81  F   UNL A   1      33.273  34.232  29.956  1.00  0.00    -0.200 F 
ENDBRANCH  47  71
BRANCH  59  82
ATOM     82  C   UNL A   1      43.315  35.187  31.501  1.00  0.00     0.064 A 
ATOM     83  C   UNL A   1      43.683  36.230  30.639  1.00  0.00     0.173 A 
ATOM     84  C   UNL A   1      43.271  35.453  32.877  1.00  0.00     0.173 A 
ATOM     85  F   UNL A   1      43.753  36.020  29.316  1.00  0.00    -0.203 F 
ATOM     86  C   UNL A   1      43.999  37.490  31.138  1.00  0.00     0.198 A 
ATOM     87  C   UNL A   1      43.556  36.723  33.370  1.00  0.00     0.198 A 
ATOM     88  F   UNL A   1      42.915  34.490  33.742  1.00  0.00    -0.203 F 
ATOM     89  F   UNL A   1      44.374  38.465  30.300  1.00  0.00    -0.200 F 
ATOM     90  C   UNL A   1      43.922  37.739  32.501  1.00  0.00     0.200 A 
ATOM     91  F   UNL A   1      43.463  36.967  34.684  1.00  0.00    -0.200 F 
ATOM     92  F   UNL A   1      44.201  38.960  32.976  1.00  0.00    -0.200 F 
ENDBRANCH  59  82
ENDBRANCH  33  34
ENDBRANCH  25  28
ENDBRANCH  23  24
ENDBRANCH   1  23
TORSDOF 11
ENDMDL
MODEL 2
REMARK VINA RESULT:     -12.5      4.173      6.781
REMARK SMILES Cc1cc(Br)cc2c1O[C@H](C(F)(F)F)C(C(=O)NCCCNC(=O)c1ccc(-c3c4nc(c(-c5c(F)c(F)c(F)c(F)c5F)c5ccc([nH]5)c(-c5c(F)c(F)c(F)c(F)c5F)c5nc(c(-c6c(F)c(F)c(F)c(F)c6F)c6ccc3[nH]6)C=C5)C=C4)cc1)=C2
REMARK SMILES IDX 20 1 19 2 18 3 16 4 17 5 15 7 1 8 2 9 3 10 8 11 4 12 7 13
REMARK SMILES IDX 9 14 5 15 6 16 88 17 10 18 11 19 12 20 13 21 14 22 21 23
REMARK SMILES IDX 22 24 23 25 24 27 25 28 26 29 87 30 27 31 86 32 28 33 29 34
REMARK SMILES IDX 30 35 80 36 31 37 85 38 79 39 81 40 32 41 84 42 78 43 77 44
REMARK SMILES IDX 33 46 65 47 45 48 64 49 46 50 49 51 63 52 82 53 47 54 48 55
REMARK SMILES IDX 62 57 83 58 50 59 34 60 35 61 43 62 36 63 37 64 41 65 44 66
REMARK SMILES IDX 38 67 39 68 42 69 40 70 66 71 67 72 75 73 68 74 69 75 73 76
REMARK SMILES IDX 76 77 70 78 71 79 74 80 72 81 51 82 52 83 60 84 53 85 54 86
REMARK SMILES IDX 58 87 61 88 55 89 56 90 59 91 57 92
REMARK H PARENT 18 6 22 26 81 45 49 56
REMARK Flexibility Score: inf
ROOT
ATOM      1  C   UNL A   1      33.578  28.829  23.566  1.00  0.00     0.042 C 
ENDROOT
BRANCH   1   2
ATOM      2  C   UNL A   1      32.309  28.153  23.075  1.00  0.00     0.118 C 
BRANCH   2   3
ATOM      3  N   UNL A   1      32.579  27.214  21.996  1.00  0.00    -0.352 N 
ATOM      4  C   UNL A   1      32.952  25.919  21.878  1.00  0.00     0.251 C 
ATOM      5  O   UNL A   1      33.077  25.513  20.719  1.00  0.00    -0.270 OA
ATOM      6  H   UNL A   1      32.457  27.635  21.115  1.00  0.00     0.163 HD
BRANCH   4   7
ATOM      7  C   UNL A   1      33.215  24.997  23.019  1.00  0.00     0.067 C 
ATOM      8  C   UNL A   1      33.310  22.558  27.533  1.00  0.00     0.048 C 
ATOM      9  C   UNL A   1      34.187  22.574  26.313  1.00  0.00    -0.007 A 
ATOM     10  C   UNL A   1      35.272  21.696  26.212  1.00  0.00     0.023 A 
ATOM     11  C   UNL A   1      33.900  23.413  25.228  1.00  0.00     0.130 A 
ATOM     12  C   UNL A   1      36.065  21.689  25.063  1.00  0.00     0.019 A 
ATOM     13  C   UNL A   1      34.694  23.409  24.076  1.00  0.00     0.019 A 
ATOM     14  O   UNL A   1      32.839  24.264  25.368  1.00  0.00    -0.475 OA
ATOM     15  Br  UNL A   1      37.538  20.507  24.954  1.00  0.00    -0.051 Br
ATOM     16  C   UNL A   1      35.786  22.543  23.996  1.00  0.00     0.027 A 
ATOM     17  C   UNL A   1      34.387  24.337  22.991  1.00  0.00     0.025 C 
ATOM     18  C   UNL A   1      32.250  24.764  24.143  1.00  0.00     0.314 C 
BRANCH  18  19
ATOM     19  C   UNL A   1      31.067  23.863  23.738  1.00  0.00     0.429 C 
ATOM     20  F   UNL A   1      30.568  23.224  24.826  1.00  0.00    -0.167 F 
ATOM     21  F   UNL A   1      30.038  24.562  23.202  1.00  0.00    -0.167 F 
ATOM     22  F   UNL A   1      31.410  22.919  22.833  1.00  0.00    -0.167 F 
ENDBRANCH  18  19
ENDBRANCH   4   7
ENDBRANCH   2   3
ENDBRANCH   1   2
BRANCH   1  23
ATOM     23  C   UNL A   1      33.623  28.914  25.085  1.00  0.00     0.118 C 
BRANCH  23  24
ATOM     24  N   UNL A   1      33.040  30.163  25.571  1.00  0.00    -0.352 N 
ATOM     25  C   UNL A   1      33.301  30.876  26.712  1.00  0.00     0.251 C 
ATOM     26  H   UNL A   1      32.350  30.554  24.987  1.00  0.00     0.163 HD
ATOM     27  O   UNL A   1      32.510  31.737  27.094  1.00  0.00    -0.269 OA
BRANCH  25  28
ATOM     28  C   UNL A   1      34.529  30.610  27.482  1.00  0.00     0.039 A 
ATOM     29  C   UNL A   1      35.479  31.623  27.637  1.00  0.00     0.014 A 
ATOM     30  C   UNL A   1      34.751  29.345  28.029  1.00  0.00     0.014 A 
ATOM     31  C   UNL A   1      36.624  31.377  28.394  1.00  0.00     0.010 A 
ATOM     32  C   UNL A   1      35.831  29.138  28.874  1.00  0.00     0.010 A 
ATOM     33  C   UNL A   1      36.791  30.144  29.043  1.00  0.00    -0.014 A 
BRANCH  33  34
ATOM     34  C   UNL A   1      37.986  29.863  29.870  1.00  0.00     0.031 A 
ATOM     35  C   UNL A   1      39.068  28.970  29.332  1.00  0.00     0.074 A 
ATOM     36  C   UNL A   1      38.069  30.365  31.114  1.00  0.00     0.049 A 
ATOM     37  N   UNL A   1      40.172  28.568  29.909  1.00  0.00    -0.248 NA
ATOM     38  C   UNL A   1      38.871  28.431  27.976  1.00  0.00     0.031 C 
ATOM     39  C   UNL A   1      37.055  31.205  31.753  1.00  0.00     0.029 A 
ATOM     40  N   UNL A   1      39.052  30.248  32.062  1.00  0.00    -0.354 N 
ATOM     41  C   UNL A   1      40.790  27.731  28.991  1.00  0.00     0.074 A 
ATOM     42  C   UNL A   1      39.904  27.613  27.855  1.00  0.00     0.031 C 
ATOM     43  C   UNL A   1      37.492  31.568  32.970  1.00  0.00     0.029 A 
ATOM     44  C   UNL A   1      38.794  30.954  33.210  1.00  0.00     0.049 A 
ATOM     45  H   UNL A   1      39.865  29.708  31.933  1.00  0.00     0.167 HD
ATOM     46  C   UNL A   1      42.010  27.150  29.068  1.00  0.00     0.037 A 
ATOM     47  C   UNL A   1      39.533  31.097  34.327  1.00  0.00     0.037 A 
ATOM     48  C   UNL A   1      42.892  27.290  30.193  1.00  0.00     0.049 A 
ATOM     49  C   UNL A   1      40.868  30.410  34.410  1.00  0.00     0.074 A 
ATOM     50  C   UNL A   1      44.167  26.781  30.359  1.00  0.00     0.029 A 
ATOM     51  N   UNL A   1      42.586  27.995  31.350  1.00  0.00    -0.354 N 
ATOM     52  N   UNL A   1      41.475  29.673  33.510  1.00  0.00    -0.248 NA
ATOM     53  C   UNL A   1      41.621  30.573  35.660  1.00  0.00     0.031 C 
ATOM     54  C   UNL A   1      44.612  27.134  31.636  1.00  0.00     0.029 A 
ATOM     55  C   UNL A   1      43.638  27.909  32.247  1.00  0.00     0.049 A 
ATOM     56  H   UNL A   1      41.747  28.484  31.508  1.00  0.00     0.167 HD
ATOM     57  C   UNL A   1      42.685  29.296  34.077  1.00  0.00     0.074 A 
ATOM     58  C   UNL A   1      42.734  29.903  35.392  1.00  0.00     0.031 C 
ATOM     59  C   UNL A   1      43.664  28.517  33.554  1.00  0.00     0.037 A 
BRANCH  46  60
ATOM     60  C   UNL A   1      42.457  26.325  27.895  1.00  0.00     0.064 A 
ATOM     61  C   UNL A   1      43.297  26.859  26.903  1.00  0.00     0.173 A 
ATOM     62  C   UNL A   1      42.057  24.987  27.764  1.00  0.00     0.173 A 
ATOM     63  F   UNL A   1      43.697  28.137  26.973  1.00  0.00    -0.203 F 
ATOM     64  C   UNL A   1      43.688  26.095  25.807  1.00  0.00     0.198 A 
ATOM     65  C   UNL A   1      42.480  24.216  26.684  1.00  0.00     0.198 A 
ATOM     66  F   UNL A   1      41.259  24.426  28.684  1.00  0.00    -0.203 F 
ATOM     67  F   UNL A   1      44.438  26.647  24.843  1.00  0.00    -0.200 F 
ATOM     68  C   UNL A   1      43.286  24.773  25.701  1.00  0.00     0.200 A 
ATOM     69  F   UNL A   1      42.101  22.934  26.589  1.00  0.00    -0.200 F 
ATOM     70  F   UNL A   1      43.667  24.037  24.648  1.00  0.00    -0.200 F 
ENDBRANCH  46  60
BRANCH  47  71
ATOM     71  C   UNL A   1      39.042  31.977  35.417  1.00  0.00     0.064 A 
ATOM     72  C   UNL A   1      38.312  31.446  36.488  1.00  0.00     0.173 A 
ATOM     73  C   UNL A   1      39.342  33.348  35.447  1.00  0.00     0.173 A 
ATOM     74  F   UNL A   1      37.988  30.144  36.496  1.00  0.00    -0.203 F 
ATOM     75  C   UNL A   1      37.904  32.249  37.550  1.00  0.00     0.198 A 
ATOM     76  C   UNL A   1      38.954  34.145  36.522  1.00  0.00     0.198 A 
ATOM     77  F   UNL A   1      40.044  33.903  34.449  1.00  0.00    -0.203 F 
ATOM     78  F   UNL A   1      37.192  31.717  38.555  1.00  0.00    -0.200 F 
ATOM     79  C   UNL A   1      38.234  33.595  37.572  1.00  0.00     0.200 A 
ATOM     80  F   UNL A   1      39.292  35.442  36.548  1.00  0.00    -0.200 F 
ATOM     81  F   UNL A   1      37.861  34.362  38.606  1.00  0.00    -0.200 F 
ENDBRANCH  47  71
BRANCH  59  82
ATOM     82  C   UNL A   1      44.878  28.265  34.401  1.00  0.00     0.064 A 
ATOM     83  C   UNL A   1      45.960  29.156  34.405  1.00  0.00     0.173 A 
ATOM     84  C   UNL A   1      44.916  27.177  35.286  1.00  0.00     0.173 A 
ATOM     85  F   UNL A   1      45.975  30.203  33.566  1.00  0.00    -0.203 F 
ATOM     86  C   UNL A   1      47.039  28.963  35.261  1.00  0.00     0.198 A 
ATOM     87  C   UNL A   1      45.982  27.006  36.163  1.00  0.00     0.198 A 
ATOM     88  F   UNL A   1      43.899  26.301  35.326  1.00  0.00    -0.203 F 
ATOM     89  F   UNL A   1      48.076  29.812  35.231  1.00  0.00    -0.200 F 
ATOM     90  C   UNL A   1      47.043  27.897  36.148  1.00  0.00     0.200 A 
ATOM     91  F   UNL A   1      45.975  25.986  37.033  1.00  0.00    -0.200 F 
ATOM     92  F   UNL A   1      48.072  27.729  36.990  1.00  0.00    -0.200 F 
ENDBRANCH  59  82
ENDBRANCH  33  34
ENDBRANCH  25  28
ENDBRANCH  23  24
ENDBRANCH   1  23
TORSDOF 11
ENDMDL
MODEL 3
REMARK VINA RESULT:     -12.5      3.634      8.829
REMARK SMILES Cc1cc(Br)cc2c1O[C@H](C(F)(F)F)C(C(=O)NCCCNC(=O)c1ccc(-c3c4nc(c(-c5c(F)c(F)c(F)c(F)c5F)c5ccc([nH]5)c(-c5c(F)c(F)c(F)c(F)c5F)c5nc(c(-c6c(F)c(F)c(F)c(F)c6F)c6ccc3[nH]6)C=C5)C=C4)cc1)=C2
REMARK SMILES IDX 20 1 19 2 18 3 16 4 17 5 15 7 1 8 2 9 3 10 8 11 4 12 7 13
REMARK SMILES IDX 9 14 5 15 6 16 88 17 10 18 11 19 12 20 13 21 14 22 21 23
REMARK SMILES IDX 22 24 23 25 24 27 25 28 26 29 87 30 27 31 86 32 28 33 29 34
REMARK SMILES IDX 30 35 80 36 31 37 85 38 79 39 81 40 32 41 84 42 78 43 77 44
REMARK SMILES IDX 33 46 65 47 45 48 64 49 46 50 49 51 63 52 82 53 47 54 48 55
REMARK SMILES IDX 62 57 83 58 50 59 34 60 35 61 43 62 36 63 37 64 41 65 44 66
REMARK SMILES IDX 38 67 39 68 42 69 40 70 66 71 67 72 75 73 68 74 69 75 73 76
REMARK SMILES IDX 76 77 70 78 71 79 74 80 72 81 51 82 52 83 60 84 53 85 54 86
REMARK SMILES IDX 58 87 61 88 55 89 56 90 59 91 57 92
REMARK H PARENT 18 6 22 26 81 45 49 56
REMARK Flexibility Score: inf
ROOT
ATOM      1  C   UNL A   1      34.044  28.184  24.687  1.00  0.00     0.042 C 
ENDROOT
BRANCH   1   2
ATOM      2  C   UNL A   1      32.813  27.436  24.202  1.00  0.00     0.118 C 
BRANCH   2   3
ATOM      3  N   UNL A   1      32.013  26.937  25.310  1.00  0.00    -0.352 N 
ATOM      4  C   UNL A   1      31.859  25.771  25.978  1.00  0.00     0.251 C 
ATOM      5  O   UNL A   1      31.026  25.793  26.888  1.00  0.00    -0.270 OA
ATOM      6  H   UNL A   1      31.422  27.638  25.670  1.00  0.00     0.163 HD
BRANCH   4   7
ATOM      7  C   UNL A   1      32.606  24.514  25.688  1.00  0.00     0.067 C 
ATOM      8  C   UNL A   1      34.042  19.685  24.716  1.00  0.00     0.048 C 
ATOM      9  C   UNL A   1      34.745  20.934  25.166  1.00  0.00    -0.007 A 
ATOM     10  C   UNL A   1      36.138  20.950  25.302  1.00  0.00     0.023 A 
ATOM     11  C   UNL A   1      34.035  22.121  25.389  1.00  0.00     0.130 A 
ATOM     12  C   UNL A   1      36.792  22.122  25.687  1.00  0.00     0.019 A 
ATOM     13  C   UNL A   1      34.688  23.297  25.777  1.00  0.00     0.019 A 
ATOM     14  O   UNL A   1      32.676  22.064  25.256  1.00  0.00    -0.475 OA
ATOM     15  Br  UNL A   1      38.673  22.118  25.884  1.00  0.00    -0.051 Br
ATOM     16  C   UNL A   1      36.076  23.294  25.930  1.00  0.00     0.027 A 
ATOM     17  C   UNL A   1      33.902  24.497  26.048  1.00  0.00     0.025 C 
ATOM     18  C   UNL A   1      31.999  23.321  25.011  1.00  0.00     0.314 C 
BRANCH  18  19
ATOM     19  C   UNL A   1      31.822  23.520  23.493  1.00  0.00     0.429 C 
ATOM     20  F   UNL A   1      30.573  23.975  23.221  1.00  0.00    -0.167 F 
ATOM     21  F   UNL A   1      32.681  24.435  22.983  1.00  0.00    -0.167 F 
ATOM     22  F   UNL A   1      32.003  22.381  22.789  1.00  0.00    -0.167 F 
ENDBRANCH  18  19
ENDBRANCH   4   7
ENDBRANCH   2   3
ENDBRANCH   1   2
BRANCH   1  23
ATOM     23  C   UNL A   1      34.031  28.376  26.197  1.00  0.00     0.118 C 
BRANCH  23  24
ATOM     24  N   UNL A   1      33.813  29.775  26.560  1.00  0.00    -0.352 N 
ATOM     25  C   UNL A   1      34.461  30.562  27.476  1.00  0.00     0.251 C 
ATOM     26  H   UNL A   1      33.088  30.223  26.068  1.00  0.00     0.163 HD
ATOM     27  O   UNL A   1      33.951  31.617  27.850  1.00  0.00    -0.269 OA
BRANCH  25  28
ATOM     28  C   UNL A   1      35.767  30.144  28.013  1.00  0.00     0.039 A 
ATOM     29  C   UNL A   1      35.844  29.610  29.302  1.00  0.00     0.014 A 
ATOM     30  C   UNL A   1      36.924  30.305  27.248  1.00  0.00     0.014 A 
ATOM     31  C   UNL A   1      37.077  29.184  29.795  1.00  0.00     0.010 A 
ATOM     32  C   UNL A   1      38.126  29.778  27.692  1.00  0.00     0.010 A 
ATOM     33  C   UNL A   1      38.219  29.236  28.981  1.00  0.00    -0.014 A 
BRANCH  33  34
ATOM     34  C   UNL A   1      39.537  28.772  29.470  1.00  0.00     0.031 A 
ATOM     35  C   UNL A   1      40.262  29.566  30.519  1.00  0.00     0.074 A 
ATOM     36  C   UNL A   1      40.098  27.674  28.934  1.00  0.00     0.049 A 
ATOM     37  N   UNL A   1      41.439  29.354  31.051  1.00  0.00    -0.248 NA
ATOM     38  C   UNL A   1      39.590  30.778  31.017  1.00  0.00     0.031 C 
ATOM     39  C   UNL A   1      39.503  26.854  27.877  1.00  0.00     0.029 A 
ATOM     40  N   UNL A   1      41.290  27.054  29.207  1.00  0.00    -0.354 N 
ATOM     41  C   UNL A   1      41.644  30.404  31.935  1.00  0.00     0.074 A 
ATOM     42  C   UNL A   1      40.515  31.297  31.809  1.00  0.00     0.031 C 
ATOM     43  C   UNL A   1      40.311  25.811  27.626  1.00  0.00     0.029 A 
ATOM     44  C   UNL A   1      41.495  25.912  28.474  1.00  0.00     0.049 A 
ATOM     45  H   UNL A   1      41.938  27.396  29.864  1.00  0.00     0.167 HD
ATOM     46  C   UNL A   1      42.662  30.583  32.808  1.00  0.00     0.037 A 
ATOM     47  C   UNL A   1      42.522  25.040  28.492  1.00  0.00     0.037 A 
ATOM     48  C   UNL A   1      43.771  29.679  32.941  1.00  0.00     0.049 A 
ATOM     49  C   UNL A   1      43.663  25.279  29.442  1.00  0.00     0.074 A 
ATOM     50  C   UNL A   1      44.834  29.740  33.822  1.00  0.00     0.029 A 
ATOM     51  N   UNL A   1      43.957  28.544  32.163  1.00  0.00    -0.354 N 
ATOM     52  N   UNL A   1      43.818  26.240  30.321  1.00  0.00    -0.248 NA
ATOM     53  C   UNL A   1      44.770  24.316  29.403  1.00  0.00     0.031 C 
ATOM     54  C   UNL A   1      45.691  28.671  33.544  1.00  0.00     0.029 A 
ATOM     55  C   UNL A   1      45.135  27.912  32.525  1.00  0.00     0.049 A 
ATOM     56  H   UNL A   1      43.342  28.234  31.460  1.00  0.00     0.167 HD
ATOM     57  C   UNL A   1      45.030  25.991  30.950  1.00  0.00     0.074 A 
ATOM     58  C   UNL A   1      45.560  24.776  30.363  1.00  0.00     0.031 C 
ATOM     59  C   UNL A   1      45.647  26.706  31.923  1.00  0.00     0.037 A 
BRANCH  46  60
ATOM     60  C   UNL A   1      42.607  31.796  33.693  1.00  0.00     0.064 A 
ATOM     61  C   UNL A   1      41.969  31.761  34.945  1.00  0.00     0.173 A 
ATOM     62  C   UNL A   1      43.207  33.001  33.298  1.00  0.00     0.173 A 
ATOM     63  F   UNL A   1      41.367  30.638  35.364  1.00  0.00    -0.203 F 
ATOM     64  C   UNL A   1      41.901  32.895  35.748  1.00  0.00     0.198 A 
ATOM     65  C   UNL A   1      43.168  34.124  34.121  1.00  0.00     0.198 A 
ATOM     66  F   UNL A   1      43.833  33.089  32.115  1.00  0.00    -0.203 F 
ATOM     67  F   UNL A   1      41.233  32.852  36.908  1.00  0.00    -0.200 F 
ATOM     68  C   UNL A   1      42.507  34.074  35.340  1.00  0.00     0.200 A 
ATOM     69  F   UNL A   1      43.765  35.259  33.731  1.00  0.00    -0.200 F 
ATOM     70  F   UNL A   1      42.446  35.164  36.116  1.00  0.00    -0.200 F 
ENDBRANCH  46  60
BRANCH  47  71
ATOM     71  C   UNL A   1      42.469  23.836  27.626  1.00  0.00     0.064 A 
ATOM     72  C   UNL A   1      42.897  23.898  26.294  1.00  0.00     0.173 A 
ATOM     73  C   UNL A   1      42.055  22.590  28.122  1.00  0.00     0.173 A 
ATOM     74  F   UNL A   1      43.288  25.070  25.771  1.00  0.00    -0.203 F 
ATOM     75  C   UNL A   1      42.916  22.761  25.489  1.00  0.00     0.198 A 
ATOM     76  C   UNL A   1      42.097  21.449  27.323  1.00  0.00     0.198 A 
ATOM     77  F   UNL A   1      41.643  22.477  29.392  1.00  0.00    -0.203 F 
ATOM     78  F   UNL A   1      43.315  22.852  24.213  1.00  0.00    -0.200 F 
ATOM     79  C   UNL A   1      42.527  21.535  26.008  1.00  0.00     0.200 A 
ATOM     80  F   UNL A   1      41.738  20.263  27.834  1.00  0.00    -0.200 F 
ATOM     81  F   UNL A   1      42.569  20.437  25.241  1.00  0.00    -0.200 F 
ENDBRANCH  47  71
BRANCH  59  82
ATOM     82  C   UNL A   1      46.971  26.203  32.422  1.00  0.00     0.064 A 
ATOM     83  C   UNL A   1      47.050  25.278  33.472  1.00  0.00     0.173 A 
ATOM     84  C   UNL A   1      48.162  26.573  31.778  1.00  0.00     0.173 A 
ATOM     85  F   UNL A   1      45.941  24.904  34.127  1.00  0.00    -0.203 F 
ATOM     86  C   UNL A   1      48.275  24.748  33.865  1.00  0.00     0.198 A 
ATOM     87  C   UNL A   1      49.380  26.016  32.153  1.00  0.00     0.198 A 
ATOM     88  F   UNL A   1      48.137  27.448  30.761  1.00  0.00    -0.203 F 
ATOM     89  F   UNL A   1      48.331  23.885  34.890  1.00  0.00    -0.200 F 
ATOM     90  C   UNL A   1      49.436  25.107  33.197  1.00  0.00     0.200 A 
ATOM     91  F   UNL A   1      50.499  26.350  31.494  1.00  0.00    -0.200 F 
ATOM     92  F   UNL A   1      50.611  24.574  33.561  1.00  0.00    -0.200 F 
ENDBRANCH  59  82
ENDBRANCH  33  34
ENDBRANCH  25  28
ENDBRANCH  23  24
ENDBRANCH   1  23
TORSDOF 11
ENDMDL
