MODEL 1
REMARK VINA RESULT:     -10.7      0.000      0.000
REMARK SMILES C[C@@H](C(=O)NCCCNC(=O)c1ccc(-c2c3nc(c(-c4c(F)c(F)c(F)c(F)c4F)c4ccc([nH]4)c(-c4c(F)c(F)c(F)c(F)c4F)c4nc(c(-c5c(F)c(F)c(F)c(F)c5F)c5ccc2[nH]5)C=C4)C=C3)cc1)c1ccc2c3cc(Cl)ccc3n(C(=O)c3ccc(Cl)cc3)c2c1
REMARK SMILES IDX 6 1 5 2 3 3 4 4 2 6 1 7 75 8 76 9 97 10 77 11 96 12 78 13
REMARK SMILES IDX 86 14 79 15 85 16 80 17 84 18 81 19 83 20 82 21 87 22 88 23
REMARK SMILES IDX 89 24 90 25 95 26 91 27 94 28 92 29 93 30 7 31 8 32 9 33
REMARK SMILES IDX 10 34 11 36 12 37 13 38 74 39 14 40 73 41 15 42 16 43 17 44
REMARK SMILES IDX 67 45 18 46 72 47 66 48 68 49 19 50 71 51 65 52 64 53 20 55
REMARK SMILES IDX 52 56 32 57 51 58 33 59 36 60 50 61 69 62 34 63 35 64 49 66
REMARK SMILES IDX 70 67 37 68 21 69 22 70 30 71 23 72 24 73 28 74 31 75 25 76
REMARK SMILES IDX 26 77 29 78 27 79 53 80 54 81 62 82 55 83 56 84 60 85 63 86
REMARK SMILES IDX 57 87 58 88 61 89 59 90 38 91 39 92 47 93 40 94 41 95 45 96
REMARK SMILES IDX 48 97 42 98 43 99 46 100 44 101
REMARK H PARENT 5 5 9 35 68 54 36 65
REMARK Flexibility Score: inf
ROOT
ATOM      1  C   UNL A   1      42.056  22.374  28.167  1.00  0.00     0.117 C 
ENDROOT
BRANCH   1   2
ATOM      2  N   UNL A   1      43.231  21.977  27.417  1.00  0.00    -0.356 N 
ATOM      3  C   UNL A   1      44.009  22.707  26.566  1.00  0.00     0.227 C 
ATOM      4  O   UNL A   1      44.742  22.066  25.811  1.00  0.00    -0.274 OA
ATOM      5  H   UNL A   1      43.510  21.040  27.541  1.00  0.00     0.163 HD
BRANCH   3   6
ATOM      6  C   UNL A   1      43.947  24.244  26.607  1.00  0.00     0.105 C 
ATOM      7  C   UNL A   1      43.348  24.743  25.281  1.00  0.00     0.023 C 
BRANCH   6   8
ATOM      8  C   UNL A   1      45.293  24.905  26.923  1.00  0.00    -0.034 A 
ATOM      9  C   UNL A   1      46.253  24.276  27.722  1.00  0.00     0.005 A 
ATOM     10  C   UNL A   1      45.579  26.194  26.446  1.00  0.00     0.032 A 
ATOM     11  C   UNL A   1      47.533  24.820  27.890  1.00  0.00     0.011 A 
ATOM     12  C   UNL A   1      46.834  26.780  26.684  1.00  0.00     0.057 A 
ATOM     13  C   UNL A   1      47.838  26.073  27.323  1.00  0.00     0.008 A 
ATOM     14  N   UNL A   1      47.315  28.054  26.350  1.00  0.00    -0.276 N 
ATOM     15  C   UNL A   1      49.014  26.859  27.243  1.00  0.00     0.009 A 
ATOM     16  C   UNL A   1      48.664  28.117  26.725  1.00  0.00     0.057 A 
ATOM     17  C   UNL A   1      50.346  26.599  27.628  1.00  0.00     0.031 A 
ATOM     18  C   UNL A   1      49.596  29.172  26.751  1.00  0.00     0.029 A 
ATOM     19  C   UNL A   1      51.282  27.625  27.573  1.00  0.00     0.041 A 
ATOM     20  C   UNL A   1      50.906  28.902  27.176  1.00  0.00     0.023 A 
ATOM     21  Cl  UNL A   1      52.907  27.311  28.045  1.00  0.00    -0.084 Cl
BRANCH  14  22
ATOM     22  C   UNL A   1      46.465  29.058  25.812  1.00  0.00     0.262 C 
ATOM     23  O   UNL A   1      46.402  29.084  24.580  1.00  0.00    -0.268 OA
BRANCH  22  24
ATOM     24  C   UNL A   1      45.682  30.126  26.501  1.00  0.00     0.040 A 
ATOM     25  C   UNL A   1      46.361  31.345  26.736  1.00  0.00     0.015 A 
ATOM     26  C   UNL A   1      44.403  29.969  27.039  1.00  0.00     0.015 A 
ATOM     27  C   UNL A   1      45.778  32.383  27.463  1.00  0.00     0.021 A 
ATOM     28  C   UNL A   1      43.803  31.028  27.745  1.00  0.00     0.021 A 
ATOM     29  C   UNL A   1      44.492  32.223  27.957  1.00  0.00     0.041 A 
ATOM     30  Cl  UNL A   1      43.764  33.496  28.856  1.00  0.00    -0.084 Cl
ENDBRANCH  22  24
ENDBRANCH  14  22
ENDBRANCH   6   8
ENDBRANCH   3   6
ENDBRANCH   1   2
BRANCH   1  31
ATOM     31  C   UNL A   1      40.805  21.681  27.626  1.00  0.00     0.042 C 
BRANCH  31  32
ATOM     32  C   UNL A   1      40.632  21.811  26.117  1.00  0.00     0.118 C 
BRANCH  32  33
ATOM     33  N   UNL A   1      39.280  22.198  25.749  1.00  0.00    -0.352 N 
ATOM     34  C   UNL A   1      38.543  23.288  26.143  1.00  0.00     0.251 C 
ATOM     35  H   UNL A   1      38.825  21.588  25.124  1.00  0.00     0.163 HD
ATOM     36  O   UNL A   1      37.341  23.329  25.911  1.00  0.00    -0.269 OA
BRANCH  34  37
ATOM     37  C   UNL A   1      39.194  24.395  26.873  1.00  0.00     0.039 A 
ATOM     38  C   UNL A   1      39.995  25.290  26.160  1.00  0.00     0.014 A 
ATOM     39  C   UNL A   1      39.016  24.555  28.251  1.00  0.00     0.014 A 
ATOM     40  C   UNL A   1      40.542  26.397  26.810  1.00  0.00     0.010 A 
ATOM     41  C   UNL A   1      39.502  25.697  28.883  1.00  0.00     0.010 A 
ATOM     42  C   UNL A   1      40.254  26.638  28.164  1.00  0.00    -0.014 A 
BRANCH  42  43
ATOM     43  C   UNL A   1      40.674  27.901  28.826  1.00  0.00     0.031 A 
ATOM     44  C   UNL A   1      42.051  28.036  29.412  1.00  0.00     0.074 A 
ATOM     45  C   UNL A   1      39.772  28.891  28.976  1.00  0.00     0.049 A 
ATOM     46  N   UNL A   1      42.555  29.017  30.116  1.00  0.00    -0.248 NA
ATOM     47  C   UNL A   1      42.979  26.914  29.197  1.00  0.00     0.031 C 
ATOM     48  C   UNL A   1      38.391  28.858  28.488  1.00  0.00     0.029 A 
ATOM     49  N   UNL A   1      39.870  30.110  29.602  1.00  0.00    -0.354 N 
ATOM     50  C   UNL A   1      43.846  28.626  30.442  1.00  0.00     0.074 A 
ATOM     51  C   UNL A   1      44.043  27.305  29.886  1.00  0.00     0.031 C 
ATOM     52  C   UNL A   1      37.775  30.001  28.827  1.00  0.00     0.029 A 
ATOM     53  C   UNL A   1      38.697  30.827  29.600  1.00  0.00     0.049 A 
ATOM     54  H   UNL A   1      40.702  30.440  30.012  1.00  0.00     0.167 HD
ATOM     55  C   UNL A   1      44.783  29.318  31.133  1.00  0.00     0.037 A 
ATOM     56  C   UNL A   1      38.387  32.001  30.184  1.00  0.00     0.037 A 
ATOM     57  C   UNL A   1      44.589  30.645  31.657  1.00  0.00     0.049 A 
ATOM     58  C   UNL A   1      39.445  32.726  30.973  1.00  0.00     0.074 A 
ATOM     59  C   UNL A   1      45.513  31.464  32.282  1.00  0.00     0.029 A 
ATOM     60  N   UNL A   1      43.391  31.340  31.631  1.00  0.00    -0.354 N 
ATOM     61  N   UNL A   1      40.695  32.393  31.183  1.00  0.00    -0.248 NA
ATOM     62  C   UNL A   1      39.049  33.990  31.611  1.00  0.00     0.031 C 
ATOM     63  C   UNL A   1      44.857  32.626  32.699  1.00  0.00     0.029 A 
ATOM     64  C   UNL A   1      43.538  32.557  32.277  1.00  0.00     0.049 A 
ATOM     65  H   UNL A   1      42.558  31.017  31.214  1.00  0.00     0.167 HD
ATOM     66  C   UNL A   1      41.237  33.411  31.956  1.00  0.00     0.074 A 
ATOM     67  C   UNL A   1      40.189  34.389  32.155  1.00  0.00     0.031 C 
ATOM     68  C   UNL A   1      42.488  33.522  32.464  1.00  0.00     0.037 A 
BRANCH  55  69
ATOM     69  C   UNL A   1      46.112  28.667  31.380  1.00  0.00     0.064 A 
ATOM     70  C   UNL A   1      47.223  28.925  30.565  1.00  0.00     0.173 A 
ATOM     71  C   UNL A   1      46.302  27.862  32.515  1.00  0.00     0.173 A 
ATOM     72  F   UNL A   1      47.094  29.684  29.467  1.00  0.00    -0.203 F 
ATOM     73  C   UNL A   1      48.474  28.398  30.874  1.00  0.00     0.198 A 
ATOM     74  C   UNL A   1      47.559  27.358  32.835  1.00  0.00     0.198 A 
ATOM     75  F   UNL A   1      45.272  27.590  33.331  1.00  0.00    -0.203 F 
ATOM     76  F   UNL A   1      49.519  28.642  30.071  1.00  0.00    -0.200 F 
ATOM     77  C   UNL A   1      48.644  27.626  32.014  1.00  0.00     0.200 A 
ATOM     78  F   UNL A   1      47.723  26.627  33.946  1.00  0.00    -0.200 F 
ATOM     79  F   UNL A   1      49.855  27.143  32.324  1.00  0.00    -0.200 F 
ENDBRANCH  55  69
BRANCH  56  80
ATOM     80  C   UNL A   1      37.010  32.556  30.080  1.00  0.00     0.064 A 
ATOM     81  C   UNL A   1      36.627  33.340  28.983  1.00  0.00     0.173 A 
ATOM     82  C   UNL A   1      36.066  32.361  31.101  1.00  0.00     0.173 A 
ATOM     83  F   UNL A   1      37.497  33.575  27.991  1.00  0.00    -0.203 F 
ATOM     84  C   UNL A   1      35.369  33.940  28.930  1.00  0.00     0.198 A 
ATOM     85  C   UNL A   1      34.797  32.929  31.028  1.00  0.00     0.198 A 
ATOM     86  F   UNL A   1      36.378  31.616  32.172  1.00  0.00    -0.203 F 
ATOM     87  F   UNL A   1      35.056  34.743  27.904  1.00  0.00    -0.200 F 
ATOM     88  C   UNL A   1      34.454  33.731  29.951  1.00  0.00     0.200 A 
ATOM     89  F   UNL A   1      33.910  32.710  32.009  1.00  0.00    -0.200 F 
ATOM     90  F   UNL A   1      33.249  34.314  29.904  1.00  0.00    -0.200 F 
ENDBRANCH  56  80
BRANCH  68  91
ATOM     91  C   UNL A   1      42.801  34.748  33.272  1.00  0.00     0.064 A 
ATOM     92  C   UNL A   1      43.240  35.932  32.662  1.00  0.00     0.173 A 
ATOM     93  C   UNL A   1      42.606  34.757  34.661  1.00  0.00     0.173 A 
ATOM     94  F   UNL A   1      43.459  35.970  31.339  1.00  0.00    -0.203 F 
ATOM     95  C   UNL A   1      43.490  37.075  33.416  1.00  0.00     0.198 A 
ATOM     96  C   UNL A   1      42.826  35.911  35.407  1.00  0.00     0.198 A 
ATOM     97  F   UNL A   1      42.181  33.652  35.292  1.00  0.00    -0.203 F 
ATOM     98  F   UNL A   1      43.952  38.182  32.818  1.00  0.00    -0.200 F 
ATOM     99  C   UNL A   1      43.273  37.067  34.785  1.00  0.00     0.200 A 
ATOM    100  F   UNL A   1      42.598  35.906  36.728  1.00  0.00    -0.200 F 
ATOM    101  F   UNL A   1      43.499  38.172  35.508  1.00  0.00    -0.200 F 
ENDBRANCH  68  91
ENDBRANCH  42  43
ENDBRANCH  34  37
ENDBRANCH  32  33
ENDBRANCH  31  32
ENDBRANCH   1  31
TORSDOF 13
ENDMDL
MODEL 2
REMARK VINA RESULT:     -10.6      5.399     12.332
REMARK SMILES C[C@@H](C(=O)NCCCNC(=O)c1ccc(-c2c3nc(c(-c4c(F)c(F)c(F)c(F)c4F)c4ccc([nH]4)c(-c4c(F)c(F)c(F)c(F)c4F)c4nc(c(-c5c(F)c(F)c(F)c(F)c5F)c5ccc2[nH]5)C=C4)C=C3)cc1)c1ccc2c3cc(Cl)ccc3n(C(=O)c3ccc(Cl)cc3)c2c1
REMARK SMILES IDX 6 1 5 2 3 3 4 4 2 6 1 7 75 8 76 9 97 10 77 11 96 12 78 13
REMARK SMILES IDX 86 14 79 15 85 16 80 17 84 18 81 19 83 20 82 21 87 22 88 23
REMARK SMILES IDX 89 24 90 25 95 26 91 27 94 28 92 29 93 30 7 31 8 32 9 33
REMARK SMILES IDX 10 34 11 36 12 37 13 38 74 39 14 40 73 41 15 42 16 43 17 44
REMARK SMILES IDX 67 45 18 46 72 47 66 48 68 49 19 50 71 51 65 52 64 53 20 55
REMARK SMILES IDX 52 56 32 57 51 58 33 59 36 60 50 61 69 62 34 63 35 64 49 66
REMARK SMILES IDX 70 67 37 68 21 69 22 70 30 71 23 72 24 73 28 74 31 75 25 76
REMARK SMILES IDX 26 77 29 78 27 79 53 80 54 81 62 82 55 83 56 84 60 85 63 86
REMARK SMILES IDX 57 87 58 88 61 89 59 90 38 91 39 92 47 93 40 94 41 95 45 96
REMARK SMILES IDX 48 97 42 98 43 99 46 100 44 101
REMARK H PARENT 5 5 9 35 68 54 36 65
REMARK Flexibility Score: inf
ROOT
ATOM      1  C   UNL A   1      34.734  32.306  30.836  1.00  0.00     0.117 C 
ENDROOT
BRANCH   1   2
ATOM      2  N   UNL A   1      35.098  32.702  29.490  1.00  0.00    -0.356 N 
ATOM      3  C   UNL A   1      35.332  31.931  28.389  1.00  0.00     0.227 C 
ATOM      4  O   UNL A   1      35.937  32.472  27.461  1.00  0.00    -0.274 OA
ATOM      5  H   UNL A   1      35.190  33.673  29.349  1.00  0.00     0.163 HD
BRANCH   3   6
ATOM      6  C   UNL A   1      34.826  30.478  28.356  1.00  0.00     0.105 C 
ATOM      7  C   UNL A   1      36.011  29.557  28.019  1.00  0.00     0.023 C 
BRANCH   6   8
ATOM      8  C   UNL A   1      33.637  30.263  27.413  1.00  0.00    -0.034 A 
ATOM      9  C   UNL A   1      32.764  31.303  27.080  1.00  0.00     0.005 A 
ATOM     10  C   UNL A   1      33.368  28.988  26.891  1.00  0.00     0.032 A 
ATOM     11  C   UNL A   1      31.766  31.137  26.110  1.00  0.00     0.011 A 
ATOM     12  C   UNL A   1      32.313  28.798  25.981  1.00  0.00     0.057 A 
ATOM     13  C   UNL A   1      31.570  29.872  25.522  1.00  0.00     0.008 A 
ATOM     14  N   UNL A   1      31.839  27.625  25.379  1.00  0.00    -0.276 N 
ATOM     15  C   UNL A   1      30.725  29.382  24.495  1.00  0.00     0.009 A 
ATOM     16  C   UNL A   1      30.828  27.981  24.476  1.00  0.00     0.057 A 
ATOM     17  C   UNL A   1      29.838  30.038  23.616  1.00  0.00     0.031 A 
ATOM     18  C   UNL A   1      29.926  27.221  23.707  1.00  0.00     0.029 A 
ATOM     19  C   UNL A   1      29.007  29.280  22.798  1.00  0.00     0.041 A 
ATOM     20  C   UNL A   1      29.025  27.893  22.868  1.00  0.00     0.023 A 
ATOM     21  Cl  UNL A   1      27.922  30.078  21.727  1.00  0.00    -0.084 Cl
BRANCH  14  22
ATOM     22  C   UNL A   1      32.312  26.341  25.765  1.00  0.00     0.262 C 
ATOM     23  O   UNL A   1      31.913  25.946  26.864  1.00  0.00    -0.268 OA
BRANCH  22  24
ATOM     24  C   UNL A   1      33.264  25.420  25.078  1.00  0.00     0.040 A 
ATOM     25  C   UNL A   1      34.483  25.167  25.748  1.00  0.00     0.015 A 
ATOM     26  C   UNL A   1      33.102  24.908  23.788  1.00  0.00     0.015 A 
ATOM     27  C   UNL A   1      35.500  24.410  25.166  1.00  0.00     0.021 A 
ATOM     28  C   UNL A   1      34.115  24.118  23.214  1.00  0.00     0.021 A 
ATOM     29  C   UNL A   1      35.307  23.877  23.900  1.00  0.00     0.041 A 
ATOM     30  Cl  UNL A   1      36.554  22.944  23.173  1.00  0.00    -0.084 Cl
ENDBRANCH  22  24
ENDBRANCH  14  22
ENDBRANCH   6   8
ENDBRANCH   3   6
ENDBRANCH   1   2
BRANCH   1  31
ATOM     31  C   UNL A   1      34.942  33.461  31.817  1.00  0.00     0.042 C 
BRANCH  31  32
ATOM     32  C   UNL A   1      36.394  33.661  32.235  1.00  0.00     0.118 C 
BRANCH  32  33
ATOM     33  N   UNL A   1      36.671  33.103  33.548  1.00  0.00    -0.352 N 
ATOM     34  C   UNL A   1      37.435  32.015  33.895  1.00  0.00     0.251 C 
ATOM     35  H   UNL A   1      36.249  33.575  34.301  1.00  0.00     0.163 HD
ATOM     36  O   UNL A   1      37.368  31.557  35.028  1.00  0.00    -0.269 OA
BRANCH  34  37
ATOM     37  C   UNL A   1      38.313  31.378  32.890  1.00  0.00     0.039 A 
ATOM     38  C   UNL A   1      38.037  31.577  31.536  1.00  0.00     0.014 A 
ATOM     39  C   UNL A   1      39.403  30.594  33.278  1.00  0.00     0.014 A 
ATOM     40  C   UNL A   1      38.906  31.065  30.571  1.00  0.00     0.010 A 
ATOM     41  C   UNL A   1      40.308  30.145  32.319  1.00  0.00     0.010 A 
ATOM     42  C   UNL A   1      40.077  30.393  30.957  1.00  0.00    -0.014 A 
BRANCH  42  43
ATOM     43  C   UNL A   1      41.105  30.001  29.957  1.00  0.00     0.031 A 
ATOM     44  C   UNL A   1      41.094  28.628  29.348  1.00  0.00     0.074 A 
ATOM     45  C   UNL A   1      42.101  30.863  29.672  1.00  0.00     0.049 A 
ATOM     46  N   UNL A   1      41.966  28.076  28.544  1.00  0.00    -0.248 NA
ATOM     47  C   UNL A   1      39.968  27.750  29.703  1.00  0.00     0.031 C 
ATOM     48  C   UNL A   1      42.242  32.209  30.234  1.00  0.00     0.029 A 
ATOM     49  N   UNL A   1      43.198  30.731  28.856  1.00  0.00    -0.354 N 
ATOM     50  C   UNL A   1      41.506  26.787  28.311  1.00  0.00     0.074 A 
ATOM     51  C   UNL A   1      40.293  26.624  29.082  1.00  0.00     0.031 C 
ATOM     52  C   UNL A   1      43.353  32.778  29.745  1.00  0.00     0.029 A 
ATOM     53  C   UNL A   1      44.034  31.823  28.877  1.00  0.00     0.049 A 
ATOM     54  H   UNL A   1      43.371  29.932  28.309  1.00  0.00     0.167 HD
ATOM     55  C   UNL A   1      42.047  25.834  27.516  1.00  0.00     0.037 A 
ATOM     56  C   UNL A   1      45.231  32.021  28.289  1.00  0.00     0.037 A 
ATOM     57  C   UNL A   1      43.238  26.015  26.728  1.00  0.00     0.049 A 
ATOM     58  C   UNL A   1      45.816  30.926  27.437  1.00  0.00     0.074 A 
ATOM     59  C   UNL A   1      43.803  25.142  25.815  1.00  0.00     0.029 A 
ATOM     60  N   UNL A   1      44.053  27.135  26.769  1.00  0.00    -0.354 N 
ATOM     61  N   UNL A   1      45.317  29.750  27.141  1.00  0.00    -0.248 NA
ATOM     62  C   UNL A   1      47.135  31.182  26.840  1.00  0.00     0.031 C 
ATOM     63  C   UNL A   1      44.999  25.703  25.357  1.00  0.00     0.029 A 
ATOM     64  C   UNL A   1      45.146  26.952  25.938  1.00  0.00     0.049 A 
ATOM     65  H   UNL A   1      43.881  27.941  27.309  1.00  0.00     0.167 HD
ATOM     66  C   UNL A   1      46.246  29.139  26.311  1.00  0.00     0.074 A 
ATOM     67  C   UNL A   1      47.327  30.082  26.126  1.00  0.00     0.031 C 
ATOM     68  C   UNL A   1      46.212  27.902  25.759  1.00  0.00     0.037 A 
BRANCH  55  69
ATOM     69  C   UNL A   1      41.371  24.497  27.445  1.00  0.00     0.064 A 
ATOM     70  C   UNL A   1      40.201  24.299  26.699  1.00  0.00     0.173 A 
ATOM     71  C   UNL A   1      41.967  23.374  28.043  1.00  0.00     0.173 A 
ATOM     72  F   UNL A   1      39.589  25.339  26.113  1.00  0.00    -0.203 F 
ATOM     73  C   UNL A   1      39.650  23.028  26.557  1.00  0.00     0.198 A 
ATOM     74  C   UNL A   1      41.429  22.102  27.877  1.00  0.00     0.198 A 
ATOM     75  F   UNL A   1      43.092  23.509  28.762  1.00  0.00    -0.203 F 
ATOM     76  F   UNL A   1      38.520  22.864  25.854  1.00  0.00    -0.200 F 
ATOM     77  C   UNL A   1      40.270  21.929  27.135  1.00  0.00     0.200 A 
ATOM     78  F   UNL A   1      42.040  21.041  28.422  1.00  0.00    -0.200 F 
ATOM     79  F   UNL A   1      39.754  20.704  26.973  1.00  0.00    -0.200 F 
ENDBRANCH  55  69
BRANCH  56  80
ATOM     80  C   UNL A   1      45.978  33.289  28.506  1.00  0.00     0.064 A 
ATOM     81  C   UNL A   1      46.817  33.454  29.617  1.00  0.00     0.173 A 
ATOM     82  C   UNL A   1      45.827  34.382  27.638  1.00  0.00     0.173 A 
ATOM     83  F   UNL A   1      46.979  32.449  30.489  1.00  0.00    -0.203 F 
ATOM     84  C   UNL A   1      47.443  34.673  29.873  1.00  0.00     0.198 A 
ATOM     85  C   UNL A   1      46.483  35.587  27.874  1.00  0.00     0.198 A 
ATOM     86  F   UNL A   1      45.040  34.279  26.557  1.00  0.00    -0.203 F 
ATOM     87  F   UNL A   1      48.181  34.825  30.981  1.00  0.00    -0.200 F 
ATOM     88  C   UNL A   1      47.279  35.738  28.999  1.00  0.00     0.200 A 
ATOM     89  F   UNL A   1      46.334  36.607  27.018  1.00  0.00    -0.200 F 
ATOM     90  F   UNL A   1      47.873  36.912  29.250  1.00  0.00    -0.200 F 
ENDBRANCH  56  80
BRANCH  68  91
ATOM     91  C   UNL A   1      47.369  27.500  24.890  1.00  0.00     0.064 A 
ATOM     92  C   UNL A   1      47.418  27.849  23.532  1.00  0.00     0.173 A 
ATOM     93  C   UNL A   1      48.463  26.809  25.432  1.00  0.00     0.173 A 
ATOM     94  F   UNL A   1      46.388  28.493  22.963  1.00  0.00    -0.203 F 
ATOM     95  C   UNL A   1      48.512  27.504  22.744  1.00  0.00     0.198 A 
ATOM     96  C   UNL A   1      49.570  26.496  24.649  1.00  0.00     0.198 A 
ATOM     97  F   UNL A   1      48.468  26.458  26.727  1.00  0.00    -0.203 F 
ATOM     98  F   UNL A   1      48.518  27.808  21.440  1.00  0.00    -0.200 F 
ATOM     99  C   UNL A   1      49.591  26.838  23.305  1.00  0.00     0.200 A 
ATOM    100  F   UNL A   1      50.619  25.868  25.197  1.00  0.00    -0.200 F 
ATOM    101  F   UNL A   1      50.651  26.521  22.549  1.00  0.00    -0.200 F 
ENDBRANCH  68  91
ENDBRANCH  42  43
ENDBRANCH  34  37
ENDBRANCH  32  33
ENDBRANCH  31  32
ENDBRANCH   1  31
TORSDOF 13
ENDMDL
MODEL 3
REMARK VINA RESULT:     -10.5      3.938     10.576
REMARK SMILES C[C@@H](C(=O)NCCCNC(=O)c1ccc(-c2c3nc(c(-c4c(F)c(F)c(F)c(F)c4F)c4ccc([nH]4)c(-c4c(F)c(F)c(F)c(F)c4F)c4nc(c(-c5c(F)c(F)c(F)c(F)c5F)c5ccc2[nH]5)C=C4)C=C3)cc1)c1ccc2c3cc(Cl)ccc3n(C(=O)c3ccc(Cl)cc3)c2c1
REMARK SMILES IDX 6 1 5 2 3 3 4 4 2 6 1 7 75 8 76 9 97 10 77 11 96 12 78 13
REMARK SMILES IDX 86 14 79 15 85 16 80 17 84 18 81 19 83 20 82 21 87 22 88 23
REMARK SMILES IDX 89 24 90 25 95 26 91 27 94 28 92 29 93 30 7 31 8 32 9 33
REMARK SMILES IDX 10 34 11 36 12 37 13 38 74 39 14 40 73 41 15 42 16 43 17 44
REMARK SMILES IDX 67 45 18 46 72 47 66 48 68 49 19 50 71 51 65 52 64 53 20 55
REMARK SMILES IDX 52 56 32 57 51 58 33 59 36 60 50 61 69 62 34 63 35 64 49 66
REMARK SMILES IDX 70 67 37 68 21 69 22 70 30 71 23 72 24 73 28 74 31 75 25 76
REMARK SMILES IDX 26 77 29 78 27 79 53 80 54 81 62 82 55 83 56 84 60 85 63 86
REMARK SMILES IDX 57 87 58 88 61 89 59 90 38 91 39 92 47 93 40 94 41 95 45 96
REMARK SMILES IDX 48 97 42 98 43 99 46 100 44 101
REMARK H PARENT 5 5 9 35 68 54 36 65
REMARK Flexibility Score: inf
ROOT
ATOM      1  C   UNL A   1      35.544  33.938  29.702  1.00  0.00     0.117 C 
ENDROOT
BRANCH   1   2
ATOM      2  N   UNL A   1      35.378  34.495  31.030  1.00  0.00    -0.356 N 
ATOM      3  C   UNL A   1      35.831  34.033  32.232  1.00  0.00     0.227 C 
ATOM      4  O   UNL A   1      35.289  34.499  33.235  1.00  0.00    -0.274 OA
ATOM      5  H   UNL A   1      34.861  35.333  31.071  1.00  0.00     0.163 HD
BRANCH   3   6
ATOM      6  C   UNL A   1      36.973  33.003  32.269  1.00  0.00     0.105 C 
ATOM      7  C   UNL A   1      36.364  31.607  32.479  1.00  0.00     0.023 C 
BRANCH   6   8
ATOM      8  C   UNL A   1      38.058  33.325  33.303  1.00  0.00    -0.034 A 
ATOM      9  C   UNL A   1      38.543  34.625  33.480  1.00  0.00     0.005 A 
ATOM     10  C   UNL A   1      38.628  32.300  34.074  1.00  0.00     0.032 A 
ATOM     11  C   UNL A   1      39.429  34.937  34.519  1.00  0.00     0.011 A 
ATOM     12  C   UNL A   1      39.582  32.599  35.063  1.00  0.00     0.057 A 
ATOM     13  C   UNL A   1      39.920  33.911  35.350  1.00  0.00     0.008 A 
ATOM     14  N   UNL A   1      40.308  31.747  35.906  1.00  0.00    -0.276 N 
ATOM     15  C   UNL A   1      40.748  33.883  36.500  1.00  0.00     0.009 A 
ATOM     16  C   UNL A   1      41.059  32.542  36.781  1.00  0.00     0.057 A 
ATOM     17  C   UNL A   1      41.298  34.917  37.286  1.00  0.00     0.031 A 
ATOM     18  C   UNL A   1      42.051  32.236  37.733  1.00  0.00     0.029 A 
ATOM     19  C   UNL A   1      42.216  34.599  38.281  1.00  0.00     0.041 A 
ATOM     20  C   UNL A   1      42.614  33.283  38.478  1.00  0.00     0.023 A 
ATOM     21  Cl  UNL A   1      42.890  35.859  39.241  1.00  0.00    -0.084 Cl
BRANCH  14  22
ATOM     22  C   UNL A   1      40.279  30.334  35.747  1.00  0.00     0.262 C 
ATOM     23  O   UNL A   1      39.299  29.773  36.244  1.00  0.00    -0.268 OA
BRANCH  22  24
ATOM     24  C   UNL A   1      41.278  29.415  35.127  1.00  0.00     0.040 A 
ATOM     25  C   UNL A   1      40.971  28.940  33.831  1.00  0.00     0.015 A 
ATOM     26  C   UNL A   1      42.403  28.894  35.771  1.00  0.00     0.015 A 
ATOM     27  C   UNL A   1      41.768  27.995  33.185  1.00  0.00     0.021 A 
ATOM     28  C   UNL A   1      43.225  27.965  35.107  1.00  0.00     0.021 A 
ATOM     29  C   UNL A   1      42.902  27.517  33.824  1.00  0.00     0.041 A 
ATOM     30  Cl  UNL A   1      43.891  26.351  33.038  1.00  0.00    -0.084 Cl
ENDBRANCH  22  24
ENDBRANCH  14  22
ENDBRANCH   6   8
ENDBRANCH   3   6
ENDBRANCH   1   2
BRANCH   1  31
ATOM     31  C   UNL A   1      34.521  32.830  29.446  1.00  0.00     0.042 C 
BRANCH  31  32
ATOM     32  C   UNL A   1      34.430  32.402  27.985  1.00  0.00     0.118 C 
BRANCH  32  33
ATOM     33  N   UNL A   1      33.867  31.070  27.837  1.00  0.00    -0.352 N 
ATOM     34  C   UNL A   1      34.493  29.848  27.843  1.00  0.00     0.251 C 
ATOM     35  H   UNL A   1      32.891  31.040  27.713  1.00  0.00     0.163 HD
ATOM     36  O   UNL A   1      33.888  28.849  27.475  1.00  0.00    -0.269 OA
BRANCH  34  37
ATOM     37  C   UNL A   1      35.906  29.744  28.265  1.00  0.00     0.039 A 
ATOM     38  C   UNL A   1      36.188  29.392  29.587  1.00  0.00     0.014 A 
ATOM     39  C   UNL A   1      36.948  29.989  27.366  1.00  0.00     0.014 A 
ATOM     40  C   UNL A   1      37.512  29.195  29.983  1.00  0.00     0.010 A 
ATOM     41  C   UNL A   1      38.263  29.723  27.741  1.00  0.00     0.010 A 
ATOM     42  C   UNL A   1      38.555  29.306  29.049  1.00  0.00    -0.014 A 
BRANCH  42  43
ATOM     43  C   UNL A   1      39.947  28.925  29.402  1.00  0.00     0.031 A 
ATOM     44  C   UNL A   1      40.838  29.883  30.141  1.00  0.00     0.074 A 
ATOM     45  C   UNL A   1      40.431  27.743  28.971  1.00  0.00     0.049 A 
ATOM     46  N   UNL A   1      42.106  29.766  30.440  1.00  0.00    -0.248 NA
ATOM     47  C   UNL A   1      40.232  31.148  30.586  1.00  0.00     0.031 C 
ATOM     48  C   UNL A   1      39.674  26.747  28.206  1.00  0.00     0.029 A 
ATOM     49  N   UNL A   1      41.680  27.184  29.090  1.00  0.00    -0.354 N 
ATOM     50  C   UNL A   1      42.454  30.942  31.089  1.00  0.00     0.074 A 
ATOM     51  C   UNL A   1      41.273  31.777  31.116  1.00  0.00     0.031 C 
ATOM     52  C   UNL A   1      40.469  25.703  27.931  1.00  0.00     0.029 A 
ATOM     53  C   UNL A   1      41.805  25.973  28.451  1.00  0.00     0.049 A 
ATOM     54  H   UNL A   1      42.415  27.610  29.586  1.00  0.00     0.167 HD
ATOM     55  C   UNL A   1      43.651  31.284  31.622  1.00  0.00     0.037 A 
ATOM     56  C   UNL A   1      42.883  25.184  28.274  1.00  0.00     0.037 A 
ATOM     57  C   UNL A   1      44.813  30.435  31.618  1.00  0.00     0.049 A 
ATOM     58  C   UNL A   1      44.206  25.613  28.854  1.00  0.00     0.074 A 
ATOM     59  C   UNL A   1      46.038  30.655  32.223  1.00  0.00     0.029 A 
ATOM     60  N   UNL A   1      44.901  29.215  30.968  1.00  0.00    -0.354 N 
ATOM     61  N   UNL A   1      44.494  26.680  29.558  1.00  0.00    -0.248 NA
ATOM     62  C   UNL A   1      45.355  24.729  28.611  1.00  0.00     0.031 C 
ATOM     63  C   UNL A   1      46.891  29.602  31.878  1.00  0.00     0.029 A 
ATOM     64  C   UNL A   1      46.177  28.695  31.111  1.00  0.00     0.049 A 
ATOM     65  H   UNL A   1      44.165  28.781  30.477  1.00  0.00     0.167 HD
ATOM     66  C   UNL A   1      45.846  26.586  29.858  1.00  0.00     0.074 A 
ATOM     67  C   UNL A   1      46.316  25.344  29.285  1.00  0.00     0.031 C 
ATOM     68  C   UNL A   1      46.630  27.456  30.539  1.00  0.00     0.037 A 
BRANCH  55  69
ATOM     69  C   UNL A   1      43.787  32.636  32.259  1.00  0.00     0.064 A 
ATOM     70  C   UNL A   1      43.715  32.809  33.648  1.00  0.00     0.173 A 
ATOM     71  C   UNL A   1      44.106  33.755  31.472  1.00  0.00     0.173 A 
ATOM     72  F   UNL A   1      43.410  31.772  34.443  1.00  0.00    -0.203 F 
ATOM     73  C   UNL A   1      43.953  34.053  34.227  1.00  0.00     0.198 A 
ATOM     74  C   UNL A   1      44.369  34.991  32.057  1.00  0.00     0.198 A 
ATOM     75  F   UNL A   1      44.193  33.642  30.138  1.00  0.00    -0.203 F 
ATOM     76  F   UNL A   1      43.861  34.199  35.556  1.00  0.00    -0.200 F 
ATOM     77  C   UNL A   1      44.292  35.139  33.433  1.00  0.00     0.200 A 
ATOM     78  F   UNL A   1      44.712  36.034  31.288  1.00  0.00    -0.200 F 
ATOM     79  F   UNL A   1      44.548  36.328  33.995  1.00  0.00    -0.200 F 
ENDBRANCH  55  69
BRANCH  56  80
ATOM     80  C   UNL A   1      42.777  23.924  27.489  1.00  0.00     0.064 A 
ATOM     81  C   UNL A   1      42.434  22.714  28.105  1.00  0.00     0.173 A 
ATOM     82  C   UNL A   1      43.070  23.894  26.116  1.00  0.00     0.173 A 
ATOM     83  F   UNL A   1      42.166  22.683  29.418  1.00  0.00    -0.203 F 
ATOM     84  C   UNL A   1      42.426  21.517  27.390  1.00  0.00     0.198 A 
ATOM     85  C   UNL A   1      43.025  22.704  25.394  1.00  0.00     0.198 A 
ATOM     86  F   UNL A   1      43.400  25.025  25.474  1.00  0.00    -0.203 F 
ATOM     87  F   UNL A   1      42.165  20.364  28.021  1.00  0.00    -0.200 F 
ATOM     88  C   UNL A   1      42.719  21.514  26.034  1.00  0.00     0.200 A 
ATOM     89  F   UNL A   1      43.292  22.710  24.081  1.00  0.00    -0.200 F 
ATOM     90  F   UNL A   1      42.721  20.363  25.349  1.00  0.00    -0.200 F 
ENDBRANCH  56  80
BRANCH  68  91
ATOM     91  C   UNL A   1      48.076  27.090  30.717  1.00  0.00     0.064 A 
ATOM     92  C   UNL A   1      49.068  27.594  29.863  1.00  0.00     0.173 A 
ATOM     93  C   UNL A   1      48.479  26.274  31.785  1.00  0.00     0.173 A 
ATOM     94  F   UNL A   1      48.732  28.364  28.817  1.00  0.00    -0.203 F 
ATOM     95  C   UNL A   1      50.409  27.279  30.060  1.00  0.00     0.198 A 
ATOM     96  C   UNL A   1      49.824  25.988  31.998  1.00  0.00     0.198 A 
ATOM     97  F   UNL A   1      47.570  25.771  32.634  1.00  0.00    -0.203 F 
ATOM     98  F   UNL A   1      51.335  27.734  29.206  1.00  0.00    -0.200 F 
ATOM     99  C   UNL A   1      50.787  26.485  31.133  1.00  0.00     0.200 A 
ATOM    100  F   UNL A   1      50.189  25.236  33.045  1.00  0.00    -0.200 F 
ATOM    101  F   UNL A   1      52.080  26.196  31.331  1.00  0.00    -0.200 F 
ENDBRANCH  68  91
ENDBRANCH  42  43
ENDBRANCH  34  37
ENDBRANCH  32  33
ENDBRANCH  31  32
ENDBRANCH   1  31
TORSDOF 13
ENDMDL
