MODEL 1
REMARK VINA RESULT:     -13.3      0.000      0.000
REMARK SMILES O=C(NCCCNC(=O)[C@@H]1[C@@H](C(=O)NCCCn2ccnc2)[C@@H]2C=C[C@H]1C2)c1ccc(-c2c3nc(c(-c4c(F)c(F)c(F)c(F)c4F)c4ccc([nH]4)c(-c4c(F)c(F)c(F)c(F)c4F)c4nc(c(-c5c(F)c(F)c(F)c(F)c5F)c5ccc2[nH]5)C=C4)C=C3)cc1
REMARK SMILES IDX 7 1 8 2 9 3 6 5 5 6 4 7 3 8 1 9 2 10 28 12 29 13 90 14 30 15
REMARK SMILES IDX 89 16 31 17 32 18 33 19 83 20 34 21 88 22 82 23 84 24 35 25
REMARK SMILES IDX 87 26 81 27 80 28 36 30 68 31 48 32 67 33 49 34 52 35 66 36
REMARK SMILES IDX 85 37 50 38 51 39 65 41 86 42 53 43 37 44 38 45 46 46 39 47
REMARK SMILES IDX 40 48 44 49 47 50 41 51 42 52 45 53 43 54 69 55 70 56 78 57
REMARK SMILES IDX 71 58 72 59 76 60 79 61 73 62 74 63 77 64 75 65 54 66 55 67
REMARK SMILES IDX 63 68 56 69 57 70 61 71 64 72 58 73 59 74 62 75 60 76 10 77
REMARK SMILES IDX 11 78 26 79 23 80 25 81 27 82 24 83 12 84 13 85 14 86 15 88
REMARK SMILES IDX 16 89 17 90 18 91 19 92 22 93 20 94 21 95
REMARK H PARENT 7 4 3 11 84 29 52 40 14 87
REMARK Flexibility Score: inf
ROOT
ATOM      1  N   UNL A   1      31.005  26.945  26.830  1.00  0.00    -0.356 N 
ATOM      2  C   UNL A   1      31.284  26.132  25.773  1.00  0.00     0.224 C 
ATOM      3  O   UNL A   1      30.408  25.310  25.483  1.00  0.00    -0.275 OA
ATOM      4  H   UNL A   1      30.053  26.947  27.082  1.00  0.00     0.163 HD
ENDROOT
BRANCH   1   5
ATOM      5  C   UNL A   1      31.826  27.815  27.664  1.00  0.00     0.117 C 
BRANCH   5   6
ATOM      6  C   UNL A   1      32.184  29.164  27.018  1.00  0.00     0.042 C 
BRANCH   6   7
ATOM      7  C   UNL A   1      33.670  29.503  27.020  1.00  0.00     0.118 C 
BRANCH   7   8
ATOM      8  N   UNL A   1      33.957  30.876  27.366  1.00  0.00    -0.352 N 
ATOM      9  O   UNL A   1      34.949  32.810  27.647  1.00  0.00    -0.269 OA
ATOM     10  C   UNL A   1      35.077  31.567  27.703  1.00  0.00     0.251 C 
ATOM     11  H   UNL A   1      33.152  31.444  27.355  1.00  0.00     0.163 HD
BRANCH  10  12
ATOM     12  C   UNL A   1      36.358  31.021  28.238  1.00  0.00     0.039 A 
ATOM     13  C   UNL A   1      37.285  31.616  29.092  1.00  0.00     0.014 A 
ATOM     14  C   UNL A   1      36.648  29.715  27.812  1.00  0.00     0.014 A 
ATOM     15  C   UNL A   1      38.569  31.026  29.251  1.00  0.00     0.010 A 
ATOM     16  C   UNL A   1      37.867  29.095  28.073  1.00  0.00     0.010 A 
ATOM     17  C   UNL A   1      38.919  29.810  28.609  1.00  0.00    -0.014 A 
BRANCH  17  18
ATOM     18  C   UNL A   1      40.195  29.066  28.864  1.00  0.00     0.031 A 
ATOM     19  C   UNL A   1      40.300  28.924  30.357  1.00  0.00     0.074 A 
ATOM     20  C   UNL A   1      41.088  28.512  27.963  1.00  0.00     0.049 A 
ATOM     21  N   UNL A   1      41.013  29.690  31.115  1.00  0.00    -0.248 NA
ATOM     22  C   UNL A   1      39.320  28.133  31.138  1.00  0.00     0.031 C 
ATOM     23  C   UNL A   1      41.037  28.441  26.487  1.00  0.00     0.029 A 
ATOM     24  N   UNL A   1      42.319  27.866  28.185  1.00  0.00    -0.354 N 
ATOM     25  C   UNL A   1      40.836  29.233  32.417  1.00  0.00     0.074 A 
ATOM     26  C   UNL A   1      39.632  28.458  32.400  1.00  0.00     0.031 C 
ATOM     27  C   UNL A   1      41.983  27.589  25.993  1.00  0.00     0.029 A 
ATOM     28  C   UNL A   1      42.847  27.129  27.066  1.00  0.00     0.049 A 
ATOM     29  H   UNL A   1      42.789  27.915  29.049  1.00  0.00     0.167 HD
ATOM     30  C   UNL A   1      41.904  29.260  33.262  1.00  0.00     0.037 A 
ATOM     31  C   UNL A   1      43.986  26.336  27.000  1.00  0.00     0.037 A 
ATOM     32  C   UNL A   1      42.916  30.129  32.702  1.00  0.00     0.049 A 
ATOM     33  C   UNL A   1      44.853  26.724  28.138  1.00  0.00     0.074 A 
ATOM     34  C   UNL A   1      43.011  31.470  32.394  1.00  0.00     0.029 A 
ATOM     35  N   UNL A   1      43.791  29.472  31.882  1.00  0.00    -0.354 N 
ATOM     36  N   UNL A   1      45.413  27.897  28.215  1.00  0.00    -0.248 NA
ATOM     37  C   UNL A   1      44.545  26.055  29.390  1.00  0.00     0.031 C 
ATOM     38  C   UNL A   1      43.698  31.523  31.140  1.00  0.00     0.029 A 
ATOM     39  C   UNL A   1      44.156  30.247  30.823  1.00  0.00     0.049 A 
ATOM     40  H   UNL A   1      44.115  28.556  32.037  1.00  0.00     0.167 HD
ATOM     41  C   UNL A   1      45.015  28.350  29.459  1.00  0.00     0.074 A 
ATOM     42  C   UNL A   1      44.471  27.161  30.135  1.00  0.00     0.031 C 
ATOM     43  C   UNL A   1      44.836  29.686  29.684  1.00  0.00     0.037 A 
BRANCH  30  44
ATOM     44  C   UNL A   1      42.290  28.131  34.205  1.00  0.00     0.064 A 
ATOM     45  C   UNL A   1      42.874  26.967  33.656  1.00  0.00     0.173 A 
ATOM     46  C   UNL A   1      41.828  27.998  35.534  1.00  0.00     0.173 A 
ATOM     47  F   UNL A   1      43.310  26.958  32.387  1.00  0.00    -0.203 F 
ATOM     48  C   UNL A   1      42.937  25.758  34.360  1.00  0.00     0.198 A 
ATOM     49  C   UNL A   1      41.936  26.802  36.249  1.00  0.00     0.198 A 
ATOM     50  F   UNL A   1      41.159  28.970  36.158  1.00  0.00    -0.203 F 
ATOM     51  F   UNL A   1      43.396  24.657  33.751  1.00  0.00    -0.200 F 
ATOM     52  C   UNL A   1      42.470  25.677  35.657  1.00  0.00     0.200 A 
ATOM     53  F   UNL A   1      41.446  26.733  37.496  1.00  0.00    -0.200 F 
ATOM     54  F   UNL A   1      42.494  24.512  36.319  1.00  0.00    -0.200 F 
ENDBRANCH  30  44
BRANCH  31  55
ATOM     55  C   UNL A   1      44.260  24.994  26.340  1.00  0.00     0.064 A 
ATOM     56  C   UNL A   1      43.280  23.976  26.139  1.00  0.00     0.173 A 
ATOM     57  C   UNL A   1      45.422  24.847  25.569  1.00  0.00     0.173 A 
ATOM     58  F   UNL A   1      42.096  24.034  26.767  1.00  0.00    -0.203 F 
ATOM     59  C   UNL A   1      43.466  22.913  25.224  1.00  0.00     0.198 A 
ATOM     60  C   UNL A   1      45.595  23.802  24.648  1.00  0.00     0.198 A 
ATOM     61  F   UNL A   1      46.376  25.783  25.620  1.00  0.00    -0.203 F 
ATOM     62  F   UNL A   1      42.502  21.996  25.031  1.00  0.00    -0.200 F 
ATOM     63  C   UNL A   1      44.619  22.840  24.466  1.00  0.00     0.200 A 
ATOM     64  F   UNL A   1      46.697  23.777  23.885  1.00  0.00    -0.200 F 
ATOM     65  F   UNL A   1      44.776  21.881  23.542  1.00  0.00    -0.200 F 
ENDBRANCH  31  55
BRANCH  43  66
ATOM     66  C   UNL A   1      45.361  30.652  28.659  1.00  0.00     0.064 A 
ATOM     67  C   UNL A   1      44.645  31.161  27.561  1.00  0.00     0.173 A 
ATOM     68  C   UNL A   1      46.644  31.163  28.884  1.00  0.00     0.173 A 
ATOM     69  F   UNL A   1      43.370  30.810  27.344  1.00  0.00    -0.203 F 
ATOM     70  C   UNL A   1      45.227  32.092  26.696  1.00  0.00     0.198 A 
ATOM     71  C   UNL A   1      47.205  32.115  28.045  1.00  0.00     0.198 A 
ATOM     72  F   UNL A   1      47.343  30.766  29.960  1.00  0.00    -0.203 F 
ATOM     73  F   UNL A   1      44.539  32.558  25.641  1.00  0.00    -0.200 F 
ATOM     74  C   UNL A   1      46.509  32.562  26.937  1.00  0.00     0.200 A 
ATOM     75  F   UNL A   1      48.416  32.613  28.329  1.00  0.00    -0.200 F 
ATOM     76  F   UNL A   1      47.067  33.463  26.116  1.00  0.00    -0.200 F 
ENDBRANCH  43  66
ENDBRANCH  17  18
ENDBRANCH  10  12
ENDBRANCH   7   8
ENDBRANCH   6   7
ENDBRANCH   5   6
ENDBRANCH   1   5
BRANCH   2  77
ATOM     77  C   UNL A   1      32.635  26.127  25.033  1.00  0.00     0.098 C 
ATOM     78  C   UNL A   1      32.687  25.289  23.741  1.00  0.00     0.098 C 
ATOM     79  C   UNL A   1      33.775  25.433  25.871  1.00  0.00     0.025 C 
ATOM     80  C   UNL A   1      33.666  24.130  24.060  1.00  0.00     0.025 C 
ATOM     81  C   UNL A   1      33.213  24.105  26.328  1.00  0.00    -0.027 C 
ATOM     82  C   UNL A   1      34.760  24.801  24.867  1.00  0.00     0.017 C 
ATOM     83  C   UNL A   1      33.095  23.338  25.229  1.00  0.00    -0.027 C 
BRANCH  78  84
ATOM     84  C   UNL A   1      32.901  26.125  22.475  1.00  0.00     0.224 C 
ATOM     85  O   UNL A   1      33.957  25.992  21.845  1.00  0.00    -0.275 OA
ATOM     86  N   UNL A   1      31.984  26.963  21.919  1.00  0.00    -0.356 N 
ATOM     87  H   UNL A   1      32.233  27.282  21.022  1.00  0.00     0.163 HD
BRANCH  86  88
ATOM     88  C   UNL A   1      30.713  27.476  22.389  1.00  0.00     0.117 C 
BRANCH  88  89
ATOM     89  C   UNL A   1      30.683  28.988  22.543  1.00  0.00     0.043 C 
BRANCH  89  90
ATOM     90  C   UNL A   1      29.466  29.496  23.309  1.00  0.00     0.125 C 
BRANCH  90  91
ATOM     91  N   UNL A   1      28.961  30.758  22.804  1.00  0.00    -0.337 N 
ATOM     92  C   UNL A   1      28.909  31.161  21.498  1.00  0.00     0.107 A 
ATOM     93  C   UNL A   1      28.399  31.747  23.557  1.00  0.00     0.199 A 
ATOM     94  C   UNL A   1      28.169  32.319  21.513  1.00  0.00     0.130 A 
ATOM     95  N   UNL A   1      27.881  32.687  22.799  1.00  0.00    -0.245 NA
ENDBRANCH  90  91
ENDBRANCH  89  90
ENDBRANCH  88  89
ENDBRANCH  86  88
ENDBRANCH  78  84
ENDBRANCH   2  77
TORSDOF 15
ENDMDL
MODEL 2
REMARK VINA RESULT:     -13.2      1.755      3.812
REMARK SMILES O=C(NCCCNC(=O)[C@@H]1[C@@H](C(=O)NCCCn2ccnc2)[C@@H]2C=C[C@H]1C2)c1ccc(-c2c3nc(c(-c4c(F)c(F)c(F)c(F)c4F)c4ccc([nH]4)c(-c4c(F)c(F)c(F)c(F)c4F)c4nc(c(-c5c(F)c(F)c(F)c(F)c5F)c5ccc2[nH]5)C=C4)C=C3)cc1
REMARK SMILES IDX 7 1 8 2 9 3 6 5 5 6 4 7 3 8 1 9 2 10 28 12 29 13 90 14 30 15
REMARK SMILES IDX 89 16 31 17 32 18 33 19 83 20 34 21 88 22 82 23 84 24 35 25
REMARK SMILES IDX 87 26 81 27 80 28 36 30 68 31 48 32 67 33 49 34 52 35 66 36
REMARK SMILES IDX 85 37 50 38 51 39 65 41 86 42 53 43 37 44 38 45 46 46 39 47
REMARK SMILES IDX 40 48 44 49 47 50 41 51 42 52 45 53 43 54 69 55 70 56 78 57
REMARK SMILES IDX 71 58 72 59 76 60 79 61 73 62 74 63 77 64 75 65 54 66 55 67
REMARK SMILES IDX 63 68 56 69 57 70 61 71 64 72 58 73 59 74 62 75 60 76 10 77
REMARK SMILES IDX 11 78 26 79 23 80 25 81 27 82 24 83 12 84 13 85 14 86 15 88
REMARK SMILES IDX 16 89 17 90 18 91 19 92 22 93 20 94 21 95
REMARK H PARENT 7 4 3 11 84 29 52 40 14 87
REMARK Flexibility Score: inf
ROOT
ATOM      1  N   UNL A   1      34.027  28.806  25.251  1.00  0.00    -0.356 N 
ATOM      2  C   UNL A   1      33.545  28.459  24.025  1.00  0.00     0.224 C 
ATOM      3  O   UNL A   1      33.978  29.118  23.072  1.00  0.00    -0.275 OA
ATOM      4  H   UNL A   1      34.835  29.368  25.209  1.00  0.00     0.163 HD
ENDROOT
BRANCH   1   5
ATOM      5  C   UNL A   1      33.595  28.514  26.612  1.00  0.00     0.117 C 
BRANCH   5   6
ATOM      6  C   UNL A   1      32.849  29.668  27.304  1.00  0.00     0.042 C 
BRANCH   6   7
ATOM      7  C   UNL A   1      33.506  31.035  27.160  1.00  0.00     0.118 C 
BRANCH   7   8
ATOM      8  N   UNL A   1      33.933  31.615  28.412  1.00  0.00    -0.352 N 
ATOM      9  O   UNL A   1      35.117  32.565  29.994  1.00  0.00    -0.269 OA
ATOM     10  C   UNL A   1      35.123  31.737  29.057  1.00  0.00     0.251 C 
ATOM     11  H   UNL A   1      33.188  32.015  28.917  1.00  0.00     0.163 HD
BRANCH  10  12
ATOM     12  C   UNL A   1      36.356  30.920  28.856  1.00  0.00     0.039 A 
ATOM     13  C   UNL A   1      36.491  29.638  28.325  1.00  0.00     0.014 A 
ATOM     14  C   UNL A   1      37.539  31.559  29.261  1.00  0.00     0.014 A 
ATOM     15  C   UNL A   1      37.721  28.942  28.483  1.00  0.00     0.010 A 
ATOM     16  C   UNL A   1      38.767  30.904  29.302  1.00  0.00     0.010 A 
ATOM     17  C   UNL A   1      38.842  29.537  29.118  1.00  0.00    -0.014 A 
BRANCH  17  18
ATOM     18  C   UNL A   1      40.202  28.911  29.172  1.00  0.00     0.031 A 
ATOM     19  C   UNL A   1      40.530  28.761  30.631  1.00  0.00     0.074 A 
ATOM     20  C   UNL A   1      41.006  28.454  28.141  1.00  0.00     0.049 A 
ATOM     21  N   UNL A   1      41.271  29.579  31.302  1.00  0.00    -0.248 NA
ATOM     22  C   UNL A   1      39.746  27.872  31.520  1.00  0.00     0.031 C 
ATOM     23  C   UNL A   1      40.752  28.398  26.685  1.00  0.00     0.029 A 
ATOM     24  N   UNL A   1      42.309  27.923  28.172  1.00  0.00    -0.354 N 
ATOM     25  C   UNL A   1      41.323  29.090  32.603  1.00  0.00     0.074 A 
ATOM     26  C   UNL A   1      40.203  28.207  32.734  1.00  0.00     0.031 C 
ATOM     27  C   UNL A   1      41.692  27.644  26.042  1.00  0.00     0.029 A 
ATOM     28  C   UNL A   1      42.737  27.252  26.971  1.00  0.00     0.049 A 
ATOM     29  H   UNL A   1      42.890  28.003  28.963  1.00  0.00     0.167 HD
ATOM     30  C   UNL A   1      42.493  29.206  33.292  1.00  0.00     0.037 A 
ATOM     31  C   UNL A   1      43.922  26.569  26.725  1.00  0.00     0.037 A 
ATOM     32  C   UNL A   1      43.333  30.172  32.618  1.00  0.00     0.049 A 
ATOM     33  C   UNL A   1      44.902  27.022  27.741  1.00  0.00     0.074 A 
ATOM     34  C   UNL A   1      43.262  31.520  32.335  1.00  0.00     0.029 A 
ATOM     35  N   UNL A   1      44.138  29.610  31.667  1.00  0.00    -0.354 N 
ATOM     36  N   UNL A   1      45.360  28.240  27.770  1.00  0.00    -0.248 NA
ATOM     37  C   UNL A   1      44.836  26.310  29.006  1.00  0.00     0.031 C 
ATOM     38  C   UNL A   1      43.757  31.653  30.999  1.00  0.00     0.029 A 
ATOM     39  C   UNL A   1      44.278  30.428  30.588  1.00  0.00     0.049 A 
ATOM     40  H   UNL A   1      44.563  28.726  31.752  1.00  0.00     0.167 HD
ATOM     41  C   UNL A   1      45.103  28.638  29.069  1.00  0.00     0.074 A 
ATOM     42  C   UNL A   1      44.769  27.394  29.783  1.00  0.00     0.031 C 
ATOM     43  C   UNL A   1      44.838  29.948  29.351  1.00  0.00     0.037 A 
BRANCH  30  44
ATOM     44  C   UNL A   1      43.109  28.105  34.142  1.00  0.00     0.064 A 
ATOM     45  C   UNL A   1      43.346  26.847  33.542  1.00  0.00     0.173 A 
ATOM     46  C   UNL A   1      43.167  28.115  35.553  1.00  0.00     0.173 A 
ATOM     47  F   UNL A   1      43.275  26.704  32.211  1.00  0.00    -0.203 F 
ATOM     48  C   UNL A   1      43.568  25.689  34.298  1.00  0.00     0.198 A 
ATOM     49  C   UNL A   1      43.435  26.965  36.301  1.00  0.00     0.198 A 
ATOM     50  F   UNL A   1      42.862  29.198  36.273  1.00  0.00    -0.203 F 
ATOM     51  F   UNL A   1      43.674  24.504  33.682  1.00  0.00    -0.200 F 
ATOM     52  C   UNL A   1      43.615  25.749  35.676  1.00  0.00     0.200 A 
ATOM     53  F   UNL A   1      43.442  27.036  37.640  1.00  0.00    -0.200 F 
ATOM     54  F   UNL A   1      43.788  24.636  36.402  1.00  0.00    -0.200 F 
ENDBRANCH  30  44
BRANCH  31  55
ATOM     55  C   UNL A   1      44.219  25.267  25.999  1.00  0.00     0.064 A 
ATOM     56  C   UNL A   1      45.338  25.059  25.138  1.00  0.00     0.173 A 
ATOM     57  C   UNL A   1      43.594  24.092  26.438  1.00  0.00     0.173 A 
ATOM     58  F   UNL A   1      46.066  26.098  24.699  1.00  0.00    -0.203 F 
ATOM     59  C   UNL A   1      45.784  23.768  24.770  1.00  0.00     0.198 A 
ATOM     60  C   UNL A   1      44.050  22.812  26.087  1.00  0.00     0.198 A 
ATOM     61  F   UNL A   1      42.581  24.164  27.309  1.00  0.00    -0.203 F 
ATOM     62  F   UNL A   1      46.869  23.611  23.991  1.00  0.00    -0.200 F 
ATOM     63  C   UNL A   1      45.147  22.645  25.263  1.00  0.00     0.200 A 
ATOM     64  F   UNL A   1      43.452  21.735  26.616  1.00  0.00    -0.200 F 
ATOM     65  F   UNL A   1      45.604  21.415  24.983  1.00  0.00    -0.200 F 
ENDBRANCH  31  55
BRANCH  43  66
ATOM     66  C   UNL A   1      45.124  30.972  28.288  1.00  0.00     0.064 A 
ATOM     67  C   UNL A   1      44.244  31.367  27.264  1.00  0.00     0.173 A 
ATOM     68  C   UNL A   1      46.337  31.661  28.396  1.00  0.00     0.173 A 
ATOM     69  F   UNL A   1      43.017  30.838  27.164  1.00  0.00    -0.203 F 
ATOM     70  C   UNL A   1      44.605  32.365  26.355  1.00  0.00     0.198 A 
ATOM     71  C   UNL A   1      46.677  32.677  27.515  1.00  0.00     0.198 A 
ATOM     72  F   UNL A   1      47.181  31.374  29.400  1.00  0.00    -0.203 F 
ATOM     73  F   UNL A   1      43.763  32.723  25.372  1.00  0.00    -0.200 F 
ATOM     74  C   UNL A   1      45.824  33.014  26.479  1.00  0.00     0.200 A 
ATOM     75  F   UNL A   1      47.826  33.344  27.689  1.00  0.00    -0.200 F 
ATOM     76  F   UNL A   1      46.171  33.980  25.616  1.00  0.00    -0.200 F 
ENDBRANCH  43  66
ENDBRANCH  17  18
ENDBRANCH  10  12
ENDBRANCH   7   8
ENDBRANCH   6   7
ENDBRANCH   5   6
ENDBRANCH   1   5
BRANCH   2  77
ATOM     77  C   UNL A   1      32.446  27.402  23.807  1.00  0.00     0.098 C 
ATOM     78  C   UNL A   1      31.960  27.231  22.355  1.00  0.00     0.098 C 
ATOM     79  C   UNL A   1      31.093  27.786  24.518  1.00  0.00     0.025 C 
ATOM     80  C   UNL A   1      30.490  27.721  22.369  1.00  0.00     0.025 C 
ATOM     81  C   UNL A   1      30.794  29.212  24.110  1.00  0.00    -0.027 C 
ATOM     82  C   UNL A   1      29.948  27.185  23.679  1.00  0.00     0.017 C 
ATOM     83  C   UNL A   1      30.484  29.182  22.801  1.00  0.00    -0.027 C 
BRANCH  78  84
ATOM     84  C   UNL A   1      32.288  25.859  21.756  1.00  0.00     0.224 C 
ATOM     85  O   UNL A   1      33.081  25.796  20.808  1.00  0.00    -0.275 OA
ATOM     86  N   UNL A   1      31.839  24.664  22.229  1.00  0.00    -0.356 N 
ATOM     87  H   UNL A   1      32.286  23.886  21.824  1.00  0.00     0.163 HD
BRANCH  86  88
ATOM     88  C   UNL A   1      30.833  24.314  23.212  1.00  0.00     0.117 C 
BRANCH  88  89
ATOM     89  C   UNL A   1      31.350  23.413  24.321  1.00  0.00     0.043 C 
BRANCH  89  90
ATOM     90  C   UNL A   1      32.830  23.073  24.187  1.00  0.00     0.125 C 
BRANCH  90  91
ATOM     91  N   UNL A   1      33.134  21.700  24.542  1.00  0.00    -0.337 N 
ATOM     92  C   UNL A   1      32.239  20.700  24.806  1.00  0.00     0.107 A 
ATOM     93  C   UNL A   1      34.385  21.159  24.624  1.00  0.00     0.199 A 
ATOM     94  C   UNL A   1      32.998  19.557  24.883  1.00  0.00     0.130 A 
ATOM     95  N   UNL A   1      34.330  19.858  24.795  1.00  0.00    -0.245 NA
ENDBRANCH  90  91
ENDBRANCH  89  90
ENDBRANCH  88  89
ENDBRANCH  86  88
ENDBRANCH  78  84
ENDBRANCH   2  77
TORSDOF 15
ENDMDL
MODEL 3
REMARK VINA RESULT:     -13.2      1.114      1.910
REMARK SMILES O=C(NCCCNC(=O)[C@@H]1[C@@H](C(=O)NCCCn2ccnc2)[C@@H]2C=C[C@H]1C2)c1ccc(-c2c3nc(c(-c4c(F)c(F)c(F)c(F)c4F)c4ccc([nH]4)c(-c4c(F)c(F)c(F)c(F)c4F)c4nc(c(-c5c(F)c(F)c(F)c(F)c5F)c5ccc2[nH]5)C=C4)C=C3)cc1
REMARK SMILES IDX 7 1 8 2 9 3 6 5 5 6 4 7 3 8 1 9 2 10 28 12 29 13 90 14 30 15
REMARK SMILES IDX 89 16 31 17 32 18 33 19 83 20 34 21 88 22 82 23 84 24 35 25
REMARK SMILES IDX 87 26 81 27 80 28 36 30 68 31 48 32 67 33 49 34 52 35 66 36
REMARK SMILES IDX 85 37 50 38 51 39 65 41 86 42 53 43 37 44 38 45 46 46 39 47
REMARK SMILES IDX 40 48 44 49 47 50 41 51 42 52 45 53 43 54 69 55 70 56 78 57
REMARK SMILES IDX 71 58 72 59 76 60 79 61 73 62 74 63 77 64 75 65 54 66 55 67
REMARK SMILES IDX 63 68 56 69 57 70 61 71 64 72 58 73 59 74 62 75 60 76 10 77
REMARK SMILES IDX 11 78 26 79 23 80 25 81 27 82 24 83 12 84 13 85 14 86 15 88
REMARK SMILES IDX 16 89 17 90 18 91 19 92 22 93 20 94 21 95
REMARK H PARENT 7 4 3 11 84 29 52 40 14 87
REMARK Flexibility Score: inf
ROOT
ATOM      1  N   UNL A   1      32.341  27.537  26.762  1.00  0.00    -0.356 N 
ATOM      2  C   UNL A   1      32.186  26.528  25.861  1.00  0.00     0.224 C 
ATOM      3  O   UNL A   1      31.233  25.767  26.067  1.00  0.00    -0.275 OA
ATOM      4  H   UNL A   1      31.546  27.687  27.324  1.00  0.00     0.163 HD
ENDROOT
BRANCH   1   5
ATOM      5  C   UNL A   1      33.442  28.444  27.064  1.00  0.00     0.117 C 
BRANCH   5   6
ATOM      6  C   UNL A   1      33.034  29.921  27.193  1.00  0.00     0.042 C 
BRANCH   6   7
ATOM      7  C   UNL A   1      34.186  30.889  27.434  1.00  0.00     0.118 C 
BRANCH   7   8
ATOM      8  N   UNL A   1      34.162  31.516  28.735  1.00  0.00    -0.352 N 
ATOM      9  O   UNL A   1      34.697  32.654  30.531  1.00  0.00    -0.269 OA
ATOM     10  C   UNL A   1      35.105  31.866  29.649  1.00  0.00     0.251 C 
ATOM     11  H   UNL A   1      33.250  31.741  29.029  1.00  0.00     0.163 HD
BRANCH  10  12
ATOM     12  C   UNL A   1      36.490  31.327  29.781  1.00  0.00     0.039 A 
ATOM     13  C   UNL A   1      37.681  32.004  30.042  1.00  0.00     0.014 A 
ATOM     14  C   UNL A   1      36.583  29.935  29.621  1.00  0.00     0.014 A 
ATOM     15  C   UNL A   1      38.922  31.336  29.849  1.00  0.00     0.010 A 
ATOM     16  C   UNL A   1      37.803  29.269  29.551  1.00  0.00     0.010 A 
ATOM     17  C   UNL A   1      38.986  29.976  29.452  1.00  0.00    -0.014 A 
BRANCH  17  18
ATOM     18  C   UNL A   1      40.255  29.182  29.386  1.00  0.00     0.031 A 
ATOM     19  C   UNL A   1      40.638  28.895  30.811  1.00  0.00     0.074 A 
ATOM     20  C   UNL A   1      40.937  28.697  28.282  1.00  0.00     0.049 A 
ATOM     21  N   UNL A   1      41.513  29.567  31.482  1.00  0.00    -0.248 NA
ATOM     22  C   UNL A   1      39.794  28.054  31.692  1.00  0.00     0.031 C 
ATOM     23  C   UNL A   1      40.601  28.770  26.844  1.00  0.00     0.029 A 
ATOM     24  N   UNL A   1      42.160  28.006  28.202  1.00  0.00    -0.354 N 
ATOM     25  C   UNL A   1      41.570  28.991  32.747  1.00  0.00     0.074 A 
ATOM     26  C   UNL A   1      40.354  28.248  32.894  1.00  0.00     0.031 C 
ATOM     27  C   UNL A   1      41.400  27.950  26.101  1.00  0.00     0.029 A 
ATOM     28  C   UNL A   1      42.434  27.369  26.940  1.00  0.00     0.049 A 
ATOM     29  H   UNL A   1      42.788  27.960  28.959  1.00  0.00     0.167 HD
ATOM     30  C   UNL A   1      42.781  28.912  33.368  1.00  0.00     0.037 A 
ATOM     31  C   UNL A   1      43.506  26.560  26.582  1.00  0.00     0.037 A 
ATOM     32  C   UNL A   1      43.701  29.808  32.703  1.00  0.00     0.049 A 
ATOM     33  C   UNL A   1      44.589  26.818  27.560  1.00  0.00     0.074 A 
ATOM     34  C   UNL A   1      43.790  31.170  32.504  1.00  0.00     0.029 A 
ATOM     35  N   UNL A   1      44.376  29.214  31.672  1.00  0.00    -0.354 N 
ATOM     36  N   UNL A   1      45.201  27.965  27.633  1.00  0.00    -0.248 NA
ATOM     37  C   UNL A   1      44.499  26.037  28.783  1.00  0.00     0.031 C 
ATOM     38  C   UNL A   1      44.226  31.329  31.151  1.00  0.00     0.029 A 
ATOM     39  C   UNL A   1      44.562  30.079  30.637  1.00  0.00     0.049 A 
ATOM     40  H   UNL A   1      44.686  28.280  31.678  1.00  0.00     0.167 HD
ATOM     41  C   UNL A   1      45.067  28.304  28.967  1.00  0.00     0.074 A 
ATOM     42  C   UNL A   1      44.614  27.068  29.625  1.00  0.00     0.031 C 
ATOM     43  C   UNL A   1      44.989  29.615  29.342  1.00  0.00     0.037 A 
BRANCH  30  44
ATOM     44  C   UNL A   1      43.294  27.689  34.112  1.00  0.00     0.064 A 
ATOM     45  C   UNL A   1      43.745  27.852  35.441  1.00  0.00     0.173 A 
ATOM     46  C   UNL A   1      43.665  26.471  33.499  1.00  0.00     0.173 A 
ATOM     47  F   UNL A   1      43.492  28.985  36.111  1.00  0.00    -0.203 F 
ATOM     48  C   UNL A   1      44.548  26.899  36.080  1.00  0.00     0.198 A 
ATOM     49  C   UNL A   1      44.427  25.502  34.158  1.00  0.00     0.198 A 
ATOM     50  F   UNL A   1      43.409  26.210  32.215  1.00  0.00    -0.203 F 
ATOM     51  F   UNL A   1      45.042  27.155  37.299  1.00  0.00    -0.200 F 
ATOM     52  C   UNL A   1      44.886  25.723  35.439  1.00  0.00     0.200 A 
ATOM     53  F   UNL A   1      44.775  24.382  33.507  1.00  0.00    -0.200 F 
ATOM     54  F   UNL A   1      45.685  24.827  36.034  1.00  0.00    -0.200 F 
ENDBRANCH  30  44
BRANCH  31  55
ATOM     55  C   UNL A   1      43.594  25.283  25.763  1.00  0.00     0.064 A 
ATOM     56  C   UNL A   1      44.732  24.891  24.996  1.00  0.00     0.173 A 
ATOM     57  C   UNL A   1      42.681  24.251  26.022  1.00  0.00     0.173 A 
ATOM     58  F   UNL A   1      45.715  25.767  24.733  1.00  0.00    -0.203 F 
ATOM     59  C   UNL A   1      44.925  23.563  24.547  1.00  0.00     0.198 A 
ATOM     60  C   UNL A   1      42.884  22.931  25.592  1.00  0.00     0.198 A 
ATOM     61  F   UNL A   1      41.615  24.486  26.795  1.00  0.00    -0.203 F 
ATOM     62  F   UNL A   1      46.032  23.222  23.864  1.00  0.00    -0.200 F 
ATOM     63  C   UNL A   1      44.006  22.581  24.864  1.00  0.00     0.200 A 
ATOM     64  F   UNL A   1      42.009  21.982  25.953  1.00  0.00    -0.200 F 
ATOM     65  F   UNL A   1      44.213  21.303  24.510  1.00  0.00    -0.200 F 
ENDBRANCH  31  55
BRANCH  43  66
ATOM     66  C   UNL A   1      45.348  30.664  28.326  1.00  0.00     0.064 A 
ATOM     67  C   UNL A   1      44.474  31.232  27.381  1.00  0.00     0.173 A 
ATOM     68  C   UNL A   1      46.643  31.189  28.402  1.00  0.00     0.173 A 
ATOM     69  F   UNL A   1      43.185  30.867  27.324  1.00  0.00    -0.203 F 
ATOM     70  C   UNL A   1      44.911  32.235  26.513  1.00  0.00     0.198 A 
ATOM     71  C   UNL A   1      47.063  32.211  27.564  1.00  0.00     0.198 A 
ATOM     72  F   UNL A   1      47.494  30.734  29.335  1.00  0.00    -0.203 F 
ATOM     73  F   UNL A   1      44.072  32.759  25.604  1.00  0.00    -0.200 F 
ATOM     74  C   UNL A   1      46.208  32.719  26.602  1.00  0.00     0.200 A 
ATOM     75  F   UNL A   1      48.295  32.717  27.707  1.00  0.00    -0.200 F 
ATOM     76  F   UNL A   1      46.629  33.688  25.778  1.00  0.00    -0.200 F 
ENDBRANCH  43  66
ENDBRANCH  17  18
ENDBRANCH  10  12
ENDBRANCH   7   8
ENDBRANCH   6   7
ENDBRANCH   5   6
ENDBRANCH   1   5
BRANCH   2  77
ATOM     77  C   UNL A   1      33.174  26.246  24.714  1.00  0.00     0.098 C 
ATOM     78  C   UNL A   1      32.604  25.463  23.516  1.00  0.00     0.098 C 
ATOM     79  C   UNL A   1      34.345  25.287  25.152  1.00  0.00     0.025 C 
ATOM     80  C   UNL A   1      33.351  24.105  23.539  1.00  0.00     0.025 C 
ATOM     81  C   UNL A   1      33.688  24.102  25.827  1.00  0.00    -0.027 C 
ATOM     82  C   UNL A   1      34.771  24.486  23.906  1.00  0.00     0.017 C 
ATOM     83  C   UNL A   1      33.042  23.420  24.864  1.00  0.00    -0.027 C 
BRANCH  78  84
ATOM     84  C   UNL A   1      32.562  26.274  22.216  1.00  0.00     0.224 C 
ATOM     85  O   UNL A   1      33.367  26.001  21.317  1.00  0.00    -0.275 OA
ATOM     86  N   UNL A   1      31.650  27.239  21.918  1.00  0.00    -0.356 N 
ATOM     87  H   UNL A   1      31.675  27.529  20.977  1.00  0.00     0.163 HD
BRANCH  86  88
ATOM     88  C   UNL A   1      30.648  27.921  22.713  1.00  0.00     0.117 C 
BRANCH  88  89
ATOM     89  C   UNL A   1      30.394  29.355  22.277  1.00  0.00     0.043 C 
BRANCH  89  90
ATOM     90  C   UNL A   1      29.124  29.954  22.873  1.00  0.00     0.125 C 
BRANCH  90  91
ATOM     91  N   UNL A   1      28.725  31.193  22.233  1.00  0.00    -0.337 N 
ATOM     92  C   UNL A   1      28.278  31.351  20.950  1.00  0.00     0.107 A 
ATOM     93  C   UNL A   1      28.681  32.418  22.833  1.00  0.00     0.199 A 
ATOM     94  C   UNL A   1      27.835  32.651  20.887  1.00  0.00     0.130 A 
ATOM     95  N   UNL A   1      28.115  33.310  22.053  1.00  0.00    -0.245 NA
ENDBRANCH  90  91
ENDBRANCH  89  90
ENDBRANCH  88  89
ENDBRANCH  86  88
ENDBRANCH  78  84
ENDBRANCH   2  77
TORSDOF 15
ENDMDL
