MODEL 1
REMARK VINA RESULT:     -12.3      0.000      0.000
REMARK SMILES COc1cc2c(cc1OC)-c1c(c(C(=O)Nc3ccc(C(=O)NCCCNC(=O)c4ccc(-c5c6nc(c(-c7c(F)c(F)c(F)c(F)c7F)c7ccc([nH]7)c(-c7c(F)c(F)c(F)c(F)c7F)c7nc(c(-c8c(F)c(F)c(F)c(F)c8F)c8ccc5[nH]8)C=C7)C=C6)cc4)cc3)nn1-c1ccc(F)cc1)C2
REMARK SMILES IDX 24 1 23 2 21 3 22 4 20 6 17 7 18 8 94 9 19 10 93 11 16 12
REMARK SMILES IDX 14 13 15 14 13 16 3 17 4 18 8 19 5 20 7 21 6 22 104 23 11 24
REMARK SMILES IDX 12 25 96 26 95 27 2 28 1 29 9 30 10 31 97 32 98 33 103 34
REMARK SMILES IDX 99 35 102 36 100 37 101 38 25 39 26 40 27 41 28 42 29 44
REMARK SMILES IDX 30 45 31 46 92 47 32 48 91 49 33 50 34 51 35 52 85 53 36 54
REMARK SMILES IDX 90 55 84 56 86 57 37 58 89 59 83 60 82 61 38 63 70 64 50 65
REMARK SMILES IDX 69 66 51 67 54 68 68 69 87 70 52 71 53 72 67 74 88 75 55 76
REMARK SMILES IDX 39 77 40 78 48 79 41 80 42 81 46 82 49 83 43 84 44 85 47 86
REMARK SMILES IDX 45 87 71 88 72 89 80 90 73 91 74 92 78 93 81 94 75 95 76 96
REMARK SMILES IDX 79 97 77 98 56 99 57 100 65 101 58 102 59 103 63 104 66 105
REMARK SMILES IDX 60 106 61 107 64 108 62 109
REMARK H PARENT 23 5 16 15 27 43 86 62 54 73
REMARK Flexibility Score: inf
ROOT
ATOM      1  C   UNL A   1      32.904  35.678  29.204  1.00  0.00     0.118 C 
ENDROOT
BRANCH   1   2
ATOM      2  N   UNL A   1      32.695  36.614  30.293  1.00  0.00    -0.352 N 
ATOM      3  C   UNL A   1      33.268  36.786  31.533  1.00  0.00     0.251 C 
ATOM      4  O   UNL A   1      33.030  37.868  32.081  1.00  0.00    -0.269 OA
ATOM      5  H   UNL A   1      31.985  37.270  30.103  1.00  0.00     0.163 HD
BRANCH   3   6
ATOM      6  C   UNL A   1      33.990  35.736  32.332  1.00  0.00     0.039 A 
ATOM      7  C   UNL A   1      35.023  33.192  32.859  1.00  0.00     0.041 A 
ATOM      8  C   UNL A   1      33.697  33.453  33.159  1.00  0.00     0.027 A 
ATOM      9  C   UNL A   1      35.885  34.259  32.627  1.00  0.00     0.027 A 
ATOM     10  C   UNL A   1      33.183  34.735  32.910  1.00  0.00     0.016 A 
ATOM     11  C   UNL A   1      35.365  35.531  32.365  1.00  0.00     0.016 A 
BRANCH   7  12
ATOM     12  N   UNL A   1      35.553  31.908  32.769  1.00  0.00    -0.321 N 
ATOM     13  C   UNL A   1      36.845  31.433  32.730  1.00  0.00     0.276 C 
ATOM     14  O   UNL A   1      36.944  30.254  32.343  1.00  0.00    -0.267 OA
ATOM     15  H   UNL A   1      34.869  31.201  32.725  1.00  0.00     0.170 HD
BRANCH  13  16
ATOM     16  C   UNL A   1      38.035  32.163  33.256  1.00  0.00     0.155 A 
ATOM     17  C   UNL A   1      43.149  34.884  31.790  1.00  0.00     0.161 A 
ATOM     18  C   UNL A   1      41.981  34.497  31.121  1.00  0.00     0.055 A 
ATOM     19  C   UNL A   1      43.185  34.973  33.198  1.00  0.00     0.161 A 
ATOM     20  C   UNL A   1      40.879  34.126  31.884  1.00  0.00    -0.030 A 
ATOM     21  C   UNL A   1      42.094  34.544  33.956  1.00  0.00     0.061 A 
ATOM     22  C   UNL A   1      40.957  34.134  33.291  1.00  0.00     0.008 A 
ATOM     23  C   UNL A   1      39.572  33.501  31.367  1.00  0.00     0.076 C 
ATOM     24  C   UNL A   1      39.762  33.482  33.723  1.00  0.00     0.079 A 
ATOM     25  C   UNL A   1      39.027  33.003  32.668  1.00  0.00     0.016 A 
ATOM     26  N   UNL A   1      39.219  33.027  34.873  1.00  0.00    -0.232 N 
ATOM     27  N   UNL A   1      38.251  32.116  34.605  1.00  0.00    -0.162 NA
BRANCH  17  28
ATOM     28  O   UNL A   1      44.246  35.159  31.013  1.00  0.00    -0.493 OA
ATOM     29  C   UNL A   1      43.944  34.979  29.624  1.00  0.00     0.278 C 
ENDBRANCH  17  28
BRANCH  19  30
ATOM     30  O   UNL A   1      44.268  35.381  33.934  1.00  0.00    -0.493 OA
ATOM     31  C   UNL A   1      44.038  35.399  35.341  1.00  0.00     0.278 C 
ENDBRANCH  19  30
BRANCH  26  32
ATOM     32  C   UNL A   1      39.578  33.400  36.185  1.00  0.00     0.065 A 
ATOM     33  C   UNL A   1      40.650  32.769  36.822  1.00  0.00     0.031 A 
ATOM     34  C   UNL A   1      38.898  34.461  36.810  1.00  0.00     0.031 A 
ATOM     35  C   UNL A   1      41.109  33.281  38.038  1.00  0.00     0.041 A 
ATOM     36  C   UNL A   1      39.346  34.945  38.036  1.00  0.00     0.041 A 
ATOM     37  C   UNL A   1      40.462  34.367  38.626  1.00  0.00     0.123 A 
ATOM     38  F   UNL A   1      40.929  34.871  39.775  1.00  0.00    -0.207 F 
ENDBRANCH  26  32
ENDBRANCH  13  16
ENDBRANCH   7  12
ENDBRANCH   3   6
ENDBRANCH   1   2
BRANCH   1  39
ATOM     39  C   UNL A   1      34.331  35.612  28.661  1.00  0.00     0.042 C 
BRANCH  39  40
ATOM     40  C   UNL A   1      35.090  34.304  28.873  1.00  0.00     0.118 C 
BRANCH  40  41
ATOM     41  N   UNL A   1      34.626  33.190  28.073  1.00  0.00    -0.352 N 
ATOM     42  C   UNL A   1      34.945  31.869  27.938  1.00  0.00     0.251 C 
ATOM     43  H   UNL A   1      33.891  33.452  27.473  1.00  0.00     0.163 HD
ATOM     44  O   UNL A   1      34.165  31.206  27.251  1.00  0.00    -0.269 OA
BRANCH  42  45
ATOM     45  C   UNL A   1      36.158  31.190  28.474  1.00  0.00     0.039 A 
ATOM     46  C   UNL A   1      37.348  31.808  28.848  1.00  0.00     0.014 A 
ATOM     47  C   UNL A   1      36.107  29.781  28.492  1.00  0.00     0.014 A 
ATOM     48  C   UNL A   1      38.487  31.036  29.098  1.00  0.00     0.010 A 
ATOM     49  C   UNL A   1      37.231  29.008  28.767  1.00  0.00     0.010 A 
ATOM     50  C   UNL A   1      38.445  29.637  29.005  1.00  0.00    -0.014 A 
BRANCH  50  51
ATOM     51  C   UNL A   1      39.680  28.877  29.222  1.00  0.00     0.031 A 
ATOM     52  C   UNL A   1      40.040  28.646  30.649  1.00  0.00     0.074 A 
ATOM     53  C   UNL A   1      40.458  28.360  28.243  1.00  0.00     0.049 A 
ATOM     54  N   UNL A   1      41.048  29.135  31.296  1.00  0.00    -0.248 NA
ATOM     55  C   UNL A   1      39.119  27.862  31.482  1.00  0.00     0.031 C 
ATOM     56  C   UNL A   1      40.188  28.257  26.807  1.00  0.00     0.029 A 
ATOM     57  N   UNL A   1      41.678  27.754  28.365  1.00  0.00    -0.354 N 
ATOM     58  C   UNL A   1      40.980  28.613  32.586  1.00  0.00     0.074 A 
ATOM     59  C   UNL A   1      39.719  27.921  32.673  1.00  0.00     0.031 C 
ATOM     60  C   UNL A   1      41.114  27.456  26.227  1.00  0.00     0.029 A 
ATOM     61  C   UNL A   1      42.126  27.119  27.213  1.00  0.00     0.049 A 
ATOM     62  H   UNL A   1      42.196  27.766  29.202  1.00  0.00     0.167 HD
ATOM     63  C   UNL A   1      42.053  28.656  33.426  1.00  0.00     0.037 A 
ATOM     64  C   UNL A   1      43.246  26.362  27.082  1.00  0.00     0.037 A 
ATOM     65  C   UNL A   1      43.019  29.629  32.989  1.00  0.00     0.049 A 
ATOM     66  C   UNL A   1      44.180  26.764  28.158  1.00  0.00     0.074 A 
ATOM     67  C   UNL A   1      43.032  31.003  32.844  1.00  0.00     0.029 A 
ATOM     68  N   UNL A   1      44.124  29.183  32.311  1.00  0.00    -0.354 N 
ATOM     69  N   UNL A   1      44.776  27.922  28.208  1.00  0.00    -0.248 NA
ATOM     70  C   UNL A   1      44.132  26.027  29.410  1.00  0.00     0.031 C 
ATOM     71  C   UNL A   1      43.841  31.247  31.694  1.00  0.00     0.029 A 
ATOM     72  C   UNL A   1      44.305  30.013  31.238  1.00  0.00     0.049 A 
ATOM     73  H   UNL A   1      44.683  28.408  32.551  1.00  0.00     0.167 HD
ATOM     74  C   UNL A   1      44.778  28.252  29.553  1.00  0.00     0.074 A 
ATOM     75  C   UNL A   1      44.457  27.010  30.252  1.00  0.00     0.031 C 
ATOM     76  C   UNL A   1      44.770  29.557  29.951  1.00  0.00     0.037 A 
BRANCH  63  77
ATOM     77  C   UNL A   1      42.406  27.592  34.440  1.00  0.00     0.064 A 
ATOM     78  C   UNL A   1      43.027  26.403  33.997  1.00  0.00     0.173 A 
ATOM     79  C   UNL A   1      41.874  27.546  35.744  1.00  0.00     0.173 A 
ATOM     80  F   UNL A   1      43.574  26.331  32.774  1.00  0.00    -0.203 F 
ATOM     81  C   UNL A   1      43.008  25.230  34.756  1.00  0.00     0.198 A 
ATOM     82  C   UNL A   1      41.901  26.386  36.519  1.00  0.00     0.198 A 
ATOM     83  F   UNL A   1      41.211  28.577  36.279  1.00  0.00    -0.203 F 
ATOM     84  F   UNL A   1      43.483  24.092  34.231  1.00  0.00    -0.200 F 
ATOM     85  C   UNL A   1      42.432  25.219  36.011  1.00  0.00     0.200 A 
ATOM     86  F   UNL A   1      41.326  26.390  37.730  1.00  0.00    -0.200 F 
ATOM     87  F   UNL A   1      42.342  24.079  36.708  1.00  0.00    -0.200 F 
ENDBRANCH  63  77
BRANCH  64  88
ATOM     88  C   UNL A   1      43.430  25.099  26.326  1.00  0.00     0.064 A 
ATOM     89  C   UNL A   1      44.482  24.952  25.404  1.00  0.00     0.173 A 
ATOM     90  C   UNL A   1      42.785  23.915  26.731  1.00  0.00     0.173 A 
ATOM     91  F   UNL A   1      45.179  26.024  24.999  1.00  0.00    -0.203 F 
ATOM     92  C   UNL A   1      44.891  23.694  24.950  1.00  0.00     0.198 A 
ATOM     93  C   UNL A   1      43.192  22.660  26.274  1.00  0.00     0.198 A 
ATOM     94  F   UNL A   1      41.817  23.946  27.658  1.00  0.00    -0.203 F 
ATOM     95  F   UNL A   1      45.947  23.588  24.129  1.00  0.00    -0.200 F 
ATOM     96  C   UNL A   1      44.256  22.548  25.397  1.00  0.00     0.200 A 
ATOM     97  F   UNL A   1      42.594  21.557  26.745  1.00  0.00    -0.200 F 
ATOM     98  F   UNL A   1      44.693  21.338  25.023  1.00  0.00    -0.200 F 
ENDBRANCH  64  88
BRANCH  76  99
ATOM     99  C   UNL A   1      45.030  30.604  28.906  1.00  0.00     0.064 A 
ATOM    100  C   UNL A   1      44.062  31.062  27.996  1.00  0.00     0.173 A 
ATOM    101  C   UNL A   1      46.270  31.256  28.911  1.00  0.00     0.173 A 
ATOM    102  F   UNL A   1      42.821  30.560  27.997  1.00  0.00    -0.203 F 
ATOM    103  C   UNL A   1      44.341  32.094  27.101  1.00  0.00     0.198 A 
ATOM    104  C   UNL A   1      46.534  32.310  28.042  1.00  0.00     0.198 A 
ATOM    105  F   UNL A   1      47.214  30.900  29.796  1.00  0.00    -0.203 F 
ATOM    106  F   UNL A   1      43.404  32.507  26.236  1.00  0.00    -0.200 F 
ATOM    107  C   UNL A   1      45.575  32.721  27.130  1.00  0.00     0.200 A 
ATOM    108  F   UNL A   1      47.710  32.949  28.108  1.00  0.00    -0.200 F 
ATOM    109  F   UNL A   1      45.830  33.744  26.300  1.00  0.00    -0.200 F 
ENDBRANCH  76  99
ENDBRANCH  50  51
ENDBRANCH  42  45
ENDBRANCH  40  41
ENDBRANCH  39  40
ENDBRANCH   1  39
TORSDOF 15
ENDMDL
MODEL 2
REMARK VINA RESULT:     -12.2      3.855     11.242
REMARK SMILES COc1cc2c(cc1OC)-c1c(c(C(=O)Nc3ccc(C(=O)NCCCNC(=O)c4ccc(-c5c6nc(c(-c7c(F)c(F)c(F)c(F)c7F)c7ccc([nH]7)c(-c7c(F)c(F)c(F)c(F)c7F)c7nc(c(-c8c(F)c(F)c(F)c(F)c8F)c8ccc5[nH]8)C=C7)C=C6)cc4)cc3)nn1-c1ccc(F)cc1)C2
REMARK SMILES IDX 24 1 23 2 21 3 22 4 20 6 17 7 18 8 94 9 19 10 93 11 16 12
REMARK SMILES IDX 14 13 15 14 13 16 3 17 4 18 8 19 5 20 7 21 6 22 104 23 11 24
REMARK SMILES IDX 12 25 96 26 95 27 2 28 1 29 9 30 10 31 97 32 98 33 103 34
REMARK SMILES IDX 99 35 102 36 100 37 101 38 25 39 26 40 27 41 28 42 29 44
REMARK SMILES IDX 30 45 31 46 92 47 32 48 91 49 33 50 34 51 35 52 85 53 36 54
REMARK SMILES IDX 90 55 84 56 86 57 37 58 89 59 83 60 82 61 38 63 70 64 50 65
REMARK SMILES IDX 69 66 51 67 54 68 68 69 87 70 52 71 53 72 67 74 88 75 55 76
REMARK SMILES IDX 39 77 40 78 48 79 41 80 42 81 46 82 49 83 43 84 44 85 47 86
REMARK SMILES IDX 45 87 71 88 72 89 80 90 73 91 74 92 78 93 81 94 75 95 76 96
REMARK SMILES IDX 79 97 77 98 56 99 57 100 65 101 58 102 59 103 63 104 66 105
REMARK SMILES IDX 60 106 61 107 64 108 62 109
REMARK H PARENT 23 5 16 15 27 43 86 62 54 73
REMARK Flexibility Score: inf
ROOT
ATOM      1  C   UNL A   1      47.145  32.193  27.064  1.00  0.00     0.118 C 
ENDROOT
BRANCH   1   2
ATOM      2  N   UNL A   1      46.056  32.362  26.120  1.00  0.00    -0.352 N 
ATOM      3  C   UNL A   1      44.687  32.235  26.202  1.00  0.00     0.251 C 
ATOM      4  O   UNL A   1      44.052  32.734  25.267  1.00  0.00    -0.269 OA
ATOM      5  H   UNL A   1      46.364  32.625  25.222  1.00  0.00     0.163 HD
BRANCH   3   6
ATOM      6  C   UNL A   1      43.930  31.412  27.208  1.00  0.00     0.039 A 
ATOM      7  C   UNL A   1      43.610  29.474  29.198  1.00  0.00     0.041 A 
ATOM      8  C   UNL A   1      43.581  29.083  27.870  1.00  0.00     0.027 A 
ATOM      9  C   UNL A   1      43.460  30.823  29.508  1.00  0.00     0.027 A 
ATOM     10  C   UNL A   1      43.725  30.059  26.871  1.00  0.00     0.016 A 
ATOM     11  C   UNL A   1      43.619  31.789  28.510  1.00  0.00     0.016 A 
BRANCH   7  12
ATOM     12  N   UNL A   1      43.788  28.589  30.256  1.00  0.00    -0.321 N 
ATOM     13  C   UNL A   1      43.841  27.215  30.324  1.00  0.00     0.276 C 
ATOM     14  O   UNL A   1      43.710  26.754  31.473  1.00  0.00    -0.267 OA
ATOM     15  H   UNL A   1      43.897  29.033  31.129  1.00  0.00     0.170 HD
BRANCH  13  16
ATOM     16  C   UNL A   1      44.196  26.320  29.184  1.00  0.00     0.155 A 
ATOM     17  C   UNL A   1      42.512  21.560  25.989  1.00  0.00     0.161 A 
ATOM     18  C   UNL A   1      41.894  22.460  26.867  1.00  0.00     0.055 A 
ATOM     19  C   UNL A   1      43.756  21.862  25.396  1.00  0.00     0.161 A 
ATOM     20  C   UNL A   1      42.576  23.624  27.202  1.00  0.00    -0.030 A 
ATOM     21  C   UNL A   1      44.459  23.005  25.782  1.00  0.00     0.061 A 
ATOM     22  C   UNL A   1      43.857  23.872  26.671  1.00  0.00     0.008 A 
ATOM     23  C   UNL A   1      42.171  24.650  28.274  1.00  0.00     0.076 C 
ATOM     24  C   UNL A   1      44.339  25.002  27.400  1.00  0.00     0.079 A 
ATOM     25  C   UNL A   1      43.470  25.382  28.392  1.00  0.00     0.016 A 
ATOM     26  N   UNL A   1      45.484  25.705  27.533  1.00  0.00    -0.232 N 
ATOM     27  N   UNL A   1      45.467  26.412  28.689  1.00  0.00    -0.162 NA
BRANCH  17  28
ATOM     28  O   UNL A   1      41.855  20.379  25.748  1.00  0.00    -0.493 OA
ATOM     29  C   UNL A   1      42.273  19.367  26.671  1.00  0.00     0.278 C 
ENDBRANCH  17  28
BRANCH  19  30
ATOM     30  O   UNL A   1      44.414  21.062  24.496  1.00  0.00    -0.493 OA
ATOM     31  C   UNL A   1      45.606  20.472  25.010  1.00  0.00     0.278 C 
ENDBRANCH  19  30
BRANCH  26  32
ATOM     32  C   UNL A   1      46.575  25.724  26.638  1.00  0.00     0.065 A 
ATOM     33  C   UNL A   1      46.390  26.162  25.323  1.00  0.00     0.031 A 
ATOM     34  C   UNL A   1      47.854  25.374  27.103  1.00  0.00     0.031 A 
ATOM     35  C   UNL A   1      47.511  26.355  24.512  1.00  0.00     0.041 A 
ATOM     36  C   UNL A   1      48.962  25.543  26.277  1.00  0.00     0.041 A 
ATOM     37  C   UNL A   1      48.783  26.055  24.999  1.00  0.00     0.123 A 
ATOM     38  F   UNL A   1      49.854  26.275  24.226  1.00  0.00    -0.207 F 
ENDBRANCH  26  32
ENDBRANCH  13  16
ENDBRANCH   7  12
ENDBRANCH   3   6
ENDBRANCH   1   2
BRANCH   1  39
ATOM     39  C   UNL A   1      46.983  32.933  28.392  1.00  0.00     0.042 C 
BRANCH  39  40
ATOM     40  C   UNL A   1      47.585  34.334  28.478  1.00  0.00     0.118 C 
BRANCH  40  41
ATOM     41  N   UNL A   1      46.873  35.353  27.736  1.00  0.00    -0.352 N 
ATOM     42  C   UNL A   1      45.698  36.037  27.874  1.00  0.00     0.251 C 
ATOM     43  H   UNL A   1      47.361  35.624  26.925  1.00  0.00     0.163 HD
ATOM     44  O   UNL A   1      45.542  36.977  27.091  1.00  0.00    -0.269 OA
BRANCH  42  45
ATOM     45  C   UNL A   1      44.588  35.713  28.813  1.00  0.00     0.039 A 
ATOM     46  C   UNL A   1      44.723  35.203  30.100  1.00  0.00     0.014 A 
ATOM     47  C   UNL A   1      43.288  35.843  28.282  1.00  0.00     0.014 A 
ATOM     48  C   UNL A   1      43.602  34.713  30.779  1.00  0.00     0.010 A 
ATOM     49  C   UNL A   1      42.166  35.382  28.964  1.00  0.00     0.010 A 
ATOM     50  C   UNL A   1      42.329  34.751  30.190  1.00  0.00    -0.014 A 
BRANCH  50  51
ATOM     51  C   UNL A   1      41.196  34.173  30.920  1.00  0.00     0.031 A 
ATOM     52  C   UNL A   1      41.466  33.838  32.346  1.00  0.00     0.074 A 
ATOM     53  C   UNL A   1      39.961  33.974  30.407  1.00  0.00     0.049 A 
ATOM     54  N   UNL A   1      41.516  32.661  32.882  1.00  0.00    -0.248 NA
ATOM     55  C   UNL A   1      41.820  34.928  33.264  1.00  0.00     0.031 C 
ATOM     56  C   UNL A   1      39.405  34.432  29.131  1.00  0.00     0.029 A 
ATOM     57  N   UNL A   1      38.900  33.331  30.983  1.00  0.00    -0.354 N 
ATOM     58  C   UNL A   1      41.768  32.856  34.239  1.00  0.00     0.074 A 
ATOM     59  C   UNL A   1      42.048  34.260  34.398  1.00  0.00     0.031 C 
ATOM     60  C   UNL A   1      38.066  34.228  29.119  1.00  0.00     0.029 A 
ATOM     61  C   UNL A   1      37.694  33.486  30.311  1.00  0.00     0.049 A 
ATOM     62  H   UNL A   1      38.985  32.801  31.809  1.00  0.00     0.167 HD
ATOM     63  C   UNL A   1      41.559  31.862  35.148  1.00  0.00     0.037 A 
ATOM     64  C   UNL A   1      36.474  33.043  30.711  1.00  0.00     0.037 A 
ATOM     65  C   UNL A   1      41.485  30.575  34.508  1.00  0.00     0.049 A 
ATOM     66  C   UNL A   1      36.697  31.922  31.652  1.00  0.00     0.074 A 
ATOM     67  C   UNL A   1      42.363  29.784  33.792  1.00  0.00     0.029 A 
ATOM     68  N   UNL A   1      40.245  30.033  34.287  1.00  0.00    -0.354 N 
ATOM     69  N   UNL A   1      37.179  30.764  31.301  1.00  0.00    -0.248 NA
ATOM     70  C   UNL A   1      36.772  32.231  33.070  1.00  0.00     0.031 C 
ATOM     71  C   UNL A   1      41.559  29.138  32.805  1.00  0.00     0.029 A 
ATOM     72  C   UNL A   1      40.239  29.541  33.009  1.00  0.00     0.049 A 
ATOM     73  H   UNL A   1      39.498  30.004  34.928  1.00  0.00     0.167 HD
ATOM     74  C   UNL A   1      38.004  30.399  32.352  1.00  0.00     0.074 A 
ATOM     75  C   UNL A   1      37.640  31.291  33.450  1.00  0.00     0.031 C 
ATOM     76  C   UNL A   1      39.087  29.596  32.144  1.00  0.00     0.037 A 
BRANCH  63  77
ATOM     77  C   UNL A   1      41.072  32.068  36.565  1.00  0.00     0.064 A 
ATOM     78  C   UNL A   1      39.835  32.715  36.776  1.00  0.00     0.173 A 
ATOM     79  C   UNL A   1      41.901  31.961  37.700  1.00  0.00     0.173 A 
ATOM     80  F   UNL A   1      38.962  32.871  35.770  1.00  0.00    -0.203 F 
ATOM     81  C   UNL A   1      39.510  33.311  37.998  1.00  0.00     0.198 A 
ATOM     82  C   UNL A   1      41.551  32.515  38.932  1.00  0.00     0.198 A 
ATOM     83  F   UNL A   1      43.123  31.422  37.641  1.00  0.00    -0.203 F 
ATOM     84  F   UNL A   1      38.389  34.037  38.106  1.00  0.00    -0.200 F 
ATOM     85  C   UNL A   1      40.375  33.223  39.071  1.00  0.00     0.200 A 
ATOM     86  F   UNL A   1      42.408  32.429  39.959  1.00  0.00    -0.200 F 
ATOM     87  F   UNL A   1      40.104  33.857  40.219  1.00  0.00    -0.200 F 
ENDBRANCH  63  77
BRANCH  64  88
ATOM     88  C   UNL A   1      35.161  33.726  30.614  1.00  0.00     0.064 A 
ATOM     89  C   UNL A   1      34.788  34.717  31.541  1.00  0.00     0.173 A 
ATOM     90  C   UNL A   1      34.396  33.656  29.436  1.00  0.00     0.173 A 
ATOM     91  F   UNL A   1      35.491  34.882  32.672  1.00  0.00    -0.203 F 
ATOM     92  C   UNL A   1      33.743  35.609  31.282  1.00  0.00     0.198 A 
ATOM     93  C   UNL A   1      33.350  34.544  29.180  1.00  0.00     0.198 A 
ATOM     94  F   UNL A   1      34.717  32.790  28.462  1.00  0.00    -0.203 F 
ATOM     95  F   UNL A   1      33.466  36.588  32.156  1.00  0.00    -0.200 F 
ATOM     96  C   UNL A   1      33.035  35.532  30.095  1.00  0.00     0.200 A 
ATOM     97  F   UNL A   1      32.699  34.484  28.010  1.00  0.00    -0.200 F 
ATOM     98  F   UNL A   1      32.083  36.432  29.812  1.00  0.00    -0.200 F 
ENDBRANCH  64  88
BRANCH  76  99
ATOM     99  C   UNL A   1      39.198  28.910  30.812  1.00  0.00     0.064 A 
ATOM    100  C   UNL A   1      39.706  29.524  29.653  1.00  0.00     0.173 A 
ATOM    101  C   UNL A   1      38.894  27.545  30.739  1.00  0.00     0.173 A 
ATOM    102  F   UNL A   1      40.115  30.798  29.669  1.00  0.00    -0.203 F 
ATOM    103  C   UNL A   1      39.859  28.811  28.465  1.00  0.00     0.198 A 
ATOM    104  C   UNL A   1      39.082  26.827  29.561  1.00  0.00     0.198 A 
ATOM    105  F   UNL A   1      38.459  26.894  31.828  1.00  0.00    -0.203 F 
ATOM    106  F   UNL A   1      40.338  29.420  27.371  1.00  0.00    -0.200 F 
ATOM    107  C   UNL A   1      39.552  27.461  28.423  1.00  0.00     0.200 A 
ATOM    108  F   UNL A   1      38.834  25.510  29.538  1.00  0.00    -0.200 F 
ATOM    109  F   UNL A   1      39.741  26.763  27.293  1.00  0.00    -0.200 F 
ENDBRANCH  76  99
ENDBRANCH  50  51
ENDBRANCH  42  45
ENDBRANCH  40  41
ENDBRANCH  39  40
ENDBRANCH   1  39
TORSDOF 15
ENDMDL
MODEL 3
REMARK VINA RESULT:     -12.0      3.768     11.087
REMARK SMILES COc1cc2c(cc1OC)-c1c(c(C(=O)Nc3ccc(C(=O)NCCCNC(=O)c4ccc(-c5c6nc(c(-c7c(F)c(F)c(F)c(F)c7F)c7ccc([nH]7)c(-c7c(F)c(F)c(F)c(F)c7F)c7nc(c(-c8c(F)c(F)c(F)c(F)c8F)c8ccc5[nH]8)C=C7)C=C6)cc4)cc3)nn1-c1ccc(F)cc1)C2
REMARK SMILES IDX 24 1 23 2 21 3 22 4 20 6 17 7 18 8 94 9 19 10 93 11 16 12
REMARK SMILES IDX 14 13 15 14 13 16 3 17 4 18 8 19 5 20 7 21 6 22 104 23 11 24
REMARK SMILES IDX 12 25 96 26 95 27 2 28 1 29 9 30 10 31 97 32 98 33 103 34
REMARK SMILES IDX 99 35 102 36 100 37 101 38 25 39 26 40 27 41 28 42 29 44
REMARK SMILES IDX 30 45 31 46 92 47 32 48 91 49 33 50 34 51 35 52 85 53 36 54
REMARK SMILES IDX 90 55 84 56 86 57 37 58 89 59 83 60 82 61 38 63 70 64 50 65
REMARK SMILES IDX 69 66 51 67 54 68 68 69 87 70 52 71 53 72 67 74 88 75 55 76
REMARK SMILES IDX 39 77 40 78 48 79 41 80 42 81 46 82 49 83 43 84 44 85 47 86
REMARK SMILES IDX 45 87 71 88 72 89 80 90 73 91 74 92 78 93 81 94 75 95 76 96
REMARK SMILES IDX 79 97 77 98 56 99 57 100 65 101 58 102 59 103 63 104 66 105
REMARK SMILES IDX 60 106 61 107 64 108 62 109
REMARK H PARENT 23 5 16 15 27 43 86 62 54 73
REMARK Flexibility Score: inf
ROOT
ATOM      1  C   UNL A   1      47.331  32.091  27.294  1.00  0.00     0.118 C 
ENDROOT
BRANCH   1   2
ATOM      2  N   UNL A   1      46.386  32.290  26.211  1.00  0.00    -0.352 N 
ATOM      3  C   UNL A   1      45.011  32.309  26.128  1.00  0.00     0.251 C 
ATOM      4  O   UNL A   1      44.550  32.789  25.088  1.00  0.00    -0.269 OA
ATOM      5  H   UNL A   1      46.825  32.445  25.343  1.00  0.00     0.163 HD
BRANCH   3   6
ATOM      6  C   UNL A   1      44.055  31.652  27.085  1.00  0.00     0.039 A 
ATOM      7  C   UNL A   1      43.285  29.906  29.128  1.00  0.00     0.041 A 
ATOM      8  C   UNL A   1      43.345  29.433  27.828  1.00  0.00     0.027 A 
ATOM      9  C   UNL A   1      43.277  31.280  29.347  1.00  0.00     0.027 A 
ATOM     10  C   UNL A   1      43.715  30.314  26.801  1.00  0.00     0.016 A 
ATOM     11  C   UNL A   1      43.660  32.151  28.322  1.00  0.00     0.016 A 
BRANCH   7  12
ATOM     12  N   UNL A   1      43.238  29.078  30.246  1.00  0.00    -0.321 N 
ATOM     13  C   UNL A   1      43.038  27.724  30.396  1.00  0.00     0.276 C 
ATOM     14  O   UNL A   1      42.757  27.375  31.558  1.00  0.00    -0.267 OA
ATOM     15  H   UNL A   1      43.373  29.555  31.097  1.00  0.00     0.170 HD
BRANCH  13  16
ATOM     16  C   UNL A   1      43.292  26.705  29.337  1.00  0.00     0.155 A 
ATOM     17  C   UNL A   1      46.957  25.047  24.918  1.00  0.00     0.161 A 
ATOM     18  C   UNL A   1      47.030  25.898  26.028  1.00  0.00     0.055 A 
ATOM     19  C   UNL A   1      45.948  24.064  24.822  1.00  0.00     0.161 A 
ATOM     20  C   UNL A   1      46.036  25.804  26.996  1.00  0.00    -0.030 A 
ATOM     21  C   UNL A   1      44.922  24.015  25.768  1.00  0.00     0.061 A 
ATOM     22  C   UNL A   1      44.985  24.878  26.842  1.00  0.00     0.008 A 
ATOM     23  C   UNL A   1      45.821  26.751  28.188  1.00  0.00     0.076 C 
ATOM     24  C   UNL A   1      44.050  25.219  27.867  1.00  0.00     0.079 A 
ATOM     25  C   UNL A   1      44.430  26.344  28.556  1.00  0.00     0.016 A 
ATOM     26  N   UNL A   1      42.800  24.878  28.249  1.00  0.00    -0.232 N 
ATOM     27  N   UNL A   1      42.272  25.843  29.041  1.00  0.00    -0.162 NA
BRANCH  17  28
ATOM     28  O   UNL A   1      47.900  25.223  23.938  1.00  0.00    -0.493 OA
ATOM     29  C   UNL A   1      48.931  26.115  24.379  1.00  0.00     0.278 C 
ENDBRANCH  17  28
BRANCH  19  30
ATOM     30  O   UNL A   1      45.823  23.163  23.795  1.00  0.00    -0.493 OA
ATOM     31  C   UNL A   1      44.527  22.578  23.693  1.00  0.00     0.278 C 
ENDBRANCH  19  30
BRANCH  26  32
ATOM     32  C   UNL A   1      42.096  23.707  27.894  1.00  0.00     0.065 A 
ATOM     33  C   UNL A   1      40.856  23.805  27.258  1.00  0.00     0.031 A 
ATOM     34  C   UNL A   1      42.690  22.453  28.117  1.00  0.00     0.031 A 
ATOM     35  C   UNL A   1      40.267  22.646  26.745  1.00  0.00     0.041 A 
ATOM     36  C   UNL A   1      42.081  21.301  27.628  1.00  0.00     0.041 A 
ATOM     37  C   UNL A   1      40.889  21.411  26.925  1.00  0.00     0.123 A 
ATOM     38  F   UNL A   1      40.333  20.310  26.401  1.00  0.00    -0.207 F 
ENDBRANCH  26  32
ENDBRANCH  13  16
ENDBRANCH   7  12
ENDBRANCH   3   6
ENDBRANCH   1   2
BRANCH   1  39
ATOM     39  C   UNL A   1      47.016  32.847  28.585  1.00  0.00     0.042 C 
BRANCH  39  40
ATOM     40  C   UNL A   1      47.558  34.271  28.699  1.00  0.00     0.118 C 
BRANCH  40  41
ATOM     41  N   UNL A   1      46.836  35.264  27.933  1.00  0.00    -0.352 N 
ATOM     42  C   UNL A   1      45.672  35.966  28.071  1.00  0.00     0.251 C 
ATOM     43  H   UNL A   1      47.305  35.493  27.097  1.00  0.00     0.163 HD
ATOM     44  O   UNL A   1      45.503  36.872  27.251  1.00  0.00    -0.269 OA
BRANCH  42  45
ATOM     45  C   UNL A   1      44.585  35.696  29.053  1.00  0.00     0.039 A 
ATOM     46  C   UNL A   1      44.741  35.147  30.322  1.00  0.00     0.014 A 
ATOM     47  C   UNL A   1      43.275  35.928  28.585  1.00  0.00     0.014 A 
ATOM     48  C   UNL A   1      43.620  34.718  31.041  1.00  0.00     0.010 A 
ATOM     49  C   UNL A   1      42.155  35.527  29.308  1.00  0.00     0.010 A 
ATOM     50  C   UNL A   1      42.328  34.857  30.512  1.00  0.00    -0.014 A 
BRANCH  50  51
ATOM     51  C   UNL A   1      41.191  34.341  31.280  1.00  0.00     0.031 A 
ATOM     52  C   UNL A   1      41.475  34.049  32.713  1.00  0.00     0.074 A 
ATOM     53  C   UNL A   1      39.942  34.160  30.795  1.00  0.00     0.049 A 
ATOM     54  N   UNL A   1      41.500  32.891  33.291  1.00  0.00    -0.248 NA
ATOM     55  C   UNL A   1      41.877  35.161  33.585  1.00  0.00     0.031 C 
ATOM     56  C   UNL A   1      39.378  34.589  29.513  1.00  0.00     0.029 A 
ATOM     57  N   UNL A   1      38.873  33.571  31.411  1.00  0.00    -0.354 N 
ATOM     58  C   UNL A   1      41.781  33.127  34.635  1.00  0.00     0.074 A 
ATOM     59  C   UNL A   1      42.105  34.527  34.738  1.00  0.00     0.031 C 
ATOM     60  C   UNL A   1      38.034  34.425  29.530  1.00  0.00     0.029 A 
ATOM     61  C   UNL A   1      37.661  33.738  30.754  1.00  0.00     0.049 A 
ATOM     62  H   UNL A   1      38.956  33.069  32.254  1.00  0.00     0.167 HD
ATOM     63  C   UNL A   1      41.558  32.173  35.584  1.00  0.00     0.037 A 
ATOM     64  C   UNL A   1      36.435  33.347  31.189  1.00  0.00     0.037 A 
ATOM     65  C   UNL A   1      41.435  30.867  34.992  1.00  0.00     0.049 A 
ATOM     66  C   UNL A   1      36.641  32.254  32.167  1.00  0.00     0.074 A 
ATOM     67  C   UNL A   1      42.277  30.025  34.291  1.00  0.00     0.029 A 
ATOM     68  N   UNL A   1      40.176  30.355  34.811  1.00  0.00    -0.354 N 
ATOM     69  N   UNL A   1      37.082  31.070  31.850  1.00  0.00    -0.248 NA
ATOM     70  C   UNL A   1      36.749  32.612  33.572  1.00  0.00     0.031 C 
ATOM     71  C   UNL A   1      41.437  29.368  33.342  1.00  0.00     0.029 A 
ATOM     72  C   UNL A   1      40.133  29.818  33.553  1.00  0.00     0.049 A 
ATOM     73  H   UNL A   1      39.440  30.372  35.465  1.00  0.00     0.167 HD
ATOM     74  C   UNL A   1      37.914  30.719  32.901  1.00  0.00     0.074 A 
ATOM     75  C   UNL A   1      37.595  31.660  33.971  1.00  0.00     0.031 C 
ATOM     76  C   UNL A   1      38.969  29.877  32.705  1.00  0.00     0.037 A 
BRANCH  63  77
ATOM     77  C   UNL A   1      41.102  32.445  37.000  1.00  0.00     0.064 A 
ATOM     78  C   UNL A   1      39.892  33.143  37.207  1.00  0.00     0.173 A 
ATOM     79  C   UNL A   1      41.945  32.347  38.125  1.00  0.00     0.173 A 
ATOM     80  F   UNL A   1      39.009  33.296  36.209  1.00  0.00    -0.203 F 
ATOM     81  C   UNL A   1      39.609  33.791  38.412  1.00  0.00     0.198 A 
ATOM     82  C   UNL A   1      41.635  32.954  39.343  1.00  0.00     0.198 A 
ATOM     83  F   UNL A   1      43.146  31.762  38.067  1.00  0.00    -0.203 F 
ATOM     84  F   UNL A   1      38.516  34.561  38.512  1.00  0.00    -0.200 F 
ATOM     85  C   UNL A   1      40.488  33.709  39.474  1.00  0.00     0.200 A 
ATOM     86  F   UNL A   1      42.506  32.873  40.359  1.00  0.00    -0.200 F 
ATOM     87  F   UNL A   1      40.258  34.391  40.603  1.00  0.00    -0.200 F 
ENDBRANCH  63  77
BRANCH  64  88
ATOM     88  C   UNL A   1      35.141  34.065  31.089  1.00  0.00     0.064 A 
ATOM     89  C   UNL A   1      34.827  35.122  31.964  1.00  0.00     0.173 A 
ATOM     90  C   UNL A   1      34.338  33.949  29.939  1.00  0.00     0.173 A 
ATOM     91  F   UNL A   1      35.569  35.331  33.061  1.00  0.00    -0.203 F 
ATOM     92  C   UNL A   1      33.803  36.031  31.681  1.00  0.00     0.198 A 
ATOM     93  C   UNL A   1      33.313  34.854  29.660  1.00  0.00     0.198 A 
ATOM     94  F   UNL A   1      34.602  33.017  29.012  1.00  0.00    -0.203 F 
ATOM     95  F   UNL A   1      33.583  37.069  32.502  1.00  0.00    -0.200 F 
ATOM     96  C   UNL A   1      33.057  35.905  30.522  1.00  0.00     0.200 A 
ATOM     97  F   UNL A   1      32.625  34.745  28.515  1.00  0.00    -0.200 F 
ATOM     98  F   UNL A   1      32.125  36.817  30.211  1.00  0.00    -0.200 F 
ENDBRANCH  64  88
BRANCH  76  99
ATOM     99  C   UNL A   1      39.036  29.140  31.397  1.00  0.00     0.064 A 
ATOM    100  C   UNL A   1      39.555  29.691  30.212  1.00  0.00     0.173 A 
ATOM    101  C   UNL A   1      38.677  27.786  31.376  1.00  0.00     0.173 A 
ATOM    102  F   UNL A   1      40.015  30.947  30.178  1.00  0.00    -0.203 F 
ATOM    103  C   UNL A   1      39.665  28.931  29.049  1.00  0.00     0.198 A 
ATOM    104  C   UNL A   1      38.822  27.020  30.223  1.00  0.00     0.198 A 
ATOM    105  F   UNL A   1      38.229  27.192  32.492  1.00  0.00    -0.203 F 
ATOM    106  F   UNL A   1      40.155  29.481  27.928  1.00  0.00    -0.200 F 
ATOM    107  C   UNL A   1      39.304  27.594  29.058  1.00  0.00     0.200 A 
ATOM    108  F   UNL A   1      38.521  25.714  30.250  1.00  0.00    -0.200 F 
ATOM    109  F   UNL A   1      39.451  26.850  27.952  1.00  0.00    -0.200 F 
ENDBRANCH  76  99
ENDBRANCH  50  51
ENDBRANCH  42  45
ENDBRANCH  40  41
ENDBRANCH  39  40
ENDBRANCH   1  39
TORSDOF 15
ENDMDL
