MODEL 1
REMARK VINA RESULT:     -12.7      0.000      0.000
REMARK SMILES CN1C(=O)N(CC(=O)NCCCNC(=O)c2ccc(-c3c4nc(c(-c5c(F)c(F)c(F)c(F)c5F)c5ccc([nH]5)c(-c5c(F)c(F)c(F)c(F)c5F)c5nc(c(-c6c(F)c(F)c(F)c(F)c6F)c6ccc3[nH]6)C=C5)C=C4)cc2)C(=O)C12CCCCC2
REMARK SMILES IDX 11 1 10 2 9 3 7 4 8 5 6 7 5 8 1 9 2 10 3 11 81 12 4 13 79 14
REMARK SMILES IDX 82 15 86 16 80 17 83 18 85 19 84 20 12 21 13 22 14 23 15 25
REMARK SMILES IDX 16 26 17 27 78 28 18 29 77 30 19 31 20 32 21 33 71 34 22 35
REMARK SMILES IDX 76 36 70 37 72 38 23 39 75 40 69 41 68 42 24 44 56 45 36 46
REMARK SMILES IDX 55 47 37 48 40 49 54 50 73 51 38 52 39 53 53 55 74 56 41 57
REMARK SMILES IDX 25 58 26 59 34 60 27 61 28 62 32 63 35 64 29 65 30 66 33 67
REMARK SMILES IDX 31 68 57 69 58 70 66 71 59 72 60 73 64 74 67 75 61 76 62 77
REMARK SMILES IDX 65 78 63 79 42 80 43 81 51 82 44 83 45 84 49 85 52 86 46 87
REMARK SMILES IDX 47 88 50 89 48 90
REMARK H PARENT 9 6 13 24 72 43 40 54
REMARK Flexibility Score: inf
ROOT
ATOM      1  C   UNL A   1      32.267  28.883  23.943  1.00  0.00     0.042 C 
ENDROOT
BRANCH   1   2
ATOM      2  C   UNL A   1      30.846  28.422  24.266  1.00  0.00     0.117 C 
BRANCH   2   3
ATOM      3  N   UNL A   1      30.612  27.043  23.877  1.00  0.00    -0.354 N 
ATOM      4  C   UNL A   1      30.837  25.870  24.538  1.00  0.00     0.240 C 
ATOM      5  O   UNL A   1      30.289  24.866  24.069  1.00  0.00    -0.273 OA
ATOM      6  H   UNL A   1      30.222  26.935  22.979  1.00  0.00     0.163 HD
BRANCH   4   7
ATOM      7  C   UNL A   1      31.570  25.793  25.885  1.00  0.00     0.230 C 
BRANCH   7   8
ATOM      8  N   UNL A   1      32.529  24.714  25.980  1.00  0.00    -0.253 N 
ATOM      9  C   UNL A   1      33.554  21.529  27.304  1.00  0.00     0.150 C 
ATOM     10  N   UNL A   1      33.495  22.841  26.697  1.00  0.00    -0.313 N 
ATOM     11  C   UNL A   1      32.381  23.660  26.829  1.00  0.00     0.327 C 
ATOM     12  C   UNL A   1      34.428  23.323  25.671  1.00  0.00     0.124 C 
ATOM     13  O   UNL A   1      31.431  23.455  27.559  1.00  0.00    -0.248 OA
ATOM     14  C   UNL A   1      33.786  24.717  25.445  1.00  0.00     0.257 C 
ATOM     15  C   UNL A   1      35.889  23.364  26.125  1.00  0.00     0.039 C 
ATOM     16  C   UNL A   1      34.273  22.516  24.378  1.00  0.00     0.039 C 
ATOM     17  O   UNL A   1      34.282  25.636  24.807  1.00  0.00    -0.272 OA
ATOM     18  C   UNL A   1      36.875  23.703  25.000  1.00  0.00     0.003 C 
ATOM     19  C   UNL A   1      35.212  22.958  23.266  1.00  0.00     0.003 C 
ATOM     20  C   UNL A   1      36.653  22.876  23.735  1.00  0.00     0.000 C 
ENDBRANCH   7   8
ENDBRANCH   4   7
ENDBRANCH   2   3
ENDBRANCH   1   2
BRANCH   1  21
ATOM     21  C   UNL A   1      33.142  29.243  25.135  1.00  0.00     0.118 C 
BRANCH  21  22
ATOM     22  N   UNL A   1      32.730  30.493  25.759  1.00  0.00    -0.352 N 
ATOM     23  C   UNL A   1      33.191  31.175  26.861  1.00  0.00     0.251 C 
ATOM     24  H   UNL A   1      31.975  30.934  25.305  1.00  0.00     0.163 HD
ATOM     25  O   UNL A   1      32.498  32.090  27.307  1.00  0.00    -0.269 OA
BRANCH  23  26
ATOM     26  C   UNL A   1      34.468  30.845  27.552  1.00  0.00     0.039 A 
ATOM     27  C   UNL A   1      35.421  31.863  27.704  1.00  0.00     0.014 A 
ATOM     28  C   UNL A   1      34.797  29.556  27.969  1.00  0.00     0.014 A 
ATOM     29  C   UNL A   1      36.648  31.609  28.331  1.00  0.00     0.010 A 
ATOM     30  C   UNL A   1      35.986  29.318  28.667  1.00  0.00     0.010 A 
ATOM     31  C   UNL A   1      36.924  30.342  28.865  1.00  0.00    -0.014 A 
BRANCH  31  32
ATOM     32  C   UNL A   1      38.159  30.077  29.659  1.00  0.00     0.031 A 
ATOM     33  C   UNL A   1      39.207  29.114  29.162  1.00  0.00     0.074 A 
ATOM     34  C   UNL A   1      38.297  30.635  30.879  1.00  0.00     0.049 A 
ATOM     35  N   UNL A   1      40.268  28.653  29.779  1.00  0.00    -0.248 NA
ATOM     36  C   UNL A   1      39.027  28.581  27.804  1.00  0.00     0.031 C 
ATOM     37  C   UNL A   1      37.346  31.562  31.495  1.00  0.00     0.029 A 
ATOM     38  N   UNL A   1      39.275  30.486  31.834  1.00  0.00    -0.354 N 
ATOM     39  C   UNL A   1      40.865  27.761  28.895  1.00  0.00     0.074 A 
ATOM     40  C   UNL A   1      40.034  27.722  27.710  1.00  0.00     0.031 C 
ATOM     41  C   UNL A   1      37.785  31.897  32.718  1.00  0.00     0.029 A 
ATOM     42  C   UNL A   1      39.018  31.168  32.999  1.00  0.00     0.049 A 
ATOM     43  H   UNL A   1      40.084  29.940  31.696  1.00  0.00     0.167 HD
ATOM     44  C   UNL A   1      42.009  27.050  29.053  1.00  0.00     0.037 A 
ATOM     45  C   UNL A   1      39.676  31.182  34.175  1.00  0.00     0.037 A 
ATOM     46  C   UNL A   1      42.854  27.115  30.219  1.00  0.00     0.049 A 
ATOM     47  C   UNL A   1      40.929  30.362  34.331  1.00  0.00     0.074 A 
ATOM     48  C   UNL A   1      44.077  26.500  30.430  1.00  0.00     0.029 A 
ATOM     49  N   UNL A   1      42.563  27.828  31.372  1.00  0.00    -0.354 N 
ATOM     50  N   UNL A   1      41.521  29.583  33.459  1.00  0.00    -0.248 NA
ATOM     51  C   UNL A   1      41.603  30.419  35.636  1.00  0.00     0.031 C 
ATOM     52  C   UNL A   1      44.493  26.785  31.734  1.00  0.00     0.029 A 
ATOM     53  C   UNL A   1      43.561  27.629  32.314  1.00  0.00     0.049 A 
ATOM     54  H   UNL A   1      41.766  28.391  31.502  1.00  0.00     0.167 HD
ATOM     55  C   UNL A   1      42.644  29.077  34.101  1.00  0.00     0.074 A 
ATOM     56  C   UNL A   1      42.664  29.653  35.427  1.00  0.00     0.031 C 
ATOM     57  C   UNL A   1      43.572  28.207  33.633  1.00  0.00     0.037 A 
BRANCH  44  58
ATOM     58  C   UNL A   1      42.426  26.123  27.947  1.00  0.00     0.064 A 
ATOM     59  C   UNL A   1      41.869  24.844  27.804  1.00  0.00     0.173 A 
ATOM     60  C   UNL A   1      43.332  26.556  26.966  1.00  0.00     0.173 A 
ATOM     61  F   UNL A   1      41.001  24.379  28.715  1.00  0.00    -0.203 F 
ATOM     62  C   UNL A   1      42.216  24.027  26.730  1.00  0.00     0.198 A 
ATOM     63  C   UNL A   1      43.654  25.749  25.878  1.00  0.00     0.198 A 
ATOM     64  F   UNL A   1      43.886  27.776  27.049  1.00  0.00    -0.203 F 
ATOM     65  F   UNL A   1      41.696  22.796  26.631  1.00  0.00    -0.200 F 
ATOM     66  C   UNL A   1      43.100  24.484  25.763  1.00  0.00     0.200 A 
ATOM     67  F   UNL A   1      44.495  26.199  24.937  1.00  0.00    -0.200 F 
ATOM     68  F   UNL A   1      43.418  23.704  24.721  1.00  0.00    -0.200 F 
ENDBRANCH  44  58
BRANCH  45  69
ATOM     69  C   UNL A   1      39.149  31.980  35.315  1.00  0.00     0.064 A 
ATOM     70  C   UNL A   1      39.426  33.348  35.434  1.00  0.00     0.173 A 
ATOM     71  C   UNL A   1      38.377  31.383  36.325  1.00  0.00     0.173 A 
ATOM     72  F   UNL A   1      40.177  33.961  34.507  1.00  0.00    -0.203 F 
ATOM     73  C   UNL A   1      38.979  34.083  36.530  1.00  0.00     0.198 A 
ATOM     74  C   UNL A   1      37.899  32.126  37.402  1.00  0.00     0.198 A 
ATOM     75  F   UNL A   1      38.075  30.078  36.259  1.00  0.00    -0.203 F 
ATOM     76  F   UNL A   1      39.309  35.376  36.648  1.00  0.00    -0.200 F 
ATOM     77  C   UNL A   1      38.210  33.472  37.511  1.00  0.00     0.200 A 
ATOM     78  F   UNL A   1      37.141  31.535  38.336  1.00  0.00    -0.200 F 
ATOM     79  F   UNL A   1      37.778  34.179  38.564  1.00  0.00    -0.200 F 
ENDBRANCH  45  69
BRANCH  57  80
ATOM     80  C   UNL A   1      44.698  27.834  34.555  1.00  0.00     0.064 A 
ATOM     81  C   UNL A   1      45.870  28.602  34.629  1.00  0.00     0.173 A 
ATOM     82  C   UNL A   1      44.584  26.725  35.407  1.00  0.00     0.173 A 
ATOM     83  F   UNL A   1      46.034  29.661  33.823  1.00  0.00    -0.203 F 
ATOM     84  C   UNL A   1      46.894  28.260  35.507  1.00  0.00     0.198 A 
ATOM     85  C   UNL A   1      45.598  26.406  36.307  1.00  0.00     0.198 A 
ATOM     86  F   UNL A   1      43.483  25.960  35.380  1.00  0.00    -0.203 F 
ATOM     87  F   UNL A   1      48.024  28.982  35.529  1.00  0.00    -0.200 F 
ATOM     88  C   UNL A   1      46.754  27.169  36.352  1.00  0.00     0.200 A 
ATOM     89  F   UNL A   1      45.453  25.360  37.133  1.00  0.00    -0.200 F 
ATOM     90  F   UNL A   1      47.737  26.850  37.206  1.00  0.00    -0.200 F 
ENDBRANCH  57  80
ENDBRANCH  31  32
ENDBRANCH  23  26
ENDBRANCH  21  22
ENDBRANCH   1  21
TORSDOF 11
ENDMDL
MODEL 2
REMARK VINA RESULT:     -12.6      0.457      2.036
REMARK SMILES CN1C(=O)N(CC(=O)NCCCNC(=O)c2ccc(-c3c4nc(c(-c5c(F)c(F)c(F)c(F)c5F)c5ccc([nH]5)c(-c5c(F)c(F)c(F)c(F)c5F)c5nc(c(-c6c(F)c(F)c(F)c(F)c6F)c6ccc3[nH]6)C=C5)C=C4)cc2)C(=O)C12CCCCC2
REMARK SMILES IDX 11 1 10 2 9 3 7 4 8 5 6 7 5 8 1 9 2 10 3 11 81 12 4 13 79 14
REMARK SMILES IDX 82 15 86 16 80 17 83 18 85 19 84 20 12 21 13 22 14 23 15 25
REMARK SMILES IDX 16 26 17 27 78 28 18 29 77 30 19 31 20 32 21 33 71 34 22 35
REMARK SMILES IDX 76 36 70 37 72 38 23 39 75 40 69 41 68 42 24 44 56 45 36 46
REMARK SMILES IDX 55 47 37 48 40 49 54 50 73 51 38 52 39 53 53 55 74 56 41 57
REMARK SMILES IDX 25 58 26 59 34 60 27 61 28 62 32 63 35 64 29 65 30 66 33 67
REMARK SMILES IDX 31 68 57 69 58 70 66 71 59 72 60 73 64 74 67 75 61 76 62 77
REMARK SMILES IDX 65 78 63 79 42 80 43 81 51 82 44 83 45 84 49 85 52 86 46 87
REMARK SMILES IDX 47 88 50 89 48 90
REMARK H PARENT 9 6 13 24 72 43 40 54
REMARK Flexibility Score: inf
ROOT
ATOM      1  C   UNL A   1      31.869  28.838  24.126  1.00  0.00     0.042 C 
ENDROOT
BRANCH   1   2
ATOM      2  C   UNL A   1      31.950  27.366  23.725  1.00  0.00     0.117 C 
BRANCH   2   3
ATOM      3  N   UNL A   1      30.873  26.578  24.296  1.00  0.00    -0.354 N 
ATOM      4  C   UNL A   1      30.754  25.955  25.505  1.00  0.00     0.240 C 
ATOM      5  O   UNL A   1      29.617  25.587  25.820  1.00  0.00    -0.273 OA
ATOM      6  H   UNL A   1      30.090  26.474  23.707  1.00  0.00     0.163 HD
BRANCH   4   7
ATOM      7  C   UNL A   1      31.904  25.863  26.518  1.00  0.00     0.230 C 
BRANCH   7   8
ATOM      8  N   UNL A   1      32.762  24.712  26.341  1.00  0.00    -0.253 N 
ATOM      9  C   UNL A   1      33.555  21.257  26.966  1.00  0.00     0.150 C 
ATOM     10  N   UNL A   1      33.586  22.663  26.622  1.00  0.00    -0.313 N 
ATOM     11  C   UNL A   1      32.562  23.529  26.984  1.00  0.00     0.327 C 
ATOM     12  C   UNL A   1      34.504  23.257  25.643  1.00  0.00     0.124 C 
ATOM     13  O   UNL A   1      31.636  23.264  27.727  1.00  0.00    -0.248 OA
ATOM     14  C   UNL A   1      33.984  24.716  25.729  1.00  0.00     0.257 C 
ATOM     15  C   UNL A   1      35.985  23.090  25.994  1.00  0.00     0.039 C 
ATOM     16  C   UNL A   1      34.206  22.732  24.235  1.00  0.00     0.039 C 
ATOM     17  O   UNL A   1      34.529  25.698  25.243  1.00  0.00    -0.272 OA
ATOM     18  C   UNL A   1      36.937  23.559  24.886  1.00  0.00     0.003 C 
ATOM     19  C   UNL A   1      35.122  23.302  23.163  1.00  0.00     0.003 C 
ATOM     20  C   UNL A   1      36.572  23.014  23.507  1.00  0.00     0.000 C 
ENDBRANCH   7   8
ENDBRANCH   4   7
ENDBRANCH   2   3
ENDBRANCH   1   2
BRANCH   1  21
ATOM     21  C   UNL A   1      32.902  29.316  25.136  1.00  0.00     0.118 C 
BRANCH  21  22
ATOM     22  N   UNL A   1      32.501  30.557  25.784  1.00  0.00    -0.352 N 
ATOM     23  C   UNL A   1      32.994  31.235  26.875  1.00  0.00     0.251 C 
ATOM     24  H   UNL A   1      31.726  30.994  25.361  1.00  0.00     0.163 HD
ATOM     25  O   UNL A   1      32.309  32.140  27.352  1.00  0.00    -0.269 OA
BRANCH  23  26
ATOM     26  C   UNL A   1      34.298  30.912  27.517  1.00  0.00     0.039 A 
ATOM     27  C   UNL A   1      35.229  31.948  27.683  1.00  0.00     0.014 A 
ATOM     28  C   UNL A   1      34.670  29.617  27.874  1.00  0.00     0.014 A 
ATOM     29  C   UNL A   1      36.480  31.701  28.266  1.00  0.00     0.010 A 
ATOM     30  C   UNL A   1      35.885  29.382  28.530  1.00  0.00     0.010 A 
ATOM     31  C   UNL A   1      36.802  30.422  28.743  1.00  0.00    -0.014 A 
BRANCH  31  32
ATOM     32  C   UNL A   1      38.065  30.159  29.492  1.00  0.00     0.031 A 
ATOM     33  C   UNL A   1      39.092  29.192  28.962  1.00  0.00     0.074 A 
ATOM     34  C   UNL A   1      38.249  30.723  30.703  1.00  0.00     0.049 A 
ATOM     35  N   UNL A   1      40.175  28.732  29.540  1.00  0.00    -0.248 NA
ATOM     36  C   UNL A   1      38.862  28.653  27.613  1.00  0.00     0.031 C 
ATOM     37  C   UNL A   1      37.322  31.654  31.349  1.00  0.00     0.029 A 
ATOM     38  N   UNL A   1      39.261  30.576  31.622  1.00  0.00    -0.354 N 
ATOM     39  C   UNL A   1      40.738  27.835  28.639  1.00  0.00     0.074 A 
ATOM     40  C   UNL A   1      39.863  27.792  27.487  1.00  0.00     0.031 C 
ATOM     41  C   UNL A   1      37.807  31.994  32.554  1.00  0.00     0.029 A 
ATOM     42  C   UNL A   1      39.048  31.264  32.793  1.00  0.00     0.049 A 
ATOM     43  H   UNL A   1      40.063  30.029  31.457  1.00  0.00     0.167 HD
ATOM     44  C   UNL A   1      41.885  27.123  28.759  1.00  0.00     0.037 A 
ATOM     45  C   UNL A   1      39.749  31.283  33.943  1.00  0.00     0.037 A 
ATOM     46  C   UNL A   1      42.773  27.192  29.892  1.00  0.00     0.049 A 
ATOM     47  C   UNL A   1      41.005  30.461  34.057  1.00  0.00     0.074 A 
ATOM     48  C   UNL A   1      44.002  26.576  30.061  1.00  0.00     0.029 A 
ATOM     49  N   UNL A   1      42.526  27.910  31.052  1.00  0.00    -0.354 N 
ATOM     50  N   UNL A   1      41.564  29.678  33.168  1.00  0.00    -0.248 NA
ATOM     51  C   UNL A   1      41.727  30.523  35.337  1.00  0.00     0.031 C 
ATOM     52  C   UNL A   1      44.466  26.866  31.348  1.00  0.00     0.029 A 
ATOM     53  C   UNL A   1      43.557  27.715  31.957  1.00  0.00     0.049 A 
ATOM     54  H   UNL A   1      41.734  28.475  31.209  1.00  0.00     0.167 HD
ATOM     55  C   UNL A   1      42.709  29.173  33.770  1.00  0.00     0.074 A 
ATOM     56  C   UNL A   1      42.779  29.755  35.092  1.00  0.00     0.031 C 
ATOM     57  C   UNL A   1      43.617  28.298  33.273  1.00  0.00     0.037 A 
BRANCH  44  58
ATOM     58  C   UNL A   1      42.260  26.190  27.643  1.00  0.00     0.064 A 
ATOM     59  C   UNL A   1      43.207  26.544  26.670  1.00  0.00     0.173 A 
ATOM     60  C   UNL A   1      41.730  24.891  27.599  1.00  0.00     0.173 A 
ATOM     61  F   UNL A   1      43.743  27.774  26.664  1.00  0.00    -0.203 F 
ATOM     62  C   UNL A   1      43.595  25.638  25.685  1.00  0.00     0.198 A 
ATOM     63  C   UNL A   1      42.142  23.978  26.631  1.00  0.00     0.198 A 
ATOM     64  F   UNL A   1      40.830  24.497  28.512  1.00  0.00    -0.203 F 
ATOM     65  F   UNL A   1      44.477  26.009  24.746  1.00  0.00    -0.200 F 
ATOM     66  C   UNL A   1      43.070  24.354  25.672  1.00  0.00     0.200 A 
ATOM     67  F   UNL A   1      41.646  22.733  26.631  1.00  0.00    -0.200 F 
ATOM     68  F   UNL A   1      43.458  23.478  24.735  1.00  0.00    -0.200 F 
ENDBRANCH  44  58
BRANCH  45  69
ATOM     69  C   UNL A   1      39.265  32.087  35.099  1.00  0.00     0.064 A 
ATOM     70  C   UNL A   1      38.508  31.502  36.123  1.00  0.00     0.173 A 
ATOM     71  C   UNL A   1      39.529  33.463  35.189  1.00  0.00     0.173 A 
ATOM     72  F   UNL A   1      38.210  30.196  36.072  1.00  0.00    -0.203 F 
ATOM     73  C   UNL A   1      38.008  32.266  37.176  1.00  0.00     0.198 A 
ATOM     74  C   UNL A   1      39.059  34.218  36.261  1.00  0.00     0.198 A 
ATOM     75  F   UNL A   1      40.253  34.073  34.240  1.00  0.00    -0.203 F 
ATOM     76  F   UNL A   1      37.237  31.692  38.110  1.00  0.00    -0.200 F 
ATOM     77  C   UNL A   1      38.289  33.623  37.248  1.00  0.00     0.200 A 
ATOM     78  F   UNL A   1      39.350  35.525  36.335  1.00  0.00    -0.200 F 
ATOM     79  F   UNL A   1      37.810  34.356  38.261  1.00  0.00    -0.200 F 
ENDBRANCH  45  69
BRANCH  57  80
ATOM     80  C   UNL A   1      44.777  27.928  34.154  1.00  0.00     0.064 A 
ATOM     81  C   UNL A   1      44.732  26.803  34.990  1.00  0.00     0.173 A 
ATOM     82  C   UNL A   1      45.962  28.679  34.125  1.00  0.00     0.173 A 
ATOM     83  F   UNL A   1      43.617  26.062  35.066  1.00  0.00    -0.203 F 
ATOM     84  C   UNL A   1      45.825  26.456  35.780  1.00  0.00     0.198 A 
ATOM     85  C   UNL A   1      47.063  28.310  34.893  1.00  0.00     0.198 A 
ATOM     86  F   UNL A   1      46.059  29.762  33.339  1.00  0.00    -0.203 F 
ATOM     87  F   UNL A   1      45.744  25.403  36.607  1.00  0.00    -0.200 F 
ATOM     88  C   UNL A   1      46.991  27.204  35.726  1.00  0.00     0.200 A 
ATOM     89  F   UNL A   1      48.194  29.025  34.826  1.00  0.00    -0.200 F 
ATOM     90  F   UNL A   1      48.046  26.860  36.478  1.00  0.00    -0.200 F 
ENDBRANCH  57  80
ENDBRANCH  31  32
ENDBRANCH  23  26
ENDBRANCH  21  22
ENDBRANCH   1  21
TORSDOF 11
ENDMDL
MODEL 3
REMARK VINA RESULT:     -12.6      0.157      1.627
REMARK SMILES CN1C(=O)N(CC(=O)NCCCNC(=O)c2ccc(-c3c4nc(c(-c5c(F)c(F)c(F)c(F)c5F)c5ccc([nH]5)c(-c5c(F)c(F)c(F)c(F)c5F)c5nc(c(-c6c(F)c(F)c(F)c(F)c6F)c6ccc3[nH]6)C=C5)C=C4)cc2)C(=O)C12CCCCC2
REMARK SMILES IDX 11 1 10 2 9 3 7 4 8 5 6 7 5 8 1 9 2 10 3 11 81 12 4 13 79 14
REMARK SMILES IDX 82 15 86 16 80 17 83 18 85 19 84 20 12 21 13 22 14 23 15 25
REMARK SMILES IDX 16 26 17 27 78 28 18 29 77 30 19 31 20 32 21 33 71 34 22 35
REMARK SMILES IDX 76 36 70 37 72 38 23 39 75 40 69 41 68 42 24 44 56 45 36 46
REMARK SMILES IDX 55 47 37 48 40 49 54 50 73 51 38 52 39 53 53 55 74 56 41 57
REMARK SMILES IDX 25 58 26 59 34 60 27 61 28 62 32 63 35 64 29 65 30 66 33 67
REMARK SMILES IDX 31 68 57 69 58 70 66 71 59 72 60 73 64 74 67 75 61 76 62 77
REMARK SMILES IDX 65 78 63 79 42 80 43 81 51 82 44 83 45 84 49 85 52 86 46 87
REMARK SMILES IDX 47 88 50 89 48 90
REMARK H PARENT 9 6 13 24 72 43 40 54
REMARK Flexibility Score: inf
ROOT
ATOM      1  C   UNL A   1      32.365  28.906  24.011  1.00  0.00     0.042 C 
ENDROOT
BRANCH   1   2
ATOM      2  C   UNL A   1      30.899  28.489  24.119  1.00  0.00     0.117 C 
BRANCH   2   3
ATOM      3  N   UNL A   1      30.683  27.115  23.703  1.00  0.00    -0.354 N 
ATOM      4  C   UNL A   1      30.878  25.934  24.359  1.00  0.00     0.240 C 
ATOM      5  O   UNL A   1      30.353  24.936  23.854  1.00  0.00    -0.273 OA
ATOM      6  H   UNL A   1      30.336  27.018  22.787  1.00  0.00     0.163 HD
BRANCH   4   7
ATOM      7  C   UNL A   1      31.547  25.841  25.738  1.00  0.00     0.230 C 
BRANCH   7   8
ATOM      8  N   UNL A   1      32.495  24.756  25.867  1.00  0.00    -0.253 N 
ATOM      9  C   UNL A   1      33.463  21.576  27.248  1.00  0.00     0.150 C 
ATOM     10  N   UNL A   1      33.429  22.882  26.626  1.00  0.00    -0.313 N 
ATOM     11  C   UNL A   1      32.319  23.712  26.723  1.00  0.00     0.327 C 
ATOM     12  C   UNL A   1      34.390  23.347  25.618  1.00  0.00     0.124 C 
ATOM     13  O   UNL A   1      31.349  23.520  27.431  1.00  0.00    -0.248 OA
ATOM     14  C   UNL A   1      33.765  24.743  25.363  1.00  0.00     0.257 C 
ATOM     15  C   UNL A   1      35.840  23.381  26.107  1.00  0.00     0.039 C 
ATOM     16  C   UNL A   1      34.260  22.528  24.329  1.00  0.00     0.039 C 
ATOM     17  O   UNL A   1      34.283  25.652  24.728  1.00  0.00    -0.272 OA
ATOM     18  C   UNL A   1      36.856  23.702  25.003  1.00  0.00     0.003 C 
ATOM     19  C   UNL A   1      35.230  22.951  23.236  1.00  0.00     0.003 C 
ATOM     20  C   UNL A   1      36.658  22.864  23.741  1.00  0.00     0.000 C 
ENDBRANCH   7   8
ENDBRANCH   4   7
ENDBRANCH   2   3
ENDBRANCH   1   2
BRANCH   1  21
ATOM     21  C   UNL A   1      33.085  29.172  25.326  1.00  0.00     0.118 C 
BRANCH  21  22
ATOM     22  N   UNL A   1      32.736  30.470  25.886  1.00  0.00    -0.352 N 
ATOM     23  C   UNL A   1      33.253  31.196  26.935  1.00  0.00     0.251 C 
ATOM     24  H   UNL A   1      31.986  30.914  25.427  1.00  0.00     0.163 HD
ATOM     25  O   UNL A   1      32.607  32.160  27.345  1.00  0.00    -0.269 OA
BRANCH  23  26
ATOM     26  C   UNL A   1      34.535  30.857  27.611  1.00  0.00     0.039 A 
ATOM     27  C   UNL A   1      35.508  31.861  27.729  1.00  0.00     0.014 A 
ATOM     28  C   UNL A   1      34.849  29.570  28.046  1.00  0.00     0.014 A 
ATOM     29  C   UNL A   1      36.741  31.596  28.341  1.00  0.00     0.010 A 
ATOM     30  C   UNL A   1      36.046  29.323  28.729  1.00  0.00     0.010 A 
ATOM     31  C   UNL A   1      37.004  30.335  28.894  1.00  0.00    -0.014 A 
BRANCH  31  32
ATOM     32  C   UNL A   1      38.247  30.063  29.672  1.00  0.00     0.031 A 
ATOM     33  C   UNL A   1      39.284  29.095  29.162  1.00  0.00     0.074 A 
ATOM     34  C   UNL A   1      38.402  30.619  30.891  1.00  0.00     0.049 A 
ATOM     35  N   UNL A   1      40.350  28.629  29.765  1.00  0.00    -0.248 NA
ATOM     36  C   UNL A   1      39.085  28.565  27.805  1.00  0.00     0.031 C 
ATOM     37  C   UNL A   1      37.463  31.550  31.519  1.00  0.00     0.029 A 
ATOM     38  N   UNL A   1      39.391  30.464  31.834  1.00  0.00    -0.354 N 
ATOM     39  C   UNL A   1      40.933  27.735  28.873  1.00  0.00     0.074 A 
ATOM     40  C   UNL A   1      40.087  27.702  27.698  1.00  0.00     0.031 C 
ATOM     41  C   UNL A   1      37.918  31.881  32.738  1.00  0.00     0.029 A 
ATOM     42  C   UNL A   1      39.151  31.146  33.003  1.00  0.00     0.049 A 
ATOM     43  H   UNL A   1      40.196  29.915  31.686  1.00  0.00     0.167 HD
ATOM     44  C   UNL A   1      42.075  27.019  29.017  1.00  0.00     0.037 A 
ATOM     45  C   UNL A   1      39.824  31.155  34.171  1.00  0.00     0.037 A 
ATOM     46  C   UNL A   1      42.934  27.078  30.172  1.00  0.00     0.049 A 
ATOM     47  C   UNL A   1      41.074  30.329  34.311  1.00  0.00     0.074 A 
ATOM     48  C   UNL A   1      44.157  26.457  30.368  1.00  0.00     0.029 A 
ATOM     49  N   UNL A   1      42.661  27.791  31.329  1.00  0.00    -0.354 N 
ATOM     50  N   UNL A   1      41.652  29.549  33.431  1.00  0.00    -0.248 NA
ATOM     51  C   UNL A   1      41.764  30.381  35.608  1.00  0.00     0.031 C 
ATOM     52  C   UNL A   1      44.590  26.739  31.667  1.00  0.00     0.029 A 
ATOM     53  C   UNL A   1      43.669  27.586  32.259  1.00  0.00     0.049 A 
ATOM     54  H   UNL A   1      41.867  28.358  31.470  1.00  0.00     0.167 HD
ATOM     55  C   UNL A   1      42.780  29.037  34.058  1.00  0.00     0.074 A 
ATOM     56  C   UNL A   1      42.819  29.611  35.385  1.00  0.00     0.031 C 
ATOM     57  C   UNL A   1      43.698  28.162  33.579  1.00  0.00     0.037 A 
BRANCH  44  58
ATOM     58  C   UNL A   1      42.475  26.091  27.905  1.00  0.00     0.064 A 
ATOM     59  C   UNL A   1      41.938  24.801  27.789  1.00  0.00     0.173 A 
ATOM     60  C   UNL A   1      43.340  26.534  26.891  1.00  0.00     0.173 A 
ATOM     61  F   UNL A   1      41.108  24.326  28.731  1.00  0.00    -0.203 F 
ATOM     62  C   UNL A   1      42.266  23.982  26.710  1.00  0.00     0.198 A 
ATOM     63  C   UNL A   1      43.643  25.724  25.800  1.00  0.00     0.198 A 
ATOM     64  F   UNL A   1      43.873  27.764  26.947  1.00  0.00    -0.203 F 
ATOM     65  F   UNL A   1      41.767  22.740  26.637  1.00  0.00    -0.200 F 
ATOM     66  C   UNL A   1      43.110  24.448  25.712  1.00  0.00     0.200 A 
ATOM     67  F   UNL A   1      44.444  26.183  24.828  1.00  0.00    -0.200 F 
ATOM     68  F   UNL A   1      43.409  23.666  24.666  1.00  0.00    -0.200 F 
ENDBRANCH  44  58
BRANCH  45  69
ATOM     69  C   UNL A   1      39.313  31.954  35.319  1.00  0.00     0.064 A 
ATOM     70  C   UNL A   1      38.497  31.375  36.300  1.00  0.00     0.173 A 
ATOM     71  C   UNL A   1      39.611  33.320  35.443  1.00  0.00     0.173 A 
ATOM     72  F   UNL A   1      38.166  30.079  36.214  1.00  0.00    -0.203 F 
ATOM     73  C   UNL A   1      37.975  32.136  37.344  1.00  0.00     0.198 A 
ATOM     74  C   UNL A   1      39.118  34.071  36.508  1.00  0.00     0.198 A 
ATOM     75  F   UNL A   1      40.393  33.925  34.537  1.00  0.00    -0.203 F 
ATOM     76  F   UNL A   1      37.149  31.569  38.235  1.00  0.00    -0.200 F 
ATOM     77  C   UNL A   1      38.291  33.483  37.451  1.00  0.00     0.200 A 
ATOM     78  F   UNL A   1      39.442  35.368  36.617  1.00  0.00    -0.200 F 
ATOM     79  F   UNL A   1      37.790  34.213  38.456  1.00  0.00    -0.200 F 
ENDBRANCH  45  69
BRANCH  57  80
ATOM     80  C   UNL A   1      44.834  27.783  34.486  1.00  0.00     0.064 A 
ATOM     81  C   UNL A   1      44.763  26.656  35.318  1.00  0.00     0.173 A 
ATOM     82  C   UNL A   1      46.024  28.527  34.487  1.00  0.00     0.173 A 
ATOM     83  F   UNL A   1      43.642  25.922  35.366  1.00  0.00    -0.203 F 
ATOM     84  C   UNL A   1      45.834  26.301  36.134  1.00  0.00     0.198 A 
ATOM     85  C   UNL A   1      47.104  28.150  35.280  1.00  0.00     0.198 A 
ATOM     86  F   UNL A   1      46.146  29.611  33.706  1.00  0.00    -0.203 F 
ATOM     87  F   UNL A   1      45.727  25.247  36.955  1.00  0.00    -0.200 F 
ATOM     88  C   UNL A   1      47.006  27.042  36.108  1.00  0.00     0.200 A 
ATOM     89  F   UNL A   1      48.241  28.858  35.242  1.00  0.00    -0.200 F 
ATOM     90  F   UNL A   1      48.041  26.690  36.884  1.00  0.00    -0.200 F 
ENDBRANCH  57  80
ENDBRANCH  31  32
ENDBRANCH  23  26
ENDBRANCH  21  22
ENDBRANCH   1  21
TORSDOF 11
ENDMDL
