MODEL 1
REMARK VINA RESULT:     -13.8      0.000      0.000
REMARK SMILES Cc1cc(C(=O)N[C@H](C(=O)NCCCNC(=O)c2ccc(-c3c4nc(c(-c5c(F)c(F)c(F)c(F)c5F)c5ccc([nH]5)c(-c5c(F)c(F)c(F)c(F)c5F)c5nc(c(-c6c(F)c(F)c(F)c(F)c6F)c6ccc3[nH]6)C=C5)C=C4)cc2)c2c(C)n[nH]c2C)c2ccc(C)c(C)c2n1
REMARK SMILES IDX 13 1 12 2 11 3 9 4 10 5 8 7 7 8 5 9 6 10 4 12 1 13 2 14 3 15
REMARK SMILES IDX 96 16 95 17 88 18 93 19 89 20 91 21 94 22 90 23 92 24 81 25
REMARK SMILES IDX 82 26 86 27 83 28 84 29 85 30 87 31 14 33 15 34 16 35 17 37
REMARK SMILES IDX 18 38 19 39 80 40 20 41 79 42 21 43 22 44 23 45 73 46 24 47
REMARK SMILES IDX 78 48 72 49 74 50 25 51 77 52 71 53 70 54 26 56 58 57 38 58
REMARK SMILES IDX 57 59 39 60 42 61 56 62 75 63 40 64 41 65 55 67 76 68 43 69
REMARK SMILES IDX 27 70 28 71 36 72 29 73 30 74 34 75 37 76 31 77 32 78 35 79
REMARK SMILES IDX 33 80 59 81 60 82 68 83 61 84 62 85 66 86 69 87 63 88 64 89
REMARK SMILES IDX 67 90 65 91 44 92 45 93 53 94 46 95 47 96 51 97 54 98 48 99
REMARK SMILES IDX 49 100 52 101 50 102
REMARK H PARENT 11 6 7 11 85 32 15 36 74 55 42 66
REMARK Flexibility Score: inf
ROOT
ATOM      1  C   UNL A   1      31.172  32.418  26.424  1.00  0.00     0.042 C 
ENDROOT
BRANCH   1   2
ATOM      2  C   UNL A   1      31.255  30.966  25.966  1.00  0.00     0.117 C 
BRANCH   2   3
ATOM      3  N   UNL A   1      30.676  30.772  24.646  1.00  0.00    -0.354 N 
ATOM      4  C   UNL A   1      30.464  29.603  23.953  1.00  0.00     0.247 C 
ATOM      5  O   UNL A   1      29.820  29.674  22.905  1.00  0.00    -0.272 OA
ATOM      6  H   UNL A   1      30.396  31.594  24.183  1.00  0.00     0.163 HD
BRANCH   4   7
ATOM      7  C   UNL A   1      30.921  28.267  24.583  1.00  0.00     0.206 C 
BRANCH   7   8
ATOM      8  N   UNL A   1      30.798  27.205  23.590  1.00  0.00    -0.336 N 
ATOM      9  C   UNL A   1      31.066  25.861  23.518  1.00  0.00     0.252 C 
ATOM     10  O   UNL A   1      30.953  25.393  22.384  1.00  0.00    -0.269 OA
ATOM     11  H   UNL A   1      30.422  27.543  22.745  1.00  0.00     0.165 HD
BRANCH   9  12
ATOM     12  C   UNL A   1      31.395  24.970  24.692  1.00  0.00     0.051 A 
ATOM     13  C   UNL A   1      29.513  22.961  27.280  1.00  0.00     0.067 C 
ATOM     14  C   UNL A   1      30.625  23.547  26.465  1.00  0.00     0.039 A 
ATOM     15  C   UNL A   1      30.386  24.549  25.552  1.00  0.00     0.038 A 
ATOM     16  N   UNL A   1      31.855  23.068  26.681  1.00  0.00    -0.253 NA
ATOM     17  C   UNL A   1      32.900  23.582  26.010  1.00  0.00     0.074 A 
ATOM     18  C   UNL A   1      32.732  24.526  24.965  1.00  0.00     0.013 A 
ATOM     19  C   UNL A   1      34.184  23.160  26.403  1.00  0.00    -0.022 A 
ATOM     20  C   UNL A   1      33.914  24.966  24.314  1.00  0.00     0.011 A 
ATOM     21  C   UNL A   1      35.339  23.681  25.788  1.00  0.00    -0.046 A 
ATOM     22  C   UNL A   1      34.278  22.161  27.536  1.00  0.00     0.047 C 
ATOM     23  C   UNL A   1      35.186  24.565  24.725  1.00  0.00     0.004 A 
ATOM     24  C   UNL A   1      36.726  23.330  26.251  1.00  0.00     0.044 C 
ENDBRANCH   9  12
ENDBRANCH   7   8
BRANCH   7  25
ATOM     25  C   UNL A   1      32.347  28.302  25.077  1.00  0.00     0.027 A 
ATOM     26  C   UNL A   1      32.840  28.114  26.411  1.00  0.00     0.065 A 
ATOM     27  C   UNL A   1      33.496  28.576  24.341  1.00  0.00     0.038 A 
ATOM     28  C   UNL A   1      32.095  27.820  27.664  1.00  0.00     0.069 C 
ATOM     29  N   UNL A   1      34.166  28.271  26.478  1.00  0.00    -0.180 NA
ATOM     30  N   UNL A   1      34.534  28.554  25.229  1.00  0.00    -0.282 N 
ATOM     31  C   UNL A   1      33.739  28.885  22.912  1.00  0.00     0.066 C 
ATOM     32  H   UNL A   1      35.467  28.731  24.971  1.00  0.00     0.190 HD
ENDBRANCH   7  25
ENDBRANCH   4   7
ENDBRANCH   2   3
ENDBRANCH   1   2
BRANCH   1  33
ATOM     33  C   UNL A   1      32.381  32.864  27.244  1.00  0.00     0.118 C 
BRANCH  33  34
ATOM     34  N   UNL A   1      32.308  34.272  27.607  1.00  0.00    -0.352 N 
ATOM     35  C   UNL A   1      32.986  34.968  28.576  1.00  0.00     0.251 C 
ATOM     36  H   UNL A   1      31.675  34.807  27.076  1.00  0.00     0.163 HD
ATOM     37  O   UNL A   1      32.637  36.104  28.873  1.00  0.00    -0.269 OA
BRANCH  35  38
ATOM     38  C   UNL A   1      34.132  34.348  29.269  1.00  0.00     0.039 A 
ATOM     39  C   UNL A   1      33.906  33.657  30.464  1.00  0.00     0.014 A 
ATOM     40  C   UNL A   1      35.429  34.483  28.766  1.00  0.00     0.014 A 
ATOM     41  C   UNL A   1      34.977  33.057  31.127  1.00  0.00     0.010 A 
ATOM     42  C   UNL A   1      36.487  33.837  29.397  1.00  0.00     0.010 A 
ATOM     43  C   UNL A   1      36.270  33.127  30.587  1.00  0.00    -0.014 A 
BRANCH  43  44
ATOM     44  C   UNL A   1      37.418  32.492  31.276  1.00  0.00     0.031 A 
ATOM     45  C   UNL A   1      38.159  31.369  30.610  1.00  0.00     0.074 A 
ATOM     46  C   UNL A   1      37.763  32.897  32.512  1.00  0.00     0.049 A 
ATOM     47  N   UNL A   1      39.168  30.665  31.057  1.00  0.00    -0.248 NA
ATOM     48  C   UNL A   1      37.695  30.973  29.271  1.00  0.00     0.031 C 
ATOM     49  C   UNL A   1      37.096  33.957  33.268  1.00  0.00     0.029 A 
ATOM     50  N   UNL A   1      38.757  32.462  33.352  1.00  0.00    -0.354 N 
ATOM     51  C   UNL A   1      39.458  29.748  30.056  1.00  0.00     0.074 A 
ATOM     52  C   UNL A   1      38.484  29.943  29.005  1.00  0.00     0.031 C 
ATOM     53  C   UNL A   1      37.712  34.104  34.452  1.00  0.00     0.029 A 
ATOM     54  C   UNL A   1      38.798  33.132  34.548  1.00  0.00     0.049 A 
ATOM     55  H   UNL A   1      39.381  31.738  33.118  1.00  0.00     0.167 HD
ATOM     56  C   UNL A   1      40.466  28.847  30.007  1.00  0.00     0.037 A 
ATOM     57  C   UNL A   1      39.622  32.979  35.603  1.00  0.00     0.037 A 
ATOM     58  C   UNL A   1      41.441  28.667  31.050  1.00  0.00     0.049 A 
ATOM     59  C   UNL A   1      40.713  31.945  35.539  1.00  0.00     0.074 A 
ATOM     60  C   UNL A   1      42.529  27.813  31.075  1.00  0.00     0.029 A 
ATOM     61  N   UNL A   1      41.442  29.355  32.254  1.00  0.00    -0.354 N 
ATOM     62  N   UNL A   1      41.016  31.125  34.563  1.00  0.00    -0.248 NA
ATOM     63  C   UNL A   1      41.576  31.816  36.721  1.00  0.00     0.031 C 
ATOM     64  C   UNL A   1      43.164  27.953  32.311  1.00  0.00     0.029 A 
ATOM     65  C   UNL A   1      42.499  28.926  33.040  1.00  0.00     0.049 A 
ATOM     66  H   UNL A   1      40.788  30.045  32.512  1.00  0.00     0.167 HD
ATOM     67  C   UNL A   1      42.117  30.400  35.001  1.00  0.00     0.074 A 
ATOM     68  C   UNL A   1      42.435  30.886  36.328  1.00  0.00     0.031 C 
ATOM     69  C   UNL A   1      42.801  29.423  34.359  1.00  0.00     0.037 A 
BRANCH  56  70
ATOM     70  C   UNL A   1      40.575  27.995  28.778  1.00  0.00     0.064 A 
ATOM     71  C   UNL A   1      39.908  26.765  28.682  1.00  0.00     0.173 A 
ATOM     72  C   UNL A   1      41.317  28.429  27.670  1.00  0.00     0.173 A 
ATOM     73  F   UNL A   1      39.197  26.300  29.720  1.00  0.00    -0.203 F 
ATOM     74  C   UNL A   1      39.997  25.990  27.528  1.00  0.00     0.198 A 
ATOM     75  C   UNL A   1      41.381  27.665  26.508  1.00  0.00     0.198 A 
ATOM     76  F   UNL A   1      41.971  29.600  27.710  1.00  0.00    -0.203 F 
ATOM     77  F   UNL A   1      39.383  24.799  27.475  1.00  0.00    -0.200 F 
ATOM     78  C   UNL A   1      40.726  26.444  26.440  1.00  0.00     0.200 A 
ATOM     79  F   UNL A   1      42.077  28.108  25.453  1.00  0.00    -0.200 F 
ATOM     80  F   UNL A   1      40.802  25.702  25.326  1.00  0.00    -0.200 F 
ENDBRANCH  56  70
BRANCH  57  81
ATOM     81  C   UNL A   1      39.469  33.861  36.788  1.00  0.00     0.064 A 
ATOM     82  C   UNL A   1      38.734  33.440  37.903  1.00  0.00     0.173 A 
ATOM     83  C   UNL A   1      40.077  35.124  36.844  1.00  0.00     0.173 A 
ATOM     84  F   UNL A   1      38.121  32.247  37.889  1.00  0.00    -0.203 F 
ATOM     85  C   UNL A   1      38.604  34.252  39.028  1.00  0.00     0.198 A 
ATOM     86  C   UNL A   1      39.966  35.926  37.979  1.00  0.00     0.198 A 
ATOM     87  F   UNL A   1      40.798  35.569  35.804  1.00  0.00    -0.203 F 
ATOM     88  F   UNL A   1      37.873  33.836  40.072  1.00  0.00    -0.200 F 
ATOM     89  C   UNL A   1      39.227  35.491  39.068  1.00  0.00     0.200 A 
ATOM     90  F   UNL A   1      40.583  37.114  38.019  1.00  0.00    -0.200 F 
ATOM     91  F   UNL A   1      39.114  36.264  40.156  1.00  0.00    -0.200 F 
ENDBRANCH  57  81
BRANCH  69  92
ATOM     92  C   UNL A   1      43.973  28.812  35.069  1.00  0.00     0.064 A 
ATOM     93  C   UNL A   1      43.823  27.680  35.881  1.00  0.00     0.173 A 
ATOM     94  C   UNL A   1      45.268  29.313  34.865  1.00  0.00     0.173 A 
ATOM     95  F   UNL A   1      42.604  27.174  36.117  1.00  0.00    -0.203 F 
ATOM     96  C   UNL A   1      44.930  27.073  36.470  1.00  0.00     0.198 A 
ATOM     97  C   UNL A   1      46.374  28.688  35.433  1.00  0.00     0.198 A 
ATOM     98  F   UNL A   1      45.461  30.390  34.089  1.00  0.00    -0.203 F 
ATOM     99  F   UNL A   1      44.762  26.006  37.263  1.00  0.00    -0.200 F 
ATOM    100  C   UNL A   1      46.204  27.570  36.236  1.00  0.00     0.200 A 
ATOM    101  F   UNL A   1      47.605  29.160  35.194  1.00  0.00    -0.200 F 
ATOM    102  F   UNL A   1      47.269  26.972  36.787  1.00  0.00    -0.200 F 
ENDBRANCH  69  92
ENDBRANCH  43  44
ENDBRANCH  35  38
ENDBRANCH  33  34
ENDBRANCH   1  33
TORSDOF 13
ENDMDL
MODEL 2
REMARK VINA RESULT:     -13.7      5.419     10.862
REMARK SMILES Cc1cc(C(=O)N[C@H](C(=O)NCCCNC(=O)c2ccc(-c3c4nc(c(-c5c(F)c(F)c(F)c(F)c5F)c5ccc([nH]5)c(-c5c(F)c(F)c(F)c(F)c5F)c5nc(c(-c6c(F)c(F)c(F)c(F)c6F)c6ccc3[nH]6)C=C5)C=C4)cc2)c2c(C)n[nH]c2C)c2ccc(C)c(C)c2n1
REMARK SMILES IDX 13 1 12 2 11 3 9 4 10 5 8 7 7 8 5 9 6 10 4 12 1 13 2 14 3 15
REMARK SMILES IDX 96 16 95 17 88 18 93 19 89 20 91 21 94 22 90 23 92 24 81 25
REMARK SMILES IDX 82 26 86 27 83 28 84 29 85 30 87 31 14 33 15 34 16 35 17 37
REMARK SMILES IDX 18 38 19 39 80 40 20 41 79 42 21 43 22 44 23 45 73 46 24 47
REMARK SMILES IDX 78 48 72 49 74 50 25 51 77 52 71 53 70 54 26 56 58 57 38 58
REMARK SMILES IDX 57 59 39 60 42 61 56 62 75 63 40 64 41 65 55 67 76 68 43 69
REMARK SMILES IDX 27 70 28 71 36 72 29 73 30 74 34 75 37 76 31 77 32 78 35 79
REMARK SMILES IDX 33 80 59 81 60 82 68 83 61 84 62 85 66 86 69 87 63 88 64 89
REMARK SMILES IDX 67 90 65 91 44 92 45 93 53 94 46 95 47 96 51 97 54 98 48 99
REMARK SMILES IDX 49 100 52 101 50 102
REMARK H PARENT 11 6 7 11 85 32 15 36 74 55 42 66
REMARK Flexibility Score: inf
ROOT
ATOM      1  C   UNL A   1      38.037  19.152  25.001  1.00  0.00     0.042 C 
ENDROOT
BRANCH   1   2
ATOM      2  C   UNL A   1      36.860  20.085  24.734  1.00  0.00     0.117 C 
BRANCH   2   3
ATOM      3  N   UNL A   1      35.581  19.446  25.001  1.00  0.00    -0.354 N 
ATOM      4  C   UNL A   1      34.309  19.950  24.852  1.00  0.00     0.247 C 
ATOM      5  O   UNL A   1      33.369  19.170  25.003  1.00  0.00    -0.272 OA
ATOM      6  H   UNL A   1      35.632  18.523  25.337  1.00  0.00     0.163 HD
BRANCH   4   7
ATOM      7  C   UNL A   1      34.136  21.413  24.378  1.00  0.00     0.206 C 
BRANCH   7   8
ATOM      8  N   UNL A   1      32.730  21.786  24.491  1.00  0.00    -0.336 N 
ATOM      9  C   UNL A   1      31.970  22.911  24.293  1.00  0.00     0.252 C 
ATOM     10  O   UNL A   1      30.809  22.801  24.687  1.00  0.00    -0.269 OA
ATOM     11  H   UNL A   1      32.178  21.027  24.789  1.00  0.00     0.165 HD
BRANCH   9  12
ATOM     12  C   UNL A   1      32.433  24.167  23.593  1.00  0.00     0.051 A 
ATOM     13  C   UNL A   1      32.670  25.459  20.051  1.00  0.00     0.067 C 
ATOM     14  C   UNL A   1      32.719  25.388  21.546  1.00  0.00     0.039 A 
ATOM     15  C   UNL A   1      32.545  24.193  22.207  1.00  0.00     0.038 A 
ATOM     16  N   UNL A   1      32.959  26.528  22.202  1.00  0.00    -0.253 NA
ATOM     17  C   UNL A   1      33.056  26.521  23.542  1.00  0.00     0.074 A 
ATOM     18  C   UNL A   1      32.768  25.365  24.311  1.00  0.00     0.013 A 
ATOM     19  C   UNL A   1      33.479  27.712  24.160  1.00  0.00    -0.022 A 
ATOM     20  C   UNL A   1      32.876  25.498  25.720  1.00  0.00     0.011 A 
ATOM     21  C   UNL A   1      33.653  27.784  25.557  1.00  0.00    -0.046 A 
ATOM     22  C   UNL A   1      33.779  28.898  23.269  1.00  0.00     0.047 C 
ATOM     23  C   UNL A   1      33.322  26.673  26.326  1.00  0.00     0.004 A 
ATOM     24  C   UNL A   1      34.200  29.007  26.238  1.00  0.00     0.044 C 
ENDBRANCH   9  12
ENDBRANCH   7   8
BRANCH   7  25
ATOM     25  C   UNL A   1      34.961  22.395  25.174  1.00  0.00     0.027 A 
ATOM     26  C   UNL A   1      36.036  23.233  24.728  1.00  0.00     0.065 A 
ATOM     27  C   UNL A   1      34.883  22.663  26.537  1.00  0.00     0.038 A 
ATOM     28  C   UNL A   1      36.623  23.379  23.370  1.00  0.00     0.069 C 
ATOM     29  N   UNL A   1      36.569  23.936  25.733  1.00  0.00    -0.180 NA
ATOM     30  N   UNL A   1      35.867  23.573  26.806  1.00  0.00    -0.282 N 
ATOM     31  C   UNL A   1      34.019  22.151  27.627  1.00  0.00     0.066 C 
ATOM     32  H   UNL A   1      36.042  23.927  27.708  1.00  0.00     0.190 HD
ENDBRANCH   7  25
ENDBRANCH   4   7
ENDBRANCH   2   3
ENDBRANCH   1   2
BRANCH   1  33
ATOM     33  C   UNL A   1      39.193  19.831  25.732  1.00  0.00     0.118 C 
BRANCH  33  34
ATOM     34  N   UNL A   1      40.315  18.928  25.941  1.00  0.00    -0.352 N 
ATOM     35  C   UNL A   1      41.647  19.205  26.126  1.00  0.00     0.251 C 
ATOM     36  H   UNL A   1      40.084  17.971  25.952  1.00  0.00     0.163 HD
ATOM     37  O   UNL A   1      42.474  18.303  26.075  1.00  0.00    -0.269 OA
BRANCH  35  38
ATOM     38  C   UNL A   1      42.087  20.591  26.378  1.00  0.00     0.039 A 
ATOM     39  C   UNL A   1      42.278  21.011  27.698  1.00  0.00     0.014 A 
ATOM     40  C   UNL A   1      42.269  21.486  25.319  1.00  0.00     0.014 A 
ATOM     41  C   UNL A   1      42.702  22.315  27.953  1.00  0.00     0.010 A 
ATOM     42  C   UNL A   1      42.746  22.768  25.571  1.00  0.00     0.010 A 
ATOM     43  C   UNL A   1      42.957  23.195  26.890  1.00  0.00    -0.014 A 
BRANCH  43  44
ATOM     44  C   UNL A   1      43.412  24.582  27.143  1.00  0.00     0.031 A 
ATOM     45  C   UNL A   1      42.450  25.594  27.696  1.00  0.00     0.074 A 
ATOM     46  C   UNL A   1      44.673  24.938  26.836  1.00  0.00     0.049 A 
ATOM     47  N   UNL A   1      42.645  26.861  27.959  1.00  0.00    -0.248 NA
ATOM     48  C   UNL A   1      41.085  25.123  27.975  1.00  0.00     0.031 C 
ATOM     49  C   UNL A   1      45.685  24.048  26.265  1.00  0.00     0.029 A 
ATOM     50  N   UNL A   1      45.317  26.144  26.955  1.00  0.00    -0.354 N 
ATOM     51  C   UNL A   1      41.430  27.335  28.435  1.00  0.00     0.074 A 
ATOM     52  C   UNL A   1      40.490  26.239  28.369  1.00  0.00     0.031 C 
ATOM     53  C   UNL A   1      46.828  24.733  26.104  1.00  0.00     0.029 A 
ATOM     54  C   UNL A   1      46.622  26.114  26.533  1.00  0.00     0.049 A 
ATOM     55  H   UNL A   1      44.884  26.953  27.310  1.00  0.00     0.167 HD
ATOM     56  C   UNL A   1      41.137  28.567  28.912  1.00  0.00     0.037 A 
ATOM     57  C   UNL A   1      47.548  27.092  26.499  1.00  0.00     0.037 A 
ATOM     58  C   UNL A   1      42.081  29.650  28.989  1.00  0.00     0.049 A 
ATOM     59  C   UNL A   1      47.187  28.463  27.002  1.00  0.00     0.074 A 
ATOM     60  C   UNL A   1      41.894  30.921  29.501  1.00  0.00     0.029 A 
ATOM     61  N   UNL A   1      43.391  29.586  28.539  1.00  0.00    -0.354 N 
ATOM     62  N   UNL A   1      46.053  28.885  27.506  1.00  0.00    -0.248 NA
ATOM     63  C   UNL A   1      48.233  29.493  26.933  1.00  0.00     0.031 C 
ATOM     64  C   UNL A   1      43.078  31.641  29.321  1.00  0.00     0.029 A 
ATOM     65  C   UNL A   1      44.017  30.805  28.738  1.00  0.00     0.049 A 
ATOM     66  H   UNL A   1      43.812  28.792  28.136  1.00  0.00     0.167 HD
ATOM     67  C   UNL A   1      46.254  30.218  27.837  1.00  0.00     0.074 A 
ATOM     68  C   UNL A   1      47.624  30.533  27.485  1.00  0.00     0.031 C 
ATOM     69  C   UNL A   1      45.383  31.100  28.383  1.00  0.00     0.037 A 
BRANCH  56  70
ATOM     70  C   UNL A   1      39.741  28.805  29.405  1.00  0.00     0.064 A 
ATOM     71  C   UNL A   1      39.372  28.505  30.725  1.00  0.00     0.173 A 
ATOM     72  C   UNL A   1      38.774  29.378  28.566  1.00  0.00     0.173 A 
ATOM     73  F   UNL A   1      40.258  27.943  31.562  1.00  0.00    -0.203 F 
ATOM     74  C   UNL A   1      38.080  28.750  31.182  1.00  0.00     0.198 A 
ATOM     75  C   UNL A   1      37.490  29.647  29.034  1.00  0.00     0.198 A 
ATOM     76  F   UNL A   1      39.077  29.687  27.297  1.00  0.00    -0.203 F 
ATOM     77  F   UNL A   1      37.740  28.417  32.435  1.00  0.00    -0.200 F 
ATOM     78  C   UNL A   1      37.144  29.328  30.339  1.00  0.00     0.200 A 
ATOM     79  F   UNL A   1      36.588  30.216  28.224  1.00  0.00    -0.200 F 
ATOM     80  F   UNL A   1      35.902  29.573  30.783  1.00  0.00    -0.200 F 
ENDBRANCH  56  70
BRANCH  57  81
ATOM     81  C   UNL A   1      48.917  26.791  26.009  1.00  0.00     0.064 A 
ATOM     82  C   UNL A   1      49.874  26.225  26.863  1.00  0.00     0.173 A 
ATOM     83  C   UNL A   1      49.289  27.031  24.678  1.00  0.00     0.173 A 
ATOM     84  F   UNL A   1      49.570  25.993  28.148  1.00  0.00    -0.203 F 
ATOM     85  C   UNL A   1      51.154  25.918  26.406  1.00  0.00     0.198 A 
ATOM     86  C   UNL A   1      50.562  26.703  24.216  1.00  0.00     0.198 A 
ATOM     87  F   UNL A   1      48.406  27.564  23.821  1.00  0.00    -0.203 F 
ATOM     88  F   UNL A   1      52.058  25.402  27.249  1.00  0.00    -0.200 F 
ATOM     89  C   UNL A   1      51.495  26.150  25.081  1.00  0.00     0.200 A 
ATOM     90  F   UNL A   1      50.881  26.913  22.933  1.00  0.00    -0.200 F 
ATOM     91  F   UNL A   1      52.721  25.841  24.639  1.00  0.00    -0.200 F 
ENDBRANCH  57  81
BRANCH  69  92
ATOM     92  C   UNL A   1      45.875  32.491  28.650  1.00  0.00     0.064 A 
ATOM     93  C   UNL A   1      46.562  32.808  29.830  1.00  0.00     0.173 A 
ATOM     94  C   UNL A   1      45.735  33.493  27.678  1.00  0.00     0.173 A 
ATOM     95  F   UNL A   1      46.709  31.887  30.794  1.00  0.00    -0.203 F 
ATOM     96  C   UNL A   1      47.086  34.082  30.031  1.00  0.00     0.198 A 
ATOM     97  C   UNL A   1      46.284  34.758  27.871  1.00  0.00     0.198 A 
ATOM     98  F   UNL A   1      45.092  33.236  26.530  1.00  0.00    -0.203 F 
ATOM     99  F   UNL A   1      47.718  34.371  31.177  1.00  0.00    -0.200 F 
ATOM    100  C   UNL A   1      46.957  35.052  29.047  1.00  0.00     0.200 A 
ATOM    101  F   UNL A   1      46.171  35.689  26.913  1.00  0.00    -0.200 F 
ATOM    102  F   UNL A   1      47.481  36.271  29.234  1.00  0.00    -0.200 F 
ENDBRANCH  69  92
ENDBRANCH  43  44
ENDBRANCH  35  38
ENDBRANCH  33  34
ENDBRANCH   1  33
TORSDOF 13
ENDMDL
MODEL 3
REMARK VINA RESULT:     -13.7      0.523      7.220
REMARK SMILES Cc1cc(C(=O)N[C@H](C(=O)NCCCNC(=O)c2ccc(-c3c4nc(c(-c5c(F)c(F)c(F)c(F)c5F)c5ccc([nH]5)c(-c5c(F)c(F)c(F)c(F)c5F)c5nc(c(-c6c(F)c(F)c(F)c(F)c6F)c6ccc3[nH]6)C=C5)C=C4)cc2)c2c(C)n[nH]c2C)c2ccc(C)c(C)c2n1
REMARK SMILES IDX 13 1 12 2 11 3 9 4 10 5 8 7 7 8 5 9 6 10 4 12 1 13 2 14 3 15
REMARK SMILES IDX 96 16 95 17 88 18 93 19 89 20 91 21 94 22 90 23 92 24 81 25
REMARK SMILES IDX 82 26 86 27 83 28 84 29 85 30 87 31 14 33 15 34 16 35 17 37
REMARK SMILES IDX 18 38 19 39 80 40 20 41 79 42 21 43 22 44 23 45 73 46 24 47
REMARK SMILES IDX 78 48 72 49 74 50 25 51 77 52 71 53 70 54 26 56 58 57 38 58
REMARK SMILES IDX 57 59 39 60 42 61 56 62 75 63 40 64 41 65 55 67 76 68 43 69
REMARK SMILES IDX 27 70 28 71 36 72 29 73 30 74 34 75 37 76 31 77 32 78 35 79
REMARK SMILES IDX 33 80 59 81 60 82 68 83 61 84 62 85 66 86 69 87 63 88 64 89
REMARK SMILES IDX 67 90 65 91 44 92 45 93 53 94 46 95 47 96 51 97 54 98 48 99
REMARK SMILES IDX 49 100 52 101 50 102
REMARK H PARENT 11 6 7 11 85 32 15 36 74 55 42 66
REMARK Flexibility Score: inf
ROOT
ATOM      1  C   UNL A   1      31.130  32.456  26.375  1.00  0.00     0.042 C 
ENDROOT
BRANCH   1   2
ATOM      2  C   UNL A   1      31.090  30.984  25.976  1.00  0.00     0.117 C 
BRANCH   2   3
ATOM      3  N   UNL A   1      30.615  30.796  24.614  1.00  0.00    -0.354 N 
ATOM      4  C   UNL A   1      30.480  29.632  23.894  1.00  0.00     0.247 C 
ATOM      5  O   UNL A   1      29.916  29.704  22.801  1.00  0.00    -0.272 OA
ATOM      6  H   UNL A   1      30.355  31.618  24.141  1.00  0.00     0.163 HD
BRANCH   4   7
ATOM      7  C   UNL A   1      30.915  28.297  24.542  1.00  0.00     0.206 C 
BRANCH   7   8
ATOM      8  N   UNL A   1      30.808  27.230  23.552  1.00  0.00    -0.336 N 
ATOM      9  C   UNL A   1      31.086  25.888  23.488  1.00  0.00     0.252 C 
ATOM     10  O   UNL A   1      30.986  25.415  22.355  1.00  0.00    -0.269 OA
ATOM     11  H   UNL A   1      30.438  27.562  22.703  1.00  0.00     0.165 HD
BRANCH   9  12
ATOM     12  C   UNL A   1      31.410  25.004  24.669  1.00  0.00     0.051 A 
ATOM     13  C   UNL A   1      29.519  23.007  27.259  1.00  0.00     0.067 C 
ATOM     14  C   UNL A   1      30.634  23.590  26.446  1.00  0.00     0.039 A 
ATOM     15  C   UNL A   1      30.397  24.586  25.526  1.00  0.00     0.038 A 
ATOM     16  N   UNL A   1      31.863  23.114  26.671  1.00  0.00    -0.253 NA
ATOM     17  C   UNL A   1      32.911  23.626  26.003  1.00  0.00     0.074 A 
ATOM     18  C   UNL A   1      32.747  24.563  24.952  1.00  0.00     0.013 A 
ATOM     19  C   UNL A   1      34.193  23.209  26.405  1.00  0.00    -0.022 A 
ATOM     20  C   UNL A   1      33.932  25.002  24.304  1.00  0.00     0.011 A 
ATOM     21  C   UNL A   1      35.351  23.728  25.793  1.00  0.00    -0.046 A 
ATOM     22  C   UNL A   1      34.284  22.216  27.544  1.00  0.00     0.047 C 
ATOM     23  C   UNL A   1      35.202  24.606  24.724  1.00  0.00     0.004 A 
ATOM     24  C   UNL A   1      36.736  23.381  26.265  1.00  0.00     0.044 C 
ENDBRANCH   9  12
ENDBRANCH   7   8
BRANCH   7  25
ATOM     25  C   UNL A   1      32.329  28.327  25.068  1.00  0.00     0.027 A 
ATOM     26  C   UNL A   1      32.792  28.132  26.411  1.00  0.00     0.065 A 
ATOM     27  C   UNL A   1      33.495  28.601  24.359  1.00  0.00     0.038 A 
ATOM     28  C   UNL A   1      32.019  27.835  27.646  1.00  0.00     0.069 C 
ATOM     29  N   UNL A   1      34.117  28.286  26.509  1.00  0.00    -0.180 NA
ATOM     30  N   UNL A   1      34.513  28.573  25.270  1.00  0.00    -0.282 N 
ATOM     31  C   UNL A   1      33.771  28.915  22.937  1.00  0.00     0.066 C 
ATOM     32  H   UNL A   1      35.453  28.748  25.034  1.00  0.00     0.190 HD
ENDBRANCH   7  25
ENDBRANCH   4   7
ENDBRANCH   2   3
ENDBRANCH   1   2
BRANCH   1  33
ATOM     33  C   UNL A   1      32.386  32.837  27.155  1.00  0.00     0.118 C 
BRANCH  33  34
ATOM     34  N   UNL A   1      32.350  34.218  27.612  1.00  0.00    -0.352 N 
ATOM     35  C   UNL A   1      33.080  34.842  28.593  1.00  0.00     0.251 C 
ATOM     36  H   UNL A   1      31.704  34.795  27.144  1.00  0.00     0.163 HD
ATOM     37  O   UNL A   1      32.761  35.960  28.979  1.00  0.00    -0.269 OA
BRANCH  35  38
ATOM     38  C   UNL A   1      34.245  34.163  29.194  1.00  0.00     0.039 A 
ATOM     39  C   UNL A   1      34.031  33.215  30.199  1.00  0.00     0.014 A 
ATOM     40  C   UNL A   1      35.545  34.491  28.798  1.00  0.00     0.014 A 
ATOM     41  C   UNL A   1      35.120  32.558  30.772  1.00  0.00     0.010 A 
ATOM     42  C   UNL A   1      36.626  33.795  29.329  1.00  0.00     0.010 A 
ATOM     43  C   UNL A   1      36.423  32.831  30.326  1.00  0.00    -0.014 A 
BRANCH  43  44
ATOM     44  C   UNL A   1      37.590  32.139  30.919  1.00  0.00     0.031 A 
ATOM     45  C   UNL A   1      38.073  32.529  32.287  1.00  0.00     0.074 A 
ATOM     46  C   UNL A   1      38.238  31.194  30.213  1.00  0.00     0.049 A 
ATOM     47  N   UNL A   1      39.092  32.067  32.966  1.00  0.00    -0.248 NA
ATOM     48  C   UNL A   1      37.323  33.592  32.974  1.00  0.00     0.031 C 
ATOM     49  C   UNL A   1      37.877  30.755  28.865  1.00  0.00     0.029 A 
ATOM     50  N   UNL A   1      39.337  30.436  30.529  1.00  0.00    -0.354 N 
ATOM     51  C   UNL A   1      39.101  32.779  34.158  1.00  0.00     0.074 A 
ATOM     52  C   UNL A   1      38.026  33.744  34.086  1.00  0.00     0.031 C 
ATOM     53  C   UNL A   1      38.726  29.790  28.477  1.00  0.00     0.029 A 
ATOM     54  C   UNL A   1      39.706  29.563  29.536  1.00  0.00     0.049 A 
ATOM     55  H   UNL A   1      39.815  30.511  31.385  1.00  0.00     0.167 HD
ATOM     56  C   UNL A   1      39.914  32.619  35.227  1.00  0.00     0.037 A 
ATOM     57  C   UNL A   1      40.721  28.678  29.490  1.00  0.00     0.037 A 
ATOM     58  C   UNL A   1      40.972  31.647  35.300  1.00  0.00     0.049 A 
ATOM     59  C   UNL A   1      41.634  28.544  30.678  1.00  0.00     0.074 A 
ATOM     60  C   UNL A   1      41.821  31.374  36.357  1.00  0.00     0.029 A 
ATOM     61  N   UNL A   1      41.325  30.789  34.269  1.00  0.00    -0.354 N 
ATOM     62  N   UNL A   1      41.596  29.179  31.823  1.00  0.00    -0.248 NA
ATOM     63  C   UNL A   1      42.728  27.568  30.568  1.00  0.00     0.031 C 
ATOM     64  C   UNL A   1      42.716  30.381  35.952  1.00  0.00     0.029 A 
ATOM     65  C   UNL A   1      42.397  30.002  34.657  1.00  0.00     0.049 A 
ATOM     66  H   UNL A   1      40.881  30.746  33.391  1.00  0.00     0.167 HD
ATOM     67  C   UNL A   1      42.642  28.667  32.579  1.00  0.00     0.074 A 
ATOM     68  C   UNL A   1      43.291  27.659  31.766  1.00  0.00     0.031 C 
ATOM     69  C   UNL A   1      43.028  29.002  33.834  1.00  0.00     0.037 A 
BRANCH  56  70
ATOM     70  C   UNL A   1      39.681  33.505  36.414  1.00  0.00     0.064 A 
ATOM     71  C   UNL A   1      40.285  34.768  36.511  1.00  0.00     0.173 A 
ATOM     72  C   UNL A   1      38.815  33.110  37.444  1.00  0.00     0.173 A 
ATOM     73  F   UNL A   1      41.131  35.186  35.558  1.00  0.00    -0.203 F 
ATOM     74  C   UNL A   1      40.046  35.595  37.606  1.00  0.00     0.198 A 
ATOM     75  C   UNL A   1      38.558  33.950  38.524  1.00  0.00     0.198 A 
ATOM     76  F   UNL A   1      38.211  31.913  37.398  1.00  0.00    -0.203 F 
ATOM     77  F   UNL A   1      40.665  36.780  37.695  1.00  0.00    -0.200 F 
ATOM     78  C   UNL A   1      39.177  35.188  38.606  1.00  0.00     0.200 A 
ATOM     79  F   UNL A   1      37.710  33.562  39.486  1.00  0.00    -0.200 F 
ATOM     80  F   UNL A   1      38.940  35.989  39.655  1.00  0.00    -0.200 F 
ENDBRANCH  56  70
BRANCH  57  81
ATOM     81  C   UNL A   1      40.892  27.820  28.289  1.00  0.00     0.064 A 
ATOM     82  C   UNL A   1      41.676  28.249  27.210  1.00  0.00     0.173 A 
ATOM     83  C   UNL A   1      40.306  26.549  28.208  1.00  0.00     0.173 A 
ATOM     84  F   UNL A   1      42.242  29.464  27.236  1.00  0.00    -0.203 F 
ATOM     85  C   UNL A   1      41.861  27.442  26.090  1.00  0.00     0.198 A 
ATOM     86  C   UNL A   1      40.510  25.733  27.097  1.00  0.00     0.198 A 
ATOM     87  F   UNL A   1      39.553  26.090  29.219  1.00  0.00    -0.203 F 
ATOM     88  F   UNL A   1      42.593  27.887  25.060  1.00  0.00    -0.200 F 
ATOM     89  C   UNL A   1      41.284  26.181  26.037  1.00  0.00     0.200 A 
ATOM     90  F   UNL A   1      39.965  24.510  27.057  1.00  0.00    -0.200 F 
ATOM     91  F   UNL A   1      41.474  25.400  24.966  1.00  0.00    -0.200 F 
ENDBRANCH  57  81
BRANCH  69  92
ATOM     92  C   UNL A   1      44.199  28.271  34.420  1.00  0.00     0.064 A 
ATOM     93  C   UNL A   1      45.489  28.818  34.392  1.00  0.00     0.173 A 
ATOM     94  C   UNL A   1      44.013  27.053  35.093  1.00  0.00     0.173 A 
ATOM     95  F   UNL A   1      45.719  29.973  33.749  1.00  0.00    -0.203 F 
ATOM     96  C   UNL A   1      46.554  28.168  35.011  1.00  0.00     0.198 A 
ATOM     97  C   UNL A   1      45.074  26.420  35.733  1.00  0.00     0.198 A 
ATOM     98  F   UNL A   1      42.795  26.494  35.153  1.00  0.00    -0.203 F 
ATOM     99  F   UNL A   1      47.784  28.696  34.950  1.00  0.00    -0.200 F 
ATOM    100  C   UNL A   1      46.344  26.977  35.690  1.00  0.00     0.200 A 
ATOM    101  F   UNL A   1      44.865  25.278  36.402  1.00  0.00    -0.200 F 
ATOM    102  F   UNL A   1      47.366  26.365  36.303  1.00  0.00    -0.200 F 
ENDBRANCH  69  92
ENDBRANCH  43  44
ENDBRANCH  35  38
ENDBRANCH  33  34
ENDBRANCH   1  33
TORSDOF 13
ENDMDL
