MODEL 1
REMARK VINA RESULT:     -12.3      0.000      0.000
REMARK SMILES O=C(/C=C/c1ccccc1Oc1cccc(Cl)c1)NCCCNC(=O)c1ccc(-c2c3nc(c(-c4c(F)c(F)c(F)c(F)c4F)c4ccc([nH]4)c(-c4c(F)c(F)c(F)c(F)c4F)c4nc(c(-c5c(F)c(F)c(F)c(F)c5F)c5ccc2[nH]5)C=C4)C=C3)cc1
REMARK SMILES IDX 20 1 19 2 1 3 2 4 3 6 4 7 5 8 6 9 10 10 7 11 9 12 8 13 11 14
REMARK SMILES IDX 12 15 13 16 18 17 14 18 16 19 15 20 17 21 21 22 22 23 23 24
REMARK SMILES IDX 24 25 25 27 26 28 27 29 88 30 28 31 87 32 29 33 30 34 31 35
REMARK SMILES IDX 81 36 32 37 86 38 80 39 82 40 33 41 85 42 79 43 78 44 34 46
REMARK SMILES IDX 66 47 46 48 65 49 47 50 50 51 64 52 83 53 48 54 49 55 63 57
REMARK SMILES IDX 84 58 51 59 35 60 36 61 44 62 37 63 38 64 42 65 45 66 39 67
REMARK SMILES IDX 40 68 43 69 41 70 67 71 68 72 76 73 69 74 70 75 74 76 77 77
REMARK SMILES IDX 71 78 72 79 75 80 73 81 52 82 53 83 61 84 54 85 55 86 59 87
REMARK SMILES IDX 62 88 56 89 57 90 60 91 58 92
REMARK H PARENT 19 5 23 26 82 45 50 56
REMARK Flexibility Score: inf
ROOT
ATOM      1  C   UNL A   1      32.352  28.435  23.022  1.00  0.00     0.118 C 
ENDROOT
BRANCH   1   2
ATOM      2  N   UNL A   1      32.235  27.008  23.236  1.00  0.00    -0.352 N 
ATOM      3  O   UNL A   1      33.653  26.380  21.547  1.00  0.00    -0.270 OA
ATOM      4  C   UNL A   1      32.932  26.089  22.493  1.00  0.00     0.244 C 
ATOM      5  H   UNL A   1      31.632  26.685  23.944  1.00  0.00     0.163 HD
BRANCH   4   6
ATOM      6  C   UNL A   1      32.849  24.679  22.960  1.00  0.00     0.072 C 
ATOM      7  C   UNL A   1      33.444  24.203  24.064  1.00  0.00     0.017 C 
BRANCH   7   8
ATOM      8  C   UNL A   1      33.475  22.781  24.428  1.00  0.00     0.017 A 
ATOM      9  C   UNL A   1      32.257  22.273  24.921  1.00  0.00     0.012 A 
ATOM     10  C   UNL A   1      34.596  21.926  24.385  1.00  0.00     0.134 A 
ATOM     11  C   UNL A   1      32.138  20.950  25.350  1.00  0.00     0.001 A 
ATOM     12  C   UNL A   1      34.455  20.594  24.814  1.00  0.00     0.048 A 
ATOM     13  C   UNL A   1      33.239  20.107  25.297  1.00  0.00     0.004 A 
BRANCH  10  14
ATOM     14  O   UNL A   1      35.875  22.166  23.919  1.00  0.00    -0.457 OA
BRANCH  14  15
ATOM     15  C   UNL A   1      36.921  22.412  24.763  1.00  0.00     0.128 A 
ATOM     16  C   UNL A   1      37.007  23.703  25.295  1.00  0.00     0.047 A 
ATOM     17  C   UNL A   1      37.910  21.468  25.034  1.00  0.00     0.067 A 
ATOM     18  C   UNL A   1      38.037  24.029  26.176  1.00  0.00     0.005 A 
ATOM     19  C   UNL A   1      38.933  21.800  25.923  1.00  0.00     0.044 A 
ATOM     20  C   UNL A   1      38.996  23.070  26.501  1.00  0.00     0.021 A 
ATOM     21  Cl  UNL A   1      40.089  20.606  26.368  1.00  0.00    -0.084 Cl
ENDBRANCH  14  15
ENDBRANCH  10  14
ENDBRANCH   7   8
ENDBRANCH   4   6
ENDBRANCH   1   2
BRANCH   1  22
ATOM     22  C   UNL A   1      33.352  29.102  23.955  1.00  0.00     0.042 C 
BRANCH  22  23
ATOM     23  C   UNL A   1      32.943  29.090  25.423  1.00  0.00     0.118 C 
BRANCH  23  24
ATOM     24  N   UNL A   1      32.574  30.401  25.940  1.00  0.00    -0.352 N 
ATOM     25  C   UNL A   1      33.201  31.185  26.877  1.00  0.00     0.251 C 
ATOM     26  H   UNL A   1      31.750  30.784  25.558  1.00  0.00     0.163 HD
ATOM     27  O   UNL A   1      32.667  32.224  27.259  1.00  0.00    -0.269 OA
BRANCH  25  28
ATOM     28  C   UNL A   1      34.497  30.772  27.463  1.00  0.00     0.039 A 
ATOM     29  C   UNL A   1      35.471  31.749  27.683  1.00  0.00     0.014 A 
ATOM     30  C   UNL A   1      34.760  29.442  27.800  1.00  0.00     0.014 A 
ATOM     31  C   UNL A   1      36.673  31.405  28.306  1.00  0.00     0.010 A 
ATOM     32  C   UNL A   1      35.921  29.117  28.501  1.00  0.00     0.010 A 
ATOM     33  C   UNL A   1      36.891  30.094  28.764  1.00  0.00    -0.014 A 
BRANCH  33  34
ATOM     34  C   UNL A   1      38.112  29.756  29.542  1.00  0.00     0.031 A 
ATOM     35  C   UNL A   1      38.329  30.312  30.923  1.00  0.00     0.074 A 
ATOM     36  C   UNL A   1      39.053  28.970  28.982  1.00  0.00     0.049 A 
ATOM     37  N   UNL A   1      39.326  30.113  31.749  1.00  0.00    -0.248 NA
ATOM     38  C   UNL A   1      37.303  31.232  31.437  1.00  0.00     0.031 C 
ATOM     39  C   UNL A   1      38.998  28.422  27.625  1.00  0.00     0.029 A 
ATOM     40  N   UNL A   1      40.241  28.493  29.482  1.00  0.00    -0.354 N 
ATOM     41  C   UNL A   1      39.050  30.882  32.871  1.00  0.00     0.074 A 
ATOM     42  C   UNL A   1      37.825  31.603  32.597  1.00  0.00     0.031 C 
ATOM     43  C   UNL A   1      40.077  27.652  27.417  1.00  0.00     0.029 A 
ATOM     44  C   UNL A   1      40.922  27.683  28.606  1.00  0.00     0.049 A 
ATOM     45  H   UNL A   1      40.573  28.712  30.382  1.00  0.00     0.167 HD
ATOM     46  C   UNL A   1      39.740  30.962  34.035  1.00  0.00     0.037 A 
ATOM     47  C   UNL A   1      42.093  27.035  28.745  1.00  0.00     0.037 A 
ATOM     48  C   UNL A   1      40.955  30.238  34.309  1.00  0.00     0.049 A 
ATOM     49  C   UNL A   1      42.839  27.141  30.048  1.00  0.00     0.074 A 
ATOM     50  C   UNL A   1      41.700  30.210  35.476  1.00  0.00     0.029 A 
ATOM     51  N   UNL A   1      41.610  29.419  33.401  1.00  0.00    -0.354 N 
ATOM     52  N   UNL A   1      42.525  27.807  31.133  1.00  0.00    -0.248 NA
ATOM     53  C   UNL A   1      44.097  26.391  30.149  1.00  0.00     0.031 C 
ATOM     54  C   UNL A   1      42.835  29.422  35.255  1.00  0.00     0.029 A 
ATOM     55  C   UNL A   1      42.763  28.901  33.974  1.00  0.00     0.049 A 
ATOM     56  H   UNL A   1      41.302  29.232  32.485  1.00  0.00     0.167 HD
ATOM     57  C   UNL A   1      43.527  27.531  32.053  1.00  0.00     0.074 A 
ATOM     58  C   UNL A   1      44.446  26.619  31.406  1.00  0.00     0.031 C 
ATOM     59  C   UNL A   1      43.672  27.993  33.320  1.00  0.00     0.037 A 
BRANCH  46  60
ATOM     60  C   UNL A   1      39.196  31.867  35.106  1.00  0.00     0.064 A 
ATOM     61  C   UNL A   1      38.397  31.376  36.151  1.00  0.00     0.173 A 
ATOM     62  C   UNL A   1      39.510  33.235  35.112  1.00  0.00     0.173 A 
ATOM     63  F   UNL A   1      38.057  30.079  36.189  1.00  0.00    -0.203 F 
ATOM     64  C   UNL A   1      37.907  32.224  37.141  1.00  0.00     0.198 A 
ATOM     65  C   UNL A   1      39.049  34.073  36.125  1.00  0.00     0.198 A 
ATOM     66  F   UNL A   1      40.275  33.758  34.144  1.00  0.00    -0.203 F 
ATOM     67  F   UNL A   1      37.103  31.740  38.097  1.00  0.00    -0.200 F 
ATOM     68  C   UNL A   1      38.240  33.569  37.132  1.00  0.00     0.200 A 
ATOM     69  F   UNL A   1      39.385  35.371  36.122  1.00  0.00    -0.200 F 
ATOM     70  F   UNL A   1      37.778  34.383  38.092  1.00  0.00    -0.200 F 
ENDBRANCH  46  60
BRANCH  47  71
ATOM     71  C   UNL A   1      42.620  26.202  27.632  1.00  0.00     0.064 A 
ATOM     72  C   UNL A   1      42.236  24.860  27.489  1.00  0.00     0.173 A 
ATOM     73  C   UNL A   1      43.526  26.721  26.695  1.00  0.00     0.173 A 
ATOM     74  F   UNL A   1      41.387  24.310  28.370  1.00  0.00    -0.203 F 
ATOM     75  C   UNL A   1      42.757  24.065  26.471  1.00  0.00     0.198 A 
ATOM     76  C   UNL A   1      44.020  25.935  25.657  1.00  0.00     0.198 A 
ATOM     77  F   UNL A   1      43.922  28.000  26.783  1.00  0.00    -0.203 F 
ATOM     78  F   UNL A   1      42.414  22.772  26.393  1.00  0.00    -0.200 F 
ATOM     79  C   UNL A   1      43.644  24.605  25.552  1.00  0.00     0.200 A 
ATOM     80  F   UNL A   1      44.864  26.464  24.762  1.00  0.00    -0.200 F 
ATOM     81  F   UNL A   1      44.143  23.840  24.571  1.00  0.00    -0.200 F 
ENDBRANCH  47  71
BRANCH  59  82
ATOM     82  C   UNL A   1      44.851  27.483  34.103  1.00  0.00     0.064 A 
ATOM     83  C   UNL A   1      44.787  26.302  34.858  1.00  0.00     0.173 A 
ATOM     84  C   UNL A   1      46.064  28.190  34.097  1.00  0.00     0.173 A 
ATOM     85  F   UNL A   1      43.648  25.595  34.910  1.00  0.00    -0.203 F 
ATOM     86  C   UNL A   1      45.875  25.875  35.614  1.00  0.00     0.198 A 
ATOM     87  C   UNL A   1      47.163  27.738  34.822  1.00  0.00     0.198 A 
ATOM     88  F   UNL A   1      46.186  29.319  33.383  1.00  0.00    -0.203 F 
ATOM     89  F   UNL A   1      45.765  24.784  36.386  1.00  0.00    -0.200 F 
ATOM     90  C   UNL A   1      47.063  26.590  35.592  1.00  0.00     0.200 A 
ATOM     91  F   UNL A   1      48.316  28.421  34.784  1.00  0.00    -0.200 F 
ATOM     92  F   UNL A   1      48.109  26.179  36.322  1.00  0.00    -0.200 F 
ENDBRANCH  59  82
ENDBRANCH  33  34
ENDBRANCH  25  28
ENDBRANCH  23  24
ENDBRANCH  22  23
ENDBRANCH   1  22
TORSDOF 13
ENDMDL
MODEL 2
REMARK VINA RESULT:     -12.3      1.482      3.113
REMARK SMILES O=C(/C=C/c1ccccc1Oc1cccc(Cl)c1)NCCCNC(=O)c1ccc(-c2c3nc(c(-c4c(F)c(F)c(F)c(F)c4F)c4ccc([nH]4)c(-c4c(F)c(F)c(F)c(F)c4F)c4nc(c(-c5c(F)c(F)c(F)c(F)c5F)c5ccc2[nH]5)C=C4)C=C3)cc1
REMARK SMILES IDX 20 1 19 2 1 3 2 4 3 6 4 7 5 8 6 9 10 10 7 11 9 12 8 13 11 14
REMARK SMILES IDX 12 15 13 16 18 17 14 18 16 19 15 20 17 21 21 22 22 23 23 24
REMARK SMILES IDX 24 25 25 27 26 28 27 29 88 30 28 31 87 32 29 33 30 34 31 35
REMARK SMILES IDX 81 36 32 37 86 38 80 39 82 40 33 41 85 42 79 43 78 44 34 46
REMARK SMILES IDX 66 47 46 48 65 49 47 50 50 51 64 52 83 53 48 54 49 55 63 57
REMARK SMILES IDX 84 58 51 59 35 60 36 61 44 62 37 63 38 64 42 65 45 66 39 67
REMARK SMILES IDX 40 68 43 69 41 70 67 71 68 72 76 73 69 74 70 75 74 76 77 77
REMARK SMILES IDX 71 78 72 79 75 80 73 81 52 82 53 83 61 84 54 85 55 86 59 87
REMARK SMILES IDX 62 88 56 89 57 90 60 91 58 92
REMARK H PARENT 19 5 23 26 82 45 50 56
REMARK Flexibility Score: inf
ROOT
ATOM      1  C   UNL A   1      31.298  27.917  25.165  1.00  0.00     0.118 C 
ENDROOT
BRANCH   1   2
ATOM      2  N   UNL A   1      32.498  27.114  25.262  1.00  0.00    -0.352 N 
ATOM      3  O   UNL A   1      31.706  25.662  26.851  1.00  0.00    -0.270 OA
ATOM      4  C   UNL A   1      32.591  26.019  26.084  1.00  0.00     0.244 C 
ATOM      5  H   UNL A   1      33.279  27.364  24.718  1.00  0.00     0.163 HD
BRANCH   4   6
ATOM      6  C   UNL A   1      33.819  25.193  25.928  1.00  0.00     0.072 C 
ATOM      7  C   UNL A   1      33.856  23.980  25.356  1.00  0.00     0.017 C 
BRANCH   7   8
ATOM      8  C   UNL A   1      35.045  23.118  25.345  1.00  0.00     0.017 A 
ATOM      9  C   UNL A   1      36.263  23.797  25.144  1.00  0.00     0.012 A 
ATOM     10  C   UNL A   1      35.065  21.712  25.454  1.00  0.00     0.134 A 
ATOM     11  C   UNL A   1      37.477  23.112  25.066  1.00  0.00     0.001 A 
ATOM     12  C   UNL A   1      36.298  21.039  25.380  1.00  0.00     0.048 A 
ATOM     13  C   UNL A   1      37.495  21.729  25.184  1.00  0.00     0.004 A 
BRANCH  10  14
ATOM     14  O   UNL A   1      34.029  20.828  25.686  1.00  0.00    -0.457 OA
BRANCH  14  15
ATOM     15  C   UNL A   1      33.570  19.977  24.720  1.00  0.00     0.128 A 
ATOM     16  C   UNL A   1      32.654  20.506  23.803  1.00  0.00     0.047 A 
ATOM     17  C   UNL A   1      33.916  18.628  24.675  1.00  0.00     0.067 A 
ATOM     18  C   UNL A   1      32.151  19.706  22.778  1.00  0.00     0.005 A 
ATOM     19  C   UNL A   1      33.414  17.837  23.641  1.00  0.00     0.044 A 
ATOM     20  C   UNL A   1      32.542  18.371  22.690  1.00  0.00     0.021 A 
ATOM     21  Cl  UNL A   1      33.932  16.203  23.496  1.00  0.00    -0.084 Cl
ENDBRANCH  14  15
ENDBRANCH  10  14
ENDBRANCH   7   8
ENDBRANCH   4   6
ENDBRANCH   1   2
BRANCH   1  22
ATOM     22  C   UNL A   1      31.581  29.408  25.045  1.00  0.00     0.042 C 
BRANCH  22  23
ATOM     23  C   UNL A   1      32.693  29.909  25.959  1.00  0.00     0.118 C 
BRANCH  23  24
ATOM     24  N   UNL A   1      32.507  31.282  26.409  1.00  0.00    -0.352 N 
ATOM     25  C   UNL A   1      33.260  32.031  27.281  1.00  0.00     0.251 C 
ATOM     26  H   UNL A   1      31.723  31.743  26.030  1.00  0.00     0.163 HD
ATOM     27  O   UNL A   1      32.870  33.148  27.618  1.00  0.00    -0.269 OA
BRANCH  25  28
ATOM     28  C   UNL A   1      34.515  31.492  27.852  1.00  0.00     0.039 A 
ATOM     29  C   UNL A   1      35.585  32.368  28.054  1.00  0.00     0.014 A 
ATOM     30  C   UNL A   1      34.648  30.143  28.191  1.00  0.00     0.014 A 
ATOM     31  C   UNL A   1      36.755  31.906  28.663  1.00  0.00     0.010 A 
ATOM     32  C   UNL A   1      35.781  29.705  28.877  1.00  0.00     0.010 A 
ATOM     33  C   UNL A   1      36.847  30.581  29.123  1.00  0.00    -0.014 A 
BRANCH  33  34
ATOM     34  C   UNL A   1      38.039  30.125  29.886  1.00  0.00     0.031 A 
ATOM     35  C   UNL A   1      38.282  30.594  31.294  1.00  0.00     0.074 A 
ATOM     36  C   UNL A   1      38.930  29.309  29.290  1.00  0.00     0.049 A 
ATOM     37  N   UNL A   1      39.259  30.289  32.112  1.00  0.00    -0.248 NA
ATOM     38  C   UNL A   1      37.316  31.552  31.852  1.00  0.00     0.031 C 
ATOM     39  C   UNL A   1      38.848  28.835  27.906  1.00  0.00     0.029 A 
ATOM     40  N   UNL A   1      40.081  28.731  29.768  1.00  0.00    -0.354 N 
ATOM     41  C   UNL A   1      39.027  31.016  33.271  1.00  0.00     0.074 A 
ATOM     42  C   UNL A   1      37.853  31.828  33.031  1.00  0.00     0.031 C 
ATOM     43  C   UNL A   1      39.876  28.009  27.661  1.00  0.00     0.029 A 
ATOM     44  C   UNL A   1      40.713  27.924  28.853  1.00  0.00     0.049 A 
ATOM     45  H   UNL A   1      40.421  28.881  30.679  1.00  0.00     0.167 HD
ATOM     46  C   UNL A   1      39.714  30.991  34.440  1.00  0.00     0.037 A 
ATOM     47  C   UNL A   1      41.840  27.195  28.962  1.00  0.00     0.037 A 
ATOM     48  C   UNL A   1      40.877  30.176  34.680  1.00  0.00     0.049 A 
ATOM     49  C   UNL A   1      42.583  27.184  30.271  1.00  0.00     0.074 A 
ATOM     50  C   UNL A   1      41.612  30.040  35.846  1.00  0.00     0.029 A 
ATOM     51  N   UNL A   1      41.484  29.363  33.733  1.00  0.00    -0.354 N 
ATOM     52  N   UNL A   1      42.305  27.813  31.387  1.00  0.00    -0.248 NA
ATOM     53  C   UNL A   1      43.789  26.350  30.337  1.00  0.00     0.031 C 
ATOM     54  C   UNL A   1      42.694  29.192  35.588  1.00  0.00     0.029 A 
ATOM     55  C   UNL A   1      42.596  28.743  34.282  1.00  0.00     0.049 A 
ATOM     56  H   UNL A   1      41.169  29.244  32.807  1.00  0.00     0.167 HD
ATOM     57  C   UNL A   1      43.282  27.426  32.295  1.00  0.00     0.074 A 
ATOM     58  C   UNL A   1      44.144  26.490  31.605  1.00  0.00     0.031 C 
ATOM     59  C   UNL A   1      43.449  27.812  33.585  1.00  0.00     0.037 A 
BRANCH  46  60
ATOM     60  C   UNL A   1      39.223  31.873  35.554  1.00  0.00     0.064 A 
ATOM     61  C   UNL A   1      39.569  33.233  35.626  1.00  0.00     0.173 A 
ATOM     62  C   UNL A   1      38.364  31.366  36.541  1.00  0.00     0.173 A 
ATOM     63  F   UNL A   1      40.396  33.768  34.716  1.00  0.00    -0.203 F 
ATOM     64  C   UNL A   1      39.100  34.040  36.660  1.00  0.00     0.198 A 
ATOM     65  C   UNL A   1      37.867  32.186  37.553  1.00  0.00     0.198 A 
ATOM     66  F   UNL A   1      37.994  30.078  36.520  1.00  0.00    -0.203 F 
ATOM     67  F   UNL A   1      39.488  35.321  36.735  1.00  0.00    -0.200 F 
ATOM     68  C   UNL A   1      38.243  33.519  37.616  1.00  0.00     0.200 A 
ATOM     69  F   UNL A   1      37.026  31.683  38.468  1.00  0.00    -0.200 F 
ATOM     70  F   UNL A   1      37.783  34.300  38.604  1.00  0.00    -0.200 F 
ENDBRANCH  46  60
BRANCH  47  71
ATOM     71  C   UNL A   1      42.318  26.386  27.809  1.00  0.00     0.064 A 
ATOM     72  C   UNL A   1      43.296  26.884  26.934  1.00  0.00     0.173 A 
ATOM     73  C   UNL A   1      41.803  25.108  27.549  1.00  0.00     0.173 A 
ATOM     74  F   UNL A   1      43.807  28.109  27.128  1.00  0.00    -0.203 F 
ATOM     75  C   UNL A   1      43.718  26.146  25.831  1.00  0.00     0.198 A 
ATOM     76  C   UNL A   1      42.251  24.358  26.464  1.00  0.00     0.198 A 
ATOM     77  F   UNL A   1      40.870  24.583  28.357  1.00  0.00    -0.203 F 
ATOM     78  F   UNL A   1      44.613  26.670  24.981  1.00  0.00    -0.200 F 
ATOM     79  C   UNL A   1      43.200  24.881  25.600  1.00  0.00     0.200 A 
ATOM     80  F   UNL A   1      41.760  23.129  26.254  1.00  0.00    -0.200 F 
ATOM     81  F   UNL A   1      43.609  24.171  24.539  1.00  0.00    -0.200 F 
ENDBRANCH  47  71
BRANCH  59  82
ATOM     82  C   UNL A   1      44.587  27.187  34.344  1.00  0.00     0.064 A 
ATOM     83  C   UNL A   1      45.858  27.777  34.397  1.00  0.00     0.173 A 
ATOM     84  C   UNL A   1      44.400  25.976  35.030  1.00  0.00     0.173 A 
ATOM     85  F   UNL A   1      46.096  28.928  33.749  1.00  0.00    -0.203 F 
ATOM     86  C   UNL A   1      46.910  27.156  35.065  1.00  0.00     0.198 A 
ATOM     87  C   UNL A   1      45.443  25.378  35.731  1.00  0.00     0.198 A 
ATOM     88  F   UNL A   1      43.201  25.372  35.023  1.00  0.00    -0.203 F 
ATOM     89  F   UNL A   1      48.134  27.702  35.039  1.00  0.00    -0.200 F 
ATOM     90  C   UNL A   1      46.700  25.960  35.735  1.00  0.00     0.200 A 
ATOM     91  F   UNL A   1      45.233  24.231  36.393  1.00  0.00    -0.200 F 
ATOM     92  F   UNL A   1      47.714  25.362  36.376  1.00  0.00    -0.200 F 
ENDBRANCH  59  82
ENDBRANCH  33  34
ENDBRANCH  25  28
ENDBRANCH  23  24
ENDBRANCH  22  23
ENDBRANCH   1  22
TORSDOF 13
ENDMDL
MODEL 3
REMARK VINA RESULT:     -12.3      1.748      2.759
REMARK SMILES O=C(/C=C/c1ccccc1Oc1cccc(Cl)c1)NCCCNC(=O)c1ccc(-c2c3nc(c(-c4c(F)c(F)c(F)c(F)c4F)c4ccc([nH]4)c(-c4c(F)c(F)c(F)c(F)c4F)c4nc(c(-c5c(F)c(F)c(F)c(F)c5F)c5ccc2[nH]5)C=C4)C=C3)cc1
REMARK SMILES IDX 20 1 19 2 1 3 2 4 3 6 4 7 5 8 6 9 10 10 7 11 9 12 8 13 11 14
REMARK SMILES IDX 12 15 13 16 18 17 14 18 16 19 15 20 17 21 21 22 22 23 23 24
REMARK SMILES IDX 24 25 25 27 26 28 27 29 88 30 28 31 87 32 29 33 30 34 31 35
REMARK SMILES IDX 81 36 32 37 86 38 80 39 82 40 33 41 85 42 79 43 78 44 34 46
REMARK SMILES IDX 66 47 46 48 65 49 47 50 50 51 64 52 83 53 48 54 49 55 63 57
REMARK SMILES IDX 84 58 51 59 35 60 36 61 44 62 37 63 38 64 42 65 45 66 39 67
REMARK SMILES IDX 40 68 43 69 41 70 67 71 68 72 76 73 69 74 70 75 74 76 77 77
REMARK SMILES IDX 71 78 72 79 75 80 73 81 52 82 53 83 61 84 54 85 55 86 59 87
REMARK SMILES IDX 62 88 56 89 57 90 60 91 58 92
REMARK H PARENT 19 5 23 26 82 45 50 56
REMARK Flexibility Score: inf
ROOT
ATOM      1  C   UNL A   1      31.439  28.118  25.772  1.00  0.00     0.118 C 
ENDROOT
BRANCH   1   2
ATOM      2  N   UNL A   1      32.458  27.090  25.746  1.00  0.00    -0.352 N 
ATOM      3  O   UNL A   1      31.285  25.538  26.962  1.00  0.00    -0.270 OA
ATOM      4  C   UNL A   1      32.280  25.857  26.322  1.00  0.00     0.244 C 
ATOM      5  H   UNL A   1      33.312  27.284  25.298  1.00  0.00     0.163 HD
BRANCH   4   6
ATOM      6  C   UNL A   1      33.342  24.852  26.045  1.00  0.00     0.072 C 
ATOM      7  C   UNL A   1      34.493  25.113  25.409  1.00  0.00     0.017 C 
BRANCH   7   8
ATOM      8  C   UNL A   1      35.461  24.082  25.013  1.00  0.00     0.017 A 
ATOM      9  C   UNL A   1      36.425  23.772  25.993  1.00  0.00     0.012 A 
ATOM     10  C   UNL A   1      35.542  23.442  23.759  1.00  0.00     0.134 A 
ATOM     11  C   UNL A   1      37.438  22.842  25.752  1.00  0.00     0.001 A 
ATOM     12  C   UNL A   1      36.565  22.503  23.537  1.00  0.00     0.048 A 
ATOM     13  C   UNL A   1      37.509  22.206  24.520  1.00  0.00     0.004 A 
BRANCH  10  14
ATOM     14  O   UNL A   1      34.711  23.542  22.659  1.00  0.00    -0.457 OA
BRANCH  14  15
ATOM     15  C   UNL A   1      33.401  23.917  22.771  1.00  0.00     0.128 A 
ATOM     16  C   UNL A   1      32.503  22.936  23.205  1.00  0.00     0.047 A 
ATOM     17  C   UNL A   1      32.943  25.180  22.401  1.00  0.00     0.067 A 
ATOM     18  C   UNL A   1      31.152  23.244  23.359  1.00  0.00     0.005 A 
ATOM     19  C   UNL A   1      31.591  25.482  22.565  1.00  0.00     0.044 A 
ATOM     20  C   UNL A   1      30.697  24.525  23.050  1.00  0.00     0.021 A 
ATOM     21  Cl  UNL A   1      31.032  27.076  22.235  1.00  0.00    -0.084 Cl
ENDBRANCH  14  15
ENDBRANCH  10  14
ENDBRANCH   7   8
ENDBRANCH   4   6
ENDBRANCH   1   2
BRANCH   1  22
ATOM     22  C   UNL A   1      31.783  29.280  26.693  1.00  0.00     0.042 C 
BRANCH  22  23
ATOM     23  C   UNL A   1      32.843  30.225  26.139  1.00  0.00     0.118 C 
BRANCH  23  24
ATOM     24  N   UNL A   1      32.702  31.599  26.603  1.00  0.00    -0.352 N 
ATOM     25  C   UNL A   1      33.492  32.320  27.465  1.00  0.00     0.251 C 
ATOM     26  H   UNL A   1      31.923  32.084  26.244  1.00  0.00     0.163 HD
ATOM     27  O   UNL A   1      33.140  33.444  27.818  1.00  0.00    -0.269 OA
BRANCH  25  28
ATOM     28  C   UNL A   1      34.744  31.744  28.006  1.00  0.00     0.039 A 
ATOM     29  C   UNL A   1      35.862  32.573  28.126  1.00  0.00     0.014 A 
ATOM     30  C   UNL A   1      34.827  30.405  28.398  1.00  0.00     0.014 A 
ATOM     31  C   UNL A   1      37.034  32.079  28.705  1.00  0.00     0.010 A 
ATOM     32  C   UNL A   1      35.966  29.940  29.055  1.00  0.00     0.010 A 
ATOM     33  C   UNL A   1      37.082  30.772  29.218  1.00  0.00    -0.014 A 
BRANCH  33  34
ATOM     34  C   UNL A   1      38.283  30.289  29.950  1.00  0.00     0.031 A 
ATOM     35  C   UNL A   1      38.559  30.731  31.361  1.00  0.00     0.074 A 
ATOM     36  C   UNL A   1      39.153  29.472  29.323  1.00  0.00     0.049 A 
ATOM     37  N   UNL A   1      39.548  30.400  32.154  1.00  0.00    -0.248 NA
ATOM     38  C   UNL A   1      37.615  31.691  31.953  1.00  0.00     0.031 C 
ATOM     39  C   UNL A   1      39.039  29.023  27.934  1.00  0.00     0.029 A 
ATOM     40  N   UNL A   1      40.306  28.873  29.769  1.00  0.00    -0.354 N 
ATOM     41  C   UNL A   1      39.346  31.110  33.330  1.00  0.00     0.074 A 
ATOM     42  C   UNL A   1      38.178  31.940  33.126  1.00  0.00     0.031 C 
ATOM     43  C   UNL A   1      40.051  28.189  27.655  1.00  0.00     0.029 A 
ATOM     44  C   UNL A   1      40.911  28.074  28.829  1.00  0.00     0.049 A 
ATOM     45  H   UNL A   1      40.665  29.004  30.676  1.00  0.00     0.167 HD
ATOM     46  C   UNL A   1      40.055  31.058  34.485  1.00  0.00     0.037 A 
ATOM     47  C   UNL A   1      42.030  27.330  28.904  1.00  0.00     0.037 A 
ATOM     48  C   UNL A   1      41.213  30.225  34.688  1.00  0.00     0.049 A 
ATOM     49  C   UNL A   1      42.798  27.289  30.198  1.00  0.00     0.074 A 
ATOM     50  C   UNL A   1      41.968  30.061  35.838  1.00  0.00     0.029 A 
ATOM     51  N   UNL A   1      41.791  29.422  33.716  1.00  0.00    -0.354 N 
ATOM     52  N   UNL A   1      42.550  27.902  31.330  1.00  0.00    -0.248 NA
ATOM     53  C   UNL A   1      43.995  26.440  30.226  1.00  0.00     0.031 C 
ATOM     54  C   UNL A   1      43.035  29.205  35.545  1.00  0.00     0.029 A 
ATOM     55  C   UNL A   1      42.907  28.779  34.233  1.00  0.00     0.049 A 
ATOM     56  H   UNL A   1      41.458  29.322  32.795  1.00  0.00     0.167 HD
ATOM     57  C   UNL A   1      43.538  27.488  32.212  1.00  0.00     0.074 A 
ATOM     58  C   UNL A   1      44.376  26.554  31.490  1.00  0.00     0.031 C 
ATOM     59  C   UNL A   1      43.735  27.850  33.504  1.00  0.00     0.037 A 
BRANCH  46  60
ATOM     60  C   UNL A   1      39.597  31.927  35.623  1.00  0.00     0.064 A 
ATOM     61  C   UNL A   1      38.607  31.501  36.525  1.00  0.00     0.173 A 
ATOM     62  C   UNL A   1      40.181  33.184  35.842  1.00  0.00     0.173 A 
ATOM     63  F   UNL A   1      38.008  30.313  36.357  1.00  0.00    -0.203 F 
ATOM     64  C   UNL A   1      38.199  32.313  37.580  1.00  0.00     0.198 A 
ATOM     65  C   UNL A   1      39.795  33.978  36.920  1.00  0.00     0.198 A 
ATOM     66  F   UNL A   1      41.135  33.640  35.018  1.00  0.00    -0.203 F 
ATOM     67  F   UNL A   1      37.215  31.905  38.394  1.00  0.00    -0.200 F 
ATOM     68  C   UNL A   1      38.798  33.546  37.781  1.00  0.00     0.200 A 
ATOM     69  F   UNL A   1      40.387  35.163  37.122  1.00  0.00    -0.200 F 
ATOM     70  F   UNL A   1      38.412  34.322  38.804  1.00  0.00    -0.200 F 
ENDBRANCH  46  60
BRANCH  47  71
ATOM     71  C   UNL A   1      42.477  26.536  27.728  1.00  0.00     0.064 A 
ATOM     72  C   UNL A   1      41.954  25.259  27.479  1.00  0.00     0.173 A 
ATOM     73  C   UNL A   1      43.441  27.029  26.837  1.00  0.00     0.173 A 
ATOM     74  F   UNL A   1      41.043  24.733  28.312  1.00  0.00    -0.203 F 
ATOM     75  C   UNL A   1      42.398  24.496  26.401  1.00  0.00     0.198 A 
ATOM     76  C   UNL A   1      43.859  26.279  25.740  1.00  0.00     0.198 A 
ATOM     77  F   UNL A   1      43.969  28.248  27.027  1.00  0.00    -0.203 F 
ATOM     78  F   UNL A   1      41.922  23.256  26.220  1.00  0.00    -0.200 F 
ATOM     79  C   UNL A   1      43.346  25.009  25.529  1.00  0.00     0.200 A 
ATOM     80  F   UNL A   1      44.763  26.786  24.891  1.00  0.00    -0.200 F 
ATOM     81  F   UNL A   1      43.771  24.275  24.491  1.00  0.00    -0.200 F 
ENDBRANCH  47  71
BRANCH  59  82
ATOM     82  C   UNL A   1      44.880  27.199  34.231  1.00  0.00     0.064 A 
ATOM     83  C   UNL A   1      44.732  25.982  34.912  1.00  0.00     0.173 A 
ATOM     84  C   UNL A   1      46.146  27.805  34.244  1.00  0.00     0.173 A 
ATOM     85  F   UNL A   1      43.540  25.366  34.943  1.00  0.00    -0.203 F 
ATOM     86  C   UNL A   1      45.793  25.422  35.619  1.00  0.00     0.198 A 
ATOM     87  C   UNL A   1      47.216  27.222  34.918  1.00  0.00     0.198 A 
ATOM     88  F   UNL A   1      46.349  28.965  33.599  1.00  0.00    -0.203 F 
ATOM     89  F   UNL A   1      45.606  24.296  36.324  1.00  0.00    -0.200 F 
ATOM     90  C   UNL A   1      47.034  26.039  35.617  1.00  0.00     0.200 A 
ATOM     91  F   UNL A   1      48.419  27.812  34.900  1.00  0.00    -0.200 F 
ATOM     92  F   UNL A   1      48.054  25.500  36.299  1.00  0.00    -0.200 F 
ENDBRANCH  59  82
ENDBRANCH  33  34
ENDBRANCH  25  28
ENDBRANCH  23  24
ENDBRANCH  22  23
ENDBRANCH   1  22
TORSDOF 13
ENDMDL
