MODEL 1
REMARK VINA RESULT:     -12.3      0.000      0.000
REMARK SMILES C[C@@H](Sc1nc2ccccc2c(=O)n1N)C(=O)NCCCNC(=O)c1ccc(-c2c3nc(c(-c4c(F)c(F)c(F)c(F)c4F)c4ccc([nH]4)c(-c4c(F)c(F)c(F)c(F)c4F)c4nc(c(-c5c(F)c(F)c(F)c(F)c5F)c5ccc2[nH]5)C=C4)C=C3)cc1
REMARK SMILES IDX 19 1 18 2 16 3 17 4 2 6 1 7 3 8 4 9 5 10 14 11 6 12 12 13
REMARK SMILES IDX 7 14 11 15 13 16 8 17 10 18 9 19 15 20 20 23 21 24 22 25
REMARK SMILES IDX 23 26 24 28 25 29 26 30 87 31 27 32 86 33 28 34 29 35 30 36
REMARK SMILES IDX 80 37 31 38 85 39 79 40 81 41 32 42 84 43 78 44 77 45 33 47
REMARK SMILES IDX 65 48 45 49 64 50 46 51 49 52 63 53 82 54 47 55 48 56 62 58
REMARK SMILES IDX 83 59 50 60 34 61 35 62 43 63 36 64 37 65 41 66 44 67 38 68
REMARK SMILES IDX 39 69 42 70 40 71 66 72 67 73 75 74 68 75 69 76 73 77 76 78
REMARK SMILES IDX 70 79 71 80 74 81 72 82 51 83 52 84 60 85 53 86 54 87 58 88
REMARK SMILES IDX 61 89 55 90 56 91 59 92 57 93
REMARK H PARENT 18 5 15 21 15 22 22 27 81 46 49 57
REMARK Flexibility Score: inf
ROOT
ATOM      1  C   UNL A   1      31.455  30.749  26.231  1.00  0.00     0.117 C 
ENDROOT
BRANCH   1   2
ATOM      2  N   UNL A   1      32.778  30.248  26.566  1.00  0.00    -0.355 N 
ATOM      3  C   UNL A   1      33.533  29.273  25.985  1.00  0.00     0.233 C 
ATOM      4  O   UNL A   1      34.640  29.046  26.484  1.00  0.00    -0.274 OA
ATOM      5  H   UNL A   1      33.199  30.685  27.342  1.00  0.00     0.163 HD
BRANCH   3   6
ATOM      6  C   UNL A   1      33.043  28.479  24.770  1.00  0.00     0.141 C 
ATOM      7  C   UNL A   1      34.103  28.395  23.679  1.00  0.00     0.030 C 
BRANCH   6   8
ATOM      8  S   UNL A   1      32.344  26.897  25.368  1.00  0.00    -0.073 SA
BRANCH   8   9
ATOM      9  C   UNL A   1      33.472  25.740  24.713  1.00  0.00     0.191 A 
ATOM     10  N   UNL A   1      34.485  25.419  25.451  1.00  0.00    -0.222 NA
ATOM     11  N   UNL A   1      33.186  25.161  23.483  1.00  0.00    -0.202 N 
ATOM     12  C   UNL A   1      35.332  24.397  24.996  1.00  0.00     0.079 A 
ATOM     13  C   UNL A   1      33.966  24.127  22.967  1.00  0.00     0.280 A 
ATOM     14  C   UNL A   1      36.406  24.007  25.799  1.00  0.00     0.029 A 
ATOM     15  C   UNL A   1      35.116  23.720  23.793  1.00  0.00     0.068 A 
ATOM     16  O   UNL A   1      33.716  23.553  21.907  1.00  0.00    -0.267 OA
ATOM     17  C   UNL A   1      37.242  22.955  25.411  1.00  0.00     0.002 A 
ATOM     18  C   UNL A   1      35.948  22.668  23.394  1.00  0.00     0.016 A 
ATOM     19  C   UNL A   1      37.012  22.284  24.210  1.00  0.00     0.001 A 
BRANCH  11  20
ATOM     20  N   UNL A   1      32.067  25.582  22.692  1.00  0.00    -0.334 N 
ATOM     21  H   UNL A   1      32.166  26.327  22.057  1.00  0.00     0.178 HD
ATOM     22  H   UNL A   1      31.200  25.126  22.785  1.00  0.00     0.178 HD
ENDBRANCH  11  20
ENDBRANCH   8   9
ENDBRANCH   6   8
ENDBRANCH   3   6
ENDBRANCH   1   2
BRANCH   1  23
ATOM     23  C   UNL A   1      31.337  32.239  26.508  1.00  0.00     0.042 C 
BRANCH  23  24
ATOM     24  C   UNL A   1      32.499  32.795  27.319  1.00  0.00     0.118 C 
BRANCH  24  25
ATOM     25  N   UNL A   1      32.339  34.211  27.626  1.00  0.00    -0.352 N 
ATOM     26  C   UNL A   1      32.977  34.983  28.563  1.00  0.00     0.251 C 
ATOM     27  H   UNL A   1      31.674  34.684  27.077  1.00  0.00     0.163 HD
ATOM     28  O   UNL A   1      32.566  36.116  28.810  1.00  0.00    -0.269 OA
BRANCH  26  29
ATOM     29  C   UNL A   1      34.146  34.451  29.291  1.00  0.00     0.039 A 
ATOM     30  C   UNL A   1      33.953  33.837  30.531  1.00  0.00     0.014 A 
ATOM     31  C   UNL A   1      35.432  34.567  28.758  1.00  0.00     0.014 A 
ATOM     32  C   UNL A   1      35.042  33.282  31.205  1.00  0.00     0.010 A 
ATOM     33  C   UNL A   1      36.499  33.934  29.383  1.00  0.00     0.010 A 
ATOM     34  C   UNL A   1      36.318  33.293  30.619  1.00  0.00    -0.014 A 
BRANCH  34  35
ATOM     35  C   UNL A   1      37.487  32.665  31.284  1.00  0.00     0.031 A 
ATOM     36  C   UNL A   1      38.200  31.522  30.617  1.00  0.00     0.074 A 
ATOM     37  C   UNL A   1      37.853  33.068  32.515  1.00  0.00     0.049 A 
ATOM     38  N   UNL A   1      39.163  30.763  31.077  1.00  0.00    -0.248 NA
ATOM     39  C   UNL A   1      37.748  31.162  29.263  1.00  0.00     0.031 C 
ATOM     40  C   UNL A   1      37.214  34.138  33.282  1.00  0.00     0.029 A 
ATOM     41  N   UNL A   1      38.845  32.611  33.347  1.00  0.00    -0.354 N 
ATOM     42  C   UNL A   1      39.413  29.829  30.080  1.00  0.00     0.074 A 
ATOM     43  C   UNL A   1      38.465  30.077  29.017  1.00  0.00     0.031 C 
ATOM     44  C   UNL A   1      37.841  34.268  34.463  1.00  0.00     0.029 A 
ATOM     45  C   UNL A   1      38.894  33.263  34.555  1.00  0.00     0.049 A 
ATOM     46  H   UNL A   1      39.462  31.885  33.100  1.00  0.00     0.167 HD
ATOM     47  C   UNL A   1      40.365  28.866  30.046  1.00  0.00     0.037 A 
ATOM     48  C   UNL A   1      39.690  33.059  35.622  1.00  0.00     0.037 A 
ATOM     49  C   UNL A   1      41.323  28.641  31.095  1.00  0.00     0.049 A 
ATOM     50  C   UNL A   1      40.731  31.974  35.564  1.00  0.00     0.074 A 
ATOM     51  C   UNL A   1      42.364  27.730  31.133  1.00  0.00     0.029 A 
ATOM     52  N   UNL A   1      41.355  29.337  32.295  1.00  0.00    -0.354 N 
ATOM     53  N   UNL A   1      41.000  31.136  34.592  1.00  0.00    -0.248 NA
ATOM     54  C   UNL A   1      41.583  31.809  36.750  1.00  0.00     0.031 C 
ATOM     55  C   UNL A   1      42.994  27.839  32.378  1.00  0.00     0.029 A 
ATOM     56  C   UNL A   1      42.384  28.858  33.091  1.00  0.00     0.049 A 
ATOM     57  H   UNL A   1      40.739  30.062  32.546  1.00  0.00     0.167 HD
ATOM     58  C   UNL A   1      42.071  30.369  35.033  1.00  0.00     0.074 A 
ATOM     59  C   UNL A   1      42.410  30.850  36.357  1.00  0.00     0.031 C 
ATOM     60  C   UNL A   1      42.716  29.358  34.402  1.00  0.00     0.037 A 
BRANCH  47  61
ATOM     61  C   UNL A   1      40.415  27.982  28.832  1.00  0.00     0.064 A 
ATOM     62  C   UNL A   1      39.722  26.763  28.777  1.00  0.00     0.173 A 
ATOM     63  C   UNL A   1      41.141  28.373  27.697  1.00  0.00     0.173 A 
ATOM     64  F   UNL A   1      39.022  26.336  29.839  1.00  0.00    -0.203 F 
ATOM     65  C   UNL A   1      39.781  25.954  27.645  1.00  0.00     0.198 A 
ATOM     66  C   UNL A   1      41.169  27.578  26.553  1.00  0.00     0.198 A 
ATOM     67  F   UNL A   1      41.817  29.531  27.691  1.00  0.00    -0.203 F 
ATOM     68  F   UNL A   1      39.156  24.768  27.639  1.00  0.00    -0.200 F 
ATOM     69  C   UNL A   1      40.497  26.366  26.532  1.00  0.00     0.200 A 
ATOM     70  F   UNL A   1      41.850  27.984  25.474  1.00  0.00    -0.200 F 
ATOM     71  F   UNL A   1      40.546  25.589  25.441  1.00  0.00    -0.200 F 
ENDBRANCH  47  61
BRANCH  48  72
ATOM     72  C   UNL A   1      39.548  33.914  36.830  1.00  0.00     0.064 A 
ATOM     73  C   UNL A   1      38.781  33.493  37.924  1.00  0.00     0.173 A 
ATOM     74  C   UNL A   1      40.165  35.172  36.913  1.00  0.00     0.173 A 
ATOM     75  F   UNL A   1      38.155  32.307  37.885  1.00  0.00    -0.203 F 
ATOM     76  C   UNL A   1      38.616  34.304  39.044  1.00  0.00     0.198 A 
ATOM     77  C   UNL A   1      40.025  35.969  38.047  1.00  0.00     0.198 A 
ATOM     78  F   UNL A   1      40.914  35.621  35.895  1.00  0.00    -0.203 F 
ATOM     79  F   UNL A   1      37.836  33.896  40.056  1.00  0.00    -0.200 F 
ATOM     80  C   UNL A   1      39.242  35.539  39.108  1.00  0.00     0.200 A 
ATOM     81  F   UNL A   1      40.645  37.156  38.110  1.00  0.00    -0.200 F 
ATOM     82  F   UNL A   1      39.086  36.318  40.187  1.00  0.00    -0.200 F 
ENDBRANCH  48  72
BRANCH  60  83
ATOM     83  C   UNL A   1      43.884  28.735  35.109  1.00  0.00     0.064 A 
ATOM     84  C   UNL A   1      43.727  27.640  35.972  1.00  0.00     0.173 A 
ATOM     85  C   UNL A   1      45.184  29.213  34.886  1.00  0.00     0.173 A 
ATOM     86  F   UNL A   1      42.504  27.154  36.230  1.00  0.00    -0.203 F 
ATOM     87  C   UNL A   1      44.826  27.064  36.605  1.00  0.00     0.198 A 
ATOM     88  C   UNL A   1      46.284  28.615  35.494  1.00  0.00     0.198 A 
ATOM     89  F   UNL A   1      45.390  30.254  34.065  1.00  0.00    -0.203 F 
ATOM     90  F   UNL A   1      44.647  26.051  37.464  1.00  0.00    -0.200 F 
ATOM     91  C   UNL A   1      46.103  27.546  36.359  1.00  0.00     0.200 A 
ATOM     92  F   UNL A   1      47.518  29.071  35.242  1.00  0.00    -0.200 F 
ATOM     93  F   UNL A   1      47.160  26.985  36.962  1.00  0.00    -0.200 F 
ENDBRANCH  60  83
ENDBRANCH  34  35
ENDBRANCH  26  29
ENDBRANCH  24  25
ENDBRANCH  23  24
ENDBRANCH   1  23
TORSDOF 13
ENDMDL
MODEL 2
REMARK VINA RESULT:     -12.3      0.112      1.144
REMARK SMILES C[C@@H](Sc1nc2ccccc2c(=O)n1N)C(=O)NCCCNC(=O)c1ccc(-c2c3nc(c(-c4c(F)c(F)c(F)c(F)c4F)c4ccc([nH]4)c(-c4c(F)c(F)c(F)c(F)c4F)c4nc(c(-c5c(F)c(F)c(F)c(F)c5F)c5ccc2[nH]5)C=C4)C=C3)cc1
REMARK SMILES IDX 19 1 18 2 16 3 17 4 2 6 1 7 3 8 4 9 5 10 14 11 6 12 12 13
REMARK SMILES IDX 7 14 11 15 13 16 8 17 10 18 9 19 15 20 20 23 21 24 22 25
REMARK SMILES IDX 23 26 24 28 25 29 26 30 87 31 27 32 86 33 28 34 29 35 30 36
REMARK SMILES IDX 80 37 31 38 85 39 79 40 81 41 32 42 84 43 78 44 77 45 33 47
REMARK SMILES IDX 65 48 45 49 64 50 46 51 49 52 63 53 82 54 47 55 48 56 62 58
REMARK SMILES IDX 83 59 50 60 34 61 35 62 43 63 36 64 37 65 41 66 44 67 38 68
REMARK SMILES IDX 39 69 42 70 40 71 66 72 67 73 75 74 68 75 69 76 73 77 76 78
REMARK SMILES IDX 70 79 71 80 74 81 72 82 51 83 52 84 60 85 53 86 54 87 58 88
REMARK SMILES IDX 61 89 55 90 56 91 59 92 57 93
REMARK H PARENT 18 5 15 21 15 22 22 27 81 46 49 57
REMARK Flexibility Score: inf
ROOT
ATOM      1  C   UNL A   1      31.406  30.722  26.336  1.00  0.00     0.117 C 
ENDROOT
BRANCH   1   2
ATOM      2  N   UNL A   1      32.726  30.193  26.635  1.00  0.00    -0.355 N 
ATOM      3  C   UNL A   1      33.457  29.225  26.013  1.00  0.00     0.233 C 
ATOM      4  O   UNL A   1      34.569  28.969  26.487  1.00  0.00    -0.274 OA
ATOM      5  H   UNL A   1      33.165  30.600  27.417  1.00  0.00     0.163 HD
BRANCH   3   6
ATOM      6  C   UNL A   1      32.938  28.475  24.784  1.00  0.00     0.141 C 
ATOM      7  C   UNL A   1      33.978  28.413  23.672  1.00  0.00     0.030 C 
BRANCH   6   8
ATOM      8  S   UNL A   1      32.230  26.883  25.344  1.00  0.00    -0.073 SA
BRANCH   8   9
ATOM      9  C   UNL A   1      33.379  25.738  24.705  1.00  0.00     0.191 A 
ATOM     10  N   UNL A   1      34.403  25.454  25.442  1.00  0.00    -0.222 NA
ATOM     11  N   UNL A   1      33.099  25.130  23.488  1.00  0.00    -0.202 N 
ATOM     12  C   UNL A   1      35.269  24.441  25.002  1.00  0.00     0.079 A 
ATOM     13  C   UNL A   1      33.898  24.103  22.986  1.00  0.00     0.280 A 
ATOM     14  C   UNL A   1      36.356  24.091  25.806  1.00  0.00     0.029 A 
ATOM     15  C   UNL A   1      35.061  23.737  23.814  1.00  0.00     0.068 A 
ATOM     16  O   UNL A   1      33.655  23.504  21.940  1.00  0.00    -0.267 OA
ATOM     17  C   UNL A   1      37.213  23.049  25.433  1.00  0.00     0.002 A 
ATOM     18  C   UNL A   1      35.914  22.695  23.430  1.00  0.00     0.016 A 
ATOM     19  C   UNL A   1      36.990  22.351  24.246  1.00  0.00     0.001 A 
BRANCH  11  20
ATOM     20  N   UNL A   1      31.967  25.512  22.695  1.00  0.00    -0.334 N 
ATOM     21  H   UNL A   1      31.061  25.238  22.967  1.00  0.00     0.178 HD
ATOM     22  H   UNL A   1      32.095  26.047  21.880  1.00  0.00     0.178 HD
ENDBRANCH  11  20
ENDBRANCH   8   9
ENDBRANCH   6   8
ENDBRANCH   3   6
ENDBRANCH   1   2
BRANCH   1  23
ATOM     23  C   UNL A   1      31.363  32.234  26.489  1.00  0.00     0.042 C 
BRANCH  23  24
ATOM     24  C   UNL A   1      32.538  32.792  27.279  1.00  0.00     0.118 C 
BRANCH  24  25
ATOM     25  N   UNL A   1      32.362  34.198  27.624  1.00  0.00    -0.352 N 
ATOM     26  C   UNL A   1      32.981  34.947  28.591  1.00  0.00     0.251 C 
ATOM     27  H   UNL A   1      31.699  34.681  27.081  1.00  0.00     0.163 HD
ATOM     28  O   UNL A   1      32.556  36.069  28.866  1.00  0.00    -0.269 OA
BRANCH  26  29
ATOM     29  C   UNL A   1      34.145  34.405  29.320  1.00  0.00     0.039 A 
ATOM     30  C   UNL A   1      33.942  33.756  30.540  1.00  0.00     0.014 A 
ATOM     31  C   UNL A   1      35.436  34.545  28.805  1.00  0.00     0.014 A 
ATOM     32  C   UNL A   1      35.027  33.191  31.211  1.00  0.00     0.010 A 
ATOM     33  C   UNL A   1      36.500  33.903  29.427  1.00  0.00     0.010 A 
ATOM     34  C   UNL A   1      36.309  33.228  30.642  1.00  0.00    -0.014 A 
BRANCH  34  35
ATOM     35  C   UNL A   1      37.475  32.591  31.304  1.00  0.00     0.031 A 
ATOM     36  C   UNL A   1      38.180  31.444  30.634  1.00  0.00     0.074 A 
ATOM     37  C   UNL A   1      37.846  32.989  32.536  1.00  0.00     0.049 A 
ATOM     38  N   UNL A   1      39.138  30.678  31.091  1.00  0.00    -0.248 NA
ATOM     39  C   UNL A   1      37.723  31.089  29.280  1.00  0.00     0.031 C 
ATOM     40  C   UNL A   1      37.215  34.062  33.305  1.00  0.00     0.029 A 
ATOM     41  N   UNL A   1      38.836  32.524  33.365  1.00  0.00    -0.354 N 
ATOM     42  C   UNL A   1      39.381  29.744  30.093  1.00  0.00     0.074 A 
ATOM     43  C   UNL A   1      38.433  30.001  29.031  1.00  0.00     0.031 C 
ATOM     44  C   UNL A   1      37.844  34.186  34.485  1.00  0.00     0.029 A 
ATOM     45  C   UNL A   1      38.891  33.173  34.574  1.00  0.00     0.049 A 
ATOM     46  H   UNL A   1      39.448  31.794  33.116  1.00  0.00     0.167 HD
ATOM     47  C   UNL A   1      40.326  28.775  30.055  1.00  0.00     0.037 A 
ATOM     48  C   UNL A   1      39.687  32.962  35.640  1.00  0.00     0.037 A 
ATOM     49  C   UNL A   1      41.285  28.542  31.102  1.00  0.00     0.049 A 
ATOM     50  C   UNL A   1      40.721  31.870  35.578  1.00  0.00     0.074 A 
ATOM     51  C   UNL A   1      42.320  27.624  31.137  1.00  0.00     0.029 A 
ATOM     52  N   UNL A   1      41.323  29.235  32.304  1.00  0.00    -0.354 N 
ATOM     53  N   UNL A   1      40.983  31.032  34.604  1.00  0.00    -0.248 NA
ATOM     54  C   UNL A   1      41.574  31.698  36.762  1.00  0.00     0.031 C 
ATOM     55  C   UNL A   1      42.952  27.726  32.381  1.00  0.00     0.029 A 
ATOM     56  C   UNL A   1      42.350  28.748  33.097  1.00  0.00     0.049 A 
ATOM     57  H   UNL A   1      40.711  29.964  32.556  1.00  0.00     0.167 HD
ATOM     58  C   UNL A   1      42.050  30.258  35.043  1.00  0.00     0.074 A 
ATOM     59  C   UNL A   1      42.393  30.734  36.366  1.00  0.00     0.031 C 
ATOM     60  C   UNL A   1      42.687  29.243  34.408  1.00  0.00     0.037 A 
BRANCH  47  61
ATOM     61  C   UNL A   1      40.369  27.893  28.839  1.00  0.00     0.064 A 
ATOM     62  C   UNL A   1      41.123  28.234  27.706  1.00  0.00     0.173 A 
ATOM     63  C   UNL A   1      39.673  26.675  28.819  1.00  0.00     0.173 A 
ATOM     64  F   UNL A   1      41.798  29.392  27.668  1.00  0.00    -0.203 F 
ATOM     65  C   UNL A   1      41.150  27.407  26.586  1.00  0.00     0.198 A 
ATOM     66  C   UNL A   1      39.731  25.833  27.711  1.00  0.00     0.198 A 
ATOM     67  F   UNL A   1      38.941  26.295  29.877  1.00  0.00    -0.203 F 
ATOM     68  F   UNL A   1      41.833  27.782  25.495  1.00  0.00    -0.200 F 
ATOM     69  C   UNL A   1      40.462  26.204  26.593  1.00  0.00     0.200 A 
ATOM     70  F   UNL A   1      39.075  24.665  27.724  1.00  0.00    -0.200 F 
ATOM     71  F   UNL A   1      40.496  25.405  25.517  1.00  0.00    -0.200 F 
ENDBRANCH  47  61
BRANCH  48  72
ATOM     72  C   UNL A   1      39.553  33.816  36.849  1.00  0.00     0.064 A 
ATOM     73  C   UNL A   1      38.757  33.414  37.930  1.00  0.00     0.173 A 
ATOM     74  C   UNL A   1      40.207  35.054  36.948  1.00  0.00     0.173 A 
ATOM     75  F   UNL A   1      38.095  32.248  37.875  1.00  0.00    -0.203 F 
ATOM     76  C   UNL A   1      38.599  34.225  39.051  1.00  0.00     0.198 A 
ATOM     77  C   UNL A   1      40.074  35.850  38.083  1.00  0.00     0.198 A 
ATOM     78  F   UNL A   1      40.985  35.484  35.944  1.00  0.00    -0.203 F 
ATOM     79  F   UNL A   1      37.791  33.837  40.048  1.00  0.00    -0.200 F 
ATOM     80  C   UNL A   1      39.262  35.440  39.130  1.00  0.00     0.200 A 
ATOM     81  F   UNL A   1      40.729  37.017  38.161  1.00  0.00    -0.200 F 
ATOM     82  F   UNL A   1      39.113  36.218  40.210  1.00  0.00    -0.200 F 
ENDBRANCH  48  72
BRANCH  60  83
ATOM     83  C   UNL A   1      43.852  28.611  35.112  1.00  0.00     0.064 A 
ATOM     84  C   UNL A   1      43.694  27.494  35.946  1.00  0.00     0.173 A 
ATOM     85  C   UNL A   1      45.151  29.104  34.915  1.00  0.00     0.173 A 
ATOM     86  F   UNL A   1      42.471  26.993  36.178  1.00  0.00    -0.203 F 
ATOM     87  C   UNL A   1      44.790  26.910  36.576  1.00  0.00     0.198 A 
ATOM     88  C   UNL A   1      46.248  28.499  35.521  1.00  0.00     0.198 A 
ATOM     89  F   UNL A   1      45.358  30.167  34.123  1.00  0.00    -0.203 F 
ATOM     90  F   UNL A   1      44.610  25.875  37.408  1.00  0.00    -0.200 F 
ATOM     91  C   UNL A   1      46.066  27.408  36.357  1.00  0.00     0.200 A 
ATOM     92  F   UNL A   1      47.481  28.970  35.294  1.00  0.00    -0.200 F 
ATOM     93  F   UNL A   1      47.121  26.840  36.957  1.00  0.00    -0.200 F 
ENDBRANCH  60  83
ENDBRANCH  34  35
ENDBRANCH  26  29
ENDBRANCH  24  25
ENDBRANCH  23  24
ENDBRANCH   1  23
TORSDOF 13
ENDMDL
MODEL 3
REMARK VINA RESULT:     -12.3      0.132      1.615
REMARK SMILES C[C@@H](Sc1nc2ccccc2c(=O)n1N)C(=O)NCCCNC(=O)c1ccc(-c2c3nc(c(-c4c(F)c(F)c(F)c(F)c4F)c4ccc([nH]4)c(-c4c(F)c(F)c(F)c(F)c4F)c4nc(c(-c5c(F)c(F)c(F)c(F)c5F)c5ccc2[nH]5)C=C4)C=C3)cc1
REMARK SMILES IDX 19 1 18 2 16 3 17 4 2 6 1 7 3 8 4 9 5 10 14 11 6 12 12 13
REMARK SMILES IDX 7 14 11 15 13 16 8 17 10 18 9 19 15 20 20 23 21 24 22 25
REMARK SMILES IDX 23 26 24 28 25 29 26 30 87 31 27 32 86 33 28 34 29 35 30 36
REMARK SMILES IDX 80 37 31 38 85 39 79 40 81 41 32 42 84 43 78 44 77 45 33 47
REMARK SMILES IDX 65 48 45 49 64 50 46 51 49 52 63 53 82 54 47 55 48 56 62 58
REMARK SMILES IDX 83 59 50 60 34 61 35 62 43 63 36 64 37 65 41 66 44 67 38 68
REMARK SMILES IDX 39 69 42 70 40 71 66 72 67 73 75 74 68 75 69 76 73 77 76 78
REMARK SMILES IDX 70 79 71 80 74 81 72 82 51 83 52 84 60 85 53 86 54 87 58 88
REMARK SMILES IDX 61 89 55 90 56 91 59 92 57 93
REMARK H PARENT 18 5 15 21 15 22 22 27 81 46 49 57
REMARK Flexibility Score: inf
ROOT
ATOM      1  C   UNL A   1      31.422  30.731  26.299  1.00  0.00     0.117 C 
ENDROOT
BRANCH   1   2
ATOM      2  N   UNL A   1      32.742  30.211  26.612  1.00  0.00    -0.355 N 
ATOM      3  C   UNL A   1      33.482  29.241  26.003  1.00  0.00     0.233 C 
ATOM      4  O   UNL A   1      34.592  28.993  26.488  1.00  0.00    -0.274 OA
ATOM      5  H   UNL A   1      33.173  30.626  27.395  1.00  0.00     0.163 HD
BRANCH   3   6
ATOM      6  C   UNL A   1      32.976  28.480  24.776  1.00  0.00     0.141 C 
ATOM      7  C   UNL A   1      34.028  28.406  23.676  1.00  0.00     0.030 C 
BRANCH   6   8
ATOM      8  S   UNL A   1      32.261  26.894  25.344  1.00  0.00    -0.073 SA
BRANCH   8   9
ATOM      9  C   UNL A   1      33.401  25.740  24.705  1.00  0.00     0.191 A 
ATOM     10  N   UNL A   1      34.425  25.451  25.441  1.00  0.00    -0.222 NA
ATOM     11  N   UNL A   1      33.113  25.130  23.490  1.00  0.00    -0.202 N 
ATOM     12  C   UNL A   1      35.284  24.433  25.001  1.00  0.00     0.079 A 
ATOM     13  C   UNL A   1      33.905  24.097  22.990  1.00  0.00     0.280 A 
ATOM     14  C   UNL A   1      36.371  24.078  25.802  1.00  0.00     0.029 A 
ATOM     15  C   UNL A   1      35.068  23.726  23.815  1.00  0.00     0.068 A 
ATOM     16  O   UNL A   1      33.656  23.496  21.946  1.00  0.00    -0.267 OA
ATOM     17  C   UNL A   1      37.220  23.030  25.430  1.00  0.00     0.002 A 
ATOM     18  C   UNL A   1      35.913  22.678  23.432  1.00  0.00     0.016 A 
ATOM     19  C   UNL A   1      36.990  22.330  24.246  1.00  0.00     0.001 A 
BRANCH  11  20
ATOM     20  N   UNL A   1      31.981  25.516  22.700  1.00  0.00    -0.334 N 
ATOM     21  H   UNL A   1      31.858  25.139  21.800  1.00  0.00     0.178 HD
ATOM     22  H   UNL A   1      31.328  26.159  23.059  1.00  0.00     0.178 HD
ENDBRANCH  11  20
ENDBRANCH   8   9
ENDBRANCH   6   8
ENDBRANCH   3   6
ENDBRANCH   1   2
BRANCH   1  23
ATOM     23  C   UNL A   1      31.357  32.239  26.490  1.00  0.00     0.042 C 
BRANCH  23  24
ATOM     24  C   UNL A   1      32.524  32.794  27.295  1.00  0.00     0.118 C 
BRANCH  24  25
ATOM     25  N   UNL A   1      32.353  34.203  27.626  1.00  0.00    -0.352 N 
ATOM     26  C   UNL A   1      32.972  34.959  28.588  1.00  0.00     0.251 C 
ATOM     27  H   UNL A   1      31.695  34.685  27.075  1.00  0.00     0.163 HD
ATOM     28  O   UNL A   1      32.552  36.086  28.850  1.00  0.00    -0.269 OA
BRANCH  26  29
ATOM     29  C   UNL A   1      34.132  34.418  29.325  1.00  0.00     0.039 A 
ATOM     30  C   UNL A   1      33.919  33.763  30.541  1.00  0.00     0.014 A 
ATOM     31  C   UNL A   1      35.427  34.565  28.824  1.00  0.00     0.014 A 
ATOM     32  C   UNL A   1      34.999  33.199  31.221  1.00  0.00     0.010 A 
ATOM     33  C   UNL A   1      36.487  33.925  29.454  1.00  0.00     0.010 A 
ATOM     34  C   UNL A   1      36.287  33.244  30.664  1.00  0.00    -0.014 A 
BRANCH  34  35
ATOM     35  C   UNL A   1      37.449  32.608  31.335  1.00  0.00     0.031 A 
ATOM     36  C   UNL A   1      38.160  31.462  30.670  1.00  0.00     0.074 A 
ATOM     37  C   UNL A   1      37.810  33.007  32.569  1.00  0.00     0.049 A 
ATOM     38  N   UNL A   1      39.116  30.698  31.134  1.00  0.00    -0.248 NA
ATOM     39  C   UNL A   1      37.714  31.107  29.313  1.00  0.00     0.031 C 
ATOM     40  C   UNL A   1      37.172  34.079  33.334  1.00  0.00     0.029 A 
ATOM     41  N   UNL A   1      38.794  32.543  33.406  1.00  0.00    -0.354 N 
ATOM     42  C   UNL A   1      39.367  29.764  30.138  1.00  0.00     0.074 A 
ATOM     43  C   UNL A   1      38.428  30.019  29.069  1.00  0.00     0.031 C 
ATOM     44  C   UNL A   1      37.792  34.204  34.519  1.00  0.00     0.029 A 
ATOM     45  C   UNL A   1      38.839  33.192  34.615  1.00  0.00     0.049 A 
ATOM     46  H   UNL A   1      39.409  31.814  33.162  1.00  0.00     0.167 HD
ATOM     47  C   UNL A   1      40.314  28.796  30.107  1.00  0.00     0.037 A 
ATOM     48  C   UNL A   1      39.627  32.983  35.687  1.00  0.00     0.037 A 
ATOM     49  C   UNL A   1      41.265  28.564  31.162  1.00  0.00     0.049 A 
ATOM     50  C   UNL A   1      40.663  31.892  35.633  1.00  0.00     0.074 A 
ATOM     51  C   UNL A   1      42.301  27.648  31.205  1.00  0.00     0.029 A 
ATOM     52  N   UNL A   1      41.293  29.258  32.364  1.00  0.00    -0.354 N 
ATOM     53  N   UNL A   1      40.934  31.054  34.662  1.00  0.00    -0.248 NA
ATOM     54  C   UNL A   1      41.507  31.720  36.824  1.00  0.00     0.031 C 
ATOM     55  C   UNL A   1      42.924  27.751  32.453  1.00  0.00     0.029 A 
ATOM     56  C   UNL A   1      42.315  28.772  33.165  1.00  0.00     0.049 A 
ATOM     57  H   UNL A   1      40.679  29.986  32.612  1.00  0.00     0.167 HD
ATOM     58  C   UNL A   1      41.998  30.281  35.108  1.00  0.00     0.074 A 
ATOM     59  C   UNL A   1      42.331  30.758  36.435  1.00  0.00     0.031 C 
ATOM     60  C   UNL A   1      42.641  29.268  34.478  1.00  0.00     0.037 A 
BRANCH  47  61
ATOM     61  C   UNL A   1      40.368  27.914  28.892  1.00  0.00     0.064 A 
ATOM     62  C   UNL A   1      39.652  26.709  28.822  1.00  0.00     0.173 A 
ATOM     63  C   UNL A   1      41.119  28.294  27.770  1.00  0.00     0.173 A 
ATOM     64  F   UNL A   1      38.926  26.293  29.872  1.00  0.00    -0.203 F 
ATOM     65  C   UNL A   1      39.714  25.901  27.690  1.00  0.00     0.198 A 
ATOM     66  C   UNL A   1      41.150  27.501  26.625  1.00  0.00     0.198 A 
ATOM     67  F   UNL A   1      41.818  29.439  27.779  1.00  0.00    -0.203 F 
ATOM     68  F   UNL A   1      39.066  24.728  27.670  1.00  0.00    -0.200 F 
ATOM     69  C   UNL A   1      40.455  26.302  26.590  1.00  0.00     0.200 A 
ATOM     70  F   UNL A   1      41.857  27.896  25.558  1.00  0.00    -0.200 F 
ATOM     71  F   UNL A   1      40.508  25.527  25.497  1.00  0.00    -0.200 F 
ENDBRANCH  47  61
BRANCH  48  72
ATOM     72  C   UNL A   1      39.483  33.836  36.895  1.00  0.00     0.064 A 
ATOM     73  C   UNL A   1      40.140  35.071  36.987  1.00  0.00     0.173 A 
ATOM     74  C   UNL A   1      38.696  33.435  37.986  1.00  0.00     0.173 A 
ATOM     75  F   UNL A   1      40.920  35.490  35.979  1.00  0.00    -0.203 F 
ATOM     76  C   UNL A   1      40.037  35.860  38.130  1.00  0.00     0.198 A 
ATOM     77  C   UNL A   1      38.568  34.240  39.117  1.00  0.00     0.198 A 
ATOM     78  F   UNL A   1      38.042  32.265  37.947  1.00  0.00    -0.203 F 
ATOM     79  F   UNL A   1      40.716  37.012  38.211  1.00  0.00    -0.200 F 
ATOM     80  C   UNL A   1      39.247  35.447  39.192  1.00  0.00     0.200 A 
ATOM     81  F   UNL A   1      37.791  33.843  40.134  1.00  0.00    -0.200 F 
ATOM     82  F   UNL A   1      39.144  36.207  40.290  1.00  0.00    -0.200 F 
ENDBRANCH  48  72
BRANCH  60  83
ATOM     83  C   UNL A   1      43.802  28.637  35.192  1.00  0.00     0.064 A 
ATOM     84  C   UNL A   1      45.109  29.127  35.054  1.00  0.00     0.173 A 
ATOM     85  C   UNL A   1      43.595  27.554  36.060  1.00  0.00     0.173 A 
ATOM     86  F   UNL A   1      45.363  30.151  34.226  1.00  0.00    -0.203 F 
ATOM     87  C   UNL A   1      46.169  28.539  35.739  1.00  0.00     0.198 A 
ATOM     88  C   UNL A   1      44.651  26.990  36.768  1.00  0.00     0.198 A 
ATOM     89  F   UNL A   1      42.363  27.052  36.232  1.00  0.00    -0.203 F 
ATOM     90  F   UNL A   1      47.417  28.991  35.554  1.00  0.00    -0.200 F 
ATOM     91  C   UNL A   1      45.939  27.477  36.601  1.00  0.00     0.200 A 
ATOM     92  F   UNL A   1      44.424  25.975  37.614  1.00  0.00    -0.200 F 
ATOM     93  F   UNL A   1      46.959  26.919  37.267  1.00  0.00    -0.200 F 
ENDBRANCH  60  83
ENDBRANCH  34  35
ENDBRANCH  26  29
ENDBRANCH  24  25
ENDBRANCH  23  24
ENDBRANCH   1  23
TORSDOF 13
ENDMDL
