MODEL 1
REMARK VINA RESULT:     -11.9      0.000      0.000
REMARK SMILES COc1ccc(-c2sc(N)nc2C(=O)NCCCNC(=O)c2ccc(-c3c4nc(c(-c5c(F)c(F)c(F)c(F)c5F)c5ccc([nH]5)c(-c5c(F)c(F)c(F)c(F)c5F)c5nc(c(-c6c(F)c(F)c(F)c(F)c6F)c6ccc3[nH]6)C=C5)C=C4)cc2)cc1OC
REMARK SMILES IDX 17 1 16 2 15 3 13 4 14 5 12 7 7 8 8 9 9 10 11 11 6 12 3 13
REMARK SMILES IDX 4 14 86 15 5 16 85 17 2 18 1 19 87 20 88 21 10 22 18 25
REMARK SMILES IDX 19 26 20 27 21 29 22 30 23 31 84 32 24 33 83 34 25 35 26 36
REMARK SMILES IDX 27 37 77 38 28 39 82 40 76 41 78 42 29 43 81 44 75 45 74 46
REMARK SMILES IDX 30 48 62 49 42 50 61 51 43 52 46 53 60 54 79 55 44 56 45 57
REMARK SMILES IDX 59 59 80 60 47 61 31 62 32 63 40 64 33 65 34 66 38 67 41 68
REMARK SMILES IDX 35 69 36 70 39 71 37 72 63 73 64 74 72 75 65 76 66 77 70 78
REMARK SMILES IDX 73 79 67 80 68 81 71 82 69 83 48 84 49 85 57 86 50 87 51 88
REMARK SMILES IDX 55 89 58 90 52 91 53 92 56 93 54 94
REMARK H PARENT 15 6 10 23 10 24 19 28 78 47 46 58
REMARK Flexibility Score: inf
ROOT
ATOM      1  C   UNL A   1      31.410  32.033  26.727  1.00  0.00     0.042 C 
ENDROOT
BRANCH   1   2
ATOM      2  C   UNL A   1      31.399  30.515  26.877  1.00  0.00     0.118 C 
BRANCH   2   3
ATOM      3  N   UNL A   1      32.735  29.953  26.792  1.00  0.00    -0.351 N 
ATOM      4  C   UNL A   1      33.356  29.184  25.840  1.00  0.00     0.271 C 
ATOM      5  O   UNL A   1      34.532  28.894  26.083  1.00  0.00    -0.267 OA
ATOM      6  H   UNL A   1      33.306  30.165  27.566  1.00  0.00     0.163 HD
BRANCH   4   7
ATOM      7  C   UNL A   1      32.668  28.753  24.609  1.00  0.00     0.149 A 
ATOM      8  C   UNL A   1      32.507  27.421  24.224  1.00  0.00     0.069 A 
ATOM      9  S   UNL A   1      31.742  27.344  22.686  1.00  0.00    -0.096 S 
ATOM     10  C   UNL A   1      31.609  29.047  22.667  1.00  0.00     0.181 A 
ATOM     11  N   UNL A   1      32.113  29.658  23.704  1.00  0.00    -0.215 NA
BRANCH   8  12
ATOM     12  C   UNL A   1      32.827  26.178  24.931  1.00  0.00    -0.002 A 
ATOM     13  C   UNL A   1      33.392  23.900  26.480  1.00  0.00     0.160 A 
ATOM     14  C   UNL A   1      34.384  24.476  25.673  1.00  0.00     0.051 A 
ATOM     15  C   UNL A   1      32.106  24.447  26.507  1.00  0.00     0.161 A 
ATOM     16  C   UNL A   1      34.103  25.609  24.897  1.00  0.00     0.014 A 
ATOM     17  C   UNL A   1      31.839  25.573  25.718  1.00  0.00     0.060 A 
BRANCH  13  18
ATOM     18  O   UNL A   1      33.768  22.899  27.337  1.00  0.00    -0.493 OA
ATOM     19  C   UNL A   1      34.023  21.671  26.658  1.00  0.00     0.278 C 
ENDBRANCH  13  18
BRANCH  15  20
ATOM     20  O   UNL A   1      31.021  24.071  27.250  1.00  0.00    -0.493 OA
ATOM     21  C   UNL A   1      30.267  22.947  26.834  1.00  0.00     0.278 C 
ENDBRANCH  15  20
ENDBRANCH   8  12
BRANCH  10  22
ATOM     22  N   UNL A   1      31.027  29.703  21.660  1.00  0.00    -0.375 N 
ATOM     23  H   UNL A   1      30.152  29.408  21.320  1.00  0.00     0.159 HD
ATOM     24  H   UNL A   1      31.474  30.483  21.257  1.00  0.00     0.159 HD
ENDBRANCH  10  22
ENDBRANCH   4   7
ENDBRANCH   2   3
ENDBRANCH   1   2
BRANCH   1  25
ATOM     25  C   UNL A   1      32.696  32.692  27.220  1.00  0.00     0.118 C 
BRANCH  25  26
ATOM     26  N   UNL A   1      32.499  34.080  27.626  1.00  0.00    -0.352 N 
ATOM     27  C   UNL A   1      33.080  34.810  28.632  1.00  0.00     0.251 C 
ATOM     28  H   UNL A   1      31.839  34.574  27.089  1.00  0.00     0.163 HD
ATOM     29  O   UNL A   1      32.616  35.908  28.928  1.00  0.00    -0.269 OA
BRANCH  27  30
ATOM     30  C   UNL A   1      34.246  34.285  29.373  1.00  0.00     0.039 A 
ATOM     31  C   UNL A   1      34.028  33.598  30.570  1.00  0.00     0.014 A 
ATOM     32  C   UNL A   1      35.550  34.499  28.921  1.00  0.00     0.014 A 
ATOM     33  C   UNL A   1      35.110  33.068  31.276  1.00  0.00     0.010 A 
ATOM     34  C   UNL A   1      36.621  33.902  29.580  1.00  0.00     0.010 A 
ATOM     35  C   UNL A   1      36.414  33.180  30.766  1.00  0.00    -0.014 A 
BRANCH  35  36
ATOM     36  C   UNL A   1      37.567  32.541  31.452  1.00  0.00     0.031 A 
ATOM     37  C   UNL A   1      38.282  31.380  30.815  1.00  0.00     0.074 A 
ATOM     38  C   UNL A   1      37.929  32.966  32.679  1.00  0.00     0.049 A 
ATOM     39  N   UNL A   1      39.256  30.646  31.292  1.00  0.00    -0.248 NA
ATOM     40  C   UNL A   1      37.827  30.972  29.476  1.00  0.00     0.031 C 
ATOM     41  C   UNL A   1      37.285  34.051  33.422  1.00  0.00     0.029 A 
ATOM     42  N   UNL A   1      38.917  32.529  33.526  1.00  0.00    -0.354 N 
ATOM     43  C   UNL A   1      39.514  29.683  30.325  1.00  0.00     0.074 A 
ATOM     44  C   UNL A   1      38.569  29.896  29.251  1.00  0.00     0.031 C 
ATOM     45  C   UNL A   1      37.902  34.204  34.604  1.00  0.00     0.029 A 
ATOM     46  C   UNL A   1      38.956  33.202  34.725  1.00  0.00     0.049 A 
ATOM     47  H   UNL A   1      39.540  31.801  33.297  1.00  0.00     0.167 HD
ATOM     48  C   UNL A   1      40.467  28.721  30.326  1.00  0.00     0.037 A 
ATOM     49  C   UNL A   1      39.738  33.018  35.806  1.00  0.00     0.037 A 
ATOM     50  C   UNL A   1      41.428  28.535  31.381  1.00  0.00     0.049 A 
ATOM     51  C   UNL A   1      40.785  31.935  35.775  1.00  0.00     0.074 A 
ATOM     52  C   UNL A   1      42.482  27.638  31.436  1.00  0.00     0.029 A 
ATOM     53  N   UNL A   1      41.451  29.252  32.567  1.00  0.00    -0.354 N 
ATOM     54  N   UNL A   1      41.076  31.088  34.817  1.00  0.00    -0.248 NA
ATOM     55  C   UNL A   1      41.619  31.785  36.976  1.00  0.00     0.031 C 
ATOM     56  C   UNL A   1      43.103  27.770  32.680  1.00  0.00     0.029 A 
ATOM     57  C   UNL A   1      42.482  28.795  33.373  1.00  0.00     0.049 A 
ATOM     58  H   UNL A   1      40.829  29.978  32.802  1.00  0.00     0.167 HD
ATOM     59  C   UNL A   1      42.145  30.335  35.284  1.00  0.00     0.074 A 
ATOM     60  C   UNL A   1      42.464  30.836  36.604  1.00  0.00     0.031 C 
ATOM     61  C   UNL A   1      42.801  29.318  34.677  1.00  0.00     0.037 A 
BRANCH  48  62
ATOM     62  C   UNL A   1      40.534  27.787  29.153  1.00  0.00     0.064 A 
ATOM     63  C   UNL A   1      39.709  26.656  29.061  1.00  0.00     0.173 A 
ATOM     64  C   UNL A   1      41.368  28.079  28.063  1.00  0.00     0.173 A 
ATOM     65  F   UNL A   1      38.900  26.326  30.079  1.00  0.00    -0.203 F 
ATOM     66  C   UNL A   1      39.725  25.847  27.927  1.00  0.00     0.198 A 
ATOM     67  C   UNL A   1      41.360  27.287  26.919  1.00  0.00     0.198 A 
ATOM     68  F   UNL A   1      42.173  29.153  28.096  1.00  0.00    -0.203 F 
ATOM     69  F   UNL A   1      38.949  24.756  27.874  1.00  0.00    -0.200 F 
ATOM     70  C   UNL A   1      40.540  26.170  26.853  1.00  0.00     0.200 A 
ATOM     71  F   UNL A   1      42.135  27.610  25.874  1.00  0.00    -0.200 F 
ATOM     72  F   UNL A   1      40.536  25.405  25.752  1.00  0.00    -0.200 F 
ENDBRANCH  48  62
BRANCH  49  73
ATOM     73  C   UNL A   1      39.568  33.868  37.015  1.00  0.00     0.064 A 
ATOM     74  C   UNL A   1      38.784  33.442  38.098  1.00  0.00     0.173 A 
ATOM     75  C   UNL A   1      40.143  35.146  37.094  1.00  0.00     0.173 A 
ATOM     76  F   UNL A   1      38.196  32.237  38.064  1.00  0.00    -0.203 F 
ATOM     77  C   UNL A   1      38.545  34.277  39.187  1.00  0.00     0.198 A 
ATOM     78  C   UNL A   1      39.934  35.965  38.202  1.00  0.00     0.198 A 
ATOM     79  F   UNL A   1      40.908  35.602  36.091  1.00  0.00    -0.203 F 
ATOM     80  F   UNL A   1      37.730  33.872  40.171  1.00  0.00    -0.200 F 
ATOM     81  C   UNL A   1      39.122  35.535  39.240  1.00  0.00     0.200 A 
ATOM     82  F   UNL A   1      40.508  37.174  38.256  1.00  0.00    -0.200 F 
ATOM     83  F   UNL A   1      38.884  36.341  40.285  1.00  0.00    -0.200 F 
ENDBRANCH  49  73
BRANCH  61  84
ATOM     84  C   UNL A   1      43.966  28.712  35.406  1.00  0.00     0.064 A 
ATOM     85  C   UNL A   1      43.811  27.620  36.274  1.00  0.00     0.173 A 
ATOM     86  C   UNL A   1      45.264  29.207  35.201  1.00  0.00     0.173 A 
ATOM     87  F   UNL A   1      42.590  27.118  36.514  1.00  0.00    -0.203 F 
ATOM     88  C   UNL A   1      44.906  27.069  36.933  1.00  0.00     0.198 A 
ATOM     89  C   UNL A   1      46.360  28.629  35.833  1.00  0.00     0.198 A 
ATOM     90  F   UNL A   1      45.470  30.243  34.374  1.00  0.00    -0.203 F 
ATOM     91  F   UNL A   1      44.726  26.063  37.800  1.00  0.00    -0.200 F 
ATOM     92  C   UNL A   1      46.180  27.568  36.705  1.00  0.00     0.200 A 
ATOM     93  F   UNL A   1      47.593  29.101  35.597  1.00  0.00    -0.200 F 
ATOM     94  F   UNL A   1      47.234  27.028  37.334  1.00  0.00    -0.200 F 
ENDBRANCH  61  84
ENDBRANCH  35  36
ENDBRANCH  27  30
ENDBRANCH  25  26
ENDBRANCH   1  25
TORSDOF 14
ENDMDL
MODEL 2
REMARK VINA RESULT:     -11.9      5.986     11.289
REMARK SMILES COc1ccc(-c2sc(N)nc2C(=O)NCCCNC(=O)c2ccc(-c3c4nc(c(-c5c(F)c(F)c(F)c(F)c5F)c5ccc([nH]5)c(-c5c(F)c(F)c(F)c(F)c5F)c5nc(c(-c6c(F)c(F)c(F)c(F)c6F)c6ccc3[nH]6)C=C5)C=C4)cc2)cc1OC
REMARK SMILES IDX 17 1 16 2 15 3 13 4 14 5 12 7 7 8 8 9 9 10 11 11 6 12 3 13
REMARK SMILES IDX 4 14 86 15 5 16 85 17 2 18 1 19 87 20 88 21 10 22 18 25
REMARK SMILES IDX 19 26 20 27 21 29 22 30 23 31 84 32 24 33 83 34 25 35 26 36
REMARK SMILES IDX 27 37 77 38 28 39 82 40 76 41 78 42 29 43 81 44 75 45 74 46
REMARK SMILES IDX 30 48 62 49 42 50 61 51 43 52 46 53 60 54 79 55 44 56 45 57
REMARK SMILES IDX 59 59 80 60 47 61 31 62 32 63 40 64 33 65 34 66 38 67 41 68
REMARK SMILES IDX 35 69 36 70 39 71 37 72 63 73 64 74 72 75 65 76 66 77 70 78
REMARK SMILES IDX 73 79 67 80 68 81 71 82 69 83 48 84 49 85 57 86 50 87 51 88
REMARK SMILES IDX 55 89 58 90 52 91 53 92 56 93 54 94
REMARK H PARENT 15 6 10 23 10 24 19 28 78 47 46 58
REMARK Flexibility Score: inf
ROOT
ATOM      1  C   UNL A   1      39.179  21.456  26.273  1.00  0.00     0.042 C 
ENDROOT
BRANCH   1   2
ATOM      2  C   UNL A   1      37.996  22.404  26.097  1.00  0.00     0.118 C 
BRANCH   2   3
ATOM      3  N   UNL A   1      37.718  22.667  24.697  1.00  0.00    -0.351 N 
ATOM      4  C   UNL A   1      36.584  22.523  23.937  1.00  0.00     0.271 C 
ATOM      5  O   UNL A   1      36.696  22.869  22.757  1.00  0.00    -0.267 OA
ATOM      6  H   UNL A   1      38.491  23.016  24.197  1.00  0.00     0.163 HD
BRANCH   4   7
ATOM      7  C   UNL A   1      35.323  22.007  24.499  1.00  0.00     0.149 A 
ATOM      8  C   UNL A   1      34.213  22.800  24.799  1.00  0.00     0.069 A 
ATOM      9  S   UNL A   1      32.987  21.840  25.526  1.00  0.00    -0.096 S 
ATOM     10  C   UNL A   1      33.959  20.450  25.330  1.00  0.00     0.181 A 
ATOM     11  N   UNL A   1      35.129  20.657  24.790  1.00  0.00    -0.215 NA
BRANCH   8  12
ATOM     12  C   UNL A   1      33.958  24.219  24.541  1.00  0.00    -0.002 A 
ATOM     13  C   UNL A   1      33.655  26.946  23.920  1.00  0.00     0.160 A 
ATOM     14  C   UNL A   1      33.792  26.529  25.253  1.00  0.00     0.051 A 
ATOM     15  C   UNL A   1      33.653  26.002  22.888  1.00  0.00     0.161 A 
ATOM     16  C   UNL A   1      33.938  25.172  25.564  1.00  0.00     0.014 A 
ATOM     17  C   UNL A   1      33.791  24.648  23.218  1.00  0.00     0.060 A 
BRANCH  13  18
ATOM     18  O   UNL A   1      33.681  28.292  23.666  1.00  0.00    -0.493 OA
ATOM     19  C   UNL A   1      32.871  29.031  24.579  1.00  0.00     0.278 C 
ENDBRANCH  13  18
BRANCH  15  20
ATOM     20  O   UNL A   1      33.579  26.198  21.537  1.00  0.00    -0.493 OA
ATOM     21  C   UNL A   1      32.530  25.578  20.815  1.00  0.00     0.278 C 
ENDBRANCH  15  20
ENDBRANCH   8  12
BRANCH  10  22
ATOM     22  N   UNL A   1      33.546  19.235  25.703  1.00  0.00    -0.375 N 
ATOM     23  H   UNL A   1      33.401  18.535  25.026  1.00  0.00     0.159 HD
ATOM     24  H   UNL A   1      33.385  19.040  26.655  1.00  0.00     0.159 HD
ENDBRANCH  10  22
ENDBRANCH   4   7
ENDBRANCH   2   3
ENDBRANCH   1   2
BRANCH   1  25
ATOM     25  C   UNL A   1      39.119  20.222  25.375  1.00  0.00     0.118 C 
BRANCH  25  26
ATOM     26  N   UNL A   1      40.094  19.203  25.751  1.00  0.00    -0.352 N 
ATOM     27  C   UNL A   1      41.411  19.316  26.120  1.00  0.00     0.251 C 
ATOM     28  H   UNL A   1      39.749  18.281  25.738  1.00  0.00     0.163 HD
ATOM     29  O   UNL A   1      42.106  18.307  26.198  1.00  0.00    -0.269 OA
BRANCH  27  30
ATOM     30  C   UNL A   1      42.006  20.638  26.409  1.00  0.00     0.039 A 
ATOM     31  C   UNL A   1      42.382  21.454  25.338  1.00  0.00     0.014 A 
ATOM     32  C   UNL A   1      42.232  21.061  27.720  1.00  0.00     0.014 A 
ATOM     33  C   UNL A   1      42.921  22.719  25.583  1.00  0.00     0.010 A 
ATOM     34  C   UNL A   1      42.693  22.352  27.964  1.00  0.00     0.010 A 
ATOM     35  C   UNL A   1      43.044  23.196  26.898  1.00  0.00    -0.014 A 
BRANCH  35  36
ATOM     36  C   UNL A   1      43.525  24.574  27.176  1.00  0.00     0.031 A 
ATOM     37  C   UNL A   1      42.573  25.624  27.681  1.00  0.00     0.074 A 
ATOM     38  C   UNL A   1      44.807  24.896  26.911  1.00  0.00     0.049 A 
ATOM     39  N   UNL A   1      42.788  26.896  27.908  1.00  0.00    -0.248 NA
ATOM     40  C   UNL A   1      41.189  25.197  27.944  1.00  0.00     0.031 C 
ATOM     41  C   UNL A   1      45.816  23.980  26.373  1.00  0.00     0.029 A 
ATOM     42  N   UNL A   1      45.481  26.086  27.041  1.00  0.00    -0.354 N 
ATOM     43  C   UNL A   1      41.569  27.421  28.318  1.00  0.00     0.074 A 
ATOM     44  C   UNL A   1      40.606  26.342  28.270  1.00  0.00     0.031 C 
ATOM     45  C   UNL A   1      46.979  24.635  26.236  1.00  0.00     0.029 A 
ATOM     46  C   UNL A   1      46.791  26.028  26.630  1.00  0.00     0.049 A 
ATOM     47  H   UNL A   1      45.063  26.905  27.396  1.00  0.00     0.167 HD
ATOM     48  C   UNL A   1      41.286  28.683  28.715  1.00  0.00     0.037 A 
ATOM     49  C   UNL A   1      47.728  26.992  26.559  1.00  0.00     0.037 A 
ATOM     50  C   UNL A   1      42.255  29.744  28.795  1.00  0.00     0.049 A 
ATOM     51  C   UNL A   1      47.378  28.388  27.006  1.00  0.00     0.074 A 
ATOM     52  C   UNL A   1      42.080  31.037  29.261  1.00  0.00     0.029 A 
ATOM     53  N   UNL A   1      43.578  29.640  28.393  1.00  0.00    -0.354 N 
ATOM     54  N   UNL A   1      46.243  28.848  27.474  1.00  0.00    -0.248 NA
ATOM     55  C   UNL A   1      48.441  29.398  26.919  1.00  0.00     0.031 C 
ATOM     56  C   UNL A   1      43.279  31.731  29.084  1.00  0.00     0.029 A 
ATOM     57  C   UNL A   1      44.221  30.855  28.572  1.00  0.00     0.049 A 
ATOM     58  H   UNL A   1      43.998  28.825  28.036  1.00  0.00     0.167 HD
ATOM     59  C   UNL A   1      46.468  30.186  27.772  1.00  0.00     0.074 A 
ATOM     60  C   UNL A   1      47.852  30.459  27.448  1.00  0.00     0.031 C 
ATOM     61  C   UNL A   1      45.605  31.107  28.265  1.00  0.00     0.037 A 
BRANCH  48  62
ATOM     62  C   UNL A   1      39.872  29.004  29.105  1.00  0.00     0.064 A 
ATOM     63  C   UNL A   1      38.919  29.407  28.158  1.00  0.00     0.173 A 
ATOM     64  C   UNL A   1      39.442  28.814  30.427  1.00  0.00     0.173 A 
ATOM     65  F   UNL A   1      39.278  29.612  26.882  1.00  0.00    -0.203 F 
ATOM     66  C   UNL A   1      37.591  29.619  28.523  1.00  0.00     0.198 A 
ATOM     67  C   UNL A   1      38.109  28.997  30.783  1.00  0.00     0.198 A 
ATOM     68  F   UNL A   1      40.312  28.422  31.371  1.00  0.00    -0.203 F 
ATOM     69  F   UNL A   1      36.704  30.033  27.607  1.00  0.00    -0.200 F 
ATOM     70  C   UNL A   1      37.185  29.402  29.831  1.00  0.00     0.200 A 
ATOM     71  F   UNL A   1      37.715  28.770  32.043  1.00  0.00    -0.200 F 
ATOM     72  F   UNL A   1      35.903  29.582  30.175  1.00  0.00    -0.200 F 
ENDBRANCH  48  62
BRANCH  49  73
ATOM     73  C   UNL A   1      49.091  26.686  26.044  1.00  0.00     0.064 A 
ATOM     74  C   UNL A   1      50.091  26.186  26.892  1.00  0.00     0.173 A 
ATOM     75  C   UNL A   1      49.438  26.935  24.707  1.00  0.00     0.173 A 
ATOM     76  F   UNL A   1      49.817  25.950  28.183  1.00  0.00    -0.203 F 
ATOM     77  C   UNL A   1      51.393  25.992  26.434  1.00  0.00     0.198 A 
ATOM     78  C   UNL A   1      50.731  26.704  24.242  1.00  0.00     0.198 A 
ATOM     79  F   UNL A   1      48.520  27.406  23.851  1.00  0.00    -0.203 F 
ATOM     80  F   UNL A   1      52.346  25.586  27.285  1.00  0.00    -0.200 F 
ATOM     81  C   UNL A   1      51.711  26.248  25.110  1.00  0.00     0.200 A 
ATOM     82  F   UNL A   1      51.029  26.936  22.957  1.00  0.00    -0.200 F 
ATOM     83  F   UNL A   1      52.965  26.069  24.673  1.00  0.00    -0.200 F 
ENDBRANCH  49  73
BRANCH  61  84
ATOM     84  C   UNL A   1      46.142  32.483  28.539  1.00  0.00     0.064 A 
ATOM     85  C   UNL A   1      46.722  32.820  29.771  1.00  0.00     0.173 A 
ATOM     86  C   UNL A   1      46.112  33.466  27.537  1.00  0.00     0.173 A 
ATOM     87  F   UNL A   1      46.764  31.921  30.766  1.00  0.00    -0.203 F 
ATOM     88  C   UNL A   1      47.222  34.100  30.000  1.00  0.00     0.198 A 
ATOM     89  C   UNL A   1      46.646  34.731  27.757  1.00  0.00     0.198 A 
ATOM     90  F   UNL A   1      45.577  33.193  26.337  1.00  0.00    -0.203 F 
ATOM     91  F   UNL A   1      47.720  34.416  31.203  1.00  0.00    -0.200 F 
ATOM     92  C   UNL A   1      47.191  35.050  28.991  1.00  0.00     0.200 A 
ATOM     93  F   UNL A   1      46.632  35.643  26.775  1.00  0.00    -0.200 F 
ATOM     94  F   UNL A   1      47.682  36.278  29.211  1.00  0.00    -0.200 F 
ENDBRANCH  61  84
ENDBRANCH  35  36
ENDBRANCH  27  30
ENDBRANCH  25  26
ENDBRANCH   1  25
TORSDOF 14
ENDMDL
MODEL 3
REMARK VINA RESULT:     -11.9      2.167      3.516
REMARK SMILES COc1ccc(-c2sc(N)nc2C(=O)NCCCNC(=O)c2ccc(-c3c4nc(c(-c5c(F)c(F)c(F)c(F)c5F)c5ccc([nH]5)c(-c5c(F)c(F)c(F)c(F)c5F)c5nc(c(-c6c(F)c(F)c(F)c(F)c6F)c6ccc3[nH]6)C=C5)C=C4)cc2)cc1OC
REMARK SMILES IDX 17 1 16 2 15 3 13 4 14 5 12 7 7 8 8 9 9 10 11 11 6 12 3 13
REMARK SMILES IDX 4 14 86 15 5 16 85 17 2 18 1 19 87 20 88 21 10 22 18 25
REMARK SMILES IDX 19 26 20 27 21 29 22 30 23 31 84 32 24 33 83 34 25 35 26 36
REMARK SMILES IDX 27 37 77 38 28 39 82 40 76 41 78 42 29 43 81 44 75 45 74 46
REMARK SMILES IDX 30 48 62 49 42 50 61 51 43 52 46 53 60 54 79 55 44 56 45 57
REMARK SMILES IDX 59 59 80 60 47 61 31 62 32 63 40 64 33 65 34 66 38 67 41 68
REMARK SMILES IDX 35 69 36 70 39 71 37 72 63 73 64 74 72 75 65 76 66 77 70 78
REMARK SMILES IDX 73 79 67 80 68 81 71 82 69 83 48 84 49 85 57 86 50 87 51 88
REMARK SMILES IDX 55 89 58 90 52 91 53 92 56 93 54 94
REMARK H PARENT 15 6 10 23 10 24 19 28 78 47 46 58
REMARK Flexibility Score: inf
ROOT
ATOM      1  C   UNL A   1      34.001  28.652  24.337  1.00  0.00     0.042 C 
ENDROOT
BRANCH   1   2
ATOM      2  C   UNL A   1      33.317  28.878  22.992  1.00  0.00     0.118 C 
BRANCH   2   3
ATOM      3  N   UNL A   1      33.529  27.765  22.084  1.00  0.00    -0.351 N 
ATOM      4  C   UNL A   1      32.963  26.518  22.000  1.00  0.00     0.271 C 
ATOM      5  O   UNL A   1      33.372  25.816  21.071  1.00  0.00    -0.267 OA
ATOM      6  H   UNL A   1      34.210  27.940  21.394  1.00  0.00     0.163 HD
BRANCH   4   7
ATOM      7  C   UNL A   1      31.928  26.062  22.947  1.00  0.00     0.149 A 
ATOM      8  C   UNL A   1      32.129  25.080  23.918  1.00  0.00     0.069 A 
ATOM      9  S   UNL A   1      30.656  24.767  24.748  1.00  0.00    -0.096 S 
ATOM     10  C   UNL A   1      29.882  25.984  23.834  1.00  0.00     0.181 A 
ATOM     11  N   UNL A   1      30.633  26.580  22.948  1.00  0.00    -0.215 NA
BRANCH   8  12
ATOM     12  C   UNL A   1      33.348  24.378  24.327  1.00  0.00    -0.002 A 
ATOM     13  C   UNL A   1      35.562  22.911  25.254  1.00  0.00     0.160 A 
ATOM     14  C   UNL A   1      35.523  24.307  25.393  1.00  0.00     0.051 A 
ATOM     15  C   UNL A   1      34.503  22.239  24.636  1.00  0.00     0.161 A 
ATOM     16  C   UNL A   1      34.423  25.039  24.928  1.00  0.00     0.014 A 
ATOM     17  C   UNL A   1      33.415  22.988  24.168  1.00  0.00     0.060 A 
BRANCH  13  18
ATOM     18  O   UNL A   1      36.581  22.237  25.871  1.00  0.00    -0.493 OA
ATOM     19  C   UNL A   1      37.632  21.897  24.969  1.00  0.00     0.278 C 
ENDBRANCH  13  18
BRANCH  15  20
ATOM     20  O   UNL A   1      34.325  20.897  24.443  1.00  0.00    -0.493 OA
ATOM     21  C   UNL A   1      33.520  20.178  25.361  1.00  0.00     0.278 C 
ENDBRANCH  15  20
ENDBRANCH   8  12
BRANCH  10  22
ATOM     22  N   UNL A   1      28.598  26.303  24.018  1.00  0.00    -0.375 N 
ATOM     23  H   UNL A   1      28.285  27.216  23.825  1.00  0.00     0.159 HD
ATOM     24  H   UNL A   1      27.964  25.625  24.347  1.00  0.00     0.159 HD
ENDBRANCH  10  22
ENDBRANCH   4   7
ENDBRANCH   2   3
ENDBRANCH   1   2
BRANCH   1  25
ATOM     25  C   UNL A   1      33.047  28.695  25.529  1.00  0.00     0.118 C 
BRANCH  25  26
ATOM     26  N   UNL A   1      32.637  30.052  25.875  1.00  0.00    -0.352 N 
ATOM     27  C   UNL A   1      33.140  30.929  26.803  1.00  0.00     0.251 C 
ATOM     28  H   UNL A   1      31.873  30.394  25.358  1.00  0.00     0.163 HD
ATOM     29  O   UNL A   1      32.512  31.950  27.072  1.00  0.00    -0.269 OA
BRANCH  27  30
ATOM     30  C   UNL A   1      34.418  30.654  27.491  1.00  0.00     0.039 A 
ATOM     31  C   UNL A   1      35.345  31.692  27.626  1.00  0.00     0.014 A 
ATOM     32  C   UNL A   1      34.727  29.379  27.967  1.00  0.00     0.014 A 
ATOM     33  C   UNL A   1      36.549  31.466  28.297  1.00  0.00     0.010 A 
ATOM     34  C   UNL A   1      35.890  29.174  28.705  1.00  0.00     0.010 A 
ATOM     35  C   UNL A   1      36.815  30.216  28.878  1.00  0.00    -0.014 A 
BRANCH  35  36
ATOM     36  C   UNL A   1      38.047  29.984  29.677  1.00  0.00     0.031 A 
ATOM     37  C   UNL A   1      39.126  29.072  29.163  1.00  0.00     0.074 A 
ATOM     38  C   UNL A   1      38.161  30.545  30.898  1.00  0.00     0.049 A 
ATOM     39  N   UNL A   1      40.233  28.687  29.748  1.00  0.00    -0.248 NA
ATOM     40  C   UNL A   1      38.927  28.493  27.824  1.00  0.00     0.031 C 
ATOM     41  C   UNL A   1      37.162  31.411  31.528  1.00  0.00     0.029 A 
ATOM     42  N   UNL A   1      39.161  30.462  31.835  1.00  0.00    -0.354 N 
ATOM     43  C   UNL A   1      40.847  27.811  28.862  1.00  0.00     0.074 A 
ATOM     44  C   UNL A   1      39.974  27.686  27.715  1.00  0.00     0.031 C 
ATOM     45  C   UNL A   1      37.605  31.790  32.737  1.00  0.00     0.029 A 
ATOM     46  C   UNL A   1      38.897  31.160  32.989  1.00  0.00     0.049 A 
ATOM     47  H   UNL A   1      39.991  29.949  31.693  1.00  0.00     0.167 HD
ATOM     48  C   UNL A   1      42.041  27.185  28.986  1.00  0.00     0.037 A 
ATOM     49  C   UNL A   1      39.606  31.263  34.130  1.00  0.00     0.037 A 
ATOM     50  C   UNL A   1      42.923  27.340  30.113  1.00  0.00     0.049 A 
ATOM     51  C   UNL A   1      40.929  30.549  34.237  1.00  0.00     0.074 A 
ATOM     52  C   UNL A   1      44.189  26.808  30.294  1.00  0.00     0.029 A 
ATOM     53  N   UNL A   1      42.632  28.075  31.251  1.00  0.00    -0.354 N 
ATOM     54  N   UNL A   1      41.538  29.795  33.354  1.00  0.00    -0.248 NA
ATOM     55  C   UNL A   1      41.667  30.706  35.497  1.00  0.00     0.031 C 
ATOM     56  C   UNL A   1      44.637  27.170  31.566  1.00  0.00     0.029 A 
ATOM     57  C   UNL A   1      43.682  27.984  32.151  1.00  0.00     0.049 A 
ATOM     58  H   UNL A   1      41.804  28.587  31.398  1.00  0.00     0.167 HD
ATOM     59  C   UNL A   1      42.742  29.421  33.937  1.00  0.00     0.074 A 
ATOM     60  C   UNL A   1      42.786  30.046  35.242  1.00  0.00     0.031 C 
ATOM     61  C   UNL A   1      43.721  28.629  33.439  1.00  0.00     0.037 A 
BRANCH  48  62
ATOM     62  C   UNL A   1      42.482  26.271  27.879  1.00  0.00     0.064 A 
ATOM     63  C   UNL A   1      42.007  24.955  27.776  1.00  0.00     0.173 A 
ATOM     64  C   UNL A   1      43.317  26.750  26.858  1.00  0.00     0.173 A 
ATOM     65  F   UNL A   1      41.215  24.445  28.730  1.00  0.00    -0.203 F 
ATOM     66  C   UNL A   1      42.361  24.149  26.696  1.00  0.00     0.198 A 
ATOM     67  C   UNL A   1      43.644  25.953  25.765  1.00  0.00     0.198 A 
ATOM     68  F   UNL A   1      43.793  28.003  26.905  1.00  0.00    -0.203 F 
ATOM     69  F   UNL A   1      41.920  22.886  26.632  1.00  0.00    -0.200 F 
ATOM     70  C   UNL A   1      43.168  24.652  25.686  1.00  0.00     0.200 A 
ATOM     71  F   UNL A   1      44.410  26.445  24.781  1.00  0.00    -0.200 F 
ATOM     72  F   UNL A   1      43.487  23.883  24.636  1.00  0.00    -0.200 F 
ENDBRANCH  48  62
BRANCH  49  73
ATOM     73  C   UNL A   1      39.090  32.068  35.270  1.00  0.00     0.064 A 
ATOM     74  C   UNL A   1      39.356  33.443  35.367  1.00  0.00     0.173 A 
ATOM     75  C   UNL A   1      38.366  31.472  36.315  1.00  0.00     0.173 A 
ATOM     76  F   UNL A   1      40.060  34.057  34.405  1.00  0.00    -0.203 F 
ATOM     77  C   UNL A   1      38.958  34.177  36.483  1.00  0.00     0.198 A 
ATOM     78  C   UNL A   1      37.936  32.216  37.411  1.00  0.00     0.198 A 
ATOM     79  F   UNL A   1      38.079  30.163  36.271  1.00  0.00    -0.203 F 
ATOM     80  F   UNL A   1      39.291  35.471  36.582  1.00  0.00    -0.200 F 
ATOM     81  C   UNL A   1      38.246  33.565  37.502  1.00  0.00     0.200 A 
ATOM     82  F   UNL A   1      37.234  31.623  38.386  1.00  0.00    -0.200 F 
ATOM     83  F   UNL A   1      37.871  34.270  38.578  1.00  0.00    -0.200 F 
ENDBRANCH  49  73
BRANCH  61  84
ATOM     84  C   UNL A   1      44.950  28.434  34.281  1.00  0.00     0.064 A 
ATOM     85  C   UNL A   1      46.053  29.296  34.192  1.00  0.00     0.173 A 
ATOM     86  C   UNL A   1      45.006  27.391  35.219  1.00  0.00     0.173 A 
ATOM     87  F   UNL A   1      46.055  30.300  33.302  1.00  0.00    -0.203 F 
ATOM     88  C   UNL A   1      47.178  29.102  34.989  1.00  0.00     0.198 A 
ATOM     89  C   UNL A   1      46.117  27.223  36.039  1.00  0.00     0.198 A 
ATOM     90  F   UNL A   1      43.974  26.543  35.351  1.00  0.00    -0.203 F 
ATOM     91  F   UNL A   1      48.243  29.904  34.847  1.00  0.00    -0.200 F 
ATOM     92  C   UNL A   1      47.206  28.071  35.917  1.00  0.00     0.200 A 
ATOM     93  F   UNL A   1      46.133  26.238  36.948  1.00  0.00    -0.200 F 
ATOM     94  F   UNL A   1      48.287  27.893  36.689  1.00  0.00    -0.200 F 
ENDBRANCH  61  84
ENDBRANCH  35  36
ENDBRANCH  27  30
ENDBRANCH  25  26
ENDBRANCH   1  25
TORSDOF 14
ENDMDL
