MODEL 1
REMARK VINA RESULT:     -13.5      0.000      0.000
REMARK SMILES Cc1cc(F)ccc1-n1ccc(C)c(C(=O)NCCCNC(=O)c2ccc(-c3c4nc(c(-c5c(F)c(F)c(F)c(F)c5F)c5ccc([nH]5)c(-c5c(F)c(F)c(F)c(F)c5F)c5nc(c(-c6c(F)c(F)c(F)c(F)c6F)c6ccc3[nH]6)C=C5)C=C4)cc2)c1=O
REMARK SMILES IDX 19 1 18 2 17 3 15 4 16 5 14 7 9 8 10 9 87 10 11 11 88 12
REMARK SMILES IDX 12 13 13 14 8 15 1 16 2 17 3 18 4 19 7 20 5 21 6 22 20 23
REMARK SMILES IDX 21 24 22 25 23 27 24 28 25 29 86 30 26 31 85 32 27 33 28 34
REMARK SMILES IDX 29 35 79 36 30 37 84 38 78 39 80 40 31 41 83 42 77 43 76 44
REMARK SMILES IDX 32 46 64 47 44 48 63 49 45 50 48 51 62 52 81 53 46 54 47 55
REMARK SMILES IDX 61 57 82 58 49 59 33 60 34 61 42 62 35 63 36 64 40 65 43 66
REMARK SMILES IDX 37 67 38 68 41 69 39 70 65 71 66 72 74 73 67 74 68 75 72 76
REMARK SMILES IDX 75 77 69 78 70 79 73 80 71 81 50 82 51 83 59 84 52 85 53 86
REMARK SMILES IDX 57 87 60 88 54 89 55 90 58 91 56 92
REMARK H PARENT 17 6 21 26 80 45 48 56
REMARK Flexibility Score: inf
ROOT
ATOM      1  C   UNL A   1      33.128  28.999  27.278  1.00  0.00     0.042 C 
ENDROOT
BRANCH   1   2
ATOM      2  C   UNL A   1      32.650  28.237  26.046  1.00  0.00     0.118 C 
BRANCH   2   3
ATOM      3  N   UNL A   1      31.501  27.386  26.263  1.00  0.00    -0.352 N 
ATOM      4  C   UNL A   1      31.289  26.072  25.937  1.00  0.00     0.257 C 
ATOM      5  O   UNL A   1      30.297  25.537  26.415  1.00  0.00    -0.269 OA
ATOM      6  H   UNL A   1      30.746  27.823  26.721  1.00  0.00     0.163 HD
BRANCH   4   7
ATOM      7  C   UNL A   1      32.170  25.329  24.972  1.00  0.00     0.108 A 
ATOM      8  N   UNL A   1      34.076  23.820  24.429  1.00  0.00    -0.283 N 
ATOM      9  C   UNL A   1      33.828  24.056  23.087  1.00  0.00     0.095 A 
ATOM     10  C   UNL A   1      33.222  24.340  25.423  1.00  0.00     0.268 A 
ATOM     11  C   UNL A   1      32.801  24.801  22.683  1.00  0.00     0.023 A 
ATOM     12  O   UNL A   1      33.334  24.068  26.624  1.00  0.00    -0.268 OA
ATOM     13  C   UNL A   1      31.956  25.485  23.641  1.00  0.00    -0.031 A 
ATOM     14  C   UNL A   1      30.913  26.353  22.979  1.00  0.00     0.045 C 
BRANCH   8  15
ATOM     15  C   UNL A   1      35.234  23.053  24.791  1.00  0.00     0.052 A 
ATOM     16  C   UNL A   1      34.037  20.777  24.664  1.00  0.00     0.047 C 
ATOM     17  C   UNL A   1      35.240  21.647  24.901  1.00  0.00    -0.024 A 
ATOM     18  C   UNL A   1      36.447  20.999  25.233  1.00  0.00     0.044 A 
ATOM     19  C   UNL A   1      37.615  21.724  25.440  1.00  0.00     0.123 A 
ATOM     20  C   UNL A   1      36.441  23.762  24.990  1.00  0.00     0.030 A 
ATOM     21  F   UNL A   1      38.743  21.085  25.773  1.00  0.00    -0.207 F 
ATOM     22  C   UNL A   1      37.624  23.103  25.322  1.00  0.00     0.041 A 
ENDBRANCH   8  15
ENDBRANCH   4   7
ENDBRANCH   2   3
ENDBRANCH   1   2
BRANCH   1  23
ATOM     23  C   UNL A   1      33.594  30.444  27.122  1.00  0.00     0.118 C 
BRANCH  23  24
ATOM     24  N   UNL A   1      34.118  31.119  28.293  1.00  0.00    -0.352 N 
ATOM     25  C   UNL A   1      35.375  31.272  28.820  1.00  0.00     0.251 C 
ATOM     26  H   UNL A   1      33.420  31.563  28.826  1.00  0.00     0.163 HD
ATOM     27  O   UNL A   1      35.586  32.291  29.479  1.00  0.00    -0.269 OA
BRANCH  25  28
ATOM     28  C   UNL A   1      36.406  30.204  28.824  1.00  0.00     0.039 A 
ATOM     29  C   UNL A   1      36.756  29.400  29.910  1.00  0.00     0.014 A 
ATOM     30  C   UNL A   1      37.168  30.129  27.645  1.00  0.00     0.014 A 
ATOM     31  C   UNL A   1      37.961  28.692  29.892  1.00  0.00     0.010 A 
ATOM     32  C   UNL A   1      38.355  29.420  27.620  1.00  0.00     0.010 A 
ATOM     33  C   UNL A   1      38.794  28.779  28.777  1.00  0.00    -0.014 A 
BRANCH  33  34
ATOM     34  C   UNL A   1      40.134  28.210  28.740  1.00  0.00     0.031 A 
ATOM     35  C   UNL A   1      40.311  26.762  28.500  1.00  0.00     0.074 A 
ATOM     36  C   UNL A   1      41.203  29.015  28.939  1.00  0.00     0.049 A 
ATOM     37  N   UNL A   1      41.291  26.064  28.964  1.00  0.00    -0.248 NA
ATOM     38  C   UNL A   1      39.336  25.959  27.769  1.00  0.00     0.031 C 
ATOM     39  C   UNL A   1      42.598  28.725  28.644  1.00  0.00     0.029 A 
ATOM     40  N   UNL A   1      41.245  30.267  29.575  1.00  0.00    -0.354 N 
ATOM     41  C   UNL A   1      41.259  24.837  28.335  1.00  0.00     0.074 A 
ATOM     42  C   UNL A   1      39.953  24.771  27.724  1.00  0.00     0.031 C 
ATOM     43  C   UNL A   1      43.383  29.608  29.283  1.00  0.00     0.029 A 
ATOM     44  C   UNL A   1      42.534  30.410  30.141  1.00  0.00     0.049 A 
ATOM     45  H   UNL A   1      40.513  30.924  29.618  1.00  0.00     0.167 HD
ATOM     46  C   UNL A   1      42.415  24.114  28.248  1.00  0.00     0.037 A 
ATOM     47  C   UNL A   1      42.740  30.603  31.484  1.00  0.00     0.037 A 
ATOM     48  C   UNL A   1      43.500  24.823  28.913  1.00  0.00     0.049 A 
ATOM     49  C   UNL A   1      43.520  29.492  32.124  1.00  0.00     0.074 A 
ATOM     50  C   UNL A   1      44.440  25.711  28.413  1.00  0.00     0.029 A 
ATOM     51  N   UNL A   1      43.525  24.939  30.293  1.00  0.00    -0.354 N 
ATOM     52  N   UNL A   1      43.599  28.301  31.609  1.00  0.00    -0.248 NA
ATOM     53  C   UNL A   1      44.224  29.610  33.397  1.00  0.00     0.031 C 
ATOM     54  C   UNL A   1      45.006  26.402  29.506  1.00  0.00     0.029 A 
ATOM     55  C   UNL A   1      44.429  25.915  30.666  1.00  0.00     0.049 A 
ATOM     56  H   UNL A   1      42.980  24.407  30.916  1.00  0.00     0.167 HD
ATOM     57  C   UNL A   1      44.375  27.515  32.411  1.00  0.00     0.074 A 
ATOM     58  C   UNL A   1      44.731  28.371  33.527  1.00  0.00     0.031 C 
ATOM     59  C   UNL A   1      44.669  26.231  32.061  1.00  0.00     0.037 A 
BRANCH  46  60
ATOM     60  C   UNL A   1      42.684  22.976  27.281  1.00  0.00     0.064 A 
ATOM     61  C   UNL A   1      42.065  21.716  27.476  1.00  0.00     0.173 A 
ATOM     62  C   UNL A   1      43.559  23.030  26.183  1.00  0.00     0.173 A 
ATOM     63  F   UNL A   1      41.120  21.530  28.407  1.00  0.00    -0.203 F 
ATOM     64  C   UNL A   1      42.387  20.587  26.721  1.00  0.00     0.198 A 
ATOM     65  C   UNL A   1      43.902  21.892  25.441  1.00  0.00     0.198 A 
ATOM     66  F   UNL A   1      44.071  24.190  25.755  1.00  0.00    -0.203 F 
ATOM     67  F   UNL A   1      41.781  19.419  26.981  1.00  0.00    -0.200 F 
ATOM     68  C   UNL A   1      43.329  20.668  25.720  1.00  0.00     0.200 A 
ATOM     69  F   UNL A   1      44.796  21.993  24.446  1.00  0.00    -0.200 F 
ATOM     70  F   UNL A   1      43.659  19.580  25.012  1.00  0.00    -0.200 F 
ENDBRANCH  46  60
BRANCH  47  71
ATOM     71  C   UNL A   1      41.598  31.285  32.150  1.00  0.00     0.064 A 
ATOM     72  C   UNL A   1      40.766  30.451  32.920  1.00  0.00     0.173 A 
ATOM     73  C   UNL A   1      41.819  32.594  32.582  1.00  0.00     0.173 A 
ATOM     74  F   UNL A   1      40.495  29.205  32.498  1.00  0.00    -0.203 F 
ATOM     75  C   UNL A   1      40.456  30.795  34.224  1.00  0.00     0.198 A 
ATOM     76  C   UNL A   1      41.548  32.916  33.899  1.00  0.00     0.198 A 
ATOM     77  F   UNL A   1      42.520  33.459  31.834  1.00  0.00    -0.203 F 
ATOM     78  F   UNL A   1      39.862  29.905  35.031  1.00  0.00    -0.200 F 
ATOM     79  C   UNL A   1      40.941  31.986  34.735  1.00  0.00     0.200 A 
ATOM     80  F   UNL A   1      42.022  34.070  34.381  1.00  0.00    -0.200 F 
ATOM     81  F   UNL A   1      40.920  32.186  36.056  1.00  0.00    -0.200 F 
ENDBRANCH  47  71
BRANCH  59  82
ATOM     82  C   UNL A   1      45.350  25.212  32.927  1.00  0.00     0.064 A 
ATOM     83  C   UNL A   1      44.705  24.083  33.451  1.00  0.00     0.173 A 
ATOM     84  C   UNL A   1      46.746  25.285  33.152  1.00  0.00     0.173 A 
ATOM     85  F   UNL A   1      43.415  23.832  33.188  1.00  0.00    -0.203 F 
ATOM     86  C   UNL A   1      45.388  23.143  34.224  1.00  0.00     0.198 A 
ATOM     87  C   UNL A   1      47.436  24.312  33.868  1.00  0.00     0.198 A 
ATOM     88  F   UNL A   1      47.488  26.289  32.664  1.00  0.00    -0.203 F 
ATOM     89  F   UNL A   1      44.719  22.110  34.753  1.00  0.00    -0.200 F 
ATOM     90  C   UNL A   1      46.751  23.253  34.426  1.00  0.00     0.200 A 
ATOM     91  F   UNL A   1      48.766  24.401  33.998  1.00  0.00    -0.200 F 
ATOM     92  F   UNL A   1      47.408  22.329  35.138  1.00  0.00    -0.200 F 
ENDBRANCH  59  82
ENDBRANCH  33  34
ENDBRANCH  25  28
ENDBRANCH  23  24
ENDBRANCH   1  23
TORSDOF 11
ENDMDL
MODEL 2
REMARK VINA RESULT:     -13.5      3.897      9.775
REMARK SMILES Cc1cc(F)ccc1-n1ccc(C)c(C(=O)NCCCNC(=O)c2ccc(-c3c4nc(c(-c5c(F)c(F)c(F)c(F)c5F)c5ccc([nH]5)c(-c5c(F)c(F)c(F)c(F)c5F)c5nc(c(-c6c(F)c(F)c(F)c(F)c6F)c6ccc3[nH]6)C=C5)C=C4)cc2)c1=O
REMARK SMILES IDX 19 1 18 2 17 3 15 4 16 5 14 7 9 8 10 9 87 10 11 11 88 12
REMARK SMILES IDX 12 13 13 14 8 15 1 16 2 17 3 18 4 19 7 20 5 21 6 22 20 23
REMARK SMILES IDX 21 24 22 25 23 27 24 28 25 29 86 30 26 31 85 32 27 33 28 34
REMARK SMILES IDX 29 35 79 36 30 37 84 38 78 39 80 40 31 41 83 42 77 43 76 44
REMARK SMILES IDX 32 46 64 47 44 48 63 49 45 50 48 51 62 52 81 53 46 54 47 55
REMARK SMILES IDX 61 57 82 58 49 59 33 60 34 61 42 62 35 63 36 64 40 65 43 66
REMARK SMILES IDX 37 67 38 68 41 69 39 70 65 71 66 72 74 73 67 74 68 75 72 76
REMARK SMILES IDX 75 77 69 78 70 79 73 80 71 81 50 82 51 83 59 84 52 85 53 86
REMARK SMILES IDX 57 87 60 88 54 89 55 90 58 91 56 92
REMARK H PARENT 17 6 21 26 80 45 48 56
REMARK Flexibility Score: inf
ROOT
ATOM      1  C   UNL A   1      37.340  23.479  25.365  1.00  0.00     0.042 C 
ENDROOT
BRANCH   1   2
ATOM      2  C   UNL A   1      35.852  23.152  25.314  1.00  0.00     0.118 C 
BRANCH   2   3
ATOM      3  N   UNL A   1      35.270  23.155  23.990  1.00  0.00    -0.352 N 
ATOM      4  C   UNL A   1      34.215  23.866  23.480  1.00  0.00     0.257 C 
ATOM      5  O   UNL A   1      34.056  23.824  22.266  1.00  0.00    -0.269 OA
ATOM      6  H   UNL A   1      35.705  22.548  23.349  1.00  0.00     0.163 HD
BRANCH   4   7
ATOM      7  C   UNL A   1      33.235  24.593  24.357  1.00  0.00     0.108 A 
ATOM      8  N   UNL A   1      32.397  26.631  25.518  1.00  0.00    -0.283 N 
ATOM      9  C   UNL A   1      31.407  25.849  26.089  1.00  0.00     0.095 A 
ATOM     10  C   UNL A   1      33.281  26.092  24.562  1.00  0.00     0.268 A 
ATOM     11  C   UNL A   1      31.267  24.561  25.786  1.00  0.00     0.023 A 
ATOM     12  O   UNL A   1      34.108  26.771  23.942  1.00  0.00    -0.268 OA
ATOM     13  C   UNL A   1      32.217  23.894  24.918  1.00  0.00    -0.031 A 
ATOM     14  C   UNL A   1      31.938  22.417  24.778  1.00  0.00     0.045 C 
BRANCH   8  15
ATOM     15  C   UNL A   1      32.522  27.999  25.937  1.00  0.00     0.052 A 
ATOM     16  C   UNL A   1      30.800  28.901  24.247  1.00  0.00     0.047 C 
ATOM     17  C   UNL A   1      31.790  29.062  25.367  1.00  0.00    -0.024 A 
ATOM     18  C   UNL A   1      31.973  30.362  25.881  1.00  0.00     0.044 A 
ATOM     19  C   UNL A   1      32.848  30.597  26.936  1.00  0.00     0.123 A 
ATOM     20  C   UNL A   1      33.391  28.266  27.019  1.00  0.00     0.030 A 
ATOM     21  F   UNL A   1      33.017  31.844  27.394  1.00  0.00    -0.207 F 
ATOM     22  C   UNL A   1      33.560  29.560  27.511  1.00  0.00     0.041 A 
ENDBRANCH   8  15
ENDBRANCH   4   7
ENDBRANCH   2   3
ENDBRANCH   1   2
BRANCH   1  23
ATOM     23  C   UNL A   1      38.289  22.512  26.068  1.00  0.00     0.118 C 
BRANCH  23  24
ATOM     24  N   UNL A   1      39.711  22.785  25.999  1.00  0.00    -0.352 N 
ATOM     25  C   UNL A   1      40.548  23.647  26.662  1.00  0.00     0.251 C 
ATOM     26  H   UNL A   1      40.177  22.232  25.331  1.00  0.00     0.163 HD
ATOM     27  O   UNL A   1      41.724  23.303  26.784  1.00  0.00    -0.269 OA
BRANCH  25  28
ATOM     28  C   UNL A   1      40.177  25.034  27.039  1.00  0.00     0.039 A 
ATOM     29  C   UNL A   1      40.580  26.201  26.389  1.00  0.00     0.014 A 
ATOM     30  C   UNL A   1      39.469  25.135  28.250  1.00  0.00     0.014 A 
ATOM     31  C   UNL A   1      40.462  27.434  27.037  1.00  0.00     0.010 A 
ATOM     32  C   UNL A   1      39.340  26.355  28.887  1.00  0.00     0.010 A 
ATOM     33  C   UNL A   1      39.920  27.489  28.321  1.00  0.00    -0.014 A 
BRANCH  33  34
ATOM     34  C   UNL A   1      39.910  28.700  29.129  1.00  0.00     0.031 A 
ATOM     35  C   UNL A   1      38.881  29.734  28.891  1.00  0.00     0.074 A 
ATOM     36  C   UNL A   1      40.857  28.871  30.081  1.00  0.00     0.049 A 
ATOM     37  N   UNL A   1      39.056  30.995  29.098  1.00  0.00    -0.248 NA
ATOM     38  C   UNL A   1      37.574  29.427  28.318  1.00  0.00     0.031 C 
ATOM     39  C   UNL A   1      40.849  29.829  31.176  1.00  0.00     0.029 A 
ATOM     40  N   UNL A   1      42.114  28.254  30.181  1.00  0.00    -0.354 N 
ATOM     41  C   UNL A   1      37.821  31.603  29.010  1.00  0.00     0.074 A 
ATOM     42  C   UNL A   1      36.970  30.621  28.381  1.00  0.00     0.031 C 
ATOM     43  C   UNL A   1      42.085  29.929  31.691  1.00  0.00     0.029 A 
ATOM     44  C   UNL A   1      42.976  29.155  30.850  1.00  0.00     0.049 A 
ATOM     45  H   UNL A   1      42.352  27.358  29.847  1.00  0.00     0.167 HD
ATOM     46  C   UNL A   1      37.628  32.791  29.657  1.00  0.00     0.037 A 
ATOM     47  C   UNL A   1      44.133  29.633  30.290  1.00  0.00     0.037 A 
ATOM     48  C   UNL A   1      38.858  33.207  30.318  1.00  0.00     0.049 A 
ATOM     49  C   UNL A   1      44.123  31.123  30.103  1.00  0.00     0.074 A 
ATOM     50  C   UNL A   1      39.310  32.987  31.609  1.00  0.00     0.029 A 
ATOM     51  N   UNL A   1      39.945  33.641  29.575  1.00  0.00    -0.354 N 
ATOM     52  N   UNL A   1      43.025  31.816  30.043  1.00  0.00    -0.248 NA
ATOM     53  C   UNL A   1      45.321  31.936  29.923  1.00  0.00     0.031 C 
ATOM     54  C   UNL A   1      40.696  33.250  31.633  1.00  0.00     0.029 A 
ATOM     55  C   UNL A   1      41.077  33.653  30.365  1.00  0.00     0.049 A 
ATOM     56  H   UNL A   1      39.914  33.901  28.627  1.00  0.00     0.167 HD
ATOM     57  C   UNL A   1      43.335  33.135  29.873  1.00  0.00     0.074 A 
ATOM     58  C   UNL A   1      44.783  33.162  29.787  1.00  0.00     0.031 C 
ATOM     59  C   UNL A   1      42.360  34.087  29.843  1.00  0.00     0.037 A 
BRANCH  46  60
ATOM     60  C   UNL A   1      36.286  33.401  30.018  1.00  0.00     0.064 A 
ATOM     61  C   UNL A   1      35.444  33.918  29.001  1.00  0.00     0.173 A 
ATOM     62  C   UNL A   1      35.785  33.554  31.322  1.00  0.00     0.173 A 
ATOM     63  F   UNL A   1      35.722  33.751  27.702  1.00  0.00    -0.203 F 
ATOM     64  C   UNL A   1      34.275  34.631  29.274  1.00  0.00     0.198 A 
ATOM     65  C   UNL A   1      34.626  34.290  31.598  1.00  0.00     0.198 A 
ATOM     66  F   UNL A   1      36.366  32.954  32.367  1.00  0.00    -0.203 F 
ATOM     67  F   UNL A   1      33.543  35.116  28.261  1.00  0.00    -0.200 F 
ATOM     68  C   UNL A   1      33.879  34.842  30.576  1.00  0.00     0.200 A 
ATOM     69  F   UNL A   1      34.233  34.460  32.869  1.00  0.00    -0.200 F 
ATOM     70  F   UNL A   1      32.773  35.548  30.840  1.00  0.00    -0.200 F 
ENDBRANCH  46  60
BRANCH  47  71
ATOM     71  C   UNL A   1      44.727  28.693  29.302  1.00  0.00     0.064 A 
ATOM     72  C   UNL A   1      44.595  29.074  27.954  1.00  0.00     0.173 A 
ATOM     73  C   UNL A   1      45.886  28.022  29.699  1.00  0.00     0.173 A 
ATOM     74  F   UNL A   1      43.468  29.674  27.537  1.00  0.00    -0.203 F 
ATOM     75  C   UNL A   1      45.705  29.094  27.128  1.00  0.00     0.198 A 
ATOM     76  C   UNL A   1      47.003  28.085  28.887  1.00  0.00     0.198 A 
ATOM     77  F   UNL A   1      46.016  27.548  30.946  1.00  0.00    -0.203 F 
ATOM     78  F   UNL A   1      45.634  29.669  25.920  1.00  0.00    -0.200 F 
ATOM     79  C   UNL A   1      46.927  28.693  27.639  1.00  0.00     0.200 A 
ATOM     80  F   UNL A   1      48.178  27.694  29.392  1.00  0.00    -0.200 F 
ATOM     81  F   UNL A   1      48.045  28.994  26.971  1.00  0.00    -0.200 F 
ENDBRANCH  47  71
BRANCH  59  82
ATOM     82  C   UNL A   1      42.544  35.532  29.484  1.00  0.00     0.064 A 
ATOM     83  C   UNL A   1      43.288  36.435  30.256  1.00  0.00     0.173 A 
ATOM     84  C   UNL A   1      42.063  36.027  28.247  1.00  0.00     0.173 A 
ATOM     85  F   UNL A   1      43.910  36.045  31.377  1.00  0.00    -0.203 F 
ATOM     86  C   UNL A   1      43.461  37.763  29.864  1.00  0.00     0.198 A 
ATOM     87  C   UNL A   1      42.293  37.334  27.830  1.00  0.00     0.198 A 
ATOM     88  F   UNL A   1      41.377  35.251  27.396  1.00  0.00    -0.203 F 
ATOM     89  F   UNL A   1      44.132  38.605  30.662  1.00  0.00    -0.200 F 
ATOM     90  C   UNL A   1      42.971  38.209  28.651  1.00  0.00     0.200 A 
ATOM     91  F   UNL A   1      41.867  37.730  26.623  1.00  0.00    -0.200 F 
ATOM     92  F   UNL A   1      43.170  39.475  28.264  1.00  0.00    -0.200 F 
ENDBRANCH  59  82
ENDBRANCH  33  34
ENDBRANCH  25  28
ENDBRANCH  23  24
ENDBRANCH   1  23
TORSDOF 11
ENDMDL
MODEL 3
REMARK VINA RESULT:     -13.4      1.093      1.836
REMARK SMILES Cc1cc(F)ccc1-n1ccc(C)c(C(=O)NCCCNC(=O)c2ccc(-c3c4nc(c(-c5c(F)c(F)c(F)c(F)c5F)c5ccc([nH]5)c(-c5c(F)c(F)c(F)c(F)c5F)c5nc(c(-c6c(F)c(F)c(F)c(F)c6F)c6ccc3[nH]6)C=C5)C=C4)cc2)c1=O
REMARK SMILES IDX 19 1 18 2 17 3 15 4 16 5 14 7 9 8 10 9 87 10 11 11 88 12
REMARK SMILES IDX 12 13 13 14 8 15 1 16 2 17 3 18 4 19 7 20 5 21 6 22 20 23
REMARK SMILES IDX 21 24 22 25 23 27 24 28 25 29 86 30 26 31 85 32 27 33 28 34
REMARK SMILES IDX 29 35 79 36 30 37 84 38 78 39 80 40 31 41 83 42 77 43 76 44
REMARK SMILES IDX 32 46 64 47 44 48 63 49 45 50 48 51 62 52 81 53 46 54 47 55
REMARK SMILES IDX 61 57 82 58 49 59 33 60 34 61 42 62 35 63 36 64 40 65 43 66
REMARK SMILES IDX 37 67 38 68 41 69 39 70 65 71 66 72 74 73 67 74 68 75 72 76
REMARK SMILES IDX 75 77 69 78 70 79 73 80 71 81 50 82 51 83 59 84 52 85 53 86
REMARK SMILES IDX 57 87 60 88 54 89 55 90 58 91 56 92
REMARK H PARENT 17 6 21 26 80 45 48 56
REMARK Flexibility Score: inf
ROOT
ATOM      1  C   UNL A   1      32.275  30.761  26.745  1.00  0.00     0.042 C 
ENDROOT
BRANCH   1   2
ATOM      2  C   UNL A   1      31.552  29.811  25.796  1.00  0.00     0.118 C 
BRANCH   2   3
ATOM      3  N   UNL A   1      32.105  29.744  24.461  1.00  0.00    -0.352 N 
ATOM      4  C   UNL A   1      32.094  28.729  23.541  1.00  0.00     0.257 C 
ATOM      5  O   UNL A   1      32.466  29.007  22.407  1.00  0.00    -0.269 OA
ATOM      6  H   UNL A   1      32.564  30.563  24.165  1.00  0.00     0.163 HD
BRANCH   4   7
ATOM      7  C   UNL A   1      31.734  27.315  23.903  1.00  0.00     0.108 A 
ATOM      8  N   UNL A   1      32.310  25.009  24.646  1.00  0.00    -0.283 N 
ATOM      9  C   UNL A   1      30.981  24.663  24.467  1.00  0.00     0.095 A 
ATOM     10  C   UNL A   1      32.737  26.342  24.484  1.00  0.00     0.268 A 
ATOM     11  C   UNL A   1      30.064  25.559  24.108  1.00  0.00     0.023 A 
ATOM     12  O   UNL A   1      33.885  26.723  24.739  1.00  0.00    -0.268 OA
ATOM     13  C   UNL A   1      30.441  26.921  23.787  1.00  0.00    -0.031 A 
ATOM     14  C   UNL A   1      29.273  27.750  23.311  1.00  0.00     0.045 C 
BRANCH   8  15
ATOM     15  C   UNL A   1      33.251  23.977  24.978  1.00  0.00     0.052 A 
ATOM     16  C   UNL A   1      33.792  23.381  22.532  1.00  0.00     0.047 C 
ATOM     17  C   UNL A   1      33.951  23.216  24.018  1.00  0.00    -0.024 A 
ATOM     18  C   UNL A   1      34.875  22.249  24.463  1.00  0.00     0.044 A 
ATOM     19  C   UNL A   1      35.105  22.051  25.819  1.00  0.00     0.123 A 
ATOM     20  C   UNL A   1      33.519  23.764  26.350  1.00  0.00     0.030 A 
ATOM     21  F   UNL A   1      35.975  21.113  26.215  1.00  0.00    -0.207 F 
ATOM     22  C   UNL A   1      34.435  22.800  26.770  1.00  0.00     0.041 A 
ENDBRANCH   8  15
ENDBRANCH   4   7
ENDBRANCH   2   3
ENDBRANCH   1   2
BRANCH   1  23
ATOM     23  C   UNL A   1      33.717  30.459  27.142  1.00  0.00     0.118 C 
BRANCH  23  24
ATOM     24  N   UNL A   1      34.249  31.114  28.321  1.00  0.00    -0.352 N 
ATOM     25  C   UNL A   1      35.508  31.246  28.849  1.00  0.00     0.251 C 
ATOM     26  H   UNL A   1      33.556  31.560  28.859  1.00  0.00     0.163 HD
ATOM     27  O   UNL A   1      35.731  32.255  29.521  1.00  0.00    -0.269 OA
BRANCH  25  28
ATOM     28  C   UNL A   1      36.526  30.166  28.841  1.00  0.00     0.039 A 
ATOM     29  C   UNL A   1      36.870  29.349  29.918  1.00  0.00     0.014 A 
ATOM     30  C   UNL A   1      37.284  30.094  27.658  1.00  0.00     0.014 A 
ATOM     31  C   UNL A   1      38.067  28.627  29.890  1.00  0.00     0.010 A 
ATOM     32  C   UNL A   1      38.463  29.372  27.623  1.00  0.00     0.010 A 
ATOM     33  C   UNL A   1      38.898  28.715  28.773  1.00  0.00    -0.014 A 
BRANCH  33  34
ATOM     34  C   UNL A   1      40.231  28.131  28.727  1.00  0.00     0.031 A 
ATOM     35  C   UNL A   1      40.391  26.683  28.481  1.00  0.00     0.074 A 
ATOM     36  C   UNL A   1      41.311  28.924  28.923  1.00  0.00     0.049 A 
ATOM     37  N   UNL A   1      41.366  25.972  28.937  1.00  0.00    -0.248 NA
ATOM     38  C   UNL A   1      39.404  25.893  27.751  1.00  0.00     0.031 C 
ATOM     39  C   UNL A   1      42.701  28.619  28.620  1.00  0.00     0.029 A 
ATOM     40  N   UNL A   1      41.369  30.172  29.564  1.00  0.00    -0.354 N 
ATOM     41  C   UNL A   1      41.316  24.748  28.303  1.00  0.00     0.074 A 
ATOM     42  C   UNL A   1      40.006  24.698  27.699  1.00  0.00     0.031 C 
ATOM     43  C   UNL A   1      43.498  29.490  29.259  1.00  0.00     0.029 A 
ATOM     44  C   UNL A   1      42.663  30.299  30.124  1.00  0.00     0.049 A 
ATOM     45  H   UNL A   1      40.645  30.837  29.614  1.00  0.00     0.167 HD
ATOM     46  C   UNL A   1      42.464  24.012  28.207  1.00  0.00     0.037 A 
ATOM     47  C   UNL A   1      42.878  30.485  31.466  1.00  0.00     0.037 A 
ATOM     48  C   UNL A   1      43.561  24.707  28.869  1.00  0.00     0.049 A 
ATOM     49  C   UNL A   1      43.649  29.363  32.098  1.00  0.00     0.074 A 
ATOM     50  C   UNL A   1      44.507  25.586  28.368  1.00  0.00     0.029 A 
ATOM     51  N   UNL A   1      43.593  24.817  30.250  1.00  0.00    -0.354 N 
ATOM     52  N   UNL A   1      43.712  28.173  31.578  1.00  0.00    -0.248 NA
ATOM     53  C   UNL A   1      44.361  29.467  33.367  1.00  0.00     0.031 C 
ATOM     54  C   UNL A   1      45.086  26.266  29.460  1.00  0.00     0.029 A 
ATOM     55  C   UNL A   1      44.510  25.781  30.621  1.00  0.00     0.049 A 
ATOM     56  H   UNL A   1      43.046  24.288  30.873  1.00  0.00     0.167 HD
ATOM     57  C   UNL A   1      44.483  27.375  32.373  1.00  0.00     0.074 A 
ATOM     58  C   UNL A   1      44.855  28.222  33.490  1.00  0.00     0.031 C 
ATOM     59  C   UNL A   1      44.762  26.088  32.017  1.00  0.00     0.037 A 
BRANCH  46  60
ATOM     60  C   UNL A   1      42.715  22.875  27.234  1.00  0.00     0.064 A 
ATOM     61  C   UNL A   1      42.087  21.619  27.431  1.00  0.00     0.173 A 
ATOM     62  C   UNL A   1      43.581  22.925  26.129  1.00  0.00     0.173 A 
ATOM     63  F   UNL A   1      41.150  21.438  28.371  1.00  0.00    -0.203 F 
ATOM     64  C   UNL A   1      42.394  20.490  26.670  1.00  0.00     0.198 A 
ATOM     65  C   UNL A   1      43.908  21.787  25.380  1.00  0.00     0.198 A 
ATOM     66  F   UNL A   1      44.098  24.083  25.700  1.00  0.00    -0.203 F 
ATOM     67  F   UNL A   1      41.781  19.326  26.932  1.00  0.00    -0.200 F 
ATOM     68  C   UNL A   1      43.327  20.567  25.660  1.00  0.00     0.200 A 
ATOM     69  F   UNL A   1      44.793  21.884  24.377  1.00  0.00    -0.200 F 
ATOM     70  F   UNL A   1      43.643  19.479  24.946  1.00  0.00    -0.200 F 
ENDBRANCH  46  60
BRANCH  47  71
ATOM     71  C   UNL A   1      41.747  31.176  32.141  1.00  0.00     0.064 A 
ATOM     72  C   UNL A   1      40.907  30.348  32.907  1.00  0.00     0.173 A 
ATOM     73  C   UNL A   1      41.987  32.479  32.582  1.00  0.00     0.173 A 
ATOM     74  F   UNL A   1      40.619  29.109  32.477  1.00  0.00    -0.203 F 
ATOM     75  C   UNL A   1      40.606  30.687  34.215  1.00  0.00     0.198 A 
ATOM     76  C   UNL A   1      41.724  32.795  33.902  1.00  0.00     0.198 A 
ATOM     77  F   UNL A   1      42.697  33.340  31.838  1.00  0.00    -0.203 F 
ATOM     78  F   UNL A   1      40.002  29.799  35.017  1.00  0.00    -0.200 F 
ATOM     79  C   UNL A   1      41.108  31.868  34.734  1.00  0.00     0.200 A 
ATOM     80  F   UNL A   1      42.215  33.940  34.391  1.00  0.00    -0.200 F 
ATOM     81  F   UNL A   1      41.094  32.058  36.056  1.00  0.00    -0.200 F 
ENDBRANCH  47  71
BRANCH  59  82
ATOM     82  C   UNL A   1      45.435  25.059  32.875  1.00  0.00     0.064 A 
ATOM     83  C   UNL A   1      46.795  25.098  33.213  1.00  0.00     0.173 A 
ATOM     84  C   UNL A   1      44.673  24.042  33.501  1.00  0.00     0.173 A 
ATOM     85  F   UNL A   1      47.588  26.094  32.794  1.00  0.00    -0.203 F 
ATOM     86  C   UNL A   1      47.371  24.136  34.043  1.00  0.00     0.198 A 
ATOM     87  C   UNL A   1      45.238  23.124  34.379  1.00  0.00     0.198 A 
ATOM     88  F   UNL A   1      43.353  23.925  33.299  1.00  0.00    -0.203 F 
ATOM     89  F   UNL A   1      48.687  24.180  34.293  1.00  0.00    -0.200 F 
ATOM     90  C   UNL A   1      46.593  23.155  34.631  1.00  0.00     0.200 A 
ATOM     91  F   UNL A   1      44.457  22.222  34.990  1.00  0.00    -0.200 F 
ATOM     92  F   UNL A   1      47.145  22.256  35.455  1.00  0.00    -0.200 F 
ENDBRANCH  59  82
ENDBRANCH  33  34
ENDBRANCH  25  28
ENDBRANCH  23  24
ENDBRANCH   1  23
TORSDOF 11
ENDMDL
