MODEL 1
REMARK VINA RESULT:     -12.6      0.000      0.000
REMARK SMILES O=C(NCCCNC(=O)c1cc(-c2cccc(Cl)c2)oc1C(F)(F)F)c1ccc(-c2c3nc(c(-c4c(F)c(F)c(F)c(F)c4F)c4ccc([nH]4)c(-c4c(F)c(F)c(F)c(F)c4F)c4nc(c(-c5c(F)c(F)c(F)c(F)c5F)c5ccc2[nH]5)C=C4)C=C3)cc1
REMARK SMILES IDX 4 1 3 2 1 3 2 4 26 6 27 7 88 8 28 9 87 10 29 11 30 12 31 13
REMARK SMILES IDX 81 14 32 15 86 16 80 17 82 18 33 19 85 20 79 21 78 22 34 24
REMARK SMILES IDX 66 25 46 26 65 27 47 28 50 29 64 30 83 31 48 32 49 33 63 35
REMARK SMILES IDX 84 36 51 37 35 38 36 39 44 40 37 41 38 42 42 43 45 44 39 45
REMARK SMILES IDX 40 46 43 47 41 48 67 49 68 50 76 51 69 52 70 53 74 54 77 55
REMARK SMILES IDX 71 56 72 57 75 58 73 59 52 60 53 61 61 62 54 63 55 64 59 65
REMARK SMILES IDX 62 66 56 67 57 68 60 69 58 70 5 71 6 72 7 73 8 74 9 76 10 77
REMARK SMILES IDX 11 78 21 79 12 80 20 81 22 82 23 83 24 84 25 85 13 86 14 87
REMARK SMILES IDX 19 88 15 89 17 90 16 91 18 92
REMARK H PARENT 3 5 82 23 50 34 7 75
REMARK Flexibility Score: inf
ROOT
ATOM      1  C   UNL A   1      33.258  29.343  25.286  1.00  0.00     0.118 C 
ENDROOT
BRANCH   1   2
ATOM      2  N   UNL A   1      32.757  30.552  25.933  1.00  0.00    -0.352 N 
ATOM      3  O   UNL A   1      32.564  32.166  27.489  1.00  0.00    -0.269 OA
ATOM      4  C   UNL A   1      33.242  31.265  27.003  1.00  0.00     0.251 C 
ATOM      5  H   UNL A   1      31.934  30.917  25.535  1.00  0.00     0.163 HD
BRANCH   4   6
ATOM      6  C   UNL A   1      34.555  30.932  27.595  1.00  0.00     0.039 A 
ATOM      7  C   UNL A   1      34.838  29.636  28.023  1.00  0.00     0.014 A 
ATOM      8  C   UNL A   1      35.524  31.931  27.723  1.00  0.00     0.014 A 
ATOM      9  C   UNL A   1      35.982  29.390  28.769  1.00  0.00     0.010 A 
ATOM     10  C   UNL A   1      36.735  31.650  28.364  1.00  0.00     0.010 A 
ATOM     11  C   UNL A   1      36.952  30.390  28.943  1.00  0.00    -0.014 A 
BRANCH  11  12
ATOM     12  C   UNL A   1      38.186  30.071  29.709  1.00  0.00     0.031 A 
ATOM     13  C   UNL A   1      38.371  30.548  31.124  1.00  0.00     0.074 A 
ATOM     14  C   UNL A   1      39.121  29.290  29.134  1.00  0.00     0.049 A 
ATOM     15  N   UNL A   1      39.357  30.308  31.954  1.00  0.00    -0.248 NA
ATOM     16  C   UNL A   1      37.322  31.414  31.683  1.00  0.00     0.031 C 
ATOM     17  C   UNL A   1      39.060  28.774  27.764  1.00  0.00     0.029 A 
ATOM     18  N   UNL A   1      40.286  28.766  29.632  1.00  0.00    -0.354 N 
ATOM     19  C   UNL A   1      39.061  31.011  33.115  1.00  0.00     0.074 A 
ATOM     20  C   UNL A   1      37.817  31.711  32.876  1.00  0.00     0.031 C 
ATOM     21  C   UNL A   1      40.101  27.957  27.553  1.00  0.00     0.029 A 
ATOM     22  C   UNL A   1      40.942  27.947  28.744  1.00  0.00     0.049 A 
ATOM     23  H   UNL A   1      40.621  28.958  30.537  1.00  0.00     0.167 HD
ATOM     24  C   UNL A   1      39.759  31.060  34.276  1.00  0.00     0.037 A 
ATOM     25  C   UNL A   1      42.097  27.271  28.869  1.00  0.00     0.037 A 
ATOM     26  C   UNL A   1      40.985  30.340  34.517  1.00  0.00     0.049 A 
ATOM     27  C   UNL A   1      42.856  27.357  30.162  1.00  0.00     0.074 A 
ATOM     28  C   UNL A   1      41.743  30.290  35.674  1.00  0.00     0.029 A 
ATOM     29  N   UNL A   1      41.636  29.549  33.581  1.00  0.00    -0.354 N 
ATOM     30  N   UNL A   1      42.542  27.992  31.265  1.00  0.00    -0.248 NA
ATOM     31  C   UNL A   1      44.129  26.630  30.227  1.00  0.00     0.031 C 
ATOM     32  C   UNL A   1      42.881  29.516  35.421  1.00  0.00     0.029 A 
ATOM     33  C   UNL A   1      42.799  29.029  34.126  1.00  0.00     0.049 A 
ATOM     34  H   UNL A   1      41.317  29.382  32.664  1.00  0.00     0.167 HD
ATOM     35  C   UNL A   1      43.563  27.718  32.164  1.00  0.00     0.074 A 
ATOM     36  C   UNL A   1      44.496  26.845  31.482  1.00  0.00     0.031 C 
ATOM     37  C   UNL A   1      43.715  28.153  33.440  1.00  0.00     0.037 A 
BRANCH  24  38
ATOM     38  C   UNL A   1      39.229  31.939  35.375  1.00  0.00     0.064 A 
ATOM     39  C   UNL A   1      38.435  31.435  36.415  1.00  0.00     0.173 A 
ATOM     40  C   UNL A   1      39.562  33.304  35.410  1.00  0.00     0.173 A 
ATOM     41  F   UNL A   1      38.080  30.142  36.427  1.00  0.00    -0.203 F 
ATOM     42  C   UNL A   1      37.970  32.267  37.432  1.00  0.00     0.198 A 
ATOM     43  C   UNL A   1      39.121  34.126  36.444  1.00  0.00     0.198 A 
ATOM     44  F   UNL A   1      40.325  33.838  34.445  1.00  0.00    -0.203 F 
ATOM     45  F   UNL A   1      37.172  31.772  38.388  1.00  0.00    -0.200 F 
ATOM     46  C   UNL A   1      38.319  33.609  37.450  1.00  0.00     0.200 A 
ATOM     47  F   UNL A   1      39.473  35.419  36.467  1.00  0.00    -0.200 F 
ATOM     48  F   UNL A   1      37.878  34.406  38.433  1.00  0.00    -0.200 F 
ENDBRANCH  24  38
BRANCH  25  49
ATOM     49  C   UNL A   1      42.600  26.448  27.737  1.00  0.00     0.064 A 
ATOM     50  C   UNL A   1      42.206  25.112  27.585  1.00  0.00     0.173 A 
ATOM     51  C   UNL A   1      43.483  26.981  26.786  1.00  0.00     0.173 A 
ATOM     52  F   UNL A   1      41.377  24.552  28.478  1.00  0.00    -0.203 F 
ATOM     53  C   UNL A   1      42.692  24.333  26.537  1.00  0.00     0.198 A 
ATOM     54  C   UNL A   1      43.941  26.212  25.719  1.00  0.00     0.198 A 
ATOM     55  F   UNL A   1      43.885  28.257  26.883  1.00  0.00    -0.203 F 
ATOM     56  F   UNL A   1      42.338  23.046  26.442  1.00  0.00    -0.200 F 
ATOM     57  C   UNL A   1      43.554  24.886  25.601  1.00  0.00     0.200 A 
ATOM     58  F   UNL A   1      44.758  26.756  24.807  1.00  0.00    -0.200 F 
ATOM     59  F   UNL A   1      44.017  24.140  24.589  1.00  0.00    -0.200 F 
ENDBRANCH  25  49
BRANCH  37  60
ATOM     60  C   UNL A   1      44.910  27.647  34.196  1.00  0.00     0.064 A 
ATOM     61  C   UNL A   1      46.128  28.343  34.211  1.00  0.00     0.173 A 
ATOM     62  C   UNL A   1      44.829  26.451  34.925  1.00  0.00     0.173 A 
ATOM     63  F   UNL A   1      46.263  29.483  33.515  1.00  0.00    -0.203 F 
ATOM     64  C   UNL A   1      47.230  27.842  34.898  1.00  0.00     0.198 A 
ATOM     65  C   UNL A   1      45.922  25.971  35.641  1.00  0.00     0.198 A 
ATOM     66  F   UNL A   1      43.685  25.749  34.951  1.00  0.00    -0.203 F 
ATOM     67  F   UNL A   1      48.401  28.492  34.846  1.00  0.00    -0.200 F 
ATOM     68  C   UNL A   1      47.125  26.661  35.617  1.00  0.00     0.200 A 
ATOM     69  F   UNL A   1      45.814  24.838  36.347  1.00  0.00    -0.200 F 
ATOM     70  F   UNL A   1      48.187  26.181  36.278  1.00  0.00    -0.200 F 
ENDBRANCH  37  60
ENDBRANCH  11  12
ENDBRANCH   4   6
ENDBRANCH   1   2
BRANCH   1  71
ATOM     71  C   UNL A   1      32.283  28.180  25.364  1.00  0.00     0.042 C 
BRANCH  71  72
ATOM     72  C   UNL A   1      32.426  27.352  26.633  1.00  0.00     0.118 C 
BRANCH  72  73
ATOM     73  N   UNL A   1      31.263  26.506  26.880  1.00  0.00    -0.352 N 
ATOM     74  C   UNL A   1      30.972  25.254  26.396  1.00  0.00     0.255 C 
ATOM     75  H   UNL A   1      30.585  26.891  27.482  1.00  0.00     0.163 HD
ATOM     76  O   UNL A   1      29.863  24.766  26.583  1.00  0.00    -0.269 OA
BRANCH  74  77
ATOM     77  C   UNL A   1      32.013  24.561  25.677  1.00  0.00     0.091 A 
ATOM     78  C   UNL A   1      33.132  23.874  26.220  1.00  0.00     0.065 A 
ATOM     79  C   UNL A   1      32.117  24.437  24.302  1.00  0.00     0.221 A 
ATOM     80  C   UNL A   1      33.953  23.573  25.162  1.00  0.00     0.135 A 
ATOM     81  O   UNL A   1      33.338  23.878  23.987  1.00  0.00    -0.451 OA
BRANCH  79  82
ATOM     82  C   UNL A   1      31.249  24.840  23.166  1.00  0.00     0.450 C 
ATOM     83  F   UNL A   1      31.915  24.786  21.982  1.00  0.00    -0.163 F 
ATOM     84  F   UNL A   1      30.166  24.030  23.043  1.00  0.00    -0.163 F 
ATOM     85  F   UNL A   1      30.782  26.110  23.274  1.00  0.00    -0.163 F 
ENDBRANCH  79  82
BRANCH  80  86
ATOM     86  C   UNL A   1      35.318  23.092  25.111  1.00  0.00     0.019 A 
ATOM     87  C   UNL A   1      35.583  21.786  24.674  1.00  0.00     0.012 A 
ATOM     88  C   UNL A   1      36.357  23.862  25.646  1.00  0.00     0.032 A 
ATOM     89  C   UNL A   1      36.867  21.250  24.783  1.00  0.00     0.002 A 
ATOM     90  C   UNL A   1      37.633  23.316  25.767  1.00  0.00     0.041 A 
ATOM     91  C   UNL A   1      37.891  22.013  25.341  1.00  0.00     0.020 A 
ATOM     92  Cl  UNL A   1      38.890  24.238  26.496  1.00  0.00    -0.084 Cl
ENDBRANCH  80  86
ENDBRANCH  74  77
ENDBRANCH  72  73
ENDBRANCH  71  72
ENDBRANCH   1  71
TORSDOF 12
ENDMDL
MODEL 2
REMARK VINA RESULT:     -12.5      0.434      1.709
REMARK SMILES O=C(NCCCNC(=O)c1cc(-c2cccc(Cl)c2)oc1C(F)(F)F)c1ccc(-c2c3nc(c(-c4c(F)c(F)c(F)c(F)c4F)c4ccc([nH]4)c(-c4c(F)c(F)c(F)c(F)c4F)c4nc(c(-c5c(F)c(F)c(F)c(F)c5F)c5ccc2[nH]5)C=C4)C=C3)cc1
REMARK SMILES IDX 4 1 3 2 1 3 2 4 26 6 27 7 88 8 28 9 87 10 29 11 30 12 31 13
REMARK SMILES IDX 81 14 32 15 86 16 80 17 82 18 33 19 85 20 79 21 78 22 34 24
REMARK SMILES IDX 66 25 46 26 65 27 47 28 50 29 64 30 83 31 48 32 49 33 63 35
REMARK SMILES IDX 84 36 51 37 35 38 36 39 44 40 37 41 38 42 42 43 45 44 39 45
REMARK SMILES IDX 40 46 43 47 41 48 67 49 68 50 76 51 69 52 70 53 74 54 77 55
REMARK SMILES IDX 71 56 72 57 75 58 73 59 52 60 53 61 61 62 54 63 55 64 59 65
REMARK SMILES IDX 62 66 56 67 57 68 60 69 58 70 5 71 6 72 7 73 8 74 9 76 10 77
REMARK SMILES IDX 11 78 21 79 12 80 20 81 22 82 23 83 24 84 25 85 13 86 14 87
REMARK SMILES IDX 19 88 15 89 17 90 16 91 18 92
REMARK H PARENT 3 5 82 23 50 34 7 75
REMARK Flexibility Score: inf
ROOT
ATOM      1  C   UNL A   1      32.872  29.615  26.004  1.00  0.00     0.118 C 
ENDROOT
BRANCH   1   2
ATOM      2  N   UNL A   1      32.634  31.000  26.400  1.00  0.00    -0.352 N 
ATOM      3  O   UNL A   1      32.840  32.903  27.583  1.00  0.00    -0.269 OA
ATOM      4  C   UNL A   1      33.316  31.815  27.271  1.00  0.00     0.251 C 
ATOM      5  H   UNL A   1      31.854  31.419  25.970  1.00  0.00     0.163 HD
BRANCH   4   6
ATOM      6  C   UNL A   1      34.599  31.378  27.861  1.00  0.00     0.039 A 
ATOM      7  C   UNL A   1      34.782  30.060  28.276  1.00  0.00     0.014 A 
ATOM      8  C   UNL A   1      35.641  32.299  28.001  1.00  0.00     0.014 A 
ATOM      9  C   UNL A   1      35.903  29.721  29.021  1.00  0.00     0.010 A 
ATOM     10  C   UNL A   1      36.826  31.921  28.640  1.00  0.00     0.010 A 
ATOM     11  C   UNL A   1      36.945  30.643  29.207  1.00  0.00    -0.014 A 
BRANCH  11  12
ATOM     12  C   UNL A   1      38.149  30.223  29.972  1.00  0.00     0.031 A 
ATOM     13  C   UNL A   1      38.341  30.627  31.409  1.00  0.00     0.074 A 
ATOM     14  C   UNL A   1      39.049  29.417  29.373  1.00  0.00     0.049 A 
ATOM     15  N   UNL A   1      39.302  30.298  32.238  1.00  0.00    -0.248 NA
ATOM     16  C   UNL A   1      37.333  31.524  31.993  1.00  0.00     0.031 C 
ATOM     17  C   UNL A   1      38.978  28.966  27.981  1.00  0.00     0.029 A 
ATOM     18  N   UNL A   1      40.177  28.809  29.860  1.00  0.00    -0.354 N 
ATOM     19  C   UNL A   1      39.028  30.964  33.425  1.00  0.00     0.074 A 
ATOM     20  C   UNL A   1      37.828  31.741  33.204  1.00  0.00     0.031 C 
ATOM     21  C   UNL A   1      39.976  28.103  27.746  1.00  0.00     0.029 A 
ATOM     22  C   UNL A   1      40.798  27.995  28.944  1.00  0.00     0.049 A 
ATOM     23  H   UNL A   1      40.510  28.943  30.776  1.00  0.00     0.167 HD
ATOM     24  C   UNL A   1      39.713  30.924  34.595  1.00  0.00     0.037 A 
ATOM     25  C   UNL A   1      41.914  27.252  29.052  1.00  0.00     0.037 A 
ATOM     26  C   UNL A   1      40.894  30.129  34.817  1.00  0.00     0.049 A 
ATOM     27  C   UNL A   1      42.659  27.240  30.356  1.00  0.00     0.074 A 
ATOM     28  C   UNL A   1      41.633  29.987  35.979  1.00  0.00     0.029 A 
ATOM     29  N   UNL A   1      41.514  29.345  33.855  1.00  0.00    -0.354 N 
ATOM     30  N   UNL A   1      42.365  27.842  31.482  1.00  0.00    -0.248 NA
ATOM     31  C   UNL A   1      43.890  26.442  30.402  1.00  0.00     0.031 C 
ATOM     32  C   UNL A   1      42.731  29.163  35.704  1.00  0.00     0.029 A 
ATOM     33  C   UNL A   1      42.640  28.739  34.389  1.00  0.00     0.049 A 
ATOM     34  H   UNL A   1      41.199  29.235  32.928  1.00  0.00     0.167 HD
ATOM     35  C   UNL A   1      43.358  27.474  32.379  1.00  0.00     0.074 A 
ATOM     36  C   UNL A   1      44.251  26.581  31.669  1.00  0.00     0.031 C 
ATOM     37  C   UNL A   1      43.516  27.844  33.674  1.00  0.00     0.037 A 
BRANCH  24  38
ATOM     38  C   UNL A   1      39.217  31.783  35.726  1.00  0.00     0.064 A 
ATOM     39  C   UNL A   1      38.292  31.312  36.669  1.00  0.00     0.173 A 
ATOM     40  C   UNL A   1      39.713  33.086  35.893  1.00  0.00     0.173 A 
ATOM     41  F   UNL A   1      37.778  30.078  36.552  1.00  0.00    -0.203 F 
ATOM     42  C   UNL A   1      37.860  32.121  37.718  1.00  0.00     0.198 A 
ATOM     43  C   UNL A   1      39.304  33.881  36.961  1.00  0.00     0.198 A 
ATOM     44  F   UNL A   1      40.607  33.586  35.026  1.00  0.00    -0.203 F 
ATOM     45  F   UNL A   1      36.938  31.665  38.578  1.00  0.00    -0.200 F 
ATOM     46  C   UNL A   1      38.371  33.401  37.867  1.00  0.00     0.200 A 
ATOM     47  F   UNL A   1      39.811  35.112  37.111  1.00  0.00    -0.200 F 
ATOM     48  F   UNL A   1      37.961  34.175  38.882  1.00  0.00    -0.200 F 
ENDBRANCH  24  38
BRANCH  25  49
ATOM     49  C   UNL A   1      42.386  26.452  27.890  1.00  0.00     0.064 A 
ATOM     50  C   UNL A   1      43.213  27.020  26.912  1.00  0.00     0.173 A 
ATOM     51  C   UNL A   1      42.022  25.107  27.737  1.00  0.00     0.173 A 
ATOM     52  F   UNL A   1      43.576  28.308  27.006  1.00  0.00    -0.203 F 
ATOM     53  C   UNL A   1      43.641  26.278  25.813  1.00  0.00     0.198 A 
ATOM     54  C   UNL A   1      42.477  24.357  26.655  1.00  0.00     0.198 A 
ATOM     55  F   UNL A   1      41.237  24.515  28.649  1.00  0.00    -0.203 F 
ATOM     56  F   UNL A   1      44.390  26.859  24.867  1.00  0.00    -0.200 F 
ATOM     57  C   UNL A   1      43.277  24.946  25.689  1.00  0.00     0.200 A 
ATOM     58  F   UNL A   1      42.139  23.064  26.550  1.00  0.00    -0.200 F 
ATOM     59  F   UNL A   1      43.693  24.230  24.635  1.00  0.00    -0.200 F 
ENDBRANCH  25  49
BRANCH  37  60
ATOM     60  C   UNL A   1      44.672  27.241  34.421  1.00  0.00     0.064 A 
ATOM     61  C   UNL A   1      44.557  26.023  35.107  1.00  0.00     0.173 A 
ATOM     62  C   UNL A   1      45.916  27.889  34.438  1.00  0.00     0.173 A 
ATOM     63  F   UNL A   1      43.384  25.371  35.135  1.00  0.00    -0.203 F 
ATOM     64  C   UNL A   1      45.634  25.495  35.813  1.00  0.00     0.198 A 
ATOM     65  C   UNL A   1      47.001  27.341  35.115  1.00  0.00     0.198 A 
ATOM     66  F   UNL A   1      46.082  29.053  33.792  1.00  0.00    -0.203 F 
ATOM     67  F   UNL A   1      45.483  24.362  36.513  1.00  0.00    -0.200 F 
ATOM     68  C   UNL A   1      46.857  26.150  35.811  1.00  0.00     0.200 A 
ATOM     69  F   UNL A   1      48.185  27.968  35.100  1.00  0.00    -0.200 F 
ATOM     70  F   UNL A   1      47.892  25.640  36.491  1.00  0.00    -0.200 F 
ENDBRANCH  37  60
ENDBRANCH  11  12
ENDBRANCH   4   6
ENDBRANCH   1   2
BRANCH   1  71
ATOM     71  C   UNL A   1      31.822  28.655  26.540  1.00  0.00     0.042 C 
BRANCH  71  72
ATOM     72  C   UNL A   1      32.251  27.196  26.490  1.00  0.00     0.118 C 
BRANCH  72  73
ATOM     73  N   UNL A   1      31.176  26.287  26.873  1.00  0.00    -0.352 N 
ATOM     74  C   UNL A   1      30.958  24.983  26.500  1.00  0.00     0.255 C 
ATOM     75  H   UNL A   1      30.507  26.664  27.489  1.00  0.00     0.163 HD
ATOM     76  O   UNL A   1      29.904  24.428  26.794  1.00  0.00    -0.269 OA
BRANCH  74  77
ATOM     77  C   UNL A   1      32.006  24.317  25.767  1.00  0.00     0.091 A 
ATOM     78  C   UNL A   1      33.135  23.634  26.294  1.00  0.00     0.065 A 
ATOM     79  C   UNL A   1      32.110  24.221  24.389  1.00  0.00     0.221 A 
ATOM     80  C   UNL A   1      33.958  23.364  25.229  1.00  0.00     0.135 A 
ATOM     81  O   UNL A   1      33.337  23.684  24.062  1.00  0.00    -0.451 OA
BRANCH  79  82
ATOM     82  C   UNL A   1      31.234  24.635  23.262  1.00  0.00     0.450 C 
ATOM     83  F   UNL A   1      30.681  25.858  23.480  1.00  0.00    -0.163 F 
ATOM     84  F   UNL A   1      31.918  24.716  22.092  1.00  0.00    -0.163 F 
ATOM     85  F   UNL A   1      30.195  23.787  23.054  1.00  0.00    -0.163 F 
ENDBRANCH  79  82
BRANCH  80  86
ATOM     86  C   UNL A   1      35.329  22.901  25.167  1.00  0.00     0.019 A 
ATOM     87  C   UNL A   1      35.607  21.595  24.740  1.00  0.00     0.012 A 
ATOM     88  C   UNL A   1      36.363  23.692  25.683  1.00  0.00     0.032 A 
ATOM     89  C   UNL A   1      36.900  21.079  24.839  1.00  0.00     0.002 A 
ATOM     90  C   UNL A   1      37.648  23.164  25.794  1.00  0.00     0.041 A 
ATOM     91  C   UNL A   1      37.920  21.861  25.377  1.00  0.00     0.020 A 
ATOM     92  Cl  UNL A   1      38.901  24.111  26.498  1.00  0.00    -0.084 Cl
ENDBRANCH  80  86
ENDBRANCH  74  77
ENDBRANCH  72  73
ENDBRANCH  71  72
ENDBRANCH   1  71
TORSDOF 12
ENDMDL
MODEL 3
REMARK VINA RESULT:     -12.5      1.057      2.060
REMARK SMILES O=C(NCCCNC(=O)c1cc(-c2cccc(Cl)c2)oc1C(F)(F)F)c1ccc(-c2c3nc(c(-c4c(F)c(F)c(F)c(F)c4F)c4ccc([nH]4)c(-c4c(F)c(F)c(F)c(F)c4F)c4nc(c(-c5c(F)c(F)c(F)c(F)c5F)c5ccc2[nH]5)C=C4)C=C3)cc1
REMARK SMILES IDX 4 1 3 2 1 3 2 4 26 6 27 7 88 8 28 9 87 10 29 11 30 12 31 13
REMARK SMILES IDX 81 14 32 15 86 16 80 17 82 18 33 19 85 20 79 21 78 22 34 24
REMARK SMILES IDX 66 25 46 26 65 27 47 28 50 29 64 30 83 31 48 32 49 33 63 35
REMARK SMILES IDX 84 36 51 37 35 38 36 39 44 40 37 41 38 42 42 43 45 44 39 45
REMARK SMILES IDX 40 46 43 47 41 48 67 49 68 50 76 51 69 52 70 53 74 54 77 55
REMARK SMILES IDX 71 56 72 57 75 58 73 59 52 60 53 61 61 62 54 63 55 64 59 65
REMARK SMILES IDX 62 66 56 67 57 68 60 69 58 70 5 71 6 72 7 73 8 74 9 76 10 77
REMARK SMILES IDX 11 78 21 79 12 80 20 81 22 82 23 83 24 84 25 85 13 86 14 87
REMARK SMILES IDX 19 88 15 89 17 90 16 91 18 92
REMARK H PARENT 3 5 82 23 50 34 7 75
REMARK Flexibility Score: inf
ROOT
ATOM      1  C   UNL A   1      32.699  29.420  26.366  1.00  0.00     0.118 C 
ENDROOT
BRANCH   1   2
ATOM      2  N   UNL A   1      32.543  30.853  26.595  1.00  0.00    -0.352 N 
ATOM      3  O   UNL A   1      32.909  32.879  27.504  1.00  0.00    -0.269 OA
ATOM      4  C   UNL A   1      33.319  31.740  27.302  1.00  0.00     0.251 C 
ATOM      5  H   UNL A   1      31.748  31.251  26.171  1.00  0.00     0.163 HD
BRANCH   4   6
ATOM      6  C   UNL A   1      34.627  31.321  27.851  1.00  0.00     0.039 A 
ATOM      7  C   UNL A   1      34.849  30.001  28.238  1.00  0.00     0.014 A 
ATOM      8  C   UNL A   1      35.651  32.263  27.980  1.00  0.00     0.014 A 
ATOM      9  C   UNL A   1      35.996  29.674  28.948  1.00  0.00     0.010 A 
ATOM     10  C   UNL A   1      36.860  31.901  28.583  1.00  0.00     0.010 A 
ATOM     11  C   UNL A   1      37.022  30.616  29.123  1.00  0.00    -0.014 A 
BRANCH  11  12
ATOM     12  C   UNL A   1      38.255  30.211  29.849  1.00  0.00     0.031 A 
ATOM     13  C   UNL A   1      38.520  30.674  31.256  1.00  0.00     0.074 A 
ATOM     14  C   UNL A   1      39.113  29.364  29.246  1.00  0.00     0.049 A 
ATOM     15  N   UNL A   1      39.514  30.366  32.054  1.00  0.00    -0.248 NA
ATOM     16  C   UNL A   1      37.555  31.613  31.846  1.00  0.00     0.031 C 
ATOM     17  C   UNL A   1      38.970  28.853  27.881  1.00  0.00     0.029 A 
ATOM     18  N   UNL A   1      40.254  28.759  29.707  1.00  0.00    -0.354 N 
ATOM     19  C   UNL A   1      39.307  31.089  33.221  1.00  0.00     0.074 A 
ATOM     20  C   UNL A   1      38.109  31.875  33.021  1.00  0.00     0.031 C 
ATOM     21  C   UNL A   1      39.943  27.964  27.639  1.00  0.00     0.029 A 
ATOM     22  C   UNL A   1      40.819  27.895  28.801  1.00  0.00     0.049 A 
ATOM     23  H   UNL A   1      40.632  28.927  30.600  1.00  0.00     0.167 HD
ATOM     24  C   UNL A   1      40.045  31.089  34.359  1.00  0.00     0.037 A 
ATOM     25  C   UNL A   1      41.928  27.139  28.890  1.00  0.00     0.037 A 
ATOM     26  C   UNL A   1      41.224  30.284  34.561  1.00  0.00     0.049 A 
ATOM     27  C   UNL A   1      42.733  27.172  30.157  1.00  0.00     0.074 A 
ATOM     28  C   UNL A   1      42.015  30.181  35.693  1.00  0.00     0.029 A 
ATOM     29  N   UNL A   1      41.786  29.448  33.607  1.00  0.00    -0.354 N 
ATOM     30  N   UNL A   1      42.502  27.828  31.267  1.00  0.00    -0.248 NA
ATOM     31  C   UNL A   1      43.953  26.356  30.182  1.00  0.00     0.031 C 
ATOM     32  C   UNL A   1      43.086  29.328  35.404  1.00  0.00     0.029 A 
ATOM     33  C   UNL A   1      42.927  28.848  34.115  1.00  0.00     0.049 A 
ATOM     34  H   UNL A   1      41.426  29.303  32.701  1.00  0.00     0.167 HD
ATOM     35  C   UNL A   1      43.531  27.484  32.133  1.00  0.00     0.074 A 
ATOM     36  C   UNL A   1      44.376  26.545  31.423  1.00  0.00     0.031 C 
ATOM     37  C   UNL A   1      43.755  27.908  33.401  1.00  0.00     0.037 A 
BRANCH  24  38
ATOM     38  C   UNL A   1      39.616  32.005  35.471  1.00  0.00     0.064 A 
ATOM     39  C   UNL A   1      40.091  33.321  35.578  1.00  0.00     0.173 A 
ATOM     40  C   UNL A   1      38.677  31.571  36.422  1.00  0.00     0.173 A 
ATOM     41  F   UNL A   1      40.995  33.785  34.702  1.00  0.00    -0.203 F 
ATOM     42  C   UNL A   1      39.666  34.157  36.608  1.00  0.00     0.198 A 
ATOM     43  C   UNL A   1      38.230  32.419  37.432  1.00  0.00     0.198 A 
ATOM     44  F   UNL A   1      38.183  30.325  36.364  1.00  0.00    -0.203 F 
ATOM     45  F   UNL A   1      40.170  35.394  36.717  1.00  0.00    -0.200 F 
ATOM     46  C   UNL A   1      38.731  33.709  37.529  1.00  0.00     0.200 A 
ATOM     47  F   UNL A   1      37.315  31.989  38.311  1.00  0.00    -0.200 F 
ATOM     48  F   UNL A   1      38.316  34.517  38.515  1.00  0.00    -0.200 F 
ENDBRANCH  24  38
BRANCH  25  49
ATOM     49  C   UNL A   1      42.333  26.281  27.745  1.00  0.00     0.064 A 
ATOM     50  C   UNL A   1      41.789  25.001  27.574  1.00  0.00     0.173 A 
ATOM     51  C   UNL A   1      43.270  26.724  26.800  1.00  0.00     0.173 A 
ATOM     52  F   UNL A   1      40.902  24.526  28.459  1.00  0.00    -0.203 F 
ATOM     53  C   UNL A   1      42.183  24.188  26.512  1.00  0.00     0.198 A 
ATOM     54  C   UNL A   1      43.637  25.924  25.721  1.00  0.00     0.198 A 
ATOM     55  F   UNL A   1      43.816  27.944  26.915  1.00  0.00    -0.203 F 
ATOM     56  F   UNL A   1      41.684  22.951  26.399  1.00  0.00    -0.200 F 
ATOM     57  C   UNL A   1      43.102  24.653  25.583  1.00  0.00     0.200 A 
ATOM     58  F   UNL A   1      44.511  26.385  24.815  1.00  0.00    -0.200 F 
ATOM     59  F   UNL A   1      43.476  23.874  24.559  1.00  0.00    -0.200 F 
ENDBRANCH  25  49
BRANCH  37  60
ATOM     60  C   UNL A   1      44.936  27.319  34.119  1.00  0.00     0.064 A 
ATOM     61  C   UNL A   1      44.836  26.134  34.863  1.00  0.00     0.173 A 
ATOM     62  C   UNL A   1      46.188  27.947  34.050  1.00  0.00     0.173 A 
ATOM     63  F   UNL A   1      43.656  25.504  34.975  1.00  0.00    -0.203 F 
ATOM     64  C   UNL A   1      45.937  25.620  35.542  1.00  0.00     0.198 A 
ATOM     65  C   UNL A   1      47.296  27.411  34.700  1.00  0.00     0.198 A 
ATOM     66  F   UNL A   1      46.341  29.079  33.346  1.00  0.00    -0.203 F 
ATOM     67  F   UNL A   1      45.803  24.521  36.298  1.00  0.00    -0.200 F 
ATOM     68  C   UNL A   1      47.168  26.254  35.454  1.00  0.00     0.200 A 
ATOM     69  F   UNL A   1      48.487  28.017  34.603  1.00  0.00    -0.200 F 
ATOM     70  F   UNL A   1      48.227  25.757  36.108  1.00  0.00    -0.200 F 
ENDBRANCH  37  60
ENDBRANCH  11  12
ENDBRANCH   4   6
ENDBRANCH   1   2
BRANCH   1  71
ATOM     71  C   UNL A   1      31.724  28.580  27.175  1.00  0.00     0.042 C 
BRANCH  71  72
ATOM     72  C   UNL A   1      31.567  27.160  26.652  1.00  0.00     0.118 C 
BRANCH  72  73
ATOM     73  N   UNL A   1      31.531  27.103  25.195  1.00  0.00    -0.352 N 
ATOM     74  C   UNL A   1      32.227  26.291  24.333  1.00  0.00     0.255 C 
ATOM     75  H   UNL A   1      30.917  27.743  24.765  1.00  0.00     0.163 HD
ATOM     76  O   UNL A   1      32.189  26.502  23.126  1.00  0.00    -0.269 OA
BRANCH  74  77
ATOM     77  C   UNL A   1      32.982  25.204  24.907  1.00  0.00     0.091 A 
ATOM     78  C   UNL A   1      34.361  25.192  25.250  1.00  0.00     0.065 A 
ATOM     79  C   UNL A   1      32.495  23.949  25.231  1.00  0.00     0.221 A 
ATOM     80  C   UNL A   1      34.675  23.889  25.546  1.00  0.00     0.135 A 
ATOM     81  O   UNL A   1      33.548  23.127  25.572  1.00  0.00    -0.451 OA
BRANCH  79  82
ATOM     82  C   UNL A   1      31.142  23.335  25.208  1.00  0.00     0.450 C 
ATOM     83  F   UNL A   1      30.598  23.369  23.962  1.00  0.00    -0.163 F 
ATOM     84  F   UNL A   1      31.170  22.032  25.590  1.00  0.00    -0.163 F 
ATOM     85  F   UNL A   1      30.255  23.966  26.020  1.00  0.00    -0.163 F 
ENDBRANCH  79  82
BRANCH  80  86
ATOM     86  C   UNL A   1      35.949  23.227  25.738  1.00  0.00     0.019 A 
ATOM     87  C   UNL A   1      37.065  23.966  26.153  1.00  0.00     0.012 A 
ATOM     88  C   UNL A   1      36.113  21.889  25.356  1.00  0.00     0.032 A 
ATOM     89  C   UNL A   1      38.333  23.382  26.175  1.00  0.00     0.002 A 
ATOM     90  C   UNL A   1      37.383  21.318  25.364  1.00  0.00     0.041 A 
ATOM     91  C   UNL A   1      38.493  22.059  25.769  1.00  0.00     0.020 A 
ATOM     92  Cl  UNL A   1      37.593  19.698  24.822  1.00  0.00    -0.084 Cl
ENDBRANCH  80  86
ENDBRANCH  74  77
ENDBRANCH  72  73
ENDBRANCH  71  72
ENDBRANCH   1  71
TORSDOF 12
ENDMDL
