MODEL 1
REMARK VINA RESULT:     -12.4      0.000      0.000
REMARK SMILES COc1cccc(/C=C(/C#N)c2ccc(Br)cc2)c1O[C@@H](C)C(=O)NCCCNC(=O)c1ccc(-c2c3nc(c(-c4c(F)c(F)c(F)c(F)c4F)c4ccc([nH]4)c(-c4c(F)c(F)c(F)c(F)c4F)c4nc(c(-c5c(F)c(F)c(F)c(F)c5F)c5ccc2[nH]5)C=C4)C=C3)cc1
REMARK SMILES IDX 26 1 25 2 23 3 24 4 21 6 22 7 20 8 19 9 3 10 4 11 5 12 7 13
REMARK SMILES IDX 6 14 2 15 1 16 8 17 9 18 10 19 11 20 12 21 13 22 18 23 14 24
REMARK SMILES IDX 17 25 15 26 16 27 27 28 28 29 29 30 30 31 31 33 32 34 33 35
REMARK SMILES IDX 94 36 34 37 93 38 35 39 36 40 37 41 87 42 38 43 92 44 86 45
REMARK SMILES IDX 88 46 39 47 91 48 85 49 84 50 40 52 72 53 52 54 71 55 53 56
REMARK SMILES IDX 56 57 70 58 89 59 54 60 55 61 69 63 90 64 57 65 41 66 42 67
REMARK SMILES IDX 50 68 43 69 44 70 48 71 51 72 45 73 46 74 49 75 47 76 73 77
REMARK SMILES IDX 74 78 82 79 75 80 76 81 80 82 83 83 77 84 78 85 81 86 79 87
REMARK SMILES IDX 58 88 59 89 67 90 60 91 61 92 65 93 68 94 62 95 63 96 66 97
REMARK SMILES IDX 64 98
REMARK H PARENT 25 5 29 32 88 51 56 62
REMARK Flexibility Score: inf
ROOT
ATOM      1  C   UNL A   1      33.689  26.413  25.035  1.00  0.00     0.118 C 
ENDROOT
BRANCH   1   2
ATOM      2  N   UNL A   1      34.173  26.691  23.701  1.00  0.00    -0.353 N 
ATOM      3  C   UNL A   1      33.608  26.606  22.471  1.00  0.00     0.260 C 
ATOM      4  O   UNL A   1      34.008  27.491  21.694  1.00  0.00    -0.271 OA
ATOM      5  H   UNL A   1      35.104  27.008  23.682  1.00  0.00     0.163 HD
BRANCH   3   6
ATOM      6  C   UNL A   1      32.634  25.493  21.896  1.00  0.00     0.259 C 
ATOM      7  C   UNL A   1      32.523  25.602  20.361  1.00  0.00     0.064 C 
BRANCH   6   8
ATOM      8  O   UNL A   1      31.536  24.740  22.361  1.00  0.00    -0.476 OA
BRANCH   8   9
ATOM      9  C   UNL A   1      30.939  25.023  23.548  1.00  0.00     0.169 A 
ATOM     10  C   UNL A   1      30.224  26.207  23.796  1.00  0.00     0.161 A 
ATOM     11  C   UNL A   1      29.678  26.431  25.062  1.00  0.00     0.050 A 
ATOM     12  C   UNL A   1      29.877  25.500  26.080  1.00  0.00     0.005 A 
ATOM     13  C   UNL A   1      30.962  23.987  24.514  1.00  0.00     0.022 A 
ATOM     14  C   UNL A   1      30.534  24.296  25.810  1.00  0.00     0.012 A 
BRANCH  10  15
ATOM     15  O   UNL A   1      29.912  27.039  22.757  1.00  0.00    -0.493 OA
ATOM     16  C   UNL A   1      30.228  28.418  22.926  1.00  0.00     0.278 C 
ENDBRANCH  10  15
BRANCH  13  17
ATOM     17  C   UNL A   1      31.357  22.606  24.101  1.00  0.00     0.032 C 
ATOM     18  C   UNL A   1      32.543  21.960  24.225  1.00  0.00     0.060 C 
BRANCH  18  19
ATOM     19  C   UNL A   1      32.608  20.565  23.887  1.00  0.00     0.100 C 
ATOM     20  N   UNL A   1      32.650  19.439  23.613  1.00  0.00    -0.192 NA
ENDBRANCH  18  19
BRANCH  18  21
ATOM     21  C   UNL A   1      33.798  22.606  24.658  1.00  0.00    -0.008 A 
ATOM     22  C   UNL A   1      34.027  22.785  26.030  1.00  0.00     0.010 A 
ATOM     23  C   UNL A   1      34.812  22.949  23.749  1.00  0.00     0.010 A 
ATOM     24  C   UNL A   1      35.274  23.213  26.485  1.00  0.00     0.016 A 
ATOM     25  C   UNL A   1      36.067  23.356  24.209  1.00  0.00     0.016 A 
ATOM     26  C   UNL A   1      36.295  23.477  25.577  1.00  0.00     0.018 A 
ATOM     27  Br  UNL A   1      38.005  23.976  26.207  1.00  0.00    -0.051 Br
ENDBRANCH  18  21
ENDBRANCH  13  17
ENDBRANCH   8   9
ENDBRANCH   6   8
ENDBRANCH   3   6
ENDBRANCH   1   2
BRANCH   1  28
ATOM     28  C   UNL A   1      33.025  27.593  25.717  1.00  0.00     0.042 C 
BRANCH  28  29
ATOM     29  C   UNL A   1      33.427  28.942  25.143  1.00  0.00     0.118 C 
BRANCH  29  30
ATOM     30  N   UNL A   1      32.762  30.077  25.793  1.00  0.00    -0.352 N 
ATOM     31  C   UNL A   1      33.140  30.863  26.862  1.00  0.00     0.251 C 
ATOM     32  H   UNL A   1      31.894  30.319  25.398  1.00  0.00     0.163 HD
ATOM     33  O   UNL A   1      32.345  31.669  27.335  1.00  0.00    -0.269 OA
BRANCH  31  34
ATOM     34  C   UNL A   1      34.486  30.722  27.464  1.00  0.00     0.039 A 
ATOM     35  C   UNL A   1      35.310  31.845  27.616  1.00  0.00     0.014 A 
ATOM     36  C   UNL A   1      34.937  29.479  27.895  1.00  0.00     0.014 A 
ATOM     37  C   UNL A   1      36.528  31.730  28.299  1.00  0.00     0.010 A 
ATOM     38  C   UNL A   1      36.066  29.393  28.693  1.00  0.00     0.010 A 
ATOM     39  C   UNL A   1      36.889  30.512  28.894  1.00  0.00    -0.014 A 
BRANCH  39  40
ATOM     40  C   UNL A   1      38.132  30.321  29.688  1.00  0.00     0.031 A 
ATOM     41  C   UNL A   1      39.195  29.391  29.158  1.00  0.00     0.074 A 
ATOM     42  C   UNL A   1      38.251  30.846  30.924  1.00  0.00     0.049 A 
ATOM     43  N   UNL A   1      40.219  28.861  29.777  1.00  0.00    -0.248 NA
ATOM     44  C   UNL A   1      39.052  28.949  27.759  1.00  0.00     0.031 C 
ATOM     45  C   UNL A   1      37.280  31.728  31.575  1.00  0.00     0.029 A 
ATOM     46  N   UNL A   1      39.234  30.682  31.873  1.00  0.00    -0.354 N 
ATOM     47  C   UNL A   1      40.798  27.988  28.865  1.00  0.00     0.074 A 
ATOM     48  C   UNL A   1      39.989  28.019  27.668  1.00  0.00     0.031 C 
ATOM     49  C   UNL A   1      37.720  32.033  32.806  1.00  0.00     0.029 A 
ATOM     50  C   UNL A   1      38.968  31.326  33.060  1.00  0.00     0.049 A 
ATOM     51  H   UNL A   1      40.050  30.154  31.717  1.00  0.00     0.167 HD
ATOM     52  C   UNL A   1      41.915  27.240  29.009  1.00  0.00     0.037 A 
ATOM     53  C   UNL A   1      39.638  31.320  34.229  1.00  0.00     0.037 A 
ATOM     54  C   UNL A   1      42.755  27.270  30.175  1.00  0.00     0.049 A 
ATOM     55  C   UNL A   1      40.890  30.494  34.352  1.00  0.00     0.074 A 
ATOM     56  C   UNL A   1      43.965  26.632  30.377  1.00  0.00     0.029 A 
ATOM     57  N   UNL A   1      42.475  27.982  31.331  1.00  0.00    -0.354 N 
ATOM     58  N   UNL A   1      41.454  29.714  33.466  1.00  0.00    -0.248 NA
ATOM     59  C   UNL A   1      41.593  30.542  35.642  1.00  0.00     0.031 C 
ATOM     60  C   UNL A   1      44.386  26.903  31.680  1.00  0.00     0.029 A 
ATOM     61  C   UNL A   1      43.478  27.773  32.261  1.00  0.00     0.049 A 
ATOM     62  H   UNL A   1      41.682  28.549  31.469  1.00  0.00     0.167 HD
ATOM     63  C   UNL A   1      42.598  29.214  34.073  1.00  0.00     0.074 A 
ATOM     64  C   UNL A   1      42.648  29.777  35.404  1.00  0.00     0.031 C 
ATOM     65  C   UNL A   1      43.526  28.367  33.570  1.00  0.00     0.037 A 
BRANCH  52  66
ATOM     66  C   UNL A   1      42.315  26.330  27.885  1.00  0.00     0.064 A 
ATOM     67  C   UNL A   1      41.724  25.072  27.703  1.00  0.00     0.173 A 
ATOM     68  C   UNL A   1      43.243  26.764  26.926  1.00  0.00     0.173 A 
ATOM     69  F   UNL A   1      40.841  24.604  28.599  1.00  0.00    -0.203 F 
ATOM     70  C   UNL A   1      42.055  24.277  26.608  1.00  0.00     0.198 A 
ATOM     71  C   UNL A   1      43.545  25.982  25.815  1.00  0.00     0.198 A 
ATOM     72  F   UNL A   1      43.837  27.961  27.052  1.00  0.00    -0.203 F 
ATOM     73  F   UNL A   1      41.503  23.063  26.474  1.00  0.00    -0.200 F 
ATOM     74  C   UNL A   1      42.953  24.739  25.659  1.00  0.00     0.200 A 
ATOM     75  F   UNL A   1      44.401  26.438  24.890  1.00  0.00    -0.200 F 
ATOM     76  F   UNL A   1      43.250  23.983  24.592  1.00  0.00    -0.200 F 
ENDBRANCH  52  66
BRANCH  53  77
ATOM     77  C   UNL A   1      39.140  32.090  35.400  1.00  0.00     0.064 A 
ATOM     78  C   UNL A   1      39.469  33.441  35.576  1.00  0.00     0.173 A 
ATOM     79  C   UNL A   1      38.380  31.472  36.401  1.00  0.00     0.173 A 
ATOM     80  F   UNL A   1      40.230  34.067  34.666  1.00  0.00    -0.203 F 
ATOM     81  C   UNL A   1      39.079  34.136  36.720  1.00  0.00     0.198 A 
ATOM     82  C   UNL A   1      37.959  32.178  37.527  1.00  0.00     0.198 A 
ATOM     83  F   UNL A   1      38.039  30.180  36.284  1.00  0.00    -0.203 F 
ATOM     84  F   UNL A   1      39.470  35.406  36.897  1.00  0.00    -0.200 F 
ATOM     85  C   UNL A   1      38.319  33.505  37.693  1.00  0.00     0.200 A 
ATOM     86  F   UNL A   1      37.208  31.564  38.453  1.00  0.00    -0.200 F 
ATOM     87  F   UNL A   1      37.948  34.170  38.795  1.00  0.00    -0.200 F 
ENDBRANCH  53  77
BRANCH  65  88
ATOM     88  C   UNL A   1      44.718  28.054  34.422  1.00  0.00     0.064 A 
ATOM     89  C   UNL A   1      45.859  28.867  34.431  1.00  0.00     0.173 A 
ATOM     90  C   UNL A   1      44.678  26.962  35.303  1.00  0.00     0.173 A 
ATOM     91  F   UNL A   1      45.951  29.913  33.595  1.00  0.00    -0.203 F 
ATOM     92  C   UNL A   1      46.923  28.592  35.285  1.00  0.00     0.198 A 
ATOM     93  C   UNL A   1      45.728  26.711  36.179  1.00  0.00     0.198 A 
ATOM     94  F   UNL A   1      43.604  26.158  35.334  1.00  0.00    -0.203 F 
ATOM     95  F   UNL A   1      48.021  29.361  35.253  1.00  0.00    -0.200 F 
ATOM     96  C   UNL A   1      46.850  27.523  36.166  1.00  0.00     0.200 A 
ATOM     97  F   UNL A   1      45.646  25.689  37.043  1.00  0.00    -0.200 F 
ATOM     98  F   UNL A   1      47.867  27.275  37.004  1.00  0.00    -0.200 F 
ENDBRANCH  65  88
ENDBRANCH  39  40
ENDBRANCH  31  34
ENDBRANCH  29  30
ENDBRANCH  28  29
ENDBRANCH   1  28
TORSDOF 16
ENDMDL
MODEL 2
REMARK VINA RESULT:     -12.1      4.088      9.208
REMARK SMILES COc1cccc(/C=C(/C#N)c2ccc(Br)cc2)c1O[C@@H](C)C(=O)NCCCNC(=O)c1ccc(-c2c3nc(c(-c4c(F)c(F)c(F)c(F)c4F)c4ccc([nH]4)c(-c4c(F)c(F)c(F)c(F)c4F)c4nc(c(-c5c(F)c(F)c(F)c(F)c5F)c5ccc2[nH]5)C=C4)C=C3)cc1
REMARK SMILES IDX 26 1 25 2 23 3 24 4 21 6 22 7 20 8 19 9 3 10 4 11 5 12 7 13
REMARK SMILES IDX 6 14 2 15 1 16 8 17 9 18 10 19 11 20 12 21 13 22 18 23 14 24
REMARK SMILES IDX 17 25 15 26 16 27 27 28 28 29 29 30 30 31 31 33 32 34 33 35
REMARK SMILES IDX 94 36 34 37 93 38 35 39 36 40 37 41 87 42 38 43 92 44 86 45
REMARK SMILES IDX 88 46 39 47 91 48 85 49 84 50 40 52 72 53 52 54 71 55 53 56
REMARK SMILES IDX 56 57 70 58 89 59 54 60 55 61 69 63 90 64 57 65 41 66 42 67
REMARK SMILES IDX 50 68 43 69 44 70 48 71 51 72 45 73 46 74 49 75 47 76 73 77
REMARK SMILES IDX 74 78 82 79 75 80 76 81 80 82 83 83 77 84 78 85 81 86 79 87
REMARK SMILES IDX 58 88 59 89 67 90 60 91 61 92 65 93 68 94 62 95 63 96 66 97
REMARK SMILES IDX 64 98
REMARK H PARENT 25 5 29 32 88 51 56 62
REMARK Flexibility Score: inf
ROOT
ATOM      1  C   UNL A   1      34.243  24.407  25.561  1.00  0.00     0.118 C 
ENDROOT
BRANCH   1   2
ATOM      2  N   UNL A   1      33.546  24.024  26.769  1.00  0.00    -0.353 N 
ATOM      3  C   UNL A   1      32.404  23.332  27.004  1.00  0.00     0.260 C 
ATOM      4  O   UNL A   1      32.459  22.647  28.041  1.00  0.00    -0.271 OA
ATOM      5  H   UNL A   1      33.993  24.329  27.591  1.00  0.00     0.163 HD
BRANCH   3   6
ATOM      6  C   UNL A   1      31.028  23.380  26.215  1.00  0.00     0.259 C 
ATOM      7  C   UNL A   1      29.866  22.901  27.109  1.00  0.00     0.064 C 
BRANCH   6   8
ATOM      8  O   UNL A   1      30.603  23.310  24.872  1.00  0.00    -0.476 OA
BRANCH   8   9
ATOM      9  C   UNL A   1      31.499  23.228  23.853  1.00  0.00     0.169 A 
ATOM     10  C   UNL A   1      32.227  22.066  23.548  1.00  0.00     0.161 A 
ATOM     11  C   UNL A   1      33.157  22.088  22.507  1.00  0.00     0.050 A 
ATOM     12  C   UNL A   1      33.385  23.270  21.803  1.00  0.00     0.005 A 
ATOM     13  C   UNL A   1      31.577  24.363  23.008  1.00  0.00     0.022 A 
ATOM     14  C   UNL A   1      32.614  24.404  22.068  1.00  0.00     0.012 A 
BRANCH  10  15
ATOM     15  O   UNL A   1      31.892  20.883  24.145  1.00  0.00    -0.493 OA
ATOM     16  C   UNL A   1      32.968  20.088  24.636  1.00  0.00     0.278 C 
ENDBRANCH  10  15
BRANCH  13  17
ATOM     17  C   UNL A   1      30.519  25.416  23.091  1.00  0.00     0.032 C 
ATOM     18  C   UNL A   1      30.534  26.623  23.709  1.00  0.00     0.060 C 
BRANCH  18  19
ATOM     19  C   UNL A   1      29.432  27.521  23.497  1.00  0.00     0.100 C 
ATOM     20  N   UNL A   1      28.549  28.250  23.317  1.00  0.00    -0.192 NA
ENDBRANCH  18  19
BRANCH  18  21
ATOM     21  C   UNL A   1      31.601  27.075  24.624  1.00  0.00    -0.008 A 
ATOM     22  C   UNL A   1      32.767  27.631  24.079  1.00  0.00     0.010 A 
ATOM     23  C   UNL A   1      31.441  27.064  26.019  1.00  0.00     0.010 A 
ATOM     24  C   UNL A   1      33.710  28.240  24.907  1.00  0.00     0.016 A 
ATOM     25  C   UNL A   1      32.376  27.695  26.843  1.00  0.00     0.016 A 
ATOM     26  C   UNL A   1      33.503  28.289  26.282  1.00  0.00     0.018 A 
ATOM     27  Br  UNL A   1      34.744  29.189  27.386  1.00  0.00    -0.051 Br
ENDBRANCH  18  21
ENDBRANCH  13  17
ENDBRANCH   8   9
ENDBRANCH   6   8
ENDBRANCH   3   6
ENDBRANCH   1   2
BRANCH   1  28
ATOM     28  C   UNL A   1      35.339  23.448  25.142  1.00  0.00     0.042 C 
BRANCH  28  29
ATOM     29  C   UNL A   1      35.864  22.579  26.276  1.00  0.00     0.118 C 
BRANCH  29  30
ATOM     30  N   UNL A   1      36.843  21.578  25.840  1.00  0.00    -0.352 N 
ATOM     31  C   UNL A   1      38.223  21.599  25.828  1.00  0.00     0.251 C 
ATOM     32  H   UNL A   1      36.447  20.746  25.495  1.00  0.00     0.163 HD
ATOM     33  O   UNL A   1      38.839  20.696  25.272  1.00  0.00    -0.269 OA
BRANCH  31  34
ATOM     34  C   UNL A   1      38.967  22.716  26.456  1.00  0.00     0.039 A 
ATOM     35  C   UNL A   1      40.008  22.451  27.354  1.00  0.00     0.014 A 
ATOM     36  C   UNL A   1      38.646  24.034  26.148  1.00  0.00     0.014 A 
ATOM     37  C   UNL A   1      40.790  23.504  27.846  1.00  0.00     0.010 A 
ATOM     38  C   UNL A   1      39.505  25.057  26.517  1.00  0.00     0.010 A 
ATOM     39  C   UNL A   1      40.580  24.812  27.386  1.00  0.00    -0.014 A 
BRANCH  39  40
ATOM     40  C   UNL A   1      41.403  25.976  27.809  1.00  0.00     0.031 A 
ATOM     41  C   UNL A   1      40.738  27.098  28.567  1.00  0.00     0.074 A 
ATOM     42  C   UNL A   1      42.682  26.104  27.401  1.00  0.00     0.049 A 
ATOM     43  N   UNL A   1      41.167  28.312  28.800  1.00  0.00    -0.248 NA
ATOM     44  C   UNL A   1      39.379  26.839  29.076  1.00  0.00     0.031 C 
ATOM     45  C   UNL A   1      43.435  25.114  26.628  1.00  0.00     0.029 A 
ATOM     46  N   UNL A   1      43.568  27.145  27.552  1.00  0.00    -0.354 N 
ATOM     47  C   UNL A   1      40.116  28.967  29.427  1.00  0.00     0.074 A 
ATOM     48  C   UNL A   1      39.011  28.039  29.496  1.00  0.00     0.031 C 
ATOM     49  C   UNL A   1      44.666  25.592  26.384  1.00  0.00     0.029 A 
ATOM     50  C   UNL A   1      44.775  26.939  26.926  1.00  0.00     0.049 A 
ATOM     51  H   UNL A   1      43.357  27.961  28.061  1.00  0.00     0.167 HD
ATOM     52  C   UNL A   1      40.082  30.227  29.917  1.00  0.00     0.037 A 
ATOM     53  C   UNL A   1      45.837  27.757  26.777  1.00  0.00     0.037 A 
ATOM     54  C   UNL A   1      41.208  31.120  29.911  1.00  0.00     0.049 A 
ATOM     55  C   UNL A   1      45.777  29.146  27.351  1.00  0.00     0.074 A 
ATOM     56  C   UNL A   1      41.310  32.377  30.477  1.00  0.00     0.029 A 
ATOM     57  N   UNL A   1      42.430  30.845  29.315  1.00  0.00    -0.354 N 
ATOM     58  N   UNL A   1      44.796  29.736  27.986  1.00  0.00    -0.248 NA
ATOM     59  C   UNL A   1      46.971  29.986  27.180  1.00  0.00     0.031 C 
ATOM     60  C   UNL A   1      42.569  32.893  30.167  1.00  0.00     0.029 A 
ATOM     61  C   UNL A   1      43.280  31.925  29.476  1.00  0.00     0.049 A 
ATOM     62  H   UNL A   1      42.657  30.009  28.847  1.00  0.00     0.167 HD
ATOM     63  C   UNL A   1      45.268  30.995  28.328  1.00  0.00     0.074 A 
ATOM     64  C   UNL A   1      46.622  31.087  27.829  1.00  0.00     0.031 C 
ATOM     65  C   UNL A   1      44.636  31.986  28.999  1.00  0.00     0.037 A 
BRANCH  52  66
ATOM     66  C   UNL A   1      38.799  30.728  30.513  1.00  0.00     0.064 A 
ATOM     67  C   UNL A   1      37.734  31.170  29.717  1.00  0.00     0.173 A 
ATOM     68  C   UNL A   1      38.605  30.679  31.903  1.00  0.00     0.173 A 
ATOM     69  F   UNL A   1      37.872  31.249  28.385  1.00  0.00    -0.203 F 
ATOM     70  C   UNL A   1      36.525  31.557  30.291  1.00  0.00     0.198 A 
ATOM     71  C   UNL A   1      37.384  31.033  32.469  1.00  0.00     0.198 A 
ATOM     72  F   UNL A   1      39.593  30.261  32.710  1.00  0.00    -0.203 F 
ATOM     73  F   UNL A   1      35.533  32.010  29.512  1.00  0.00    -0.200 F 
ATOM     74  C   UNL A   1      36.347  31.474  31.663  1.00  0.00     0.200 A 
ATOM     75  F   UNL A   1      37.209  30.936  33.794  1.00  0.00    -0.200 F 
ATOM     76  F   UNL A   1      35.173  31.821  32.210  1.00  0.00    -0.200 F 
ENDBRANCH  52  66
BRANCH  53  77
ATOM     77  C   UNL A   1      47.044  27.314  26.030  1.00  0.00     0.064 A 
ATOM     78  C   UNL A   1      48.125  26.707  26.686  1.00  0.00     0.173 A 
ATOM     79  C   UNL A   1      47.170  27.549  24.655  1.00  0.00     0.173 A 
ATOM     80  F   UNL A   1      48.070  26.499  28.010  1.00  0.00    -0.203 F 
ATOM     81  C   UNL A   1      49.294  26.378  26.001  1.00  0.00     0.198 A 
ATOM     82  C   UNL A   1      48.324  27.186  23.963  1.00  0.00     0.198 A 
ATOM     83  F   UNL A   1      46.167  28.127  23.979  1.00  0.00    -0.203 F 
ATOM     84  F   UNL A   1      50.338  25.868  26.667  1.00  0.00    -0.200 F 
ATOM     85  C   UNL A   1      49.390  26.612  24.638  1.00  0.00     0.200 A 
ATOM     86  F   UNL A   1      48.401  27.398  22.642  1.00  0.00    -0.200 F 
ATOM     87  F   UNL A   1      50.514  26.301  23.978  1.00  0.00    -0.200 F 
ENDBRANCH  53  77
BRANCH  65  88
ATOM     88  C   UNL A   1      45.416  33.227  29.308  1.00  0.00     0.064 A 
ATOM     89  C   UNL A   1      46.193  33.346  30.468  1.00  0.00     0.173 A 
ATOM     90  C   UNL A   1      45.446  34.281  28.382  1.00  0.00     0.173 A 
ATOM     91  F   UNL A   1      46.184  32.372  31.391  1.00  0.00    -0.203 F 
ATOM     92  C   UNL A   1      46.964  34.483  30.695  1.00  0.00     0.198 A 
ATOM     93  C   UNL A   1      46.244  35.399  28.595  1.00  0.00     0.198 A 
ATOM     94  F   UNL A   1      44.722  34.209  27.254  1.00  0.00    -0.203 F 
ATOM     95  F   UNL A   1      47.673  34.593  31.827  1.00  0.00    -0.200 F 
ATOM     96  C   UNL A   1      46.999  35.500  29.753  1.00  0.00     0.200 A 
ATOM     97  F   UNL A   1      46.290  36.371  27.674  1.00  0.00    -0.200 F 
ATOM     98  F   UNL A   1      47.761  36.583  29.963  1.00  0.00    -0.200 F 
ENDBRANCH  65  88
ENDBRANCH  39  40
ENDBRANCH  31  34
ENDBRANCH  29  30
ENDBRANCH  28  29
ENDBRANCH   1  28
TORSDOF 16
ENDMDL
MODEL 3
REMARK VINA RESULT:     -11.9      2.116      3.630
REMARK SMILES COc1cccc(/C=C(/C#N)c2ccc(Br)cc2)c1O[C@@H](C)C(=O)NCCCNC(=O)c1ccc(-c2c3nc(c(-c4c(F)c(F)c(F)c(F)c4F)c4ccc([nH]4)c(-c4c(F)c(F)c(F)c(F)c4F)c4nc(c(-c5c(F)c(F)c(F)c(F)c5F)c5ccc2[nH]5)C=C4)C=C3)cc1
REMARK SMILES IDX 26 1 25 2 23 3 24 4 21 6 22 7 20 8 19 9 3 10 4 11 5 12 7 13
REMARK SMILES IDX 6 14 2 15 1 16 8 17 9 18 10 19 11 20 12 21 13 22 18 23 14 24
REMARK SMILES IDX 17 25 15 26 16 27 27 28 28 29 29 30 30 31 31 33 32 34 33 35
REMARK SMILES IDX 94 36 34 37 93 38 35 39 36 40 37 41 87 42 38 43 92 44 86 45
REMARK SMILES IDX 88 46 39 47 91 48 85 49 84 50 40 52 72 53 52 54 71 55 53 56
REMARK SMILES IDX 56 57 70 58 89 59 54 60 55 61 69 63 90 64 57 65 41 66 42 67
REMARK SMILES IDX 50 68 43 69 44 70 48 71 51 72 45 73 46 74 49 75 47 76 73 77
REMARK SMILES IDX 74 78 82 79 75 80 76 81 80 82 83 83 77 84 78 85 81 86 79 87
REMARK SMILES IDX 58 88 59 89 67 90 60 91 61 92 65 93 68 94 62 95 63 96 66 97
REMARK SMILES IDX 64 98
REMARK H PARENT 25 5 29 32 88 51 56 62
REMARK Flexibility Score: inf
ROOT
ATOM      1  C   UNL A   1      31.747  30.640  25.944  1.00  0.00     0.118 C 
ENDROOT
BRANCH   1   2
ATOM      2  N   UNL A   1      32.753  29.736  26.455  1.00  0.00    -0.353 N 
ATOM      3  C   UNL A   1      33.737  29.012  25.866  1.00  0.00     0.260 C 
ATOM      4  O   UNL A   1      34.753  28.911  26.576  1.00  0.00    -0.271 OA
ATOM      5  H   UNL A   1      32.716  29.622  27.431  1.00  0.00     0.163 HD
BRANCH   3   6
ATOM      6  C   UNL A   1      33.705  28.216  24.493  1.00  0.00     0.259 C 
ATOM      7  C   UNL A   1      33.646  29.188  23.297  1.00  0.00     0.064 C 
BRANCH   6   8
ATOM      8  O   UNL A   1      33.289  26.945  24.045  1.00  0.00    -0.476 OA
BRANCH   8   9
ATOM      9  C   UNL A   1      32.312  26.255  24.690  1.00  0.00     0.169 A 
ATOM     10  C   UNL A   1      30.950  26.341  24.358  1.00  0.00     0.161 A 
ATOM     11  C   UNL A   1      30.011  25.625  25.105  1.00  0.00     0.050 A 
ATOM     12  C   UNL A   1      30.426  24.862  26.194  1.00  0.00     0.005 A 
ATOM     13  C   UNL A   1      32.754  25.320  25.658  1.00  0.00     0.022 A 
ATOM     14  C   UNL A   1      31.787  24.729  26.480  1.00  0.00     0.012 A 
BRANCH  10  15
ATOM     15  O   UNL A   1      30.574  26.972  23.205  1.00  0.00    -0.493 OA
ATOM     16  C   UNL A   1      29.975  28.258  23.347  1.00  0.00     0.278 C 
ENDBRANCH  10  15
BRANCH  13  17
ATOM     17  C   UNL A   1      34.200  24.943  25.711  1.00  0.00     0.032 C 
ATOM     18  C   UNL A   1      34.816  23.787  25.361  1.00  0.00     0.060 C 
BRANCH  18  19
ATOM     19  C   UNL A   1      36.251  23.742  25.359  1.00  0.00     0.100 C 
ATOM     20  N   UNL A   1      37.410  23.705  25.346  1.00  0.00    -0.192 NA
ENDBRANCH  18  19
BRANCH  18  21
ATOM     21  C   UNL A   1      34.104  22.540  25.010  1.00  0.00    -0.008 A 
ATOM     22  C   UNL A   1      33.365  22.498  23.819  1.00  0.00     0.010 A 
ATOM     23  C   UNL A   1      34.232  21.369  25.774  1.00  0.00     0.010 A 
ATOM     24  C   UNL A   1      32.840  21.290  23.360  1.00  0.00     0.016 A 
ATOM     25  C   UNL A   1      33.725  20.157  25.299  1.00  0.00     0.016 A 
ATOM     26  C   UNL A   1      33.039  20.122  24.088  1.00  0.00     0.018 A 
ATOM     27  Br  UNL A   1      32.396  18.476  23.416  1.00  0.00    -0.051 Br
ENDBRANCH  18  21
ENDBRANCH  13  17
ENDBRANCH   8   9
ENDBRANCH   6   8
ENDBRANCH   3   6
ENDBRANCH   1   2
BRANCH   1  28
ATOM     28  C   UNL A   1      31.451  31.820  26.849  1.00  0.00     0.042 C 
BRANCH  28  29
ATOM     29  C   UNL A   1      32.687  32.601  27.268  1.00  0.00     0.118 C 
BRANCH  29  30
ATOM     30  N   UNL A   1      32.411  34.005  27.589  1.00  0.00    -0.352 N 
ATOM     31  C   UNL A   1      32.978  34.856  28.516  1.00  0.00     0.251 C 
ATOM     32  H   UNL A   1      31.695  34.412  27.050  1.00  0.00     0.163 HD
ATOM     33  O   UNL A   1      32.479  35.959  28.715  1.00  0.00    -0.269 OA
BRANCH  31  34
ATOM     34  C   UNL A   1      34.168  34.439  29.294  1.00  0.00     0.039 A 
ATOM     35  C   UNL A   1      34.012  33.735  30.495  1.00  0.00     0.014 A 
ATOM     36  C   UNL A   1      35.447  34.732  28.833  1.00  0.00     0.014 A 
ATOM     37  C   UNL A   1      35.138  33.234  31.161  1.00  0.00     0.010 A 
ATOM     38  C   UNL A   1      36.546  34.116  29.410  1.00  0.00     0.010 A 
ATOM     39  C   UNL A   1      36.412  33.372  30.592  1.00  0.00    -0.014 A 
BRANCH  39  40
ATOM     40  C   UNL A   1      37.650  32.817  31.201  1.00  0.00     0.031 A 
ATOM     41  C   UNL A   1      38.335  31.656  30.524  1.00  0.00     0.074 A 
ATOM     42  C   UNL A   1      38.075  33.238  32.410  1.00  0.00     0.049 A 
ATOM     43  N   UNL A   1      39.247  30.842  30.990  1.00  0.00    -0.248 NA
ATOM     44  C   UNL A   1      37.887  31.328  29.158  1.00  0.00     0.031 C 
ATOM     45  C   UNL A   1      37.481  34.322  33.194  1.00  0.00     0.029 A 
ATOM     46  N   UNL A   1      39.093  32.774  33.210  1.00  0.00    -0.354 N 
ATOM     47  C   UNL A   1      39.435  29.884  30.004  1.00  0.00     0.074 A 
ATOM     48  C   UNL A   1      38.512  30.183  28.933  1.00  0.00     0.031 C 
ATOM     49  C   UNL A   1      38.150  34.444  34.352  1.00  0.00     0.029 A 
ATOM     50  C   UNL A   1      39.178  33.415  34.424  1.00  0.00     0.049 A 
ATOM     51  H   UNL A   1      39.704  32.051  32.939  1.00  0.00     0.167 HD
ATOM     52  C   UNL A   1      40.312  28.855  29.985  1.00  0.00     0.037 A 
ATOM     53  C   UNL A   1      39.973  33.178  35.487  1.00  0.00     0.037 A 
ATOM     54  C   UNL A   1      41.278  28.606  31.021  1.00  0.00     0.049 A 
ATOM     55  C   UNL A   1      40.953  32.039  35.430  1.00  0.00     0.074 A 
ATOM     56  C   UNL A   1      42.281  27.655  31.048  1.00  0.00     0.029 A 
ATOM     57  N   UNL A   1      41.363  29.319  32.207  1.00  0.00    -0.354 N 
ATOM     58  N   UNL A   1      41.156  31.172  34.470  1.00  0.00    -0.248 NA
ATOM     59  C   UNL A   1      41.810  31.840  36.607  1.00  0.00     0.031 C 
ATOM     60  C   UNL A   1      42.933  27.747  32.279  1.00  0.00     0.029 A 
ATOM     61  C   UNL A   1      42.386  28.806  32.985  1.00  0.00     0.049 A 
ATOM     62  H   UNL A   1      40.783  30.074  32.458  1.00  0.00     0.167 HD
ATOM     63  C   UNL A   1      42.189  30.356  34.908  1.00  0.00     0.074 A 
ATOM     64  C   UNL A   1      42.572  30.828  36.220  1.00  0.00     0.031 C 
ATOM     65  C   UNL A   1      42.772  29.310  34.276  1.00  0.00     0.037 A 
BRANCH  52  66
ATOM     66  C   UNL A   1      40.290  27.917  28.814  1.00  0.00     0.064 A 
ATOM     67  C   UNL A   1      41.014  28.177  27.642  1.00  0.00     0.173 A 
ATOM     68  C   UNL A   1      39.602  26.697  28.905  1.00  0.00     0.173 A 
ATOM     69  F   UNL A   1      41.678  29.334  27.499  1.00  0.00    -0.203 F 
ATOM     70  C   UNL A   1      41.041  27.254  26.599  1.00  0.00     0.198 A 
ATOM     71  C   UNL A   1      39.660  25.763  27.874  1.00  0.00     0.198 A 
ATOM     72  F   UNL A   1      38.895  26.399  30.006  1.00  0.00    -0.203 F 
ATOM     73  F   UNL A   1      41.711  27.540  25.474  1.00  0.00    -0.200 F 
ATOM     74  C   UNL A   1      40.376  26.044  26.722  1.00  0.00     0.200 A 
ATOM     75  F   UNL A   1      39.030  24.587  28.002  1.00  0.00    -0.200 F 
ATOM     76  F   UNL A   1      40.426  25.147  25.727  1.00  0.00    -0.200 F 
ENDBRANCH  52  66
BRANCH  53  77
ATOM     77  C   UNL A   1      39.868  34.005  36.719  1.00  0.00     0.064 A 
ATOM     78  C   UNL A   1      39.032  33.628  37.780  1.00  0.00     0.173 A 
ATOM     79  C   UNL A   1      40.548  35.224  36.832  1.00  0.00     0.173 A 
ATOM     80  F   UNL A   1      38.326  32.490  37.701  1.00  0.00    -0.203 F 
ATOM     81  C   UNL A   1      38.862  34.450  38.893  1.00  0.00     0.198 A 
ATOM     82  C   UNL A   1      40.407  36.027  37.962  1.00  0.00     0.198 A 
ATOM     83  F   UNL A   1      41.359  35.634  35.846  1.00  0.00    -0.203 F 
ATOM     84  F   UNL A   1      38.000  34.099  39.858  1.00  0.00    -0.200 F 
ATOM     85  C   UNL A   1      39.555  35.647  38.986  1.00  0.00     0.200 A 
ATOM     86  F   UNL A   1      41.095  37.174  38.053  1.00  0.00    -0.200 F 
ATOM     87  F   UNL A   1      39.389  36.440  40.054  1.00  0.00    -0.200 F 
ENDBRANCH  53  77
BRANCH  65  88
ATOM     88  C   UNL A   1      43.936  28.649  34.950  1.00  0.00     0.064 A 
ATOM     89  C   UNL A   1      43.778  27.529  35.776  1.00  0.00     0.173 A 
ATOM     90  C   UNL A   1      45.240  29.103  34.694  1.00  0.00     0.173 A 
ATOM     91  F   UNL A   1      42.551  27.068  36.063  1.00  0.00    -0.203 F 
ATOM     92  C   UNL A   1      44.884  26.892  36.331  1.00  0.00     0.198 A 
ATOM     93  C   UNL A   1      46.343  28.443  35.222  1.00  0.00     0.198 A 
ATOM     94  F   UNL A   1      45.441  30.169  33.904  1.00  0.00    -0.203 F 
ATOM     95  F   UNL A   1      44.710  25.843  37.148  1.00  0.00    -0.200 F 
ATOM     96  C   UNL A   1      46.164  27.341  36.043  1.00  0.00     0.200 A 
ATOM     97  F   UNL A   1      47.579  28.868  34.926  1.00  0.00    -0.200 F 
ATOM     98  F   UNL A   1      47.228  26.712  36.561  1.00  0.00    -0.200 F 
ENDBRANCH  65  88
ENDBRANCH  39  40
ENDBRANCH  31  34
ENDBRANCH  29  30
ENDBRANCH  28  29
ENDBRANCH   1  28
TORSDOF 16
ENDMDL
