MODEL 1
REMARK VINA RESULT:     -12.7      0.000      0.000
REMARK SMILES O=C(NCCCNC(=O)c1ccc(Cn2cc(Br)cc([N+](=O)[O-])c2=O)nc1)c1ccc(-c2c3nc(c(-c4c(F)c(F)c(F)c(F)c4F)c4ccc([nH]4)c(-c4c(F)c(F)c(F)c(F)c4F)c4nc(c(-c5c(F)c(F)c(F)c(F)c5F)c5ccc2[nH]5)C=C4)C=C3)cc1
REMARK SMILES IDX 5 1 4 2 3 3 1 4 2 5 28 7 29 8 90 9 30 10 89 11 31 12 32 13
REMARK SMILES IDX 33 14 83 15 34 16 88 17 82 18 84 19 35 20 87 21 81 22 80 23
REMARK SMILES IDX 36 25 68 26 48 27 67 28 49 29 52 30 66 31 85 32 50 33 51 34
REMARK SMILES IDX 65 36 86 37 53 38 37 39 38 40 46 41 39 42 40 43 44 44 47 45
REMARK SMILES IDX 41 46 42 47 45 48 43 49 69 50 70 51 78 52 71 53 72 54 76 55
REMARK SMILES IDX 79 56 73 57 74 58 77 59 75 60 54 61 55 62 63 63 56 64 57 65
REMARK SMILES IDX 61 66 64 67 58 68 59 69 62 70 60 71 6 72 7 73 8 74 9 76
REMARK SMILES IDX 10 77 11 78 27 79 12 80 26 81 13 82 14 83 15 84 16 85 24 86
REMARK SMILES IDX 17 87 20 88 25 89 18 90 19 91 21 92 22 93 23 94
REMARK H PARENT 3 6 84 24 52 35 7 75
REMARK Flexibility Score: inf
ROOT
ATOM      1  C   UNL A   1      31.375  32.250  26.452  1.00  0.00     0.042 C 
ENDROOT
BRANCH   1   2
ATOM      2  C   UNL A   1      32.619  32.786  27.146  1.00  0.00     0.118 C 
BRANCH   2   3
ATOM      3  N   UNL A   1      32.465  34.167  27.586  1.00  0.00    -0.352 N 
ATOM      4  O   UNL A   1      32.609  35.958  28.927  1.00  0.00    -0.269 OA
ATOM      5  C   UNL A   1      33.044  34.850  28.624  1.00  0.00     0.251 C 
ATOM      6  H   UNL A   1      31.838  34.700  27.046  1.00  0.00     0.163 HD
BRANCH   5   7
ATOM      7  C   UNL A   1      34.176  34.276  29.384  1.00  0.00     0.039 A 
ATOM      8  C   UNL A   1      35.476  34.463  28.900  1.00  0.00     0.014 A 
ATOM      9  C   UNL A   1      33.972  33.501  30.527  1.00  0.00     0.014 A 
ATOM     10  C   UNL A   1      36.560  33.901  29.577  1.00  0.00     0.010 A 
ATOM     11  C   UNL A   1      35.058  33.036  31.262  1.00  0.00     0.010 A 
ATOM     12  C   UNL A   1      36.362  33.197  30.775  1.00  0.00    -0.014 A 
BRANCH  12  13
ATOM     13  C   UNL A   1      37.493  32.546  31.485  1.00  0.00     0.031 A 
ATOM     14  C   UNL A   1      38.222  31.400  30.832  1.00  0.00     0.074 A 
ATOM     15  C   UNL A   1      37.848  32.958  32.718  1.00  0.00     0.049 A 
ATOM     16  N   UNL A   1      39.192  30.658  31.304  1.00  0.00    -0.248 NA
ATOM     17  C   UNL A   1      37.788  31.016  29.477  1.00  0.00     0.031 C 
ATOM     18  C   UNL A   1      37.198  34.032  33.471  1.00  0.00     0.029 A 
ATOM     19  N   UNL A   1      38.846  32.524  33.556  1.00  0.00    -0.354 N 
ATOM     20  C   UNL A   1      39.464  29.719  30.317  1.00  0.00     0.074 A 
ATOM     21  C   UNL A   1      38.520  29.937  29.247  1.00  0.00     0.031 C 
ATOM     22  C   UNL A   1      37.835  34.197  34.641  1.00  0.00     0.029 A 
ATOM     23  C   UNL A   1      38.911  33.215  34.741  1.00  0.00     0.049 A 
ATOM     24  H   UNL A   1      39.456  31.787  33.329  1.00  0.00     0.167 HD
ATOM     25  C   UNL A   1      40.440  28.783  30.288  1.00  0.00     0.037 A 
ATOM     26  C   UNL A   1      39.743  33.069  35.792  1.00  0.00     0.037 A 
ATOM     27  C   UNL A   1      41.417  28.609  31.327  1.00  0.00     0.049 A 
ATOM     28  C   UNL A   1      40.815  32.012  35.737  1.00  0.00     0.074 A 
ATOM     29  C   UNL A   1      42.486  27.732  31.361  1.00  0.00     0.029 A 
ATOM     30  N   UNL A   1      41.449  29.331  32.509  1.00  0.00    -0.354 N 
ATOM     31  N   UNL A   1      41.098  31.172  34.771  1.00  0.00    -0.248 NA
ATOM     32  C   UNL A   1      41.686  31.882  36.916  1.00  0.00     0.031 C 
ATOM     33  C   UNL A   1      43.140  27.890  32.583  1.00  0.00     0.029 A 
ATOM     34  C   UNL A   1      42.509  28.903  33.290  1.00  0.00     0.049 A 
ATOM     35  H   UNL A   1      40.815  30.042  32.757  1.00  0.00     0.167 HD
ATOM     36  C   UNL A   1      42.190  30.435  35.212  1.00  0.00     0.074 A 
ATOM     37  C   UNL A   1      42.530  30.937  36.527  1.00  0.00     0.031 C 
ATOM     38  C   UNL A   1      42.847  29.430  34.586  1.00  0.00     0.037 A 
BRANCH  25  39
ATOM     39  C   UNL A   1      40.536  27.893  29.085  1.00  0.00     0.064 A 
ATOM     40  C   UNL A   1      39.740  26.746  28.960  1.00  0.00     0.173 A 
ATOM     41  C   UNL A   1      41.357  28.245  28.003  1.00  0.00     0.173 A 
ATOM     42  F   UNL A   1      38.947  26.360  29.972  1.00  0.00    -0.203 F 
ATOM     43  C   UNL A   1      39.765  25.979  27.799  1.00  0.00     0.198 A 
ATOM     44  C   UNL A   1      41.358  27.492  26.832  1.00  0.00     0.198 A 
ATOM     45  F   UNL A   1      42.134  29.336  28.070  1.00  0.00    -0.203 F 
ATOM     46  F   UNL A   1      39.013  24.874  27.712  1.00  0.00    -0.200 F 
ATOM     47  C   UNL A   1      40.563  26.361  26.731  1.00  0.00     0.200 A 
ATOM     48  F   UNL A   1      42.116  27.871  25.793  1.00  0.00    -0.200 F 
ATOM     49  F   UNL A   1      40.564  25.639  25.603  1.00  0.00    -0.200 F 
ENDBRANCH  25  39
BRANCH  26  50
ATOM     50  C   UNL A   1      39.615  33.964  36.973  1.00  0.00     0.064 A 
ATOM     51  C   UNL A   1      40.257  35.211  37.005  1.00  0.00     0.173 A 
ATOM     52  C   UNL A   1      38.854  33.597  38.093  1.00  0.00     0.173 A 
ATOM     53  F   UNL A   1      41.014  35.600  35.968  1.00  0.00    -0.203 F 
ATOM     54  C   UNL A   1      40.158  36.045  38.116  1.00  0.00     0.198 A 
ATOM     55  C   UNL A   1      38.729  34.445  39.191  1.00  0.00     0.198 A 
ATOM     56  F   UNL A   1      38.215  32.417  38.113  1.00  0.00    -0.203 F 
ATOM     57  F   UNL A   1      40.819  37.211  38.138  1.00  0.00    -0.200 F 
ATOM     58  C   UNL A   1      39.388  35.665  39.206  1.00  0.00     0.200 A 
ATOM     59  F   UNL A   1      37.971  34.081  40.234  1.00  0.00    -0.200 F 
ATOM     60  F   UNL A   1      39.287  36.472  40.271  1.00  0.00    -0.200 F 
ENDBRANCH  26  50
BRANCH  38  61
ATOM     61  C   UNL A   1      44.019  28.809  35.286  1.00  0.00     0.064 A 
ATOM     62  C   UNL A   1      45.315  29.316  35.129  1.00  0.00     0.173 A 
ATOM     63  C   UNL A   1      43.823  27.775  36.216  1.00  0.00     0.173 A 
ATOM     64  F   UNL A   1      45.554  30.298  34.246  1.00  0.00    -0.203 F 
ATOM     65  C   UNL A   1      46.375  28.809  35.876  1.00  0.00     0.198 A 
ATOM     66  C   UNL A   1      44.879  27.292  36.980  1.00  0.00     0.198 A 
ATOM     67  F   UNL A   1      42.596  27.265  36.410  1.00  0.00    -0.203 F 
ATOM     68  F   UNL A   1      47.611  29.295  35.695  1.00  0.00    -0.200 F 
ATOM     69  C   UNL A   1      46.154  27.808  36.809  1.00  0.00     0.200 A 
ATOM     70  F   UNL A   1      44.659  26.339  37.898  1.00  0.00    -0.200 F 
ATOM     71  F   UNL A   1      47.170  27.344  37.549  1.00  0.00    -0.200 F 
ENDBRANCH  38  61
ENDBRANCH  12  13
ENDBRANCH   5   7
ENDBRANCH   2   3
ENDBRANCH   1   2
BRANCH   1  72
ATOM     72  C   UNL A   1      31.397  30.745  26.220  1.00  0.00     0.118 C 
BRANCH  72  73
ATOM     73  N   UNL A   1      31.134  30.393  24.833  1.00  0.00    -0.352 N 
ATOM     74  C   UNL A   1      31.313  29.193  24.190  1.00  0.00     0.252 C 
ATOM     75  H   UNL A   1      30.773  31.120  24.275  1.00  0.00     0.163 HD
ATOM     76  O   UNL A   1      31.221  29.123  22.969  1.00  0.00    -0.269 OA
BRANCH  74  77
ATOM     77  C   UNL A   1      31.653  27.997  24.970  1.00  0.00     0.058 A 
ATOM     78  C   UNL A   1      32.933  27.766  25.473  1.00  0.00     0.017 A 
ATOM     79  C   UNL A   1      30.675  27.052  25.197  1.00  0.00     0.125 A 
ATOM     80  C   UNL A   1      33.215  26.549  26.091  1.00  0.00     0.026 A 
ATOM     81  N   UNL A   1      30.928  25.866  25.796  1.00  0.00    -0.259 NA
ATOM     82  C   UNL A   1      32.195  25.607  26.211  1.00  0.00     0.060 A 
BRANCH  82  83
ATOM     83  C   UNL A   1      32.455  24.234  26.801  1.00  0.00     0.181 C 
BRANCH  83  84
ATOM     84  N   UNL A   1      33.039  23.316  25.824  1.00  0.00    -0.303 N 
ATOM     85  C   UNL A   1      34.341  23.510  25.381  1.00  0.00     0.105 A 
ATOM     86  C   UNL A   1      32.229  22.273  25.331  1.00  0.00     0.329 A 
ATOM     87  C   UNL A   1      34.923  22.665  24.515  1.00  0.00     0.041 A 
ATOM     88  C   UNL A   1      32.968  21.255  24.548  1.00  0.00     0.335 A 
ATOM     89  O   UNL A   1      31.011  22.240  25.468  1.00  0.00    -0.261 OA
ATOM     90  Br  UNL A   1      36.631  22.957  23.833  1.00  0.00    -0.049 Br
ATOM     91  C   UNL A   1      34.229  21.457  24.131  1.00  0.00     0.109 A 
BRANCH  88  92
ATOM     92  N   UNL A   1      32.341  19.995  24.240  1.00  0.00     0.068 N 
ATOM     93  O   UNL A   1      32.132  19.208  25.170  1.00  0.00    -0.258 OA
ATOM     94  O   UNL A   1      32.115  19.747  23.045  1.00  0.00    -0.258 OA
ENDBRANCH  88  92
ENDBRANCH  83  84
ENDBRANCH  82  83
ENDBRANCH  74  77
ENDBRANCH  72  73
ENDBRANCH   1  72
TORSDOF 13
ENDMDL
MODEL 2
REMARK VINA RESULT:     -12.7      1.316      7.494
REMARK SMILES O=C(NCCCNC(=O)c1ccc(Cn2cc(Br)cc([N+](=O)[O-])c2=O)nc1)c1ccc(-c2c3nc(c(-c4c(F)c(F)c(F)c(F)c4F)c4ccc([nH]4)c(-c4c(F)c(F)c(F)c(F)c4F)c4nc(c(-c5c(F)c(F)c(F)c(F)c5F)c5ccc2[nH]5)C=C4)C=C3)cc1
REMARK SMILES IDX 5 1 4 2 3 3 1 4 2 5 28 7 29 8 90 9 30 10 89 11 31 12 32 13
REMARK SMILES IDX 33 14 83 15 34 16 88 17 82 18 84 19 35 20 87 21 81 22 80 23
REMARK SMILES IDX 36 25 68 26 48 27 67 28 49 29 52 30 66 31 85 32 50 33 51 34
REMARK SMILES IDX 65 36 86 37 53 38 37 39 38 40 46 41 39 42 40 43 44 44 47 45
REMARK SMILES IDX 41 46 42 47 45 48 43 49 69 50 70 51 78 52 71 53 72 54 76 55
REMARK SMILES IDX 79 56 73 57 74 58 77 59 75 60 54 61 55 62 63 63 56 64 57 65
REMARK SMILES IDX 61 66 64 67 58 68 59 69 62 70 60 71 6 72 7 73 8 74 9 76
REMARK SMILES IDX 10 77 11 78 27 79 12 80 26 81 13 82 14 83 15 84 16 85 24 86
REMARK SMILES IDX 17 87 20 88 25 89 18 90 19 91 21 92 22 93 23 94
REMARK H PARENT 3 6 84 24 52 35 7 75
REMARK Flexibility Score: inf
ROOT
ATOM      1  C   UNL A   1      31.468  32.122  26.879  1.00  0.00     0.042 C 
ENDROOT
BRANCH   1   2
ATOM      2  C   UNL A   1      32.705  33.009  26.891  1.00  0.00     0.118 C 
BRANCH   2   3
ATOM      3  N   UNL A   1      32.488  34.266  27.596  1.00  0.00    -0.352 N 
ATOM      4  O   UNL A   1      32.552  35.758  29.269  1.00  0.00    -0.269 OA
ATOM      5  C   UNL A   1      33.038  34.754  28.753  1.00  0.00     0.251 C 
ATOM      6  H   UNL A   1      31.836  34.866  27.169  1.00  0.00     0.163 HD
BRANCH   5   7
ATOM      7  C   UNL A   1      34.197  34.092  29.391  1.00  0.00     0.039 A 
ATOM      8  C   UNL A   1      35.486  34.459  28.989  1.00  0.00     0.014 A 
ATOM      9  C   UNL A   1      34.032  33.072  30.330  1.00  0.00     0.014 A 
ATOM     10  C   UNL A   1      36.597  33.825  29.548  1.00  0.00     0.010 A 
ATOM     11  C   UNL A   1      35.139  32.519  30.967  1.00  0.00     0.010 A 
ATOM     12  C   UNL A   1      36.435  32.860  30.556  1.00  0.00    -0.014 A 
BRANCH  12  13
ATOM     13  C   UNL A   1      37.598  32.135  31.128  1.00  0.00     0.031 A 
ATOM     14  C   UNL A   1      38.077  32.475  32.516  1.00  0.00     0.074 A 
ATOM     15  C   UNL A   1      38.238  31.198  30.401  1.00  0.00     0.049 A 
ATOM     16  N   UNL A   1      39.107  32.005  33.175  1.00  0.00    -0.248 NA
ATOM     17  C   UNL A   1      37.318  33.498  33.255  1.00  0.00     0.031 C 
ATOM     18  C   UNL A   1      37.892  30.805  29.035  1.00  0.00     0.029 A 
ATOM     19  N   UNL A   1      39.313  30.403  30.712  1.00  0.00    -0.354 N 
ATOM     20  C   UNL A   1      39.123  32.687  34.385  1.00  0.00     0.074 A 
ATOM     21  C   UNL A   1      38.046  33.648  34.350  1.00  0.00     0.031 C 
ATOM     22  C   UNL A   1      38.714  29.820  28.638  1.00  0.00     0.029 A 
ATOM     23  C   UNL A   1      39.672  29.540  29.705  1.00  0.00     0.049 A 
ATOM     24  H   UNL A   1      39.784  30.447  31.575  1.00  0.00     0.167 HD
ATOM     25  C   UNL A   1      39.940  32.501  35.447  1.00  0.00     0.037 A 
ATOM     26  C   UNL A   1      40.664  28.629  29.648  1.00  0.00     0.037 A 
ATOM     27  C   UNL A   1      40.972  31.503  35.502  1.00  0.00     0.049 A 
ATOM     28  C   UNL A   1      41.564  28.450  30.842  1.00  0.00     0.074 A 
ATOM     29  C   UNL A   1      41.810  31.193  36.559  1.00  0.00     0.029 A 
ATOM     30  N   UNL A   1      41.300  30.648  34.462  1.00  0.00    -0.354 N 
ATOM     31  N   UNL A   1      41.530  29.060  32.002  1.00  0.00    -0.248 NA
ATOM     32  C   UNL A   1      42.642  27.456  30.722  1.00  0.00     0.031 C 
ATOM     33  C   UNL A   1      42.676  30.181  36.144  1.00  0.00     0.029 A 
ATOM     34  C   UNL A   1      42.344  29.824  34.846  1.00  0.00     0.049 A 
ATOM     35  H   UNL A   1      40.857  30.629  33.583  1.00  0.00     0.167 HD
ATOM     36  C   UNL A   1      42.558  28.508  32.756  1.00  0.00     0.074 A 
ATOM     37  C   UNL A   1      43.190  27.502  31.929  1.00  0.00     0.031 C 
ATOM     38  C   UNL A   1      42.945  28.812  34.017  1.00  0.00     0.037 A 
BRANCH  25  39
ATOM     39  C   UNL A   1      39.739  33.363  36.657  1.00  0.00     0.064 A 
ATOM     40  C   UNL A   1      40.383  34.602  36.787  1.00  0.00     0.173 A 
ATOM     41  C   UNL A   1      38.817  32.995  37.649  1.00  0.00     0.173 A 
ATOM     42  F   UNL A   1      41.283  34.995  35.872  1.00  0.00    -0.203 F 
ATOM     43  C   UNL A   1      40.116  35.438  37.867  1.00  0.00     0.198 A 
ATOM     44  C   UNL A   1      38.531  33.846  38.712  1.00  0.00     0.198 A 
ATOM     45  F   UNL A   1      38.171  31.822  37.569  1.00  0.00    -0.203 F 
ATOM     46  F   UNL A   1      40.761  36.607  37.982  1.00  0.00    -0.200 F 
ATOM     47  C   UNL A   1      39.180  35.066  38.820  1.00  0.00     0.200 A 
ATOM     48  F   UNL A   1      37.614  33.494  39.624  1.00  0.00    -0.200 F 
ATOM     49  F   UNL A   1      38.903  35.885  39.844  1.00  0.00    -0.200 F 
ENDBRANCH  25  39
BRANCH  26  50
ATOM     50  C   UNL A   1      40.840  27.796  28.428  1.00  0.00     0.064 A 
ATOM     51  C   UNL A   1      41.654  28.230  27.371  1.00  0.00     0.173 A 
ATOM     52  C   UNL A   1      40.202  26.554  28.290  1.00  0.00     0.173 A 
ATOM     53  F   UNL A   1      42.270  29.419  27.446  1.00  0.00    -0.203 F 
ATOM     54  C   UNL A   1      41.807  27.464  26.217  1.00  0.00     0.198 A 
ATOM     55  C   UNL A   1      40.380  25.775  27.148  1.00  0.00     0.198 A 
ATOM     56  F   UNL A   1      39.415  26.090  29.272  1.00  0.00    -0.203 F 
ATOM     57  F   UNL A   1      42.554  27.923  25.205  1.00  0.00    -0.200 F 
ATOM     58  C   UNL A   1      41.176  26.233  26.110  1.00  0.00     0.200 A 
ATOM     59  F   UNL A   1      39.782  24.579  27.056  1.00  0.00    -0.200 F 
ATOM     60  F   UNL A   1      41.329  25.494  25.003  1.00  0.00    -0.200 F 
ENDBRANCH  26  50
BRANCH  38  61
ATOM     61  C   UNL A   1      44.089  28.043  34.609  1.00  0.00     0.064 A 
ATOM     62  C   UNL A   1      43.887  26.813  35.249  1.00  0.00     0.173 A 
ATOM     63  C   UNL A   1      45.409  28.483  34.426  1.00  0.00     0.173 A 
ATOM     64  F   UNL A   1      42.643  26.355  35.456  1.00  0.00    -0.203 F 
ATOM     65  C   UNL A   1      44.966  26.051  35.687  1.00  0.00     0.198 A 
ATOM     66  C   UNL A   1      46.486  27.705  34.839  1.00  0.00     0.198 A 
ATOM     67  F   UNL A   1      45.653  29.649  33.807  1.00  0.00    -0.203 F 
ATOM     68  F   UNL A   1      44.750  24.887  36.315  1.00  0.00    -0.200 F 
ATOM     69  C   UNL A   1      46.263  26.491  35.469  1.00  0.00     0.200 A 
ATOM     70  F   UNL A   1      47.739  28.121  34.608  1.00  0.00    -0.200 F 
ATOM     71  F   UNL A   1      47.301  25.740  35.864  1.00  0.00    -0.200 F 
ENDBRANCH  38  61
ENDBRANCH  12  13
ENDBRANCH   5   7
ENDBRANCH   2   3
ENDBRANCH   1   2
BRANCH   1  72
ATOM     72  C   UNL A   1      31.776  30.632  26.841  1.00  0.00     0.118 C 
BRANCH  72  73
ATOM     73  N   UNL A   1      33.135  30.334  27.269  1.00  0.00    -0.352 N 
ATOM     74  C   UNL A   1      33.894  29.214  27.038  1.00  0.00     0.252 C 
ATOM     75  H   UNL A   1      33.573  31.037  27.800  1.00  0.00     0.163 HD
ATOM     76  O   UNL A   1      34.952  29.046  27.636  1.00  0.00    -0.269 OA
BRANCH  74  77
ATOM     77  C   UNL A   1      33.417  28.196  26.095  1.00  0.00     0.058 A 
ATOM     78  C   UNL A   1      32.643  27.106  26.493  1.00  0.00     0.017 A 
ATOM     79  C   UNL A   1      33.763  28.307  24.764  1.00  0.00     0.125 A 
ATOM     80  C   UNL A   1      32.336  26.111  25.566  1.00  0.00     0.026 A 
ATOM     81  N   UNL A   1      33.473  27.354  23.850  1.00  0.00    -0.259 NA
ATOM     82  C   UNL A   1      32.792  26.252  24.257  1.00  0.00     0.060 A 
BRANCH  82  83
ATOM     83  C   UNL A   1      32.560  25.169  23.221  1.00  0.00     0.181 C 
BRANCH  83  84
ATOM     84  N   UNL A   1      33.251  23.925  23.559  1.00  0.00    -0.303 N 
ATOM     85  C   UNL A   1      34.599  23.950  23.896  1.00  0.00     0.105 A 
ATOM     86  C   UNL A   1      32.519  22.724  23.491  1.00  0.00     0.329 A 
ATOM     87  C   UNL A   1      35.256  22.834  24.251  1.00  0.00     0.041 A 
ATOM     88  C   UNL A   1      33.217  21.558  24.085  1.00  0.00     0.335 A 
ATOM     89  O   UNL A   1      31.435  22.623  22.927  1.00  0.00    -0.261 OA
ATOM     90  Br  UNL A   1      37.082  22.824  24.612  1.00  0.00    -0.049 Br
ATOM     91  C   UNL A   1      34.520  21.600  24.409  1.00  0.00     0.109 A 
BRANCH  88  92
ATOM     92  N   UNL A   1      32.484  20.348  24.356  1.00  0.00     0.068 N 
ATOM     93  O   UNL A   1      32.543  19.435  23.525  1.00  0.00    -0.258 OA
ATOM     94  O   UNL A   1      31.778  20.325  25.376  1.00  0.00    -0.258 OA
ENDBRANCH  88  92
ENDBRANCH  83  84
ENDBRANCH  82  83
ENDBRANCH  74  77
ENDBRANCH  72  73
ENDBRANCH   1  72
TORSDOF 13
ENDMDL
MODEL 3
REMARK VINA RESULT:     -12.6      5.492     11.201
REMARK SMILES O=C(NCCCNC(=O)c1ccc(Cn2cc(Br)cc([N+](=O)[O-])c2=O)nc1)c1ccc(-c2c3nc(c(-c4c(F)c(F)c(F)c(F)c4F)c4ccc([nH]4)c(-c4c(F)c(F)c(F)c(F)c4F)c4nc(c(-c5c(F)c(F)c(F)c(F)c5F)c5ccc2[nH]5)C=C4)C=C3)cc1
REMARK SMILES IDX 5 1 4 2 3 3 1 4 2 5 28 7 29 8 90 9 30 10 89 11 31 12 32 13
REMARK SMILES IDX 33 14 83 15 34 16 88 17 82 18 84 19 35 20 87 21 81 22 80 23
REMARK SMILES IDX 36 25 68 26 48 27 67 28 49 29 52 30 66 31 85 32 50 33 51 34
REMARK SMILES IDX 65 36 86 37 53 38 37 39 38 40 46 41 39 42 40 43 44 44 47 45
REMARK SMILES IDX 41 46 42 47 45 48 43 49 69 50 70 51 78 52 71 53 72 54 76 55
REMARK SMILES IDX 79 56 73 57 74 58 77 59 75 60 54 61 55 62 63 63 56 64 57 65
REMARK SMILES IDX 61 66 64 67 58 68 59 69 62 70 60 71 6 72 7 73 8 74 9 76
REMARK SMILES IDX 10 77 11 78 27 79 12 80 26 81 13 82 14 83 15 84 16 85 24 86
REMARK SMILES IDX 17 87 20 88 25 89 18 90 19 91 21 92 22 93 23 94
REMARK H PARENT 3 6 84 24 52 35 7 75
REMARK Flexibility Score: inf
ROOT
ATOM      1  C   UNL A   1      37.725  19.576  25.000  1.00  0.00     0.042 C 
ENDROOT
BRANCH   1   2
ATOM      2  C   UNL A   1      38.960  20.214  25.619  1.00  0.00     0.118 C 
BRANCH   2   3
ATOM      3  N   UNL A   1      40.016  19.247  25.890  1.00  0.00    -0.352 N 
ATOM      4  O   UNL A   1      42.094  18.439  26.131  1.00  0.00    -0.269 OA
ATOM      5  C   UNL A   1      41.355  19.421  26.127  1.00  0.00     0.251 C 
ATOM      6  H   UNL A   1      39.717  18.310  25.904  1.00  0.00     0.163 HD
BRANCH   5   7
ATOM      7  C   UNL A   1      41.923  20.765  26.373  1.00  0.00     0.039 A 
ATOM      8  C   UNL A   1      42.169  21.160  27.693  1.00  0.00     0.014 A 
ATOM      9  C   UNL A   1      42.154  21.664  25.330  1.00  0.00     0.014 A 
ATOM     10  C   UNL A   1      42.671  22.436  27.956  1.00  0.00     0.010 A 
ATOM     11  C   UNL A   1      42.757  22.891  25.583  1.00  0.00     0.010 A 
ATOM     12  C   UNL A   1      42.986  23.309  26.902  1.00  0.00    -0.014 A 
BRANCH  12  13
ATOM     13  C   UNL A   1      43.471  24.689  27.159  1.00  0.00     0.031 A 
ATOM     14  C   UNL A   1      42.524  25.719  27.718  1.00  0.00     0.074 A 
ATOM     15  C   UNL A   1      44.743  25.026  26.868  1.00  0.00     0.049 A 
ATOM     16  N   UNL A   1      42.728  26.990  27.957  1.00  0.00    -0.248 NA
ATOM     17  C   UNL A   1      41.154  25.271  28.025  1.00  0.00     0.031 C 
ATOM     18  C   UNL A   1      45.745  24.130  26.291  1.00  0.00     0.029 A 
ATOM     19  N   UNL A   1      45.411  26.216  27.021  1.00  0.00    -0.354 N 
ATOM     20  C   UNL A   1      41.517  27.487  28.420  1.00  0.00     0.074 A 
ATOM     21  C   UNL A   1      40.562  26.405  28.370  1.00  0.00     0.031 C 
ATOM     22  C   UNL A   1      46.909  24.789  26.172  1.00  0.00     0.029 A 
ATOM     23  C   UNL A   1      46.726  26.166  26.624  1.00  0.00     0.049 A 
ATOM     24  H   UNL A   1      44.989  27.029  27.380  1.00  0.00     0.167 HD
ATOM     25  C   UNL A   1      41.235  28.726  28.883  1.00  0.00     0.037 A 
ATOM     26  C   UNL A   1      47.675  27.124  26.623  1.00  0.00     0.037 A 
ATOM     27  C   UNL A   1      42.201  29.784  28.989  1.00  0.00     0.049 A 
ATOM     28  C   UNL A   1      47.330  28.497  27.136  1.00  0.00     0.074 A 
ATOM     29  C   UNL A   1      42.029  31.055  29.507  1.00  0.00     0.029 A 
ATOM     30  N   UNL A   1      43.522  29.690  28.579  1.00  0.00    -0.354 N 
ATOM     31  N   UNL A   1      46.196  28.936  27.627  1.00  0.00    -0.248 NA
ATOM     32  C   UNL A   1      48.395  29.511  27.096  1.00  0.00     0.031 C 
ATOM     33  C   UNL A   1      43.232  31.747  29.369  1.00  0.00     0.029 A 
ATOM     34  C   UNL A   1      44.170  30.890  28.814  1.00  0.00     0.049 A 
ATOM     35  H   UNL A   1      43.937  28.890  28.182  1.00  0.00     0.167 HD
ATOM     36  C   UNL A   1      46.417  30.261  27.977  1.00  0.00     0.074 A 
ATOM     37  C   UNL A   1      47.799  30.554  27.658  1.00  0.00     0.031 C 
ATOM     38  C   UNL A   1      45.552  31.156  28.511  1.00  0.00     0.037 A 
BRANCH  25  39
ATOM     39  C   UNL A   1      39.838  29.010  29.349  1.00  0.00     0.064 A 
ATOM     40  C   UNL A   1      38.843  29.435  28.457  1.00  0.00     0.173 A 
ATOM     41  C   UNL A   1      39.465  28.757  30.678  1.00  0.00     0.173 A 
ATOM     42  F   UNL A   1      39.151  29.701  27.178  1.00  0.00    -0.203 F 
ATOM     43  C   UNL A   1      37.527  29.603  28.878  1.00  0.00     0.198 A 
ATOM     44  C   UNL A   1      38.143  28.898  31.089  1.00  0.00     0.198 A 
ATOM     45  F   UNL A   1      40.378  28.344  31.569  1.00  0.00    -0.203 F 
ATOM     46  F   UNL A   1      36.598  30.032  28.014  1.00  0.00    -0.200 F 
ATOM     47  C   UNL A   1      37.176  29.320  30.190  1.00  0.00     0.200 A 
ATOM     48  F   UNL A   1      37.800  28.609  32.352  1.00  0.00    -0.200 F 
ATOM     49  F   UNL A   1      35.903  29.454  30.587  1.00  0.00    -0.200 F 
ENDBRANCH  25  39
BRANCH  26  50
ATOM     50  C   UNL A   1      49.048  26.810  26.146  1.00  0.00     0.064 A 
ATOM     51  C   UNL A   1      49.408  27.006  24.805  1.00  0.00     0.173 A 
ATOM     52  C   UNL A   1      50.029  26.308  27.015  1.00  0.00     0.173 A 
ATOM     53  F   UNL A   1      48.501  27.465  23.930  1.00  0.00    -0.203 F 
ATOM     54  C   UNL A   1      50.686  26.695  24.348  1.00  0.00     0.198 A 
ATOM     55  C   UNL A   1      51.317  26.026  26.564  1.00  0.00     0.198 A 
ATOM     56  F   UNL A   1      49.740  26.105  28.309  1.00  0.00    -0.203 F 
ATOM     57  F   UNL A   1      50.989  26.850  23.051  1.00  0.00    -0.200 F 
ATOM     58  C   UNL A   1      51.643  26.212  25.229  1.00  0.00     0.200 A 
ATOM     59  F   UNL A   1      52.242  25.576  27.422  1.00  0.00    -0.200 F 
ATOM     60  F   UNL A   1      52.875  25.920  24.790  1.00  0.00    -0.200 F 
ENDBRANCH  26  50
BRANCH  38  61
ATOM     61  C   UNL A   1      46.060  32.534  28.814  1.00  0.00     0.064 A 
ATOM     62  C   UNL A   1      46.715  32.822  30.018  1.00  0.00     0.173 A 
ATOM     63  C   UNL A   1      45.995  33.543  27.840  1.00  0.00     0.173 A 
ATOM     64  F   UNL A   1      46.795  31.893  30.982  1.00  0.00    -0.203 F 
ATOM     65  C   UNL A   1      47.289  34.071  30.237  1.00  0.00     0.198 A 
ATOM     66  C   UNL A   1      46.594  34.781  28.052  1.00  0.00     0.198 A 
ATOM     67  F   UNL A   1      45.388  33.312  26.666  1.00  0.00    -0.203 F 
ATOM     68  F   UNL A   1      47.895  34.332  31.404  1.00  0.00    -0.200 F 
ATOM     69  C   UNL A   1      47.239  35.044  29.250  1.00  0.00     0.200 A 
ATOM     70  F   UNL A   1      46.565  35.712  27.088  1.00  0.00    -0.200 F 
ATOM     71  F   UNL A   1      47.819  36.235  29.453  1.00  0.00    -0.200 F 
ENDBRANCH  38  61
ENDBRANCH  12  13
ENDBRANCH   5   7
ENDBRANCH   2   3
ENDBRANCH   1   2
BRANCH   1  72
ATOM     72  C   UNL A   1      36.558  20.536  24.818  1.00  0.00     0.118 C 
BRANCH  72  73
ATOM     73  N   UNL A   1      35.282  19.937  25.182  1.00  0.00    -0.352 N 
ATOM     74  C   UNL A   1      34.035  20.507  25.229  1.00  0.00     0.252 C 
ATOM     75  H   UNL A   1      35.320  18.985  25.429  1.00  0.00     0.163 HD
ATOM     76  O   UNL A   1      33.097  19.908  25.744  1.00  0.00    -0.269 OA
BRANCH  74  77
ATOM     77  C   UNL A   1      33.834  21.858  24.691  1.00  0.00     0.058 A 
ATOM     78  C   UNL A   1      33.183  22.096  23.481  1.00  0.00     0.017 A 
ATOM     79  C   UNL A   1      34.326  22.935  25.399  1.00  0.00     0.125 A 
ATOM     80  C   UNL A   1      33.144  23.393  22.970  1.00  0.00     0.026 A 
ATOM     81  N   UNL A   1      34.297  24.200  24.920  1.00  0.00    -0.259 NA
ATOM     82  C   UNL A   1      33.737  24.419  23.703  1.00  0.00     0.060 A 
BRANCH  82  83
ATOM     83  C   UNL A   1      33.799  25.836  23.166  1.00  0.00     0.181 C 
BRANCH  83  84
ATOM     84  N   UNL A   1      32.723  26.674  23.696  1.00  0.00    -0.303 N 
ATOM     85  C   UNL A   1      32.775  27.121  25.010  1.00  0.00     0.105 A 
ATOM     86  C   UNL A   1      31.637  26.968  22.848  1.00  0.00     0.329 A 
ATOM     87  C   UNL A   1      31.827  27.923  25.518  1.00  0.00     0.041 A 
ATOM     88  C   UNL A   1      30.728  28.014  23.374  1.00  0.00     0.335 A 
ATOM     89  O   UNL A   1      31.412  26.366  21.804  1.00  0.00    -0.261 OA
ATOM     90  Br  UNL A   1      31.822  28.457  27.302  1.00  0.00    -0.049 Br
ATOM     91  C   UNL A   1      30.795  28.438  24.647  1.00  0.00     0.109 A 
BRANCH  88  92
ATOM     92  N   UNL A   1      29.759  28.625  22.500  1.00  0.00     0.068 N 
ATOM     93  O   UNL A   1      30.169  29.399  21.629  1.00  0.00    -0.258 OA
ATOM     94  O   UNL A   1      28.561  28.391  22.725  1.00  0.00    -0.258 OA
ENDBRANCH  88  92
ENDBRANCH  83  84
ENDBRANCH  82  83
ENDBRANCH  74  77
ENDBRANCH  72  73
ENDBRANCH   1  72
TORSDOF 13
ENDMDL
