MODEL 1
REMARK VINA RESULT:     -12.7      0.000      0.000
REMARK SMILES O=C(NCCCNC(=O)c1ccc(S(=O)(=O)NC[C@H]2CCS(=O)(=O)C2)cc1)c1ccc(-c2c3nc(c(-c4c(F)c(F)c(F)c(F)c4F)c4ccc([nH]4)c(-c4c(F)c(F)c(F)c(F)c4F)c4nc(c(-c5c(F)c(F)c(F)c(F)c5F)c5ccc2[nH]5)C=C4)C=C3)cc1
REMARK SMILES IDX 6 1 5 2 4 3 3 4 1 5 2 6 28 8 29 9 90 10 30 11 89 12 31 13
REMARK SMILES IDX 32 14 33 15 83 16 34 17 88 18 82 19 84 20 35 21 87 22 81 23
REMARK SMILES IDX 80 24 36 26 68 27 48 28 67 29 49 30 52 31 66 32 85 33 50 34
REMARK SMILES IDX 51 35 65 37 86 38 53 39 37 40 38 41 46 42 39 43 40 44 44 45
REMARK SMILES IDX 47 46 41 47 42 48 45 49 43 50 69 51 70 52 78 53 71 54 72 55
REMARK SMILES IDX 76 56 79 57 73 58 74 59 77 60 75 61 54 62 55 63 63 64 56 65
REMARK SMILES IDX 57 66 61 67 64 68 58 69 59 70 62 71 60 72 7 73 8 74 9 76
REMARK SMILES IDX 10 77 11 78 27 79 12 80 26 81 13 82 14 83 15 84 16 85 17 86
REMARK SMILES IDX 18 88 19 89 20 90 25 91 21 92 22 93 23 94 24 95
REMARK H PARENT 3 7 84 25 52 36 7 75 17 87
REMARK Flexibility Score: inf
ROOT
ATOM      1  C   UNL A   1      31.918  30.279  27.060  1.00  0.00     0.118 C 
ENDROOT
BRANCH   1   2
ATOM      2  C   UNL A   1      31.583  31.745  26.874  1.00  0.00     0.042 C 
BRANCH   2   3
ATOM      3  C   UNL A   1      32.808  32.636  26.873  1.00  0.00     0.118 C 
BRANCH   3   4
ATOM      4  N   UNL A   1      32.525  33.967  27.397  1.00  0.00    -0.352 N 
ATOM      5  O   UNL A   1      32.526  35.641  28.905  1.00  0.00    -0.269 OA
ATOM      6  C   UNL A   1      33.040  34.604  28.498  1.00  0.00     0.251 C 
ATOM      7  H   UNL A   1      31.865  34.487  26.884  1.00  0.00     0.163 HD
BRANCH   6   8
ATOM      8  C   UNL A   1      34.209  34.033  29.198  1.00  0.00     0.039 A 
ATOM      9  C   UNL A   1      34.031  33.133  30.250  1.00  0.00     0.014 A 
ATOM     10  C   UNL A   1      35.499  34.370  28.775  1.00  0.00     0.014 A 
ATOM     11  C   UNL A   1      35.124  32.693  30.980  1.00  0.00     0.010 A 
ATOM     12  C   UNL A   1      36.606  33.830  29.436  1.00  0.00     0.010 A 
ATOM     13  C   UNL A   1      36.424  32.997  30.549  1.00  0.00    -0.014 A 
BRANCH  13  14
ATOM     14  C   UNL A   1      37.563  32.303  31.194  1.00  0.00     0.031 A 
ATOM     15  C   UNL A   1      38.271  31.165  30.525  1.00  0.00     0.074 A 
ATOM     16  C   UNL A   1      37.949  32.738  32.411  1.00  0.00     0.049 A 
ATOM     17  N   UNL A   1      39.269  30.446  30.973  1.00  0.00    -0.248 NA
ATOM     18  C   UNL A   1      37.800  30.771  29.189  1.00  0.00     0.031 C 
ATOM     19  C   UNL A   1      37.312  33.830  33.155  1.00  0.00     0.029 A 
ATOM     20  N   UNL A   1      38.966  32.330  33.233  1.00  0.00    -0.354 N 
ATOM     21  C   UNL A   1      39.531  29.503  29.989  1.00  0.00     0.074 A 
ATOM     22  C   UNL A   1      38.581  29.731  28.921  1.00  0.00     0.031 C 
ATOM     23  C   UNL A   1      37.970  34.025  34.305  1.00  0.00     0.029 A 
ATOM     24  C   UNL A   1      39.022  33.025  34.417  1.00  0.00     0.049 A 
ATOM     25  H   UNL A   1      39.594  31.608  33.000  1.00  0.00     0.167 HD
ATOM     26  C   UNL A   1      40.483  28.540  29.989  1.00  0.00     0.037 A 
ATOM     27  C   UNL A   1      39.806  32.851  35.496  1.00  0.00     0.037 A 
ATOM     28  C   UNL A   1      41.438  28.347  31.050  1.00  0.00     0.049 A 
ATOM     29  C   UNL A   1      40.827  31.752  35.469  1.00  0.00     0.074 A 
ATOM     30  C   UNL A   1      42.496  27.454  31.105  1.00  0.00     0.029 A 
ATOM     31  N   UNL A   1      41.446  29.049  32.247  1.00  0.00    -0.354 N 
ATOM     32  N   UNL A   1      41.111  30.911  34.504  1.00  0.00    -0.248 NA
ATOM     33  C   UNL A   1      41.630  31.568  36.685  1.00  0.00     0.031 C 
ATOM     34  C   UNL A   1      43.102  27.572  32.358  1.00  0.00     0.029 A 
ATOM     35  C   UNL A   1      42.459  28.575  33.066  1.00  0.00     0.049 A 
ATOM     36  H   UNL A   1      40.824  29.776  32.481  1.00  0.00     0.167 HD
ATOM     37  C   UNL A   1      42.125  30.103  34.992  1.00  0.00     0.074 A 
ATOM     38  C   UNL A   1      42.433  30.577  36.326  1.00  0.00     0.031 C 
ATOM     39  C   UNL A   1      42.741  29.055  34.394  1.00  0.00     0.037 A 
BRANCH  26  40
ATOM     40  C   UNL A   1      40.545  27.598  28.824  1.00  0.00     0.064 A 
ATOM     41  C   UNL A   1      39.750  26.446  28.761  1.00  0.00     0.173 A 
ATOM     42  C   UNL A   1      41.331  27.915  27.705  1.00  0.00     0.173 A 
ATOM     43  F   UNL A   1      38.986  26.095  29.807  1.00  0.00    -0.203 F 
ATOM     44  C   UNL A   1      39.741  25.643  27.621  1.00  0.00     0.198 A 
ATOM     45  C   UNL A   1      41.303  27.125  26.560  1.00  0.00     0.198 A 
ATOM     46  F   UNL A   1      42.106  29.011  27.713  1.00  0.00    -0.203 F 
ATOM     47  F   UNL A   1      38.985  24.537  27.589  1.00  0.00    -0.200 F 
ATOM     48  C   UNL A   1      40.508  25.989  26.519  1.00  0.00     0.200 A 
ATOM     49  F   UNL A   1      42.034  27.469  25.490  1.00  0.00    -0.200 F 
ATOM     50  F   UNL A   1      40.479  25.230  25.415  1.00  0.00    -0.200 F 
ENDBRANCH  26  40
BRANCH  27  51
ATOM     51  C   UNL A   1      39.615  33.699  36.699  1.00  0.00     0.064 A 
ATOM     52  C   UNL A   1      40.268  34.931  36.831  1.00  0.00     0.173 A 
ATOM     53  C   UNL A   1      38.782  33.285  37.751  1.00  0.00     0.173 A 
ATOM     54  F   UNL A   1      41.087  35.361  35.861  1.00  0.00    -0.203 F 
ATOM     55  C   UNL A   1      40.117  35.704  37.981  1.00  0.00     0.198 A 
ATOM     56  C   UNL A   1      38.603  34.076  38.883  1.00  0.00     0.198 A 
ATOM     57  F   UNL A   1      38.128  32.117  37.672  1.00  0.00    -0.203 F 
ATOM     58  F   UNL A   1      40.797  36.851  38.106  1.00  0.00    -0.200 F 
ATOM     59  C   UNL A   1      39.280  35.279  39.003  1.00  0.00     0.200 A 
ATOM     60  F   UNL A   1      37.779  33.670  39.858  1.00  0.00    -0.200 F 
ATOM     61  F   UNL A   1      39.136  36.024  40.107  1.00  0.00    -0.200 F 
ENDBRANCH  27  51
BRANCH  39  62
ATOM     62  C   UNL A   1      43.804  28.354  35.184  1.00  0.00     0.064 A 
ATOM     63  C   UNL A   1      45.144  28.769  35.131  1.00  0.00     0.173 A 
ATOM     64  C   UNL A   1      43.480  27.278  36.023  1.00  0.00     0.173 A 
ATOM     65  F   UNL A   1      45.505  29.780  34.326  1.00  0.00    -0.203 F 
ATOM     66  C   UNL A   1      46.123  28.116  35.871  1.00  0.00     0.198 A 
ATOM     67  C   UNL A   1      44.458  26.648  36.786  1.00  0.00     0.198 A 
ATOM     68  F   UNL A   1      42.213  26.846  36.111  1.00  0.00    -0.203 F 
ATOM     69  F   UNL A   1      47.403  28.496  35.768  1.00  0.00    -0.200 F 
ATOM     70  C   UNL A   1      45.779  27.061  36.704  1.00  0.00     0.200 A 
ATOM     71  F   UNL A   1      44.121  25.637  37.599  1.00  0.00    -0.200 F 
ATOM     72  F   UNL A   1      46.722  26.438  37.423  1.00  0.00    -0.200 F 
ENDBRANCH  39  62
ENDBRANCH  13  14
ENDBRANCH   6   8
ENDBRANCH   3   4
ENDBRANCH   2   3
ENDBRANCH   1   2
BRANCH   1  73
ATOM     73  N   UNL A   1      33.306  30.063  27.453  1.00  0.00    -0.352 N 
ATOM     74  C   UNL A   1      34.193  29.095  27.044  1.00  0.00     0.251 C 
ATOM     75  H   UNL A   1      33.661  30.705  28.110  1.00  0.00     0.163 HD
ATOM     76  O   UNL A   1      35.270  28.956  27.614  1.00  0.00    -0.269 OA
BRANCH  74  77
ATOM     77  C   UNL A   1      33.822  28.207  25.923  1.00  0.00     0.039 A 
ATOM     78  C   UNL A   1      33.562  28.752  24.663  1.00  0.00     0.015 A 
ATOM     79  C   UNL A   1      33.804  26.824  26.113  1.00  0.00     0.015 A 
ATOM     80  C   UNL A   1      33.373  27.899  23.571  1.00  0.00     0.022 A 
ATOM     81  C   UNL A   1      33.729  25.981  25.014  1.00  0.00     0.022 A 
ATOM     82  C   UNL A   1      33.492  26.514  23.748  1.00  0.00     0.082 A 
BRANCH  82  83
ATOM     83  S   UNL A   1      33.347  25.461  22.328  1.00  0.00     0.240 S 
ATOM     84  O   UNL A   1      33.464  26.283  21.150  1.00  0.00    -0.207 OA
ATOM     85  O   UNL A   1      34.222  24.334  22.565  1.00  0.00    -0.207 OA
BRANCH  83  86
ATOM     86  N   UNL A   1      31.801  24.835  22.375  1.00  0.00    -0.211 NA
ATOM     87  H   UNL A   1      31.933  23.832  22.510  1.00  0.00     0.141 HD
BRANCH  86  88
ATOM     88  C   UNL A   1      30.712  25.188  23.280  1.00  0.00     0.103 C 
BRANCH  88  89
ATOM     89  C   UNL A   1      30.436  24.204  24.406  1.00  0.00     0.020 C 
ATOM     90  C   UNL A   1      31.398  23.003  24.294  1.00  0.00     0.022 C 
ATOM     91  C   UNL A   1      30.724  24.764  25.807  1.00  0.00     0.142 C 
ATOM     92  C   UNL A   1      31.197  22.159  25.544  1.00  0.00     0.137 C 
ATOM     93  S   UNL A   1      30.875  23.326  26.855  1.00  0.00     0.150 S 
ATOM     94  O   UNL A   1      29.583  23.020  27.431  1.00  0.00    -0.229 OA
ATOM     95  O   UNL A   1      32.071  23.467  27.659  1.00  0.00    -0.229 OA
ENDBRANCH  88  89
ENDBRANCH  86  88
ENDBRANCH  83  86
ENDBRANCH  82  83
ENDBRANCH  74  77
ENDBRANCH   1  73
TORSDOF 14
ENDMDL
MODEL 2
REMARK VINA RESULT:     -12.5      1.250      2.763
REMARK SMILES O=C(NCCCNC(=O)c1ccc(S(=O)(=O)NC[C@H]2CCS(=O)(=O)C2)cc1)c1ccc(-c2c3nc(c(-c4c(F)c(F)c(F)c(F)c4F)c4ccc([nH]4)c(-c4c(F)c(F)c(F)c(F)c4F)c4nc(c(-c5c(F)c(F)c(F)c(F)c5F)c5ccc2[nH]5)C=C4)C=C3)cc1
REMARK SMILES IDX 6 1 5 2 4 3 3 4 1 5 2 6 28 8 29 9 90 10 30 11 89 12 31 13
REMARK SMILES IDX 32 14 33 15 83 16 34 17 88 18 82 19 84 20 35 21 87 22 81 23
REMARK SMILES IDX 80 24 36 26 68 27 48 28 67 29 49 30 52 31 66 32 85 33 50 34
REMARK SMILES IDX 51 35 65 37 86 38 53 39 37 40 38 41 46 42 39 43 40 44 44 45
REMARK SMILES IDX 47 46 41 47 42 48 45 49 43 50 69 51 70 52 78 53 71 54 72 55
REMARK SMILES IDX 76 56 79 57 73 58 74 59 77 60 75 61 54 62 55 63 63 64 56 65
REMARK SMILES IDX 57 66 61 67 64 68 58 69 59 70 62 71 60 72 7 73 8 74 9 76
REMARK SMILES IDX 10 77 11 78 27 79 12 80 26 81 13 82 14 83 15 84 16 85 17 86
REMARK SMILES IDX 18 88 19 89 20 90 25 91 21 92 22 93 23 94 24 95
REMARK H PARENT 3 7 84 25 52 36 7 75 17 87
REMARK Flexibility Score: inf
ROOT
ATOM      1  C   UNL A   1      31.525  30.366  26.220  1.00  0.00     0.118 C 
ENDROOT
BRANCH   1   2
ATOM      2  C   UNL A   1      31.386  31.851  26.489  1.00  0.00     0.042 C 
BRANCH   2   3
ATOM      3  C   UNL A   1      32.657  32.476  27.024  1.00  0.00     0.118 C 
BRANCH   3   4
ATOM      4  N   UNL A   1      32.464  33.862  27.433  1.00  0.00    -0.352 N 
ATOM      5  O   UNL A   1      32.612  35.665  28.776  1.00  0.00    -0.269 OA
ATOM      6  C   UNL A   1      33.057  34.570  28.448  1.00  0.00     0.251 C 
ATOM      7  H   UNL A   1      31.808  34.368  26.899  1.00  0.00     0.163 HD
BRANCH   6   8
ATOM      8  C   UNL A   1      34.226  34.003  29.152  1.00  0.00     0.039 A 
ATOM      9  C   UNL A   1      34.049  33.086  30.190  1.00  0.00     0.014 A 
ATOM     10  C   UNL A   1      35.516  34.363  28.748  1.00  0.00     0.014 A 
ATOM     11  C   UNL A   1      35.140  32.650  30.925  1.00  0.00     0.010 A 
ATOM     12  C   UNL A   1      36.623  33.828  29.412  1.00  0.00     0.010 A 
ATOM     13  C   UNL A   1      36.440  32.977  30.512  1.00  0.00    -0.014 A 
BRANCH  13  14
ATOM     14  C   UNL A   1      37.581  32.290  31.159  1.00  0.00     0.031 A 
ATOM     15  C   UNL A   1      38.292  31.150  30.494  1.00  0.00     0.074 A 
ATOM     16  C   UNL A   1      37.967  32.730  32.374  1.00  0.00     0.049 A 
ATOM     17  N   UNL A   1      39.293  30.436  30.944  1.00  0.00    -0.248 NA
ATOM     18  C   UNL A   1      37.822  30.750  29.160  1.00  0.00     0.031 C 
ATOM     19  C   UNL A   1      37.327  33.823  33.114  1.00  0.00     0.029 A 
ATOM     20  N   UNL A   1      38.985  32.328  33.198  1.00  0.00    -0.354 N 
ATOM     21  C   UNL A   1      39.557  29.490  29.964  1.00  0.00     0.074 A 
ATOM     22  C   UNL A   1      38.606  29.711  28.896  1.00  0.00     0.031 C 
ATOM     23  C   UNL A   1      37.985  34.024  34.263  1.00  0.00     0.029 A 
ATOM     24  C   UNL A   1      39.040  33.028  34.378  1.00  0.00     0.049 A 
ATOM     25  H   UNL A   1      39.615  31.607  32.967  1.00  0.00     0.167 HD
ATOM     26  C   UNL A   1      40.512  28.530  29.968  1.00  0.00     0.037 A 
ATOM     27  C   UNL A   1      39.825  32.860  35.457  1.00  0.00     0.037 A 
ATOM     28  C   UNL A   1      41.468  28.344  31.029  1.00  0.00     0.049 A 
ATOM     29  C   UNL A   1      40.849  31.764  35.435  1.00  0.00     0.074 A 
ATOM     30  C   UNL A   1      42.528  27.454  31.087  1.00  0.00     0.029 A 
ATOM     31  N   UNL A   1      41.474  29.050  32.223  1.00  0.00    -0.354 N 
ATOM     32  N   UNL A   1      41.135  30.920  34.473  1.00  0.00    -0.248 NA
ATOM     33  C   UNL A   1      41.653  31.587  36.651  1.00  0.00     0.031 C 
ATOM     34  C   UNL A   1      43.135  27.579  32.339  1.00  0.00     0.029 A 
ATOM     35  C   UNL A   1      42.490  28.582  33.044  1.00  0.00     0.049 A 
ATOM     36  H   UNL A   1      40.850  29.776  32.454  1.00  0.00     0.167 HD
ATOM     37  C   UNL A   1      42.152  30.117  34.963  1.00  0.00     0.074 A 
ATOM     38  C   UNL A   1      42.459  30.597  36.295  1.00  0.00     0.031 C 
ATOM     39  C   UNL A   1      42.770  29.068  34.369  1.00  0.00     0.037 A 
BRANCH  26  40
ATOM     40  C   UNL A   1      40.576  27.584  28.806  1.00  0.00     0.064 A 
ATOM     41  C   UNL A   1      39.784  26.430  28.747  1.00  0.00     0.173 A 
ATOM     42  C   UNL A   1      41.362  27.898  27.686  1.00  0.00     0.173 A 
ATOM     43  F   UNL A   1      39.021  26.081  29.794  1.00  0.00    -0.203 F 
ATOM     44  C   UNL A   1      39.777  25.623  27.611  1.00  0.00     0.198 A 
ATOM     45  C   UNL A   1      41.336  27.103  26.543  1.00  0.00     0.198 A 
ATOM     46  F   UNL A   1      42.134  28.996  27.689  1.00  0.00    -0.203 F 
ATOM     47  F   UNL A   1      39.023  24.515  27.582  1.00  0.00    -0.200 F 
ATOM     48  C   UNL A   1      40.543  25.966  26.507  1.00  0.00     0.200 A 
ATOM     49  F   UNL A   1      42.066  27.445  25.473  1.00  0.00    -0.200 F 
ATOM     50  F   UNL A   1      40.516  25.203  25.406  1.00  0.00    -0.200 F 
ENDBRANCH  26  40
BRANCH  27  51
ATOM     51  C   UNL A   1      39.632  33.713  36.658  1.00  0.00     0.064 A 
ATOM     52  C   UNL A   1      38.810  33.304  37.715  1.00  0.00     0.173 A 
ATOM     53  C   UNL A   1      40.259  34.964  36.764  1.00  0.00     0.173 A 
ATOM     54  F   UNL A   1      38.176  32.124  37.652  1.00  0.00    -0.203 F 
ATOM     55  C   UNL A   1      38.601  34.126  38.821  1.00  0.00     0.198 A 
ATOM     56  C   UNL A   1      40.078  35.769  37.886  1.00  0.00     0.198 A 
ATOM     57  F   UNL A   1      41.062  35.401  35.782  1.00  0.00    -0.203 F 
ATOM     58  F   UNL A   1      37.765  33.736  39.792  1.00  0.00    -0.200 F 
ATOM     59  C   UNL A   1      39.239  35.354  38.908  1.00  0.00     0.200 A 
ATOM     60  F   UNL A   1      40.713  36.945  37.974  1.00  0.00    -0.200 F 
ATOM     61  F   UNL A   1      39.038  36.143  39.972  1.00  0.00    -0.200 F 
ENDBRANCH  27  51
BRANCH  39  62
ATOM     62  C   UNL A   1      43.836  28.374  35.161  1.00  0.00     0.064 A 
ATOM     63  C   UNL A   1      43.537  27.274  35.979  1.00  0.00     0.173 A 
ATOM     64  C   UNL A   1      45.172  28.792  35.081  1.00  0.00     0.173 A 
ATOM     65  F   UNL A   1      42.270  26.851  36.104  1.00  0.00    -0.203 F 
ATOM     66  C   UNL A   1      44.534  26.633  36.706  1.00  0.00     0.198 A 
ATOM     67  C   UNL A   1      46.172  28.128  35.786  1.00  0.00     0.198 A 
ATOM     68  F   UNL A   1      45.510  29.837  34.310  1.00  0.00    -0.203 F 
ATOM     69  F   UNL A   1      44.219  25.616  37.519  1.00  0.00    -0.200 F 
ATOM     70  C   UNL A   1      45.852  27.055  36.603  1.00  0.00     0.200 A 
ATOM     71  F   UNL A   1      47.446  28.530  35.676  1.00  0.00    -0.200 F 
ATOM     72  F   UNL A   1      46.812  26.432  37.298  1.00  0.00    -0.200 F 
ENDBRANCH  39  62
ENDBRANCH  13  14
ENDBRANCH   6   8
ENDBRANCH   3   4
ENDBRANCH   2   3
ENDBRANCH   1   2
BRANCH   1  73
ATOM     73  N   UNL A   1      31.702  30.062  24.804  1.00  0.00    -0.352 N 
ATOM     74  C   UNL A   1      31.834  28.845  24.177  1.00  0.00     0.251 C 
ATOM     75  H   UNL A   1      31.733  30.846  24.208  1.00  0.00     0.163 HD
ATOM     76  O   UNL A   1      32.153  28.784  22.996  1.00  0.00    -0.269 OA
BRANCH  74  77
ATOM     77  C   UNL A   1      31.607  27.609  24.954  1.00  0.00     0.039 A 
ATOM     78  C   UNL A   1      30.355  26.988  24.921  1.00  0.00     0.015 A 
ATOM     79  C   UNL A   1      32.665  27.030  25.657  1.00  0.00     0.015 A 
ATOM     80  C   UNL A   1      30.193  25.735  25.521  1.00  0.00     0.022 A 
ATOM     81  C   UNL A   1      32.536  25.742  26.154  1.00  0.00     0.022 A 
ATOM     82  C   UNL A   1      31.298  25.102  26.107  1.00  0.00     0.082 A 
BRANCH  82  83
ATOM     83  S   UNL A   1      31.088  23.472  26.773  1.00  0.00     0.240 S 
ATOM     84  O   UNL A   1      32.226  23.182  27.610  1.00  0.00    -0.207 OA
ATOM     85  O   UNL A   1      29.732  23.408  27.274  1.00  0.00    -0.207 OA
BRANCH  83  86
ATOM     86  N   UNL A   1      31.123  22.433  25.468  1.00  0.00    -0.211 NA
ATOM     87  H   UNL A   1      30.205  22.534  25.033  1.00  0.00     0.141 HD
BRANCH  86  88
ATOM     88  C   UNL A   1      32.061  22.422  24.350  1.00  0.00     0.103 C 
BRANCH  88  89
ATOM     89  C   UNL A   1      33.530  22.570  24.712  1.00  0.00     0.020 C 
ATOM     90  C   UNL A   1      34.249  21.218  24.530  1.00  0.00     0.022 C 
ATOM     91  C   UNL A   1      34.307  23.517  23.786  1.00  0.00     0.142 C 
ATOM     92  C   UNL A   1      35.736  21.479  24.726  1.00  0.00     0.137 C 
ATOM     93  S   UNL A   1      36.025  23.100  24.038  1.00  0.00     0.150 S 
ATOM     94  O   UNL A   1      36.573  23.945  25.077  1.00  0.00    -0.229 OA
ATOM     95  O   UNL A   1      36.656  22.952  22.743  1.00  0.00    -0.229 OA
ENDBRANCH  88  89
ENDBRANCH  86  88
ENDBRANCH  83  86
ENDBRANCH  82  83
ENDBRANCH  74  77
ENDBRANCH   1  73
TORSDOF 14
ENDMDL
MODEL 3
REMARK VINA RESULT:     -12.5      1.404      2.405
REMARK SMILES O=C(NCCCNC(=O)c1ccc(S(=O)(=O)NC[C@H]2CCS(=O)(=O)C2)cc1)c1ccc(-c2c3nc(c(-c4c(F)c(F)c(F)c(F)c4F)c4ccc([nH]4)c(-c4c(F)c(F)c(F)c(F)c4F)c4nc(c(-c5c(F)c(F)c(F)c(F)c5F)c5ccc2[nH]5)C=C4)C=C3)cc1
REMARK SMILES IDX 6 1 5 2 4 3 3 4 1 5 2 6 28 8 29 9 90 10 30 11 89 12 31 13
REMARK SMILES IDX 32 14 33 15 83 16 34 17 88 18 82 19 84 20 35 21 87 22 81 23
REMARK SMILES IDX 80 24 36 26 68 27 48 28 67 29 49 30 52 31 66 32 85 33 50 34
REMARK SMILES IDX 51 35 65 37 86 38 53 39 37 40 38 41 46 42 39 43 40 44 44 45
REMARK SMILES IDX 47 46 41 47 42 48 45 49 43 50 69 51 70 52 78 53 71 54 72 55
REMARK SMILES IDX 76 56 79 57 73 58 74 59 77 60 75 61 54 62 55 63 63 64 56 65
REMARK SMILES IDX 57 66 61 67 64 68 58 69 59 70 62 71 60 72 7 73 8 74 9 76
REMARK SMILES IDX 10 77 11 78 27 79 12 80 26 81 13 82 14 83 15 84 16 85 17 86
REMARK SMILES IDX 18 88 19 89 20 90 25 91 21 92 22 93 23 94 24 95
REMARK H PARENT 3 7 84 25 52 36 7 75 17 87
REMARK Flexibility Score: inf
ROOT
ATOM      1  C   UNL A   1      31.573  30.331  26.184  1.00  0.00     0.118 C 
ENDROOT
BRANCH   1   2
ATOM      2  C   UNL A   1      31.401  31.804  26.496  1.00  0.00     0.042 C 
BRANCH   2   3
ATOM      3  C   UNL A   1      32.674  32.455  26.996  1.00  0.00     0.118 C 
BRANCH   3   4
ATOM      4  N   UNL A   1      32.463  33.835  27.418  1.00  0.00    -0.352 N 
ATOM      5  O   UNL A   1      32.583  35.624  28.781  1.00  0.00    -0.269 OA
ATOM      6  C   UNL A   1      33.041  34.537  28.445  1.00  0.00     0.251 C 
ATOM      7  H   UNL A   1      31.805  34.338  26.886  1.00  0.00     0.163 HD
BRANCH   6   8
ATOM      8  C   UNL A   1      34.212  33.976  29.150  1.00  0.00     0.039 A 
ATOM      9  C   UNL A   1      34.037  33.076  30.202  1.00  0.00     0.014 A 
ATOM     10  C   UNL A   1      35.501  34.324  28.733  1.00  0.00     0.014 A 
ATOM     11  C   UNL A   1      35.131  32.646  30.937  1.00  0.00     0.010 A 
ATOM     12  C   UNL A   1      36.610  33.795  29.399  1.00  0.00     0.010 A 
ATOM     13  C   UNL A   1      36.430  32.961  30.512  1.00  0.00    -0.014 A 
BRANCH  13  14
ATOM     14  C   UNL A   1      37.572  32.278  31.163  1.00  0.00     0.031 A 
ATOM     15  C   UNL A   1      38.292  31.144  30.498  1.00  0.00     0.074 A 
ATOM     16  C   UNL A   1      37.949  32.717  32.381  1.00  0.00     0.049 A 
ATOM     17  N   UNL A   1      39.295  30.435  30.951  1.00  0.00    -0.248 NA
ATOM     18  C   UNL A   1      37.831  30.746  29.160  1.00  0.00     0.031 C 
ATOM     19  C   UNL A   1      37.299  33.803  33.121  1.00  0.00     0.029 A 
ATOM     20  N   UNL A   1      38.966  32.318  33.208  1.00  0.00    -0.354 N 
ATOM     21  C   UNL A   1      39.570  29.493  29.969  1.00  0.00     0.074 A 
ATOM     22  C   UNL A   1      38.622  29.712  28.897  1.00  0.00     0.031 C 
ATOM     23  C   UNL A   1      37.951  34.005  34.274  1.00  0.00     0.029 A 
ATOM     24  C   UNL A   1      39.011  33.015  34.391  1.00  0.00     0.049 A 
ATOM     25  H   UNL A   1      39.601  31.602  32.978  1.00  0.00     0.167 HD
ATOM     26  C   UNL A   1      40.530  28.539  29.974  1.00  0.00     0.037 A 
ATOM     27  C   UNL A   1      39.792  32.848  35.473  1.00  0.00     0.037 A 
ATOM     28  C   UNL A   1      41.482  28.355  31.039  1.00  0.00     0.049 A 
ATOM     29  C   UNL A   1      40.822  31.758  35.453  1.00  0.00     0.074 A 
ATOM     30  C   UNL A   1      42.547  27.471  31.099  1.00  0.00     0.029 A 
ATOM     31  N   UNL A   1      41.478  29.057  32.236  1.00  0.00    -0.354 N 
ATOM     32  N   UNL A   1      41.117  30.919  34.489  1.00  0.00    -0.248 NA
ATOM     33  C   UNL A   1      41.622  31.582  36.672  1.00  0.00     0.031 C 
ATOM     34  C   UNL A   1      43.147  27.595  32.355  1.00  0.00     0.029 A 
ATOM     35  C   UNL A   1      42.492  28.593  33.060  1.00  0.00     0.049 A 
ATOM     36  H   UNL A   1      40.849  29.779  32.466  1.00  0.00     0.167 HD
ATOM     37  C   UNL A   1      42.137  30.120  34.982  1.00  0.00     0.074 A 
ATOM     38  C   UNL A   1      42.435  30.598  36.317  1.00  0.00     0.031 C 
ATOM     39  C   UNL A   1      42.764  29.076  34.388  1.00  0.00     0.037 A 
BRANCH  26  40
ATOM     40  C   UNL A   1      40.605  27.596  28.810  1.00  0.00     0.064 A 
ATOM     41  C   UNL A   1      39.808  26.446  28.737  1.00  0.00     0.173 A 
ATOM     42  C   UNL A   1      41.407  27.911  27.701  1.00  0.00     0.173 A 
ATOM     43  F   UNL A   1      39.030  26.097  29.772  1.00  0.00    -0.203 F 
ATOM     44  C   UNL A   1      39.813  25.643  27.597  1.00  0.00     0.198 A 
ATOM     45  C   UNL A   1      41.392  27.120  26.556  1.00  0.00     0.198 A 
ATOM     46  F   UNL A   1      42.184  29.005  27.719  1.00  0.00    -0.203 F 
ATOM     47  F   UNL A   1      39.055  24.539  27.555  1.00  0.00    -0.200 F 
ATOM     48  C   UNL A   1      40.595  25.987  26.505  1.00  0.00     0.200 A 
ATOM     49  F   UNL A   1      42.138  27.463  25.496  1.00  0.00    -0.200 F 
ATOM     50  F   UNL A   1      40.579  25.228  25.401  1.00  0.00    -0.200 F 
ENDBRANCH  26  40
BRANCH  27  51
ATOM     51  C   UNL A   1      39.588  33.696  36.675  1.00  0.00     0.064 A 
ATOM     52  C   UNL A   1      40.209  34.945  36.797  1.00  0.00     0.173 A 
ATOM     53  C   UNL A   1      38.775  33.264  37.735  1.00  0.00     0.173 A 
ATOM     54  F   UNL A   1      41.008  35.393  35.818  1.00  0.00    -0.203 F 
ATOM     55  C   UNL A   1      40.047  35.719  37.945  1.00  0.00     0.198 A 
ATOM     56  C   UNL A   1      38.585  34.054  38.867  1.00  0.00     0.198 A 
ATOM     57  F   UNL A   1      38.152  32.079  37.667  1.00  0.00    -0.203 F 
ATOM     58  F   UNL A   1      40.697  36.884  38.060  1.00  0.00    -0.200 F 
ATOM     59  C   UNL A   1      39.231  35.275  38.976  1.00  0.00     0.200 A 
ATOM     60  F   UNL A   1      37.780  33.630  39.849  1.00  0.00    -0.200 F 
ATOM     61  F   UNL A   1      39.076  36.020  40.078  1.00  0.00    -0.200 F 
ENDBRANCH  27  51
BRANCH  39  62
ATOM     62  C   UNL A   1      43.830  28.386  35.183  1.00  0.00     0.064 A 
ATOM     63  C   UNL A   1      45.177  28.764  35.079  1.00  0.00     0.173 A 
ATOM     64  C   UNL A   1      43.501  27.358  36.078  1.00  0.00     0.173 A 
ATOM     65  F   UNL A   1      45.542  29.728  34.220  1.00  0.00    -0.203 F 
ATOM     66  C   UNL A   1      46.159  28.121  35.824  1.00  0.00     0.198 A 
ATOM     67  C   UNL A   1      44.482  26.738  36.846  1.00  0.00     0.198 A 
ATOM     68  F   UNL A   1      42.227  26.962  36.217  1.00  0.00    -0.203 F 
ATOM     69  F   UNL A   1      47.445  28.463  35.672  1.00  0.00    -0.200 F 
ATOM     70  C   UNL A   1      45.811  27.114  36.713  1.00  0.00     0.200 A 
ATOM     71  F   UNL A   1      44.143  25.774  37.713  1.00  0.00    -0.200 F 
ATOM     72  F   UNL A   1      46.757  26.500  37.436  1.00  0.00    -0.200 F 
ENDBRANCH  39  62
ENDBRANCH  13  14
ENDBRANCH   6   8
ENDBRANCH   3   4
ENDBRANCH   2   3
ENDBRANCH   1   2
BRANCH   1  73
ATOM     73  N   UNL A   1      31.739  30.071  24.759  1.00  0.00    -0.352 N 
ATOM     74  C   UNL A   1      31.799  28.873  24.086  1.00  0.00     0.251 C 
ATOM     75  H   UNL A   1      31.821  30.874  24.193  1.00  0.00     0.163 HD
ATOM     76  O   UNL A   1      32.121  28.838  22.904  1.00  0.00    -0.269 OA
BRANCH  74  77
ATOM     77  C   UNL A   1      31.494  27.624  24.814  1.00  0.00     0.039 A 
ATOM     78  C   UNL A   1      30.260  26.994  24.624  1.00  0.00     0.015 A 
ATOM     79  C   UNL A   1      32.465  27.044  25.631  1.00  0.00     0.015 A 
ATOM     80  C   UNL A   1      30.040  25.732  25.185  1.00  0.00     0.022 A 
ATOM     81  C   UNL A   1      32.290  25.748  26.093  1.00  0.00     0.022 A 
ATOM     82  C   UNL A   1      31.073  25.099  25.890  1.00  0.00     0.082 A 
BRANCH  82  83
ATOM     83  S   UNL A   1      30.801  23.459  26.504  1.00  0.00     0.240 S 
ATOM     84  O   UNL A   1      29.744  23.519  27.483  1.00  0.00    -0.207 OA
ATOM     85  O   UNL A   1      30.723  22.596  25.346  1.00  0.00    -0.207 OA
BRANCH  83  86
ATOM     86  N   UNL A   1      32.208  23.019  27.285  1.00  0.00    -0.211 NA
ATOM     87  H   UNL A   1      31.897  22.617  28.170  1.00  0.00     0.141 HD
BRANCH  86  88
ATOM     88  C   UNL A   1      33.254  22.115  26.816  1.00  0.00     0.103 C 
BRANCH  88  89
ATOM     89  C   UNL A   1      34.193  22.674  25.759  1.00  0.00     0.020 C 
ATOM     90  C   UNL A   1      35.413  23.327  26.440  1.00  0.00     0.022 C 
ATOM     91  C   UNL A   1      34.818  21.603  24.853  1.00  0.00     0.142 C 
ATOM     92  C   UNL A   1      36.391  23.694  25.333  1.00  0.00     0.137 C 
ATOM     93  S   UNL A   1      36.241  22.395  24.120  1.00  0.00     0.150 S 
ATOM     94  O   UNL A   1      35.856  22.991  22.858  1.00  0.00    -0.229 OA
ATOM     95  O   UNL A   1      37.377  21.505  24.245  1.00  0.00    -0.229 OA
ENDBRANCH  88  89
ENDBRANCH  86  88
ENDBRANCH  83  86
ENDBRANCH  82  83
ENDBRANCH  74  77
ENDBRANCH   1  73
TORSDOF 14
ENDMDL
