MODEL 1
REMARK VINA RESULT:     -12.7      0.000      0.000
REMARK SMILES Cc1ccc(/C=C/C(=O)NC[C@H]2CC[C@@H](C(=O)NCCCNC(=O)c3ccc(-c4c5nc(c(-c6c(F)c(F)c(F)c(F)c6F)c6ccc([nH]6)c(-c6c(F)c(F)c(F)c(F)c6F)c6nc(c(-c7c(F)c(F)c(F)c(F)c7F)c7ccc4[nH]7)C=C6)C=C5)cc3)CC2)s1
REMARK SMILES IDX 19 1 18 2 16 3 17 4 15 6 12 7 13 8 89 9 14 10 88 11 11 12
REMARK SMILES IDX 10 13 8 14 9 15 7 17 6 18 5 19 1 20 2 21 3 22 90 23 4 24
REMARK SMILES IDX 20 25 21 26 22 27 23 28 24 30 25 31 26 32 87 33 27 34 86 35
REMARK SMILES IDX 28 36 29 37 30 38 80 39 31 40 85 41 79 42 81 43 32 44 84 45
REMARK SMILES IDX 78 46 77 47 33 49 65 50 45 51 64 52 46 53 49 54 63 55 82 56
REMARK SMILES IDX 47 57 48 58 62 60 83 61 50 62 34 63 35 64 43 65 36 66 37 67
REMARK SMILES IDX 41 68 44 69 38 70 39 71 42 72 40 73 66 74 67 75 75 76 68 77
REMARK SMILES IDX 69 78 73 79 76 80 70 81 71 82 74 83 72 84 51 85 52 86 60 87
REMARK SMILES IDX 53 88 54 89 58 90 61 91 55 92 56 93 59 94 57 95
REMARK H PARENT 18 5 10 16 22 29 81 48 49 59
REMARK Flexibility Score: inf
ROOT
ATOM      1  C   UNL A   1      31.744  30.368  25.758  1.00  0.00     0.117 C 
ENDROOT
BRANCH   1   2
ATOM      2  N   UNL A   1      33.016  29.927  25.247  1.00  0.00    -0.356 N 
ATOM      3  C   UNL A   1      33.503  28.666  25.114  1.00  0.00     0.223 C 
ATOM      4  O   UNL A   1      34.328  28.498  24.207  1.00  0.00    -0.275 OA
ATOM      5  H   UNL A   1      33.621  30.645  24.951  1.00  0.00     0.163 HD
BRANCH   3   6
ATOM      6  C   UNL A   1      33.097  27.469  25.991  1.00  0.00     0.078 C 
ATOM      7  C   UNL A   1      32.104  24.853  24.862  1.00  0.00     0.008 C 
ATOM      8  C   UNL A   1      33.553  25.330  24.728  1.00  0.00     0.006 C 
ATOM      9  C   UNL A   1      31.089  25.959  25.228  1.00  0.00     0.006 C 
ATOM     10  C   UNL A   1      33.998  26.248  25.843  1.00  0.00     0.014 C 
ATOM     11  C   UNL A   1      31.613  27.110  26.099  1.00  0.00     0.014 C 
BRANCH   7  12
ATOM     12  C   UNL A   1      31.722  23.989  23.627  1.00  0.00     0.119 C 
BRANCH  12  13
ATOM     13  N   UNL A   1      32.315  24.384  22.365  1.00  0.00    -0.352 N 
ATOM     14  C   UNL A   1      32.308  25.499  21.607  1.00  0.00     0.244 C 
ATOM     15  O   UNL A   1      33.160  25.557  20.713  1.00  0.00    -0.270 OA
ATOM     16  H   UNL A   1      32.853  23.663  21.964  1.00  0.00     0.163 HD
BRANCH  14  17
ATOM     17  C   UNL A   1      31.327  26.613  21.678  1.00  0.00     0.072 C 
ATOM     18  C   UNL A   1      31.240  27.751  22.384  1.00  0.00     0.024 C 
BRANCH  18  19
ATOM     19  C   UNL A   1      29.949  28.360  22.500  1.00  0.00     0.027 A 
ATOM     20  C   UNL A   1      28.002  31.548  23.538  1.00  0.00     0.056 C 
ATOM     21  C   UNL A   1      28.394  30.196  23.041  1.00  0.00     0.002 A 
ATOM     22  C   UNL A   1      27.849  28.964  23.333  1.00  0.00     0.016 A 
ATOM     23  S   UNL A   1      29.711  29.994  21.975  1.00  0.00    -0.141 S 
ATOM     24  C   UNL A   1      28.752  27.894  23.014  1.00  0.00     0.020 A 
ENDBRANCH  18  19
ENDBRANCH  14  17
ENDBRANCH  12  13
ENDBRANCH   7  12
ENDBRANCH   3   6
ENDBRANCH   1   2
BRANCH   1  25
ATOM     25  C   UNL A   1      31.794  31.214  27.017  1.00  0.00     0.042 C 
BRANCH  25  26
ATOM     26  C   UNL A   1      32.942  32.221  27.097  1.00  0.00     0.118 C 
BRANCH  26  27
ATOM     27  N   UNL A   1      32.592  33.561  27.567  1.00  0.00    -0.352 N 
ATOM     28  C   UNL A   1      33.166  34.380  28.508  1.00  0.00     0.251 C 
ATOM     29  H   UNL A   1      31.799  33.947  27.129  1.00  0.00     0.163 HD
ATOM     30  O   UNL A   1      32.710  35.491  28.760  1.00  0.00    -0.269 OA
BRANCH  28  31
ATOM     31  C   UNL A   1      34.345  33.942  29.244  1.00  0.00     0.039 A 
ATOM     32  C   UNL A   1      34.194  33.020  30.287  1.00  0.00     0.014 A 
ATOM     33  C   UNL A   1      35.587  34.466  28.906  1.00  0.00     0.014 A 
ATOM     34  C   UNL A   1      35.321  32.556  30.949  1.00  0.00     0.010 A 
ATOM     35  C   UNL A   1      36.712  33.923  29.482  1.00  0.00     0.010 A 
ATOM     36  C   UNL A   1      36.582  32.981  30.514  1.00  0.00    -0.014 A 
BRANCH  36  37
ATOM     37  C   UNL A   1      37.830  32.527  31.140  1.00  0.00     0.031 A 
ATOM     38  C   UNL A   1      38.593  31.447  30.440  1.00  0.00     0.074 A 
ATOM     39  C   UNL A   1      38.117  32.943  32.383  1.00  0.00     0.049 A 
ATOM     40  N   UNL A   1      39.501  30.636  30.907  1.00  0.00    -0.248 NA
ATOM     41  C   UNL A   1      38.206  31.181  29.041  1.00  0.00     0.031 C 
ATOM     42  C   UNL A   1      37.362  33.948  33.137  1.00  0.00     0.029 A 
ATOM     43  N   UNL A   1      39.092  32.538  33.249  1.00  0.00    -0.354 N 
ATOM     44  C   UNL A   1      39.742  29.729  29.885  1.00  0.00     0.074 A 
ATOM     45  C   UNL A   1      38.848  30.051  28.797  1.00  0.00     0.031 C 
ATOM     46  C   UNL A   1      37.908  34.085  34.356  1.00  0.00     0.029 A 
ATOM     47  C   UNL A   1      39.019  33.149  34.476  1.00  0.00     0.049 A 
ATOM     48  H   UNL A   1      39.780  31.874  33.016  1.00  0.00     0.167 HD
ATOM     49  C   UNL A   1      40.651  28.726  29.868  1.00  0.00     0.037 A 
ATOM     50  C   UNL A   1      39.772  32.947  35.571  1.00  0.00     0.037 A 
ATOM     51  C   UNL A   1      41.559  28.495  30.958  1.00  0.00     0.049 A 
ATOM     52  C   UNL A   1      40.855  31.907  35.484  1.00  0.00     0.074 A 
ATOM     53  C   UNL A   1      42.589  27.581  31.055  1.00  0.00     0.029 A 
ATOM     54  N   UNL A   1      41.549  29.223  32.144  1.00  0.00    -0.354 N 
ATOM     55  N   UNL A   1      41.119  31.073  34.505  1.00  0.00    -0.248 NA
ATOM     56  C   UNL A   1      41.750  31.785  36.638  1.00  0.00     0.031 C 
ATOM     57  C   UNL A   1      43.193  27.747  32.307  1.00  0.00     0.029 A 
ATOM     58  C   UNL A   1      42.562  28.787  32.977  1.00  0.00     0.049 A 
ATOM     59  H   UNL A   1      40.913  29.943  32.359  1.00  0.00     0.167 HD
ATOM     60  C   UNL A   1      42.223  30.340  34.911  1.00  0.00     0.074 A 
ATOM     61  C   UNL A   1      42.588  30.845  36.223  1.00  0.00     0.031 C 
ATOM     62  C   UNL A   1      42.877  29.338  34.272  1.00  0.00     0.037 A 
BRANCH  49  63
ATOM     63  C   UNL A   1      40.697  27.849  28.649  1.00  0.00     0.064 A 
ATOM     64  C   UNL A   1      41.457  28.193  27.519  1.00  0.00     0.173 A 
ATOM     65  C   UNL A   1      39.950  26.662  28.593  1.00  0.00     0.173 A 
ATOM     66  F   UNL A   1      42.177  29.325  27.508  1.00  0.00    -0.203 F 
ATOM     67  C   UNL A   1      41.431  27.411  26.366  1.00  0.00     0.198 A 
ATOM     68  C   UNL A   1      39.955  25.863  27.451  1.00  0.00     0.198 A 
ATOM     69  F   UNL A   1      39.203  26.281  29.640  1.00  0.00    -0.203 F 
ATOM     70  F   UNL A   1      42.105  27.804  25.277  1.00  0.00    -0.200 F 
ATOM     71  C   UNL A   1      40.683  26.244  26.335  1.00  0.00     0.200 A 
ATOM     72  F   UNL A   1      39.239  24.729  27.425  1.00  0.00    -0.200 F 
ATOM     73  F   UNL A   1      40.655  25.494  25.224  1.00  0.00    -0.200 F 
ENDBRANCH  49  63
BRANCH  50  74
ATOM     74  C   UNL A   1      39.566  33.787  36.777  1.00  0.00     0.064 A 
ATOM     75  C   UNL A   1      40.118  35.074  36.847  1.00  0.00     0.173 A 
ATOM     76  C   UNL A   1      38.772  33.362  37.853  1.00  0.00     0.173 A 
ATOM     77  F   UNL A   1      40.889  35.525  35.847  1.00  0.00    -0.203 F 
ATOM     78  C   UNL A   1      39.897  35.897  37.950  1.00  0.00     0.198 A 
ATOM     79  C   UNL A   1      38.532  34.195  38.945  1.00  0.00     0.198 A 
ATOM     80  F   UNL A   1      38.205  32.147  37.830  1.00  0.00    -0.203 F 
ATOM     81  F   UNL A   1      40.460  37.112  37.999  1.00  0.00    -0.200 F 
ATOM     82  C   UNL A   1      39.098  35.460  38.995  1.00  0.00     0.200 A 
ATOM     83  F   UNL A   1      37.744  33.777  39.946  1.00  0.00    -0.200 F 
ATOM     84  F   UNL A   1      38.875  36.257  40.049  1.00  0.00    -0.200 F 
ENDBRANCH  50  74
BRANCH  62  85
ATOM     85  C   UNL A   1      44.057  28.755  34.982  1.00  0.00     0.064 A 
ATOM     86  C   UNL A   1      45.341  29.290  34.816  1.00  0.00     0.173 A 
ATOM     87  C   UNL A   1      43.889  27.688  35.875  1.00  0.00     0.173 A 
ATOM     88  F   UNL A   1      45.547  30.302  33.960  1.00  0.00    -0.203 F 
ATOM     89  C   UNL A   1      46.425  28.760  35.506  1.00  0.00     0.198 A 
ATOM     90  C   UNL A   1      44.970  27.178  36.584  1.00  0.00     0.198 A 
ATOM     91  F   UNL A   1      42.675  27.152  36.067  1.00  0.00    -0.203 F 
ATOM     92  F   UNL A   1      47.653  29.257  35.305  1.00  0.00    -0.200 F 
ATOM     93  C   UNL A   1      46.238  27.710  36.395  1.00  0.00     0.200 A 
ATOM     94  F   UNL A   1      44.786  26.173  37.451  1.00  0.00    -0.200 F 
ATOM     95  F   UNL A   1      47.281  27.207  37.067  1.00  0.00    -0.200 F 
ENDBRANCH  62  85
ENDBRANCH  36  37
ENDBRANCH  28  31
ENDBRANCH  26  27
ENDBRANCH  25  26
ENDBRANCH   1  25
TORSDOF 14
ENDMDL
MODEL 2
REMARK VINA RESULT:     -12.6      2.449      4.272
REMARK SMILES Cc1ccc(/C=C/C(=O)NC[C@H]2CC[C@@H](C(=O)NCCCNC(=O)c3ccc(-c4c5nc(c(-c6c(F)c(F)c(F)c(F)c6F)c6ccc([nH]6)c(-c6c(F)c(F)c(F)c(F)c6F)c6nc(c(-c7c(F)c(F)c(F)c(F)c7F)c7ccc4[nH]7)C=C6)C=C5)cc3)CC2)s1
REMARK SMILES IDX 19 1 18 2 16 3 17 4 15 6 12 7 13 8 89 9 14 10 88 11 11 12
REMARK SMILES IDX 10 13 8 14 9 15 7 17 6 18 5 19 1 20 2 21 3 22 90 23 4 24
REMARK SMILES IDX 20 25 21 26 22 27 23 28 24 30 25 31 26 32 87 33 27 34 86 35
REMARK SMILES IDX 28 36 29 37 30 38 80 39 31 40 85 41 79 42 81 43 32 44 84 45
REMARK SMILES IDX 78 46 77 47 33 49 65 50 45 51 64 52 46 53 49 54 63 55 82 56
REMARK SMILES IDX 47 57 48 58 62 60 83 61 50 62 34 63 35 64 43 65 36 66 37 67
REMARK SMILES IDX 41 68 44 69 38 70 39 71 42 72 40 73 66 74 67 75 75 76 68 77
REMARK SMILES IDX 69 78 73 79 76 80 70 81 71 82 74 83 72 84 51 85 52 86 60 87
REMARK SMILES IDX 53 88 54 89 58 90 61 91 55 92 56 93 59 94 57 95
REMARK H PARENT 18 5 10 16 22 29 81 48 49 59
REMARK Flexibility Score: inf
ROOT
ATOM      1  C   UNL A   1      33.833  26.299  24.677  1.00  0.00     0.117 C 
ENDROOT
BRANCH   1   2
ATOM      2  N   UNL A   1      34.113  26.732  23.334  1.00  0.00    -0.356 N 
ATOM      3  C   UNL A   1      33.255  27.118  22.354  1.00  0.00     0.223 C 
ATOM      4  O   UNL A   1      33.705  27.919  21.525  1.00  0.00    -0.275 OA
ATOM      5  H   UNL A   1      35.066  26.750  23.088  1.00  0.00     0.163 HD
BRANCH   3   6
ATOM      6  C   UNL A   1      31.799  26.639  22.221  1.00  0.00     0.078 C 
ATOM      7  C   UNL A   1      30.071  25.917  24.587  1.00  0.00     0.008 C 
ATOM      8  C   UNL A   1      30.506  27.350  24.271  1.00  0.00     0.006 C 
ATOM      9  C   UNL A   1      30.903  24.818  23.887  1.00  0.00     0.006 C 
ATOM     10  C   UNL A   1      30.767  27.598  22.802  1.00  0.00     0.014 C 
ATOM     11  C   UNL A   1      31.482  25.170  22.508  1.00  0.00     0.014 C 
BRANCH   7  12
ATOM     12  C   UNL A   1      29.914  25.745  26.124  1.00  0.00     0.119 C 
BRANCH  12  13
ATOM     13  N   UNL A   1      29.400  24.467  26.574  1.00  0.00    -0.352 N 
ATOM     14  C   UNL A   1      29.943  23.286  26.933  1.00  0.00     0.244 C 
ATOM     15  O   UNL A   1      29.196  22.498  27.524  1.00  0.00    -0.270 OA
ATOM     16  H   UNL A   1      28.417  24.460  26.632  1.00  0.00     0.163 HD
BRANCH  14  17
ATOM     17  C   UNL A   1      31.310  22.803  26.607  1.00  0.00     0.072 C 
ATOM     18  C   UNL A   1      32.545  23.316  26.723  1.00  0.00     0.024 C 
BRANCH  18  19
ATOM     19  C   UNL A   1      33.578  22.741  25.914  1.00  0.00     0.027 A 
ATOM     20  C   UNL A   1      37.401  22.476  25.328  1.00  0.00     0.056 C 
ATOM     21  C   UNL A   1      35.918  22.326  25.255  1.00  0.00     0.002 A 
ATOM     22  C   UNL A   1      35.084  22.392  24.159  1.00  0.00     0.016 A 
ATOM     23  S   UNL A   1      34.987  22.062  26.660  1.00  0.00    -0.141 S 
ATOM     24  C   UNL A   1      33.720  22.629  24.543  1.00  0.00     0.020 A 
ENDBRANCH  18  19
ENDBRANCH  14  17
ENDBRANCH  12  13
ENDBRANCH   7  12
ENDBRANCH   3   6
ENDBRANCH   1   2
BRANCH   1  25
ATOM     25  C   UNL A   1      33.504  27.397  25.671  1.00  0.00     0.042 C 
BRANCH  25  26
ATOM     26  C   UNL A   1      33.891  28.816  25.248  1.00  0.00     0.118 C 
BRANCH  26  27
ATOM     27  N   UNL A   1      33.142  29.903  25.879  1.00  0.00    -0.352 N 
ATOM     28  C   UNL A   1      33.464  30.761  26.902  1.00  0.00     0.251 C 
ATOM     29  H   UNL A   1      32.244  30.044  25.503  1.00  0.00     0.163 HD
ATOM     30  O   UNL A   1      32.679  31.622  27.291  1.00  0.00    -0.269 OA
BRANCH  28  31
ATOM     31  C   UNL A   1      34.759  30.669  27.562  1.00  0.00     0.039 A 
ATOM     32  C   UNL A   1      35.559  31.814  27.659  1.00  0.00     0.014 A 
ATOM     33  C   UNL A   1      35.178  29.441  28.062  1.00  0.00     0.014 A 
ATOM     34  C   UNL A   1      36.765  31.742  28.340  1.00  0.00     0.010 A 
ATOM     35  C   UNL A   1      36.315  29.395  28.834  1.00  0.00     0.010 A 
ATOM     36  C   UNL A   1      37.119  30.538  28.961  1.00  0.00    -0.014 A 
BRANCH  36  37
ATOM     37  C   UNL A   1      38.364  30.375  29.720  1.00  0.00     0.031 A 
ATOM     38  C   UNL A   1      39.402  29.462  29.146  1.00  0.00     0.074 A 
ATOM     39  C   UNL A   1      38.431  30.875  30.964  1.00  0.00     0.049 A 
ATOM     40  N   UNL A   1      40.407  28.875  29.733  1.00  0.00    -0.248 NA
ATOM     41  C   UNL A   1      39.222  29.084  27.731  1.00  0.00     0.031 C 
ATOM     42  C   UNL A   1      37.413  31.717  31.597  1.00  0.00     0.029 A 
ATOM     43  N   UNL A   1      39.378  30.708  31.935  1.00  0.00    -0.354 N 
ATOM     44  C   UNL A   1      40.933  28.012  28.781  1.00  0.00     0.074 A 
ATOM     45  C   UNL A   1      40.106  28.110  27.601  1.00  0.00     0.031 C 
ATOM     46  C   UNL A   1      37.793  31.998  32.853  1.00  0.00     0.029 A 
ATOM     47  C   UNL A   1      39.056  31.321  33.120  1.00  0.00     0.049 A 
ATOM     48  H   UNL A   1      40.208  30.199  31.798  1.00  0.00     0.167 HD
ATOM     49  C   UNL A   1      42.027  27.225  28.896  1.00  0.00     0.037 A 
ATOM     50  C   UNL A   1      39.719  31.312  34.288  1.00  0.00     0.037 A 
ATOM     51  C   UNL A   1      42.849  27.220  30.076  1.00  0.00     0.049 A 
ATOM     52  C   UNL A   1      40.998  30.523  34.351  1.00  0.00     0.074 A 
ATOM     53  C   UNL A   1      44.032  26.547  30.310  1.00  0.00     0.029 A 
ATOM     54  N   UNL A   1      42.568  27.960  31.220  1.00  0.00    -0.354 N 
ATOM     55  N   UNL A   1      41.528  29.739  33.441  1.00  0.00    -0.248 NA
ATOM     56  C   UNL A   1      41.778  30.623  35.589  1.00  0.00     0.031 C 
ATOM     57  C   UNL A   1      44.459  26.869  31.604  1.00  0.00     0.029 A 
ATOM     58  C   UNL A   1      43.561  27.770  32.163  1.00  0.00     0.049 A 
ATOM     59  H   UNL A   1      41.778  28.534  31.341  1.00  0.00     0.167 HD
ATOM     60  C   UNL A   1      42.713  29.267  33.982  1.00  0.00     0.074 A 
ATOM     61  C   UNL A   1      42.830  29.871  35.297  1.00  0.00     0.031 C 
ATOM     62  C   UNL A   1      43.622  28.409  33.455  1.00  0.00     0.037 A 
BRANCH  49  63
ATOM     63  C   UNL A   1      42.377  26.346  27.729  1.00  0.00     0.064 A 
ATOM     64  C   UNL A   1      41.766  25.095  27.535  1.00  0.00     0.173 A 
ATOM     65  C   UNL A   1      43.355  26.741  26.804  1.00  0.00     0.173 A 
ATOM     66  F   UNL A   1      40.837  24.657  28.398  1.00  0.00    -0.203 F 
ATOM     67  C   UNL A   1      42.155  24.256  26.493  1.00  0.00     0.198 A 
ATOM     68  C   UNL A   1      43.716  25.914  25.741  1.00  0.00     0.198 A 
ATOM     69  F   UNL A   1      43.975  27.923  26.936  1.00  0.00    -0.203 F 
ATOM     70  F   UNL A   1      41.610  23.038  26.378  1.00  0.00    -0.200 F 
ATOM     71  C   UNL A   1      43.126  24.669  25.594  1.00  0.00     0.200 A 
ATOM     72  F   UNL A   1      44.648  26.318  24.866  1.00  0.00    -0.200 F 
ATOM     73  F   UNL A   1      43.502  23.859  24.594  1.00  0.00    -0.200 F 
ENDBRANCH  49  63
BRANCH  50  74
ATOM     74  C   UNL A   1      39.223  32.121  35.430  1.00  0.00     0.064 A 
ATOM     75  C   UNL A   1      38.455  31.525  36.440  1.00  0.00     0.173 A 
ATOM     76  C   UNL A   1      39.548  33.478  35.576  1.00  0.00     0.173 A 
ATOM     77  F   UNL A   1      38.113  30.232  36.343  1.00  0.00    -0.203 F 
ATOM     78  C   UNL A   1      38.020  32.255  37.544  1.00  0.00     0.198 A 
ATOM     79  C   UNL A   1      39.132  34.202  36.693  1.00  0.00     0.198 A 
ATOM     80  F   UNL A   1      40.295  34.094  34.649  1.00  0.00    -0.203 F 
ATOM     81  F   UNL A   1      37.264  31.664  38.480  1.00  0.00    -0.200 F 
ATOM     82  C   UNL A   1      38.364  33.592  37.674  1.00  0.00     0.200 A 
ATOM     83  F   UNL A   1      39.482  35.489  36.825  1.00  0.00    -0.200 F 
ATOM     84  F   UNL A   1      37.957  34.290  38.742  1.00  0.00    -0.200 F 
ENDBRANCH  50  74
BRANCH  62  85
ATOM     85  C   UNL A   1      44.820  28.108  34.298  1.00  0.00     0.064 A 
ATOM     86  C   UNL A   1      45.964  28.915  34.248  1.00  0.00     0.173 A 
ATOM     87  C   UNL A   1      44.799  27.034  35.199  1.00  0.00     0.173 A 
ATOM     88  F   UNL A   1      46.030  29.943  33.389  1.00  0.00    -0.203 F 
ATOM     89  C   UNL A   1      47.059  28.643  35.061  1.00  0.00     0.198 A 
ATOM     90  C   UNL A   1      45.884  26.782  36.029  1.00  0.00     0.198 A 
ATOM     91  F   UNL A   1      43.720  26.242  35.281  1.00  0.00    -0.203 F 
ATOM     92  F   UNL A   1      48.160  29.401  34.972  1.00  0.00    -0.200 F 
ATOM     93  C   UNL A   1      47.015  27.583  35.956  1.00  0.00     0.200 A 
ATOM     94  F   UNL A   1      45.836  25.766  36.901  1.00  0.00    -0.200 F 
ATOM     95  F   UNL A   1      48.067  27.329  36.745  1.00  0.00    -0.200 F 
ENDBRANCH  62  85
ENDBRANCH  36  37
ENDBRANCH  28  31
ENDBRANCH  26  27
ENDBRANCH  25  26
ENDBRANCH   1  25
TORSDOF 14
ENDMDL
MODEL 3
REMARK VINA RESULT:     -12.5      1.826      7.856
REMARK SMILES Cc1ccc(/C=C/C(=O)NC[C@H]2CC[C@@H](C(=O)NCCCNC(=O)c3ccc(-c4c5nc(c(-c6c(F)c(F)c(F)c(F)c6F)c6ccc([nH]6)c(-c6c(F)c(F)c(F)c(F)c6F)c6nc(c(-c7c(F)c(F)c(F)c(F)c7F)c7ccc4[nH]7)C=C6)C=C5)cc3)CC2)s1
REMARK SMILES IDX 19 1 18 2 16 3 17 4 15 6 12 7 13 8 89 9 14 10 88 11 11 12
REMARK SMILES IDX 10 13 8 14 9 15 7 17 6 18 5 19 1 20 2 21 3 22 90 23 4 24
REMARK SMILES IDX 20 25 21 26 22 27 23 28 24 30 25 31 26 32 87 33 27 34 86 35
REMARK SMILES IDX 28 36 29 37 30 38 80 39 31 40 85 41 79 42 81 43 32 44 84 45
REMARK SMILES IDX 78 46 77 47 33 49 65 50 45 51 64 52 46 53 49 54 63 55 82 56
REMARK SMILES IDX 47 57 48 58 62 60 83 61 50 62 34 63 35 64 43 65 36 66 37 67
REMARK SMILES IDX 41 68 44 69 38 70 39 71 42 72 40 73 66 74 67 75 75 76 68 77
REMARK SMILES IDX 69 78 73 79 76 80 70 81 71 82 74 83 72 84 51 85 52 86 60 87
REMARK SMILES IDX 53 88 54 89 58 90 61 91 55 92 56 93 59 94 57 95
REMARK H PARENT 18 5 10 16 22 29 81 48 49 59
REMARK Flexibility Score: inf
ROOT
ATOM      1  C   UNL A   1      34.124  33.992  27.938  1.00  0.00     0.117 C 
ENDROOT
BRANCH   1   2
ATOM      2  N   UNL A   1      35.205  33.055  28.100  1.00  0.00    -0.356 N 
ATOM      3  C   UNL A   1      35.234  31.720  27.853  1.00  0.00     0.223 C 
ATOM      4  O   UNL A   1      36.338  31.249  27.554  1.00  0.00    -0.275 OA
ATOM      5  H   UNL A   1      36.046  33.438  28.439  1.00  0.00     0.163 HD
BRANCH   3   6
ATOM      6  C   UNL A   1      34.012  30.787  27.913  1.00  0.00     0.078 C 
ATOM      7  C   UNL A   1      33.408  28.713  25.806  1.00  0.00     0.008 C 
ATOM      8  C   UNL A   1      34.584  28.604  26.780  1.00  0.00     0.006 C 
ATOM      9  C   UNL A   1      32.804  30.130  25.675  1.00  0.00     0.006 C 
ATOM     10  C   UNL A   1      34.354  29.314  28.095  1.00  0.00     0.014 C 
ATOM     11  C   UNL A   1      32.864  31.019  26.927  1.00  0.00     0.014 C 
BRANCH   7  12
ATOM     12  C   UNL A   1      33.778  28.028  24.461  1.00  0.00     0.119 C 
BRANCH  12  13
ATOM     13  N   UNL A   1      32.890  26.971  24.017  1.00  0.00    -0.352 N 
ATOM     14  C   UNL A   1      31.649  26.917  23.493  1.00  0.00     0.244 C 
ATOM     15  O   UNL A   1      31.318  25.840  22.983  1.00  0.00    -0.270 OA
ATOM     16  H   UNL A   1      33.291  26.078  24.124  1.00  0.00     0.163 HD
BRANCH  14  17
ATOM     17  C   UNL A   1      30.614  27.981  23.552  1.00  0.00     0.072 C 
ATOM     18  C   UNL A   1      29.485  28.240  22.873  1.00  0.00     0.024 C 
BRANCH  18  19
ATOM     19  C   UNL A   1      28.977  29.578  22.919  1.00  0.00     0.027 A 
ATOM     20  C   UNL A   1      27.935  32.672  20.830  1.00  0.00     0.056 C 
ATOM     21  C   UNL A   1      28.216  31.705  21.931  1.00  0.00     0.002 A 
ATOM     22  C   UNL A   1      28.875  31.905  23.125  1.00  0.00     0.016 A 
ATOM     23  S   UNL A   1      27.735  30.072  21.816  1.00  0.00    -0.141 S 
ATOM     24  C   UNL A   1      29.315  30.666  23.703  1.00  0.00     0.020 A 
ENDBRANCH  18  19
ENDBRANCH  14  17
ENDBRANCH  12  13
ENDBRANCH   7  12
ENDBRANCH   3   6
ENDBRANCH   1   2
BRANCH   1  25
ATOM     25  C   UNL A   1      33.442  34.443  29.216  1.00  0.00     0.042 C 
BRANCH  25  26
ATOM     26  C   UNL A   1      33.435  35.951  29.470  1.00  0.00     0.118 C 
BRANCH  26  27
ATOM     27  N   UNL A   1      32.636  36.409  30.607  1.00  0.00    -0.352 N 
ATOM     28  C   UNL A   1      32.725  36.146  31.952  1.00  0.00     0.251 C 
ATOM     29  H   UNL A   1      31.900  37.016  30.364  1.00  0.00     0.163 HD
ATOM     30  O   UNL A   1      31.941  36.640  32.758  1.00  0.00    -0.269 OA
BRANCH  28  31
ATOM     31  C   UNL A   1      33.761  35.259  32.463  1.00  0.00     0.039 A 
ATOM     32  C   UNL A   1      33.411  33.969  32.880  1.00  0.00     0.014 A 
ATOM     33  C   UNL A   1      35.070  35.722  32.542  1.00  0.00     0.014 A 
ATOM     34  C   UNL A   1      34.405  33.103  33.310  1.00  0.00     0.010 A 
ATOM     35  C   UNL A   1      36.068  34.830  32.857  1.00  0.00     0.010 A 
ATOM     36  C   UNL A   1      35.738  33.526  33.257  1.00  0.00    -0.014 A 
BRANCH  36  37
ATOM     37  C   UNL A   1      36.857  32.671  33.670  1.00  0.00     0.031 A 
ATOM     38  C   UNL A   1      37.511  32.984  34.980  1.00  0.00     0.074 A 
ATOM     39  C   UNL A   1      37.365  31.800  32.785  1.00  0.00     0.049 A 
ATOM     40  N   UNL A   1      38.689  32.643  35.422  1.00  0.00    -0.248 NA
ATOM     41  C   UNL A   1      36.768  33.892  35.875  1.00  0.00     0.031 C 
ATOM     42  C   UNL A   1      36.802  31.507  31.464  1.00  0.00     0.029 A 
ATOM     43  N   UNL A   1      38.495  31.035  32.843  1.00  0.00    -0.354 N 
ATOM     44  C   UNL A   1      38.852  33.344  36.609  1.00  0.00     0.074 A 
ATOM     45  C   UNL A   1      37.682  34.171  36.789  1.00  0.00     0.031 C 
ATOM     46  C   UNL A   1      37.589  30.619  30.838  1.00  0.00     0.029 A 
ATOM     47  C   UNL A   1      38.728  30.318  31.697  1.00  0.00     0.049 A 
ATOM     48  H   UNL A   1      39.085  31.002  33.631  1.00  0.00     0.167 HD
ATOM     49  C   UNL A   1      39.892  33.276  37.471  1.00  0.00     0.037 A 
ATOM     50  C   UNL A   1      39.765  29.521  31.390  1.00  0.00     0.037 A 
ATOM     51  C   UNL A   1      41.000  32.384  37.269  1.00  0.00     0.049 A 
ATOM     52  C   UNL A   1      40.851  29.371  32.419  1.00  0.00     0.074 A 
ATOM     53  C   UNL A   1      42.082  32.137  38.092  1.00  0.00     0.029 A 
ATOM     54  N   UNL A   1      41.143  31.565  36.153  1.00  0.00    -0.354 N 
ATOM     55  N   UNL A   1      40.992  29.997  33.565  1.00  0.00    -0.248 NA
ATOM     56  C   UNL A   1      41.912  28.402  32.127  1.00  0.00     0.031 C 
ATOM     57  C   UNL A   1      42.887  31.178  37.465  1.00  0.00     0.029 A 
ATOM     58  C   UNL A   1      42.290  30.802  36.268  1.00  0.00     0.049 A 
ATOM     59  H   UNL A   1      40.519  31.534  35.393  1.00  0.00     0.167 HD
ATOM     60  C   UNL A   1      42.143  29.487  34.143  1.00  0.00     0.074 A 
ATOM     61  C   UNL A   1      42.650  28.483  33.225  1.00  0.00     0.031 C 
ATOM     62  C   UNL A   1      42.737  29.813  35.318  1.00  0.00     0.037 A 
BRANCH  49  63
ATOM     63  C   UNL A   1      39.853  34.169  38.680  1.00  0.00     0.064 A 
ATOM     64  C   UNL A   1      39.243  33.763  39.879  1.00  0.00     0.173 A 
ATOM     65  C   UNL A   1      40.405  35.458  38.636  1.00  0.00     0.173 A 
ATOM     66  F   UNL A   1      38.683  32.548  39.974  1.00  0.00    -0.203 F 
ATOM     67  C   UNL A   1      39.145  34.628  40.967  1.00  0.00     0.198 A 
ATOM     68  C   UNL A   1      40.338  36.308  39.739  1.00  0.00     0.198 A 
ATOM     69  F   UNL A   1      40.999  35.903  37.518  1.00  0.00    -0.203 F 
ATOM     70  F   UNL A   1      38.491  34.241  42.070  1.00  0.00    -0.200 F 
ATOM     71  C   UNL A   1      39.697  35.897  40.897  1.00  0.00     0.200 A 
ATOM     72  F   UNL A   1      40.880  37.532  39.674  1.00  0.00    -0.200 F 
ATOM     73  F   UNL A   1      39.599  36.730  41.943  1.00  0.00    -0.200 F 
ENDBRANCH  49  63
BRANCH  50  74
ATOM     74  C   UNL A   1      39.771  28.772  30.108  1.00  0.00     0.064 A 
ATOM     75  C   UNL A   1      40.343  29.337  28.960  1.00  0.00     0.173 A 
ATOM     76  C   UNL A   1      39.269  27.466  30.008  1.00  0.00     0.173 A 
ATOM     77  F   UNL A   1      40.832  30.585  29.002  1.00  0.00    -0.203 F 
ATOM     78  C   UNL A   1      40.402  28.633  27.759  1.00  0.00     0.198 A 
ATOM     79  C   UNL A   1      39.349  26.753  28.812  1.00  0.00     0.198 A 
ATOM     80  F   UNL A   1      38.726  26.870  31.080  1.00  0.00    -0.203 F 
ATOM     81  F   UNL A   1      40.932  29.210  26.672  1.00  0.00    -0.200 F 
ATOM     82  C   UNL A   1      39.912  27.338  27.687  1.00  0.00     0.200 A 
ATOM     83  F   UNL A   1      38.891  25.495  28.751  1.00  0.00    -0.200 F 
ATOM     84  F   UNL A   1      39.980  26.656  26.536  1.00  0.00    -0.200 F 
ENDBRANCH  50  74
BRANCH  62  85
ATOM     85  C   UNL A   1      43.978  29.056  35.670  1.00  0.00     0.064 A 
ATOM     86  C   UNL A   1      43.916  27.850  36.381  1.00  0.00     0.173 A 
ATOM     87  C   UNL A   1      45.231  29.516  35.243  1.00  0.00     0.173 A 
ATOM     88  F   UNL A   1      42.737  27.384  36.819  1.00  0.00    -0.203 F 
ATOM     89  C   UNL A   1      45.074  27.139  36.673  1.00  0.00     0.198 A 
ATOM     90  C   UNL A   1      46.384  28.789  35.513  1.00  0.00     0.198 A 
ATOM     91  F   UNL A   1      45.333  30.662  34.554  1.00  0.00    -0.203 F 
ATOM     92  F   UNL A   1      45.001  26.009  37.389  1.00  0.00    -0.200 F 
ATOM     93  C   UNL A   1      46.306  27.604  36.233  1.00  0.00     0.200 A 
ATOM     94  F   UNL A   1      47.571  29.232  35.077  1.00  0.00    -0.200 F 
ATOM     95  F   UNL A   1      47.419  26.913  36.506  1.00  0.00    -0.200 F 
ENDBRANCH  62  85
ENDBRANCH  36  37
ENDBRANCH  28  31
ENDBRANCH  26  27
ENDBRANCH  25  26
ENDBRANCH   1  25
TORSDOF 14
ENDMDL
