MODEL 1
REMARK VINA RESULT:     -11.3      0.000      0.000
REMARK SMILES Cc1noc(C)c1CNc1cnc(C(=O)NCCCNC(=O)c2ccc(-c3c4nc(c(-c5c(F)c(F)c(F)c(F)c5F)c5ccc([nH]5)c(-c5c(F)c(F)c(F)c(F)c5F)c5nc(c(-c6c(F)c(F)c(F)c(F)c6F)c6ccc3[nH]6)C=C5)C=C4)cc2)cn1
REMARK SMILES IDX 17 1 16 2 14 3 15 4 13 6 10 7 11 8 87 9 12 10 86 11 9 12
REMARK SMILES IDX 8 14 7 15 1 16 2 17 3 18 4 19 5 20 6 21 18 22 19 23 20 24
REMARK SMILES IDX 21 25 22 27 23 28 24 29 85 30 25 31 84 32 26 33 27 34 28 35
REMARK SMILES IDX 78 36 29 37 83 38 77 39 79 40 30 41 82 42 76 43 75 44 31 46
REMARK SMILES IDX 63 47 43 48 62 49 44 50 47 51 61 52 80 53 45 54 46 55 60 57
REMARK SMILES IDX 81 58 48 59 32 60 33 61 41 62 34 63 35 64 39 65 42 66 36 67
REMARK SMILES IDX 37 68 40 69 38 70 64 71 65 72 73 73 66 74 67 75 71 76 74 77
REMARK SMILES IDX 68 78 69 79 72 80 70 81 49 82 50 83 58 84 51 85 52 86 56 87
REMARK SMILES IDX 59 88 53 89 54 90 57 91 55 92
REMARK H PARENT 16 5 9 13 20 26 79 45 47 56
REMARK Flexibility Score: inf
ROOT
ATOM      1  C   UNL A   1      34.438  35.005  28.986  1.00  0.00     0.118 C 
ENDROOT
BRANCH   1   2
ATOM      2  N   UNL A   1      33.428  35.855  29.595  1.00  0.00    -0.351 N 
ATOM      3  C   UNL A   1      33.082  36.037  30.914  1.00  0.00     0.271 C 
ATOM      4  O   UNL A   1      32.175  36.832  31.165  1.00  0.00    -0.267 OA
ATOM      5  H   UNL A   1      32.903  36.389  28.956  1.00  0.00     0.163 HD
BRANCH   3   6
ATOM      6  C   UNL A   1      33.779  35.347  32.037  1.00  0.00     0.146 A 
ATOM      7  C   UNL A   1      35.286  34.140  33.946  1.00  0.00     0.144 A 
ATOM      8  C   UNL A   1      34.243  33.488  33.290  1.00  0.00     0.158 A 
ATOM      9  N   UNL A   1      35.537  35.438  33.688  1.00  0.00    -0.235 NA
ATOM     10  N   UNL A   1      33.470  34.063  32.337  1.00  0.00    -0.246 NA
ATOM     11  C   UNL A   1      34.778  36.023  32.722  1.00  0.00     0.147 A 
BRANCH   7  12
ATOM     12  N   UNL A   1      36.136  33.533  34.838  1.00  0.00    -0.365 N 
ATOM     13  H   UNL A   1      35.784  33.190  35.690  1.00  0.00     0.162 HD
BRANCH  12  14
ATOM     14  C   UNL A   1      37.549  33.392  34.535  1.00  0.00     0.156 C 
BRANCH  14  15
ATOM     15  C   UNL A   1      38.088  32.016  34.704  1.00  0.00     0.037 A 
ATOM     16  C   UNL A   1      39.694  32.326  36.748  1.00  0.00     0.071 C 
ATOM     17  C   UNL A   1      39.029  31.556  35.669  1.00  0.00     0.086 A 
ATOM     18  N   UNL A   1      39.291  30.254  35.511  1.00  0.00    -0.085 NA
ATOM     19  O   UNL A   1      38.526  29.842  34.438  1.00  0.00    -0.361 OA
ATOM     20  C   UNL A   1      37.814  30.893  33.956  1.00  0.00     0.138 A 
ATOM     21  C   UNL A   1      36.950  30.622  32.792  1.00  0.00     0.091 C 
ENDBRANCH  14  15
ENDBRANCH  12  14
ENDBRANCH   7  12
ENDBRANCH   3   6
ENDBRANCH   1   2
BRANCH   1  22
ATOM     22  C   UNL A   1      33.814  33.781  28.327  1.00  0.00     0.042 C 
BRANCH  22  23
ATOM     23  C   UNL A   1      34.438  32.474  28.809  1.00  0.00     0.118 C 
BRANCH  23  24
ATOM     24  N   UNL A   1      33.913  31.315  28.091  1.00  0.00    -0.352 N 
ATOM     25  C   UNL A   1      34.549  30.177  27.670  1.00  0.00     0.251 C 
ATOM     26  H   UNL A   1      32.953  31.358  27.878  1.00  0.00     0.163 HD
ATOM     27  O   UNL A   1      33.989  29.411  26.886  1.00  0.00    -0.269 OA
BRANCH  25  28
ATOM     28  C   UNL A   1      35.908  29.870  28.152  1.00  0.00     0.039 A 
ATOM     29  C   UNL A   1      36.078  29.338  29.434  1.00  0.00     0.014 A 
ATOM     30  C   UNL A   1      37.017  30.127  27.343  1.00  0.00     0.014 A 
ATOM     31  C   UNL A   1      37.357  29.001  29.878  1.00  0.00     0.010 A 
ATOM     32  C   UNL A   1      38.277  29.714  27.753  1.00  0.00     0.010 A 
ATOM     33  C   UNL A   1      38.462  29.155  29.028  1.00  0.00    -0.014 A 
BRANCH  33  34
ATOM     34  C   UNL A   1      39.836  28.779  29.439  1.00  0.00     0.031 A 
ATOM     35  C   UNL A   1      40.645  29.740  30.265  1.00  0.00     0.074 A 
ATOM     36  C   UNL A   1      40.389  27.638  28.984  1.00  0.00     0.049 A 
ATOM     37  N   UNL A   1      41.917  29.707  30.571  1.00  0.00    -0.248 NA
ATOM     38  C   UNL A   1      39.933  30.919  30.784  1.00  0.00     0.031 C 
ATOM     39  C   UNL A   1      39.711  26.639  28.160  1.00  0.00     0.029 A 
ATOM     40  N   UNL A   1      41.660  27.143  29.132  1.00  0.00    -0.354 N 
ATOM     41  C   UNL A   1      42.159  30.870  31.290  1.00  0.00     0.074 A 
ATOM     42  C   UNL A   1      40.918  31.613  31.331  1.00  0.00     0.031 C 
ATOM     43  C   UNL A   1      40.571  25.647  27.877  1.00  0.00     0.029 A 
ATOM     44  C   UNL A   1      41.873  25.966  28.455  1.00  0.00     0.049 A 
ATOM     45  H   UNL A   1      42.354  27.588  29.670  1.00  0.00     0.167 HD
ATOM     46  C   UNL A   1      43.311  31.272  31.877  1.00  0.00     0.037 A 
ATOM     47  C   UNL A   1      42.998  25.243  28.298  1.00  0.00     0.037 A 
ATOM     48  C   UNL A   1      44.532  30.512  31.853  1.00  0.00     0.049 A 
ATOM     49  C   UNL A   1      44.274  25.723  28.941  1.00  0.00     0.074 A 
ATOM     50  C   UNL A   1      45.741  30.804  32.459  1.00  0.00     0.029 A 
ATOM     51  N   UNL A   1      44.697  29.307  31.185  1.00  0.00    -0.354 N 
ATOM     52  N   UNL A   1      44.484  26.800  29.658  1.00  0.00    -0.248 NA
ATOM     53  C   UNL A   1      45.468  24.886  28.757  1.00  0.00     0.031 C 
ATOM     54  C   UNL A   1      46.653  29.804  32.113  1.00  0.00     0.029 A 
ATOM     55  C   UNL A   1      45.995  28.852  31.349  1.00  0.00     0.049 A 
ATOM     56  H   UNL A   1      43.996  28.844  30.672  1.00  0.00     0.167 HD
ATOM     57  C   UNL A   1      45.816  26.747  30.048  1.00  0.00     0.074 A 
ATOM     58  C   UNL A   1      46.367  25.533  29.484  1.00  0.00     0.031 C 
ATOM     59  C   UNL A   1      46.516  27.622  30.810  1.00  0.00     0.037 A 
BRANCH  46  60
ATOM     60  C   UNL A   1      43.306  32.594  32.590  1.00  0.00     0.064 A 
ATOM     61  C   UNL A   1      43.668  33.785  31.942  1.00  0.00     0.173 A 
ATOM     62  C   UNL A   1      42.901  32.676  33.931  1.00  0.00     0.173 A 
ATOM     63  F   UNL A   1      44.074  33.762  30.664  1.00  0.00    -0.203 F 
ATOM     64  C   UNL A   1      43.658  35.002  32.620  1.00  0.00     0.198 A 
ATOM     65  C   UNL A   1      42.857  33.899  34.595  1.00  0.00     0.198 A 
ATOM     66  F   UNL A   1      42.538  31.570  34.598  1.00  0.00    -0.203 F 
ATOM     67  F   UNL A   1      44.063  36.116  31.996  1.00  0.00    -0.200 F 
ATOM     68  C   UNL A   1      43.245  35.059  33.942  1.00  0.00     0.200 A 
ATOM     69  F   UNL A   1      42.441  33.955  35.868  1.00  0.00    -0.200 F 
ATOM     70  F   UNL A   1      43.227  36.233  34.589  1.00  0.00    -0.200 F 
ENDBRANCH  46  60
BRANCH  47  71
ATOM     71  C   UNL A   1      42.970  23.982  27.511  1.00  0.00     0.064 A 
ATOM     72  C   UNL A   1      43.328  23.974  26.155  1.00  0.00     0.173 A 
ATOM     73  C   UNL A   1      42.581  22.764  28.088  1.00  0.00     0.173 A 
ATOM     74  F   UNL A   1      43.691  25.115  25.552  1.00  0.00    -0.203 F 
ATOM     75  C   UNL A   1      43.274  22.803  25.402  1.00  0.00     0.198 A 
ATOM     76  C   UNL A   1      42.557  21.587  27.342  1.00  0.00     0.198 A 
ATOM     77  F   UNL A   1      42.235  22.714  29.383  1.00  0.00    -0.203 F 
ATOM     78  F   UNL A   1      43.573  22.835  24.096  1.00  0.00    -0.200 F 
ATOM     79  C   UNL A   1      42.894  21.609  25.997  1.00  0.00     0.200 A 
ATOM     80  F   UNL A   1      42.206  20.434  27.926  1.00  0.00    -0.200 F 
ATOM     81  F   UNL A   1      42.844  20.482  25.274  1.00  0.00    -0.200 F 
ENDBRANCH  47  71
BRANCH  59  82
ATOM     82  C   UNL A   1      47.935  27.273  31.153  1.00  0.00     0.064 A 
ATOM     83  C   UNL A   1      49.020  27.756  30.409  1.00  0.00     0.173 A 
ATOM     84  C   UNL A   1      48.209  26.517  32.304  1.00  0.00     0.173 A 
ATOM     85  F   UNL A   1      48.810  28.472  29.294  1.00  0.00    -0.203 F 
ATOM     86  C   UNL A   1      50.329  27.484  30.799  1.00  0.00     0.198 A 
ATOM     87  C   UNL A   1      49.518  26.275  32.707  1.00  0.00     0.198 A 
ATOM     88  F   UNL A   1      47.205  26.038  33.053  1.00  0.00    -0.203 F 
ATOM     89  F   UNL A   1      51.353  27.928  30.057  1.00  0.00    -0.200 F 
ATOM     90  C   UNL A   1      50.577  26.756  31.954  1.00  0.00     0.200 A 
ATOM     91  F   UNL A   1      49.754  25.586  33.833  1.00  0.00    -0.200 F 
ATOM     92  F   UNL A   1      51.838  26.517  32.340  1.00  0.00    -0.200 F 
ENDBRANCH  59  82
ENDBRANCH  33  34
ENDBRANCH  25  28
ENDBRANCH  23  24
ENDBRANCH  22  23
ENDBRANCH   1  22
TORSDOF 13
ENDMDL
MODEL 2
REMARK VINA RESULT:     -11.2      1.049      2.039
REMARK SMILES Cc1noc(C)c1CNc1cnc(C(=O)NCCCNC(=O)c2ccc(-c3c4nc(c(-c5c(F)c(F)c(F)c(F)c5F)c5ccc([nH]5)c(-c5c(F)c(F)c(F)c(F)c5F)c5nc(c(-c6c(F)c(F)c(F)c(F)c6F)c6ccc3[nH]6)C=C5)C=C4)cc2)cn1
REMARK SMILES IDX 17 1 16 2 14 3 15 4 13 6 10 7 11 8 87 9 12 10 86 11 9 12
REMARK SMILES IDX 8 14 7 15 1 16 2 17 3 18 4 19 5 20 6 21 18 22 19 23 20 24
REMARK SMILES IDX 21 25 22 27 23 28 24 29 85 30 25 31 84 32 26 33 27 34 28 35
REMARK SMILES IDX 78 36 29 37 83 38 77 39 79 40 30 41 82 42 76 43 75 44 31 46
REMARK SMILES IDX 63 47 43 48 62 49 44 50 47 51 61 52 80 53 45 54 46 55 60 57
REMARK SMILES IDX 81 58 48 59 32 60 33 61 41 62 34 63 35 64 39 65 42 66 36 67
REMARK SMILES IDX 37 68 40 69 38 70 64 71 65 72 73 73 66 74 67 75 71 76 74 77
REMARK SMILES IDX 68 78 69 79 72 80 70 81 49 82 50 83 58 84 51 85 52 86 56 87
REMARK SMILES IDX 59 88 53 89 54 90 57 91 55 92
REMARK H PARENT 16 5 9 13 20 26 79 45 47 56
REMARK Flexibility Score: inf
ROOT
ATOM      1  C   UNL A   1      33.403  34.356  29.063  1.00  0.00     0.118 C 
ENDROOT
BRANCH   1   2
ATOM      2  N   UNL A   1      32.930  35.611  29.623  1.00  0.00    -0.351 N 
ATOM      3  C   UNL A   1      33.018  36.116  30.901  1.00  0.00     0.271 C 
ATOM      4  O   UNL A   1      32.528  37.226  31.114  1.00  0.00    -0.267 OA
ATOM      5  H   UNL A   1      32.469  36.198  28.982  1.00  0.00     0.163 HD
BRANCH   3   6
ATOM      6  C   UNL A   1      33.707  35.397  32.010  1.00  0.00     0.146 A 
ATOM      7  C   UNL A   1      35.197  34.128  33.892  1.00  0.00     0.144 A 
ATOM      8  C   UNL A   1      34.118  33.518  33.253  1.00  0.00     0.158 A 
ATOM      9  N   UNL A   1      35.495  35.416  33.631  1.00  0.00    -0.235 NA
ATOM     10  N   UNL A   1      33.352  34.126  32.315  1.00  0.00    -0.246 NA
ATOM     11  C   UNL A   1      34.743  36.032  32.679  1.00  0.00     0.147 A 
BRANCH   7  12
ATOM     12  N   UNL A   1      36.038  33.486  34.768  1.00  0.00    -0.365 N 
ATOM     13  H   UNL A   1      35.899  33.584  35.737  1.00  0.00     0.162 HD
BRANCH  12  14
ATOM     14  C   UNL A   1      37.130  32.664  34.279  1.00  0.00     0.156 C 
BRANCH  14  15
ATOM     15  C   UNL A   1      38.226  33.416  33.610  1.00  0.00     0.037 A 
ATOM     16  C   UNL A   1      39.841  33.887  35.615  1.00  0.00     0.071 C 
ATOM     17  C   UNL A   1      39.406  33.953  34.199  1.00  0.00     0.086 A 
ATOM     18  N   UNL A   1      40.162  34.579  33.291  1.00  0.00    -0.085 NA
ATOM     19  O   UNL A   1      39.485  34.464  32.092  1.00  0.00    -0.361 OA
ATOM     20  C   UNL A   1      38.332  33.774  32.285  1.00  0.00     0.138 A 
ATOM     21  C   UNL A   1      37.481  33.574  31.097  1.00  0.00     0.091 C 
ENDBRANCH  14  15
ENDBRANCH  12  14
ENDBRANCH   7  12
ENDBRANCH   3   6
ENDBRANCH   1   2
BRANCH   1  22
ATOM     22  C   UNL A   1      34.743  34.530  28.359  1.00  0.00     0.042 C 
BRANCH  22  23
ATOM     23  C   UNL A   1      35.446  33.200  28.100  1.00  0.00     0.118 C 
BRANCH  23  24
ATOM     24  N   UNL A   1      34.500  32.095  27.958  1.00  0.00    -0.352 N 
ATOM     25  C   UNL A   1      34.722  30.745  27.912  1.00  0.00     0.251 C 
ATOM     26  H   UNL A   1      33.555  32.364  27.887  1.00  0.00     0.163 HD
ATOM     27  O   UNL A   1      33.821  29.982  27.566  1.00  0.00    -0.269 OA
BRANCH  25  28
ATOM     28  C   UNL A   1      36.045  30.202  28.272  1.00  0.00     0.039 A 
ATOM     29  C   UNL A   1      37.059  30.171  27.309  1.00  0.00     0.014 A 
ATOM     30  C   UNL A   1      36.278  29.707  29.556  1.00  0.00     0.014 A 
ATOM     31  C   UNL A   1      38.327  29.703  27.656  1.00  0.00     0.010 A 
ATOM     32  C   UNL A   1      37.560  29.321  29.923  1.00  0.00     0.010 A 
ATOM     33  C   UNL A   1      38.596  29.306  28.975  1.00  0.00    -0.014 A 
BRANCH  33  34
ATOM     34  C   UNL A   1      39.935  28.835  29.402  1.00  0.00     0.031 A 
ATOM     35  C   UNL A   1      40.799  29.739  30.236  1.00  0.00     0.074 A 
ATOM     36  C   UNL A   1      40.411  27.657  28.956  1.00  0.00     0.049 A 
ATOM     37  N   UNL A   1      42.062  29.617  30.557  1.00  0.00    -0.248 NA
ATOM     38  C   UNL A   1      40.166  30.967  30.744  1.00  0.00     0.031 C 
ATOM     39  C   UNL A   1      39.675  26.706  28.126  1.00  0.00     0.029 A 
ATOM     40  N   UNL A   1      41.643  27.074  29.119  1.00  0.00    -0.354 N 
ATOM     41  C   UNL A   1      42.378  30.762  31.276  1.00  0.00     0.074 A 
ATOM     42  C   UNL A   1      41.192  31.591  31.302  1.00  0.00     0.031 C 
ATOM     43  C   UNL A   1      40.466  25.655  27.855  1.00  0.00     0.029 A 
ATOM     44  C   UNL A   1      41.780  25.883  28.447  1.00  0.00     0.049 A 
ATOM     45  H   UNL A   1      42.360  27.470  29.665  1.00  0.00     0.167 HD
ATOM     46  C   UNL A   1      43.548  31.084  31.876  1.00  0.00     0.037 A 
ATOM     47  C   UNL A   1      42.853  25.083  28.305  1.00  0.00     0.037 A 
ATOM     48  C   UNL A   1      44.712  30.240  31.868  1.00  0.00     0.049 A 
ATOM     49  C   UNL A   1      44.152  25.473  28.962  1.00  0.00     0.074 A 
ATOM     50  C   UNL A   1      45.932  30.447  32.488  1.00  0.00     0.029 A 
ATOM     51  N   UNL A   1      44.800  29.024  31.204  1.00  0.00    -0.354 N 
ATOM     52  N   UNL A   1      44.429  26.535  29.679  1.00  0.00    -0.248 NA
ATOM     53  C   UNL A   1      45.286  24.554  28.792  1.00  0.00     0.031 C 
ATOM     54  C   UNL A   1      46.776  29.385  32.154  1.00  0.00     0.029 A 
ATOM     55  C   UNL A   1      46.061  28.480  31.384  1.00  0.00     0.049 A 
ATOM     56  H   UNL A   1      44.074  28.611  30.684  1.00  0.00     0.167 HD
ATOM     57  C   UNL A   1      45.750  26.390  30.085  1.00  0.00     0.074 A 
ATOM     58  C   UNL A   1      46.221  25.138  29.529  1.00  0.00     0.031 C 
ATOM     59  C   UNL A   1      46.501  27.215  30.853  1.00  0.00     0.037 A 
BRANCH  46  60
ATOM     60  C   UNL A   1      43.628  32.405  32.587  1.00  0.00     0.064 A 
ATOM     61  C   UNL A   1      43.914  33.596  31.904  1.00  0.00     0.173 A 
ATOM     62  C   UNL A   1      43.382  32.485  33.966  1.00  0.00     0.173 A 
ATOM     63  F   UNL A   1      44.168  33.575  30.587  1.00  0.00    -0.203 F 
ATOM     64  C   UNL A   1      43.984  34.812  32.580  1.00  0.00     0.198 A 
ATOM     65  C   UNL A   1      43.417  33.707  34.633  1.00  0.00     0.198 A 
ATOM     66  F   UNL A   1      43.097  31.378  34.669  1.00  0.00    -0.203 F 
ATOM     67  F   UNL A   1      44.315  35.927  31.914  1.00  0.00    -0.200 F 
ATOM     68  C   UNL A   1      43.728  34.868  33.940  1.00  0.00     0.200 A 
ATOM     69  F   UNL A   1      43.152  33.761  35.945  1.00  0.00    -0.200 F 
ATOM     70  F   UNL A   1      43.787  36.040  34.588  1.00  0.00    -0.200 F 
ENDBRANCH  46  60
BRANCH  47  71
ATOM     71  C   UNL A   1      42.746  23.825  27.519  1.00  0.00     0.064 A 
ATOM     72  C   UNL A   1      42.277  22.645  28.113  1.00  0.00     0.173 A 
ATOM     73  C   UNL A   1      43.114  23.771  26.167  1.00  0.00     0.173 A 
ATOM     74  F   UNL A   1      41.929  22.640  29.408  1.00  0.00    -0.203 F 
ATOM     75  C   UNL A   1      42.203  21.454  27.392  1.00  0.00     0.198 A 
ATOM     76  C   UNL A   1      43.011  22.587  25.438  1.00  0.00     0.198 A 
ATOM     77  F   UNL A   1      43.563  24.872  25.547  1.00  0.00    -0.203 F 
ATOM     78  F   UNL A   1      41.800  20.330  27.999  1.00  0.00    -0.200 F 
ATOM     79  C   UNL A   1      42.565  21.428  26.054  1.00  0.00     0.200 A 
ATOM     80  F   UNL A   1      43.344  22.571  24.140  1.00  0.00    -0.200 F 
ATOM     81  F   UNL A   1      42.492  20.284  25.359  1.00  0.00    -0.200 F 
ENDBRANCH  47  71
BRANCH  59  82
ATOM     82  C   UNL A   1      47.887  26.768  31.214  1.00  0.00     0.064 A 
ATOM     83  C   UNL A   1      48.145  25.981  32.344  1.00  0.00     0.173 A 
ATOM     84  C   UNL A   1      48.960  27.061  30.357  1.00  0.00     0.173 A 
ATOM     85  F   UNL A   1      47.156  25.686  33.201  1.00  0.00    -0.203 F 
ATOM     86  C   UNL A   1      49.429  25.512  32.610  1.00  0.00     0.198 A 
ATOM     87  C   UNL A   1      50.235  26.564  30.608  1.00  0.00     0.198 A 
ATOM     88  F   UNL A   1      48.764  27.805  29.258  1.00  0.00    -0.203 F 
ATOM     89  F   UNL A   1      49.660  24.787  33.713  1.00  0.00    -0.200 F 
ATOM     90  C   UNL A   1      50.469  25.793  31.736  1.00  0.00     0.200 A 
ATOM     91  F   UNL A   1      51.234  26.822  29.753  1.00  0.00    -0.200 F 
ATOM     92  F   UNL A   1      51.698  25.319  31.981  1.00  0.00    -0.200 F 
ENDBRANCH  59  82
ENDBRANCH  33  34
ENDBRANCH  25  28
ENDBRANCH  23  24
ENDBRANCH  22  23
ENDBRANCH   1  22
TORSDOF 13
ENDMDL
MODEL 3
REMARK VINA RESULT:     -11.2      4.682      9.587
REMARK SMILES Cc1noc(C)c1CNc1cnc(C(=O)NCCCNC(=O)c2ccc(-c3c4nc(c(-c5c(F)c(F)c(F)c(F)c5F)c5ccc([nH]5)c(-c5c(F)c(F)c(F)c(F)c5F)c5nc(c(-c6c(F)c(F)c(F)c(F)c6F)c6ccc3[nH]6)C=C5)C=C4)cc2)cn1
REMARK SMILES IDX 17 1 16 2 14 3 15 4 13 6 10 7 11 8 87 9 12 10 86 11 9 12
REMARK SMILES IDX 8 14 7 15 1 16 2 17 3 18 4 19 5 20 6 21 18 22 19 23 20 24
REMARK SMILES IDX 21 25 22 27 23 28 24 29 85 30 25 31 84 32 26 33 27 34 28 35
REMARK SMILES IDX 78 36 29 37 83 38 77 39 79 40 30 41 82 42 76 43 75 44 31 46
REMARK SMILES IDX 63 47 43 48 62 49 44 50 47 51 61 52 80 53 45 54 46 55 60 57
REMARK SMILES IDX 81 58 48 59 32 60 33 61 41 62 34 63 35 64 39 65 42 66 36 67
REMARK SMILES IDX 37 68 40 69 38 70 64 71 65 72 73 73 66 74 67 75 71 76 74 77
REMARK SMILES IDX 68 78 69 79 72 80 70 81 49 82 50 83 58 84 51 85 52 86 56 87
REMARK SMILES IDX 59 88 53 89 54 90 57 91 55 92
REMARK H PARENT 16 5 9 13 20 26 79 45 47 56
REMARK Flexibility Score: inf
ROOT
ATOM      1  C   UNL A   1      36.864  20.845  24.884  1.00  0.00     0.118 C 
ENDROOT
BRANCH   1   2
ATOM      2  N   UNL A   1      35.546  20.337  25.226  1.00  0.00    -0.351 N 
ATOM      3  C   UNL A   1      34.338  20.984  25.356  1.00  0.00     0.271 C 
ATOM      4  O   UNL A   1      33.354  20.307  25.657  1.00  0.00    -0.267 OA
ATOM      5  H   UNL A   1      35.511  19.367  25.393  1.00  0.00     0.163 HD
BRANCH   3   6
ATOM      6  C   UNL A   1      34.172  22.445  25.112  1.00  0.00     0.146 A 
ATOM      7  C   UNL A   1      34.026  25.072  24.442  1.00  0.00     0.144 A 
ATOM      8  C   UNL A   1      34.502  24.639  25.679  1.00  0.00     0.158 A 
ATOM      9  N   UNL A   1      33.555  24.179  23.551  1.00  0.00    -0.235 NA
ATOM     10  N   UNL A   1      34.582  23.337  26.045  1.00  0.00    -0.246 NA
ATOM     11  C   UNL A   1      33.645  22.867  23.901  1.00  0.00     0.147 A 
BRANCH   7  12
ATOM     12  N   UNL A   1      34.035  26.381  24.027  1.00  0.00    -0.365 N 
ATOM     13  H   UNL A   1      34.867  26.776  23.678  1.00  0.00     0.162 HD
BRANCH  12  14
ATOM     14  C   UNL A   1      32.832  27.190  24.097  1.00  0.00     0.156 C 
BRANCH  14  15
ATOM     15  C   UNL A   1      32.120  27.137  25.402  1.00  0.00     0.037 A 
ATOM     16  C   UNL A   1      33.743  28.495  26.943  1.00  0.00     0.071 C 
ATOM     17  C   UNL A   1      32.524  27.705  26.644  1.00  0.00     0.086 A 
ATOM     18  N   UNL A   1      31.637  27.445  27.610  1.00  0.00    -0.085 NA
ATOM     19  O   UNL A   1      30.638  26.699  27.015  1.00  0.00    -0.361 OA
ATOM     20  C   UNL A   1      30.928  26.514  25.702  1.00  0.00     0.138 A 
ATOM     21  C   UNL A   1      29.961  25.722  24.921  1.00  0.00     0.091 C 
ENDBRANCH  14  15
ENDBRANCH  12  14
ENDBRANCH   7  12
ENDBRANCH   3   6
ENDBRANCH   1   2
BRANCH   1  22
ATOM     22  C   UNL A   1      37.933  19.769  25.033  1.00  0.00     0.042 C 
BRANCH  22  23
ATOM     23  C   UNL A   1      39.139  20.248  25.837  1.00  0.00     0.118 C 
BRANCH  23  24
ATOM     24  N   UNL A   1      40.186  19.232  25.917  1.00  0.00    -0.352 N 
ATOM     25  C   UNL A   1      41.536  19.370  26.105  1.00  0.00     0.251 C 
ATOM     26  H   UNL A   1      39.872  18.303  25.824  1.00  0.00     0.163 HD
ATOM     27  O   UNL A   1      42.286  18.412  25.923  1.00  0.00    -0.269 OA
BRANCH  25  28
ATOM     28  C   UNL A   1      42.093  20.671  26.520  1.00  0.00     0.039 A 
ATOM     29  C   UNL A   1      42.523  21.576  25.545  1.00  0.00     0.014 A 
ATOM     30  C   UNL A   1      42.208  20.987  27.875  1.00  0.00     0.014 A 
ATOM     31  C   UNL A   1      43.008  22.827  25.929  1.00  0.00     0.010 A 
ATOM     32  C   UNL A   1      42.611  22.261  28.252  1.00  0.00     0.010 A 
ATOM     33  C   UNL A   1      43.024  23.191  27.284  1.00  0.00    -0.014 A 
BRANCH  33  34
ATOM     34  C   UNL A   1      43.495  24.520  27.741  1.00  0.00     0.031 A 
ATOM     35  C   UNL A   1      42.485  25.577  28.091  1.00  0.00     0.074 A 
ATOM     36  C   UNL A   1      44.810  24.809  27.736  1.00  0.00     0.049 A 
ATOM     37  N   UNL A   1      42.663  26.853  28.324  1.00  0.00    -0.248 NA
ATOM     38  C   UNL A   1      41.078  25.147  28.148  1.00  0.00     0.031 C 
ATOM     39  C   UNL A   1      45.881  23.874  27.395  1.00  0.00     0.029 A 
ATOM     40  N   UNL A   1      45.466  25.986  28.001  1.00  0.00    -0.354 N 
ATOM     41  C   UNL A   1      41.394  27.377  28.525  1.00  0.00     0.074 A 
ATOM     42  C   UNL A   1      40.450  26.297  28.336  1.00  0.00     0.031 C 
ATOM     43  C   UNL A   1      47.062  24.510  27.476  1.00  0.00     0.029 A 
ATOM     44  C   UNL A   1      46.827  25.908  27.822  1.00  0.00     0.049 A 
ATOM     45  H   UNL A   1      45.007  26.806  28.291  1.00  0.00     0.167 HD
ATOM     46  C   UNL A   1      41.049  28.644  28.854  1.00  0.00     0.037 A 
ATOM     47  C   UNL A   1      47.770  26.865  27.901  1.00  0.00     0.037 A 
ATOM     48  C   UNL A   1      41.997  29.705  29.066  1.00  0.00     0.049 A 
ATOM     49  C   UNL A   1      47.360  28.274  28.246  1.00  0.00     0.074 A 
ATOM     50  C   UNL A   1      41.757  31.011  29.453  1.00  0.00     0.029 A 
ATOM     51  N   UNL A   1      43.370  29.577  28.908  1.00  0.00    -0.354 N 
ATOM     52  N   UNL A   1      46.162  28.752  28.480  1.00  0.00    -0.248 NA
ATOM     53  C   UNL A   1      48.432  29.275  28.341  1.00  0.00     0.031 C 
ATOM     54  C   UNL A   1      42.979  31.690  29.475  1.00  0.00     0.029 A 
ATOM     55  C   UNL A   1      43.988  30.789  29.171  1.00  0.00     0.049 A 
ATOM     56  H   UNL A   1      43.835  28.750  28.648  1.00  0.00     0.167 HD
ATOM     57  C   UNL A   1      46.339  30.093  28.795  1.00  0.00     0.074 A 
ATOM     58  C   UNL A   1      47.761  30.355  28.717  1.00  0.00     0.031 C 
ATOM     59  C   UNL A   1      45.409  31.021  29.124  1.00  0.00     0.037 A 
BRANCH  46  60
ATOM     60  C   UNL A   1      39.586  28.954  29.000  1.00  0.00     0.064 A 
ATOM     61  C   UNL A   1      38.800  29.344  27.906  1.00  0.00     0.173 A 
ATOM     62  C   UNL A   1      38.955  28.826  30.247  1.00  0.00     0.173 A 
ATOM     63  F   UNL A   1      39.355  29.493  26.694  1.00  0.00    -0.203 F 
ATOM     64  C   UNL A   1      37.445  29.628  28.062  1.00  0.00     0.198 A 
ATOM     65  C   UNL A   1      37.593  29.074  30.392  1.00  0.00     0.198 A 
ATOM     66  F   UNL A   1      39.657  28.449  31.327  1.00  0.00    -0.203 F 
ATOM     67  F   UNL A   1      36.728  30.054  27.013  1.00  0.00    -0.200 F 
ATOM     68  C   UNL A   1      36.841  29.485  29.301  1.00  0.00     0.200 A 
ATOM     69  F   UNL A   1      37.007  28.919  31.588  1.00  0.00    -0.200 F 
ATOM     70  F   UNL A   1      35.535  29.749  29.446  1.00  0.00    -0.200 F 
ENDBRANCH  46  60
BRANCH  47  71
ATOM     71  C   UNL A   1      49.198  26.525  27.664  1.00  0.00     0.064 A 
ATOM     72  C   UNL A   1      49.700  26.401  26.361  1.00  0.00     0.173 A 
ATOM     73  C   UNL A   1      50.088  26.310  28.727  1.00  0.00     0.173 A 
ATOM     74  F   UNL A   1      48.886  26.579  25.310  1.00  0.00    -0.203 F 
ATOM     75  C   UNL A   1      51.029  26.051  26.130  1.00  0.00     0.198 A 
ATOM     76  C   UNL A   1      51.425  25.990  28.495  1.00  0.00     0.198 A 
ATOM     77  F   UNL A   1      49.662  26.422  29.994  1.00  0.00    -0.203 F 
ATOM     78  F   UNL A   1      51.468  25.890  24.875  1.00  0.00    -0.200 F 
ATOM     79  C   UNL A   1      51.892  25.852  27.197  1.00  0.00     0.200 A 
ATOM     80  F   UNL A   1      52.259  25.816  29.529  1.00  0.00    -0.200 F 
ATOM     81  F   UNL A   1      53.171  25.518  26.976  1.00  0.00    -0.200 F 
ENDBRANCH  47  71
BRANCH  59  82
ATOM     82  C   UNL A   1      45.890  32.391  29.506  1.00  0.00     0.064 A 
ATOM     83  C   UNL A   1      46.011  33.424  28.568  1.00  0.00     0.173 A 
ATOM     84  C   UNL A   1      46.144  32.691  30.854  1.00  0.00     0.173 A 
ATOM     85  F   UNL A   1      45.792  33.185  27.266  1.00  0.00    -0.203 F 
ATOM     86  C   UNL A   1      46.380  34.708  28.964  1.00  0.00     0.198 A 
ATOM     87  C   UNL A   1      46.481  33.981  31.250  1.00  0.00     0.198 A 
ATOM     88  F   UNL A   1      46.035  31.738  31.791  1.00  0.00    -0.203 F 
ATOM     89  F   UNL A   1      46.520  35.675  28.047  1.00  0.00    -0.200 F 
ATOM     90  C   UNL A   1      46.602  34.988  30.305  1.00  0.00     0.200 A 
ATOM     91  F   UNL A   1      46.677  34.253  32.547  1.00  0.00    -0.200 F 
ATOM     92  F   UNL A   1      46.932  36.229  30.685  1.00  0.00    -0.200 F 
ENDBRANCH  59  82
ENDBRANCH  33  34
ENDBRANCH  25  28
ENDBRANCH  23  24
ENDBRANCH  22  23
ENDBRANCH   1  22
TORSDOF 13
ENDMDL
