MODEL 1
REMARK VINA RESULT:     -13.8      0.000      0.000
REMARK SMILES O=C(NCCCNC(=O)c1ccccc1/N=C/c1coc2ccccc2c1=O)c1ccc(-c2c3nc(c(-c4c(F)c(F)c(F)c(F)c4F)c4ccc([nH]4)c(-c4c(F)c(F)c(F)c(F)c4F)c4nc(c(-c5c(F)c(F)c(F)c(F)c5F)c5ccc2[nH]5)C=C4)C=C3)cc1
REMARK SMILES IDX 5 1 4 2 3 3 1 4 2 5 29 7 30 8 91 9 31 10 90 11 32 12 33 13
REMARK SMILES IDX 34 14 84 15 35 16 89 17 83 18 85 19 36 20 88 21 82 22 81 23
REMARK SMILES IDX 37 25 69 26 49 27 68 28 50 29 53 30 67 31 86 32 51 33 52 34
REMARK SMILES IDX 66 36 87 37 54 38 38 39 39 40 47 41 40 42 41 43 45 44 48 45
REMARK SMILES IDX 42 46 43 47 46 48 44 49 70 50 71 51 79 52 72 53 73 54 77 55
REMARK SMILES IDX 80 56 74 57 75 58 78 59 76 60 55 61 56 62 64 63 57 64 58 65
REMARK SMILES IDX 62 66 65 67 59 68 60 69 63 70 61 71 6 72 7 73 8 74 9 76
REMARK SMILES IDX 10 77 11 78 15 79 12 80 14 81 13 82 16 83 17 84 18 85 19 86
REMARK SMILES IDX 27 87 20 88 26 89 28 90 21 91 25 92 22 93 24 94 23 95
REMARK H PARENT 3 6 85 24 53 35 7 75
REMARK Flexibility Score: inf
ROOT
ATOM      1  C   UNL A   1      31.766  29.838  26.880  1.00  0.00     0.042 C 
ENDROOT
BRANCH   1   2
ATOM      2  C   UNL A   1      32.801  30.891  26.506  1.00  0.00     0.118 C 
BRANCH   2   3
ATOM      3  N   UNL A   1      32.667  32.184  27.158  1.00  0.00    -0.352 N 
ATOM      4  O   UNL A   1      33.331  33.955  28.413  1.00  0.00    -0.269 OA
ATOM      5  C   UNL A   1      33.600  32.862  27.921  1.00  0.00     0.251 C 
ATOM      6  H   UNL A   1      31.800  32.636  27.040  1.00  0.00     0.163 HD
BRANCH   5   7
ATOM      7  C   UNL A   1      34.918  32.245  28.231  1.00  0.00     0.039 A 
ATOM      8  C   UNL A   1      35.060  30.884  28.505  1.00  0.00     0.014 A 
ATOM      9  C   UNL A   1      36.046  33.077  28.285  1.00  0.00     0.014 A 
ATOM     10  C   UNL A   1      36.261  30.400  29.022  1.00  0.00     0.010 A 
ATOM     11  C   UNL A   1      37.273  32.575  28.738  1.00  0.00     0.010 A 
ATOM     12  C   UNL A   1      37.369  31.249  29.181  1.00  0.00    -0.014 A 
BRANCH  12  13
ATOM     13  C   UNL A   1      38.571  30.749  29.900  1.00  0.00     0.031 A 
ATOM     14  C   UNL A   1      38.746  31.018  31.373  1.00  0.00     0.074 A 
ATOM     15  C   UNL A   1      39.455  29.955  29.265  1.00  0.00     0.049 A 
ATOM     16  N   UNL A   1      39.683  30.594  32.186  1.00  0.00    -0.248 NA
ATOM     17  C   UNL A   1      37.744  31.881  32.020  1.00  0.00     0.031 C 
ATOM     18  C   UNL A   1      39.415  29.612  27.845  1.00  0.00     0.029 A 
ATOM     19  N   UNL A   1      40.528  29.248  29.752  1.00  0.00    -0.354 N 
ATOM     20  C   UNL A   1      39.415  31.180  33.416  1.00  0.00     0.074 A 
ATOM     21  C   UNL A   1      38.216  31.975  33.255  1.00  0.00     0.031 C 
ATOM     22  C   UNL A   1      40.359  28.691  27.592  1.00  0.00     0.029 A 
ATOM     23  C   UNL A   1      41.078  28.395  28.829  1.00  0.00     0.049 A 
ATOM     24  H   UNL A   1      40.868  29.344  30.671  1.00  0.00     0.167 HD
ATOM     25  C   UNL A   1      40.108  31.075  34.574  1.00  0.00     0.037 A 
ATOM     26  C   UNL A   1      42.025  27.449  28.972  1.00  0.00     0.037 A 
ATOM     27  C   UNL A   1      41.269  30.248  34.765  1.00  0.00     0.049 A 
ATOM     28  C   UNL A   1      42.670  27.225  30.308  1.00  0.00     0.074 A 
ATOM     29  C   UNL A   1      42.087  30.141  35.876  1.00  0.00     0.029 A 
ATOM     30  N   UNL A   1      41.749  29.353  33.824  1.00  0.00    -0.354 N 
ATOM     31  N   UNL A   1      42.458  27.848  31.438  1.00  0.00    -0.248 NA
ATOM     32  C   UNL A   1      43.688  26.166  30.384  1.00  0.00     0.031 C 
ATOM     33  C   UNL A   1      43.052  29.159  35.615  1.00  0.00     0.029 A 
ATOM     34  C   UNL A   1      42.828  28.659  34.344  1.00  0.00     0.049 A 
ATOM     35  H   UNL A   1      41.379  29.229  32.921  1.00  0.00     0.167 HD
ATOM     36  C   UNL A   1      43.328  27.276  32.355  1.00  0.00     0.074 A 
ATOM     37  C   UNL A   1      44.046  26.229  31.660  1.00  0.00     0.031 C 
ATOM     38  C   UNL A   1      43.526  27.611  33.651  1.00  0.00     0.037 A 
BRANCH  25  39
ATOM     39  C   UNL A   1      39.639  31.901  35.728  1.00  0.00     0.064 A 
ATOM     40  C   UNL A   1      40.181  33.168  35.985  1.00  0.00     0.173 A 
ATOM     41  C   UNL A   1      38.619  31.432  36.567  1.00  0.00     0.173 A 
ATOM     42  F   UNL A   1      41.170  33.647  35.217  1.00  0.00    -0.203 F 
ATOM     43  C   UNL A   1      39.719  33.934  37.051  1.00  0.00     0.198 A 
ATOM     44  C   UNL A   1      38.153  32.206  37.626  1.00  0.00     0.198 A 
ATOM     45  F   UNL A   1      38.076  30.224  36.358  1.00  0.00    -0.203 F 
ATOM     46  F   UNL A   1      40.262  35.136  37.296  1.00  0.00    -0.200 F 
ATOM     47  C   UNL A   1      38.704  33.455  37.867  1.00  0.00     0.200 A 
ATOM     48  F   UNL A   1      37.174  31.741  38.414  1.00  0.00    -0.200 F 
ATOM     49  F   UNL A   1      38.263  34.196  38.894  1.00  0.00    -0.200 F 
ENDBRANCH  25  39
BRANCH  26  50
ATOM     50  C   UNL A   1      42.362  26.584  27.820  1.00  0.00     0.064 A 
ATOM     51  C   UNL A   1      43.403  26.939  26.953  1.00  0.00     0.173 A 
ATOM     52  C   UNL A   1      41.676  25.389  27.580  1.00  0.00     0.173 A 
ATOM     53  F   UNL A   1      44.072  28.085  27.143  1.00  0.00    -0.203 F 
ATOM     54  C   UNL A   1      43.747  26.123  25.879  1.00  0.00     0.198 A 
ATOM     55  C   UNL A   1      42.026  24.571  26.509  1.00  0.00     0.198 A 
ATOM     56  F   UNL A   1      40.671  25.018  28.386  1.00  0.00    -0.203 F 
ATOM     57  F   UNL A   1      44.740  26.487  25.055  1.00  0.00    -0.200 F 
ATOM     58  C   UNL A   1      43.061  24.937  25.660  1.00  0.00     0.200 A 
ATOM     59  F   UNL A   1      41.361  23.426  26.297  1.00  0.00    -0.200 F 
ATOM     60  F   UNL A   1      43.393  24.152  24.627  1.00  0.00    -0.200 F 
ENDBRANCH  26  50
BRANCH  38  61
ATOM     61  C   UNL A   1      44.571  26.852  34.400  1.00  0.00     0.064 A 
ATOM     62  C   UNL A   1      45.891  27.320  34.459  1.00  0.00     0.173 A 
ATOM     63  C   UNL A   1      44.250  25.678  35.094  1.00  0.00     0.173 A 
ATOM     64  F   UNL A   1      46.242  28.435  33.802  1.00  0.00    -0.203 F 
ATOM     65  C   UNL A   1      46.859  26.631  35.184  1.00  0.00     0.198 A 
ATOM     66  C   UNL A   1      45.219  24.994  35.821  1.00  0.00     0.198 A 
ATOM     67  F   UNL A   1      42.999  25.194  35.058  1.00  0.00    -0.203 F 
ATOM     68  F   UNL A   1      48.119  27.086  35.219  1.00  0.00    -0.200 F 
ATOM     69  C   UNL A   1      46.522  25.471  35.867  1.00  0.00     0.200 A 
ATOM     70  F   UNL A   1      44.895  23.870  36.476  1.00  0.00    -0.200 F 
ATOM     71  F   UNL A   1      47.455  24.808  36.563  1.00  0.00    -0.200 F 
ENDBRANCH  38  61
ENDBRANCH  12  13
ENDBRANCH   5   7
ENDBRANCH   2   3
ENDBRANCH   1   2
BRANCH   1  72
ATOM     72  C   UNL A   1      31.762  28.556  26.062  1.00  0.00     0.118 C 
BRANCH  72  73
ATOM     73  N   UNL A   1      32.346  28.681  24.739  1.00  0.00    -0.352 N 
ATOM     74  C   UNL A   1      31.708  28.790  23.530  1.00  0.00     0.253 C 
ATOM     75  H   UNL A   1      33.330  28.690  24.705  1.00  0.00     0.163 HD
ATOM     76  O   UNL A   1      32.363  28.942  22.501  1.00  0.00    -0.269 OA
BRANCH  74  77
ATOM     77  C   UNL A   1      30.239  28.687  23.427  1.00  0.00     0.065 A 
ATOM     78  C   UNL A   1      29.543  29.875  23.150  1.00  0.00     0.016 A 
ATOM     79  C   UNL A   1      29.538  27.491  23.634  1.00  0.00     0.076 A 
ATOM     80  C   UNL A   1      28.152  29.864  23.025  1.00  0.00     0.001 A 
ATOM     81  C   UNL A   1      28.143  27.502  23.498  1.00  0.00     0.029 A 
ATOM     82  C   UNL A   1      27.451  28.676  23.196  1.00  0.00     0.002 A 
BRANCH  79  83
ATOM     83  N   UNL A   1      30.115  26.233  23.821  1.00  0.00    -0.255 NA
ATOM     84  C   UNL A   1      30.115  25.650  24.977  1.00  0.00     0.127 C 
BRANCH  84  85
ATOM     85  C   UNL A   1      30.667  24.283  25.010  1.00  0.00     0.076 A 
ATOM     86  C   UNL A   1      30.845  23.747  23.793  1.00  0.00     0.209 A 
ATOM     87  C   UNL A   1      31.646  23.898  26.052  1.00  0.00     0.201 A 
ATOM     88  O   UNL A   1      31.894  22.907  23.464  1.00  0.00    -0.463 OA
ATOM     89  C   UNL A   1      32.977  23.579  25.515  1.00  0.00     0.065 A 
ATOM     90  O   UNL A   1      31.403  23.947  27.250  1.00  0.00    -0.288 OA
ATOM     91  C   UNL A   1      33.042  23.124  24.197  1.00  0.00     0.137 A 
ATOM     92  C   UNL A   1      34.134  23.868  26.237  1.00  0.00     0.016 A 
ATOM     93  C   UNL A   1      34.277  22.955  23.580  1.00  0.00     0.048 A 
ATOM     94  C   UNL A   1      35.372  23.728  25.609  1.00  0.00     0.001 A 
ATOM     95  C   UNL A   1      35.441  23.276  24.286  1.00  0.00     0.004 A 
ENDBRANCH  84  85
ENDBRANCH  79  83
ENDBRANCH  74  77
ENDBRANCH  72  73
ENDBRANCH   1  72
TORSDOF 12
ENDMDL
MODEL 2
REMARK VINA RESULT:     -13.7      1.180      2.672
REMARK SMILES O=C(NCCCNC(=O)c1ccccc1/N=C/c1coc2ccccc2c1=O)c1ccc(-c2c3nc(c(-c4c(F)c(F)c(F)c(F)c4F)c4ccc([nH]4)c(-c4c(F)c(F)c(F)c(F)c4F)c4nc(c(-c5c(F)c(F)c(F)c(F)c5F)c5ccc2[nH]5)C=C4)C=C3)cc1
REMARK SMILES IDX 5 1 4 2 3 3 1 4 2 5 29 7 30 8 91 9 31 10 90 11 32 12 33 13
REMARK SMILES IDX 34 14 84 15 35 16 89 17 83 18 85 19 36 20 88 21 82 22 81 23
REMARK SMILES IDX 37 25 69 26 49 27 68 28 50 29 53 30 67 31 86 32 51 33 52 34
REMARK SMILES IDX 66 36 87 37 54 38 38 39 39 40 47 41 40 42 41 43 45 44 48 45
REMARK SMILES IDX 42 46 43 47 46 48 44 49 70 50 71 51 79 52 72 53 73 54 77 55
REMARK SMILES IDX 80 56 74 57 75 58 78 59 76 60 55 61 56 62 64 63 57 64 58 65
REMARK SMILES IDX 62 66 65 67 59 68 60 69 63 70 61 71 6 72 7 73 8 74 9 76
REMARK SMILES IDX 10 77 11 78 15 79 12 80 14 81 13 82 16 83 17 84 18 85 19 86
REMARK SMILES IDX 27 87 20 88 26 89 28 90 21 91 25 92 22 93 24 94 23 95
REMARK H PARENT 3 6 85 24 53 35 7 75
REMARK Flexibility Score: inf
ROOT
ATOM      1  C   UNL A   1      31.855  29.194  27.163  1.00  0.00     0.042 C 
ENDROOT
BRANCH   1   2
ATOM      2  C   UNL A   1      32.580  30.298  26.402  1.00  0.00     0.118 C 
BRANCH   2   3
ATOM      3  N   UNL A   1      32.432  31.646  26.929  1.00  0.00    -0.352 N 
ATOM      4  O   UNL A   1      33.086  33.546  27.982  1.00  0.00    -0.269 OA
ATOM      5  C   UNL A   1      33.369  32.417  27.591  1.00  0.00     0.251 C 
ATOM      6  H   UNL A   1      31.550  32.063  26.797  1.00  0.00     0.163 HD
BRANCH   5   7
ATOM      7  C   UNL A   1      34.712  31.865  27.915  1.00  0.00     0.039 A 
ATOM      8  C   UNL A   1      34.908  30.523  28.246  1.00  0.00     0.014 A 
ATOM      9  C   UNL A   1      35.807  32.740  27.925  1.00  0.00     0.014 A 
ATOM     10  C   UNL A   1      36.131  30.108  28.773  1.00  0.00     0.010 A 
ATOM     11  C   UNL A   1      37.055  32.306  28.388  1.00  0.00     0.010 A 
ATOM     12  C   UNL A   1      37.207  31.005  28.886  1.00  0.00    -0.014 A 
BRANCH  12  13
ATOM     13  C   UNL A   1      38.432  30.582  29.615  1.00  0.00     0.031 A 
ATOM     14  C   UNL A   1      38.609  30.926  31.073  1.00  0.00     0.074 A 
ATOM     15  C   UNL A   1      39.339  29.792  29.009  1.00  0.00     0.049 A 
ATOM     16  N   UNL A   1      39.567  30.574  31.895  1.00  0.00    -0.248 NA
ATOM     17  C   UNL A   1      37.581  31.782  31.688  1.00  0.00     0.031 C 
ATOM     18  C   UNL A   1      39.299  29.382  27.606  1.00  0.00     0.029 A 
ATOM     19  N   UNL A   1      40.440  29.148  29.517  1.00  0.00    -0.354 N 
ATOM     20  C   UNL A   1      39.288  31.207  33.098  1.00  0.00     0.074 A 
ATOM     21  C   UNL A   1      38.060  31.949  32.913  1.00  0.00     0.031 C 
ATOM     22  C   UNL A   1      40.274  28.485  27.386  1.00  0.00     0.029 A 
ATOM     23  C   UNL A   1      41.013  28.272  28.629  1.00  0.00     0.049 A 
ATOM     24  H   UNL A   1      40.784  29.298  30.427  1.00  0.00     0.167 HD
ATOM     25  C   UNL A   1      39.995  31.181  34.253  1.00  0.00     0.037 A 
ATOM     26  C   UNL A   1      41.995  27.369  28.806  1.00  0.00     0.037 A 
ATOM     27  C   UNL A   1      41.186  30.406  34.470  1.00  0.00     0.049 A 
ATOM     28  C   UNL A   1      42.660  27.231  30.144  1.00  0.00     0.074 A 
ATOM     29  C   UNL A   1      42.017  30.380  35.577  1.00  0.00     0.029 A 
ATOM     30  N   UNL A   1      41.691  29.486  33.567  1.00  0.00    -0.354 N 
ATOM     31  N   UNL A   1      42.435  27.898  31.247  1.00  0.00    -0.248 NA
ATOM     32  C   UNL A   1      43.716  26.214  30.259  1.00  0.00     0.031 C 
ATOM     33  C   UNL A   1      43.016  29.423  35.352  1.00  0.00     0.029 A 
ATOM     34  C   UNL A   1      42.799  28.856  34.108  1.00  0.00     0.049 A 
ATOM     35  H   UNL A   1      41.318  29.306  32.675  1.00  0.00     0.167 HD
ATOM     36  C   UNL A   1      43.332  27.400  32.180  1.00  0.00     0.074 A 
ATOM     37  C   UNL A   1      44.082  26.349  31.527  1.00  0.00     0.031 C 
ATOM     38  C   UNL A   1      43.529  27.803  33.457  1.00  0.00     0.037 A 
BRANCH  25  39
ATOM     39  C   UNL A   1      39.506  32.043  35.372  1.00  0.00     0.064 A 
ATOM     40  C   UNL A   1      38.635  31.544  36.349  1.00  0.00     0.173 A 
ATOM     41  C   UNL A   1      39.938  33.372  35.482  1.00  0.00     0.173 A 
ATOM     42  F   UNL A   1      38.184  30.284  36.273  1.00  0.00    -0.203 F 
ATOM     43  C   UNL A   1      38.205  32.354  37.397  1.00  0.00     0.198 A 
ATOM     44  C   UNL A   1      39.515  34.175  36.537  1.00  0.00     0.198 A 
ATOM     45  F   UNL A   1      40.770  33.889  34.566  1.00  0.00    -0.203 F 
ATOM     46  F   UNL A   1      37.354  31.868  38.313  1.00  0.00    -0.200 F 
ATOM     47  C   UNL A   1      38.648  33.666  37.493  1.00  0.00     0.200 A 
ATOM     48  F   UNL A   1      39.941  35.442  36.627  1.00  0.00    -0.200 F 
ATOM     49  F   UNL A   1      38.232  34.443  38.503  1.00  0.00    -0.200 F 
ENDBRANCH  25  39
BRANCH  26  50
ATOM     50  C   UNL A   1      42.354  26.464  27.692  1.00  0.00     0.064 A 
ATOM     51  C   UNL A   1      41.646  25.272  27.495  1.00  0.00     0.173 A 
ATOM     52  C   UNL A   1      43.383  26.781  26.799  1.00  0.00     0.173 A 
ATOM     53  F   UNL A   1      40.664  24.929  28.341  1.00  0.00    -0.203 F 
ATOM     54  C   UNL A   1      41.957  24.423  26.436  1.00  0.00     0.198 A 
ATOM     55  C   UNL A   1      43.688  25.934  25.736  1.00  0.00     0.198 A 
ATOM     56  F   UNL A   1      44.086  27.911  26.957  1.00  0.00    -0.203 F 
ATOM     57  F   UNL A   1      41.274  23.282  26.273  1.00  0.00    -0.200 F 
ATOM     58  C   UNL A   1      42.975  24.757  25.555  1.00  0.00     0.200 A 
ATOM     59  F   UNL A   1      44.673  26.256  24.887  1.00  0.00    -0.200 F 
ATOM     60  F   UNL A   1      43.274  23.940  24.536  1.00  0.00    -0.200 F 
ENDBRANCH  26  50
BRANCH  38  61
ATOM     61  C   UNL A   1      44.607  27.117  34.230  1.00  0.00     0.064 A 
ATOM     62  C   UNL A   1      44.333  25.951  34.958  1.00  0.00     0.173 A 
ATOM     63  C   UNL A   1      45.922  27.600  34.216  1.00  0.00     0.173 A 
ATOM     64  F   UNL A   1      43.086  25.462  35.005  1.00  0.00    -0.203 F 
ATOM     65  C   UNL A   1      45.344  25.292  35.652  1.00  0.00     0.198 A 
ATOM     66  C   UNL A   1      46.930  26.936  34.908  1.00  0.00     0.198 A 
ATOM     67  F   UNL A   1      46.224  28.716  33.536  1.00  0.00    -0.203 F 
ATOM     68  F   UNL A   1      45.062  24.185  36.353  1.00  0.00    -0.200 F 
ATOM     69  C   UNL A   1      46.641  25.783  35.625  1.00  0.00     0.200 A 
ATOM     70  F   UNL A   1      48.183  27.413  34.886  1.00  0.00    -0.200 F 
ATOM     71  F   UNL A   1      47.612  25.149  36.296  1.00  0.00    -0.200 F 
ENDBRANCH  38  61
ENDBRANCH  12  13
ENDBRANCH   5   7
ENDBRANCH   2   3
ENDBRANCH   1   2
BRANCH   1  72
ATOM     72  C   UNL A   1      32.362  27.774  26.963  1.00  0.00     0.118 C 
BRANCH  72  73
ATOM     73  N   UNL A   1      31.335  26.751  27.028  1.00  0.00    -0.352 N 
ATOM     74  C   UNL A   1      30.554  26.258  26.013  1.00  0.00     0.253 C 
ATOM     75  H   UNL A   1      31.179  26.358  27.917  1.00  0.00     0.163 HD
ATOM     76  O   UNL A   1      29.762  25.345  26.236  1.00  0.00    -0.269 OA
BRANCH  74  77
ATOM     77  C   UNL A   1      30.613  26.830  24.654  1.00  0.00     0.065 A 
ATOM     78  C   UNL A   1      29.735  27.892  24.379  1.00  0.00     0.016 A 
ATOM     79  C   UNL A   1      31.457  26.334  23.650  1.00  0.00     0.076 A 
ATOM     80  C   UNL A   1      29.734  28.498  23.121  1.00  0.00     0.001 A 
ATOM     81  C   UNL A   1      31.443  26.962  22.396  1.00  0.00     0.029 A 
ATOM     82  C   UNL A   1      30.592  28.035  22.129  1.00  0.00     0.002 A 
BRANCH  79  83
ATOM     83  N   UNL A   1      32.435  25.354  23.822  1.00  0.00    -0.255 NA
ATOM     84  C   UNL A   1      33.660  25.658  24.111  1.00  0.00     0.127 C 
BRANCH  84  85
ATOM     85  C   UNL A   1      34.565  24.522  24.364  1.00  0.00     0.076 A 
ATOM     86  C   UNL A   1      34.842  24.337  25.664  1.00  0.00     0.209 A 
ATOM     87  C   UNL A   1      34.490  23.305  23.523  1.00  0.00     0.201 A 
ATOM     88  O   UNL A   1      35.016  23.095  26.248  1.00  0.00    -0.463 OA
ATOM     89  C   UNL A   1      34.056  22.110  24.262  1.00  0.00     0.065 A 
ATOM     90  O   UNL A   1      34.664  23.316  22.312  1.00  0.00    -0.288 OA
ATOM     91  C   UNL A   1      34.312  22.079  25.635  1.00  0.00     0.137 A 
ATOM     92  C   UNL A   1      33.286  21.123  23.649  1.00  0.00     0.016 A 
ATOM     93  C   UNL A   1      33.791  21.053  26.416  1.00  0.00     0.048 A 
ATOM     94  C   UNL A   1      32.738  20.111  24.437  1.00  0.00     0.001 A 
ATOM     95  C   UNL A   1      32.988  20.079  25.815  1.00  0.00     0.004 A 
ENDBRANCH  84  85
ENDBRANCH  79  83
ENDBRANCH  74  77
ENDBRANCH  72  73
ENDBRANCH   1  72
TORSDOF 12
ENDMDL
MODEL 3
REMARK VINA RESULT:     -13.7      0.698      1.747
REMARK SMILES O=C(NCCCNC(=O)c1ccccc1/N=C/c1coc2ccccc2c1=O)c1ccc(-c2c3nc(c(-c4c(F)c(F)c(F)c(F)c4F)c4ccc([nH]4)c(-c4c(F)c(F)c(F)c(F)c4F)c4nc(c(-c5c(F)c(F)c(F)c(F)c5F)c5ccc2[nH]5)C=C4)C=C3)cc1
REMARK SMILES IDX 5 1 4 2 3 3 1 4 2 5 29 7 30 8 91 9 31 10 90 11 32 12 33 13
REMARK SMILES IDX 34 14 84 15 35 16 89 17 83 18 85 19 36 20 88 21 82 22 81 23
REMARK SMILES IDX 37 25 69 26 49 27 68 28 50 29 53 30 67 31 86 32 51 33 52 34
REMARK SMILES IDX 66 36 87 37 54 38 38 39 39 40 47 41 40 42 41 43 45 44 48 45
REMARK SMILES IDX 42 46 43 47 46 48 44 49 70 50 71 51 79 52 72 53 73 54 77 55
REMARK SMILES IDX 80 56 74 57 75 58 78 59 76 60 55 61 56 62 64 63 57 64 58 65
REMARK SMILES IDX 62 66 65 67 59 68 60 69 63 70 61 71 6 72 7 73 8 74 9 76
REMARK SMILES IDX 10 77 11 78 15 79 12 80 14 81 13 82 16 83 17 84 18 85 19 86
REMARK SMILES IDX 27 87 20 88 26 89 28 90 21 91 25 92 22 93 24 94 23 95
REMARK H PARENT 3 6 85 24 53 35 7 75
REMARK Flexibility Score: inf
ROOT
ATOM      1  C   UNL A   1      32.873  29.685  25.433  1.00  0.00     0.042 C 
ENDROOT
BRANCH   1   2
ATOM      2  C   UNL A   1      32.412  30.055  26.838  1.00  0.00     0.118 C 
BRANCH   2   3
ATOM      3  N   UNL A   1      32.333  31.477  27.135  1.00  0.00    -0.352 N 
ATOM      4  O   UNL A   1      33.106  33.506  27.797  1.00  0.00    -0.269 OA
ATOM      5  C   UNL A   1      33.334  32.317  27.586  1.00  0.00     0.251 C 
ATOM      6  H   UNL A   1      31.453  31.895  26.996  1.00  0.00     0.163 HD
BRANCH   5   7
ATOM      7  C   UNL A   1      34.686  31.783  27.904  1.00  0.00     0.039 A 
ATOM      8  C   UNL A   1      34.905  30.439  28.208  1.00  0.00     0.014 A 
ATOM      9  C   UNL A   1      35.765  32.678  27.936  1.00  0.00     0.014 A 
ATOM     10  C   UNL A   1      36.134  30.035  28.731  1.00  0.00     0.010 A 
ATOM     11  C   UNL A   1      37.019  32.257  28.394  1.00  0.00     0.010 A 
ATOM     12  C   UNL A   1      37.192  30.949  28.867  1.00  0.00    -0.014 A 
BRANCH  12  13
ATOM     13  C   UNL A   1      38.423  30.533  29.591  1.00  0.00     0.031 A 
ATOM     14  C   UNL A   1      38.601  30.874  31.049  1.00  0.00     0.074 A 
ATOM     15  C   UNL A   1      39.334  29.752  28.980  1.00  0.00     0.049 A 
ATOM     16  N   UNL A   1      39.564  30.527  31.868  1.00  0.00    -0.248 NA
ATOM     17  C   UNL A   1      37.568  31.720  31.670  1.00  0.00     0.031 C 
ATOM     18  C   UNL A   1      39.294  29.345  27.577  1.00  0.00     0.029 A 
ATOM     19  N   UNL A   1      40.442  29.115  29.484  1.00  0.00    -0.354 N 
ATOM     20  C   UNL A   1      39.283  31.155  33.074  1.00  0.00     0.074 A 
ATOM     21  C   UNL A   1      38.049  31.888  32.894  1.00  0.00     0.031 C 
ATOM     22  C   UNL A   1      40.275  28.457  27.352  1.00  0.00     0.029 A 
ATOM     23  C   UNL A   1      41.020  28.246  28.592  1.00  0.00     0.049 A 
ATOM     24  H   UNL A   1      40.787  29.266  30.394  1.00  0.00     0.167 HD
ATOM     25  C   UNL A   1      39.992  31.130  34.227  1.00  0.00     0.037 A 
ATOM     26  C   UNL A   1      42.009  27.350  28.764  1.00  0.00     0.037 A 
ATOM     27  C   UNL A   1      41.191  30.365  34.439  1.00  0.00     0.049 A 
ATOM     28  C   UNL A   1      42.678  27.213  30.100  1.00  0.00     0.074 A 
ATOM     29  C   UNL A   1      42.025  30.342  35.544  1.00  0.00     0.029 A 
ATOM     30  N   UNL A   1      41.700  29.451  33.532  1.00  0.00    -0.354 N 
ATOM     31  N   UNL A   1      42.450  27.876  31.205  1.00  0.00    -0.248 NA
ATOM     32  C   UNL A   1      43.742  26.204  30.209  1.00  0.00     0.031 C 
ATOM     33  C   UNL A   1      43.030  29.393  35.313  1.00  0.00     0.029 A 
ATOM     34  C   UNL A   1      42.815  28.828  34.068  1.00  0.00     0.049 A 
ATOM     35  H   UNL A   1      41.326  29.271  32.640  1.00  0.00     0.167 HD
ATOM     36  C   UNL A   1      43.354  27.382  32.135  1.00  0.00     0.074 A 
ATOM     37  C   UNL A   1      44.110  26.339  31.477  1.00  0.00     0.031 C 
ATOM     38  C   UNL A   1      43.551  27.783  33.412  1.00  0.00     0.037 A 
BRANCH  25  39
ATOM     39  C   UNL A   1      39.500  31.985  35.350  1.00  0.00     0.064 A 
ATOM     40  C   UNL A   1      38.607  31.488  36.308  1.00  0.00     0.173 A 
ATOM     41  C   UNL A   1      39.950  33.307  35.483  1.00  0.00     0.173 A 
ATOM     42  F   UNL A   1      38.139  30.236  36.208  1.00  0.00    -0.203 F 
ATOM     43  C   UNL A   1      38.174  32.290  37.359  1.00  0.00     0.198 A 
ATOM     44  C   UNL A   1      39.523  34.102  36.542  1.00  0.00     0.198 A 
ATOM     45  F   UNL A   1      40.803  33.823  34.586  1.00  0.00    -0.203 F 
ATOM     46  F   UNL A   1      37.302  31.806  38.256  1.00  0.00    -0.200 F 
ATOM     47  C   UNL A   1      38.634  33.594  37.478  1.00  0.00     0.200 A 
ATOM     48  F   UNL A   1      39.966  35.362  36.655  1.00  0.00    -0.200 F 
ATOM     49  F   UNL A   1      38.215  34.364  38.492  1.00  0.00    -0.200 F 
ENDBRANCH  25  39
BRANCH  26  50
ATOM     50  C   UNL A   1      42.372  26.451  27.646  1.00  0.00     0.064 A 
ATOM     51  C   UNL A   1      43.399  26.804  26.762  1.00  0.00     0.173 A 
ATOM     52  C   UNL A   1      41.724  25.226  27.456  1.00  0.00     0.173 A 
ATOM     53  F   UNL A   1      44.032  27.978  26.905  1.00  0.00    -0.203 F 
ATOM     54  C   UNL A   1      43.768  25.958  25.721  1.00  0.00     0.198 A 
ATOM     55  C   UNL A   1      42.099  24.377  26.418  1.00  0.00     0.198 A 
ATOM     56  F   UNL A   1      40.733  24.856  28.279  1.00  0.00    -0.203 F 
ATOM     57  F   UNL A   1      44.747  26.320  24.880  1.00  0.00    -0.200 F 
ATOM     58  C   UNL A   1      43.120  24.743  25.552  1.00  0.00     0.200 A 
ATOM     59  F   UNL A   1      41.471  23.205  26.254  1.00  0.00    -0.200 F 
ATOM     60  F   UNL A   1      43.475  23.928  24.550  1.00  0.00    -0.200 F 
ENDBRANCH  26  50
BRANCH  38  61
ATOM     61  C   UNL A   1      44.636  27.103  34.181  1.00  0.00     0.064 A 
ATOM     62  C   UNL A   1      44.373  25.933  34.906  1.00  0.00     0.173 A 
ATOM     63  C   UNL A   1      45.948  27.595  34.164  1.00  0.00     0.173 A 
ATOM     64  F   UNL A   1      43.130  25.434  34.955  1.00  0.00    -0.203 F 
ATOM     65  C   UNL A   1      45.390  25.280  35.596  1.00  0.00     0.198 A 
ATOM     66  C   UNL A   1      46.963  26.937  34.852  1.00  0.00     0.198 A 
ATOM     67  F   UNL A   1      46.239  28.716  33.487  1.00  0.00    -0.203 F 
ATOM     68  F   UNL A   1      45.118  24.169  36.295  1.00  0.00    -0.200 F 
ATOM     69  C   UNL A   1      46.684  25.780  35.567  1.00  0.00     0.200 A 
ATOM     70  F   UNL A   1      48.211  27.424  34.828  1.00  0.00    -0.200 F 
ATOM     71  F   UNL A   1      47.661  25.152  36.233  1.00  0.00    -0.200 F 
ENDBRANCH  38  61
ENDBRANCH  12  13
ENDBRANCH   5   7
ENDBRANCH   2   3
ENDBRANCH   1   2
BRANCH   1  72
ATOM     72  C   UNL A   1      33.492  28.307  25.254  1.00  0.00     0.118 C 
BRANCH  72  73
ATOM     73  N   UNL A   1      33.907  28.003  23.897  1.00  0.00    -0.352 N 
ATOM     74  C   UNL A   1      33.138  27.939  22.762  1.00  0.00     0.253 C 
ATOM     75  H   UNL A   1      34.866  27.818  23.774  1.00  0.00     0.163 HD
ATOM     76  O   UNL A   1      33.666  27.717  21.675  1.00  0.00    -0.269 OA
BRANCH  74  77
ATOM     77  C   UNL A   1      31.672  28.093  22.821  1.00  0.00     0.065 A 
ATOM     78  C   UNL A   1      31.143  29.286  22.301  1.00  0.00     0.016 A 
ATOM     79  C   UNL A   1      30.823  27.138  23.399  1.00  0.00     0.076 A 
ATOM     80  C   UNL A   1      29.764  29.508  22.308  1.00  0.00     0.001 A 
ATOM     81  C   UNL A   1      29.442  27.379  23.389  1.00  0.00     0.029 A 
ATOM     82  C   UNL A   1      28.912  28.551  22.849  1.00  0.00     0.002 A 
BRANCH  79  83
ATOM     83  N   UNL A   1      31.212  25.880  23.861  1.00  0.00    -0.255 NA
ATOM     84  C   UNL A   1      30.482  25.203  24.689  1.00  0.00     0.127 C 
BRANCH  84  85
ATOM     85  C   UNL A   1      30.961  23.848  25.015  1.00  0.00     0.076 A 
ATOM     86  C   UNL A   1      31.218  23.096  23.933  1.00  0.00     0.209 A 
ATOM     87  C   UNL A   1      31.827  23.626  26.196  1.00  0.00     0.201 A 
ATOM     88  O   UNL A   1      32.249  22.176  23.858  1.00  0.00    -0.463 OA
ATOM     89  C   UNL A   1      33.182  23.173  25.851  1.00  0.00     0.065 A 
ATOM     90  O   UNL A   1      31.483  23.898  27.338  1.00  0.00    -0.288 OA
ATOM     91  C   UNL A   1      33.339  22.485  24.645  1.00  0.00     0.137 A 
ATOM     92  C   UNL A   1      34.285  23.549  26.615  1.00  0.00     0.016 A 
ATOM     93  C   UNL A   1      34.613  22.168  24.187  1.00  0.00     0.048 A 
ATOM     94  C   UNL A   1      35.564  23.258  26.141  1.00  0.00     0.001 A 
ATOM     95  C   UNL A   1      35.726  22.573  24.931  1.00  0.00     0.004 A 
ENDBRANCH  84  85
ENDBRANCH  79  83
ENDBRANCH  74  77
ENDBRANCH  72  73
ENDBRANCH   1  72
TORSDOF 12
ENDMDL
