MODEL 1
REMARK VINA RESULT:     -14.4      0.000      0.000
REMARK SMILES Cc1c(C[N@H+]2CC[C@@H](C(=O)NCCCNC(=O)c3ccc(-c4c5nc(c(-c6c(F)c(F)c(F)c(F)c6F)c6ccc([nH]6)c(-c6c(F)c(F)c(F)c(F)c6F)c6nc(c(-c7c(F)c(F)c(F)c(F)c7F)c7ccc4[nH]7)C=C6)C=C5)cc3)[C@@H]2C)cccc1[N+](=O)[O-]
REMARK SMILES IDX 12 1 11 2 9 3 10 4 8 6 5 7 6 8 81 9 7 11 82 12 4 13 3 14
REMARK SMILES IDX 1 15 2 16 86 17 83 18 85 19 84 20 87 21 88 22 89 23 13 24
REMARK SMILES IDX 14 25 15 26 16 27 17 29 18 30 19 31 80 32 20 33 79 34 21 35
REMARK SMILES IDX 22 36 23 37 73 38 24 39 78 40 72 41 74 42 25 43 77 44 71 45
REMARK SMILES IDX 70 46 26 48 58 49 38 50 57 51 39 52 42 53 56 54 75 55 40 56
REMARK SMILES IDX 41 57 55 59 76 60 43 61 27 62 28 63 36 64 29 65 30 66 34 67
REMARK SMILES IDX 37 68 31 69 32 70 35 71 33 72 59 73 60 74 68 75 61 76 62 77
REMARK SMILES IDX 66 78 69 79 63 80 64 81 67 82 65 83 44 84 45 85 53 86 46 87
REMARK SMILES IDX 47 88 51 89 54 90 48 91 49 92 52 93 50 94
REMARK H PARENT 11 5 5 10 15 28 74 47 42 58
REMARK Flexibility Score: inf
ROOT
ATOM      1  C   UNL A   1      30.926  30.469  24.961  1.00  0.00     0.117 C 
ENDROOT
BRANCH   1   2
ATOM      2  N   UNL A   1      31.277  29.494  23.744  1.00  0.00    -0.356 N 
ATOM      3  C   UNL A   1      31.607  28.183  23.619  1.00  0.00     0.229 C 
ATOM      4  O   UNL A   1      31.805  27.784  22.465  1.00  0.00    -0.275 OA
ATOM      5  H   UNL A   1      31.245  29.956  22.876  1.00  0.00     0.163 HD
BRANCH   3   6
ATOM      6  C   UNL A   1      31.772  27.213  24.782  1.00  0.00     0.142 C 
ATOM      7  N   UNL A   1      33.105  25.200  24.731  1.00  0.00    -0.328 N 
ATOM      8  C   UNL A   1      33.773  26.139  25.634  1.00  0.00     0.263 C 
ATOM      9  C   UNL A   1      31.791  25.744  24.368  1.00  0.00     0.193 C 
ATOM     10  H   UNL A   1      32.969  24.327  25.243  1.00  0.00     0.348 HD
ATOM     11  C   UNL A   1      33.004  27.452  25.633  1.00  0.00     0.081 C 
ATOM     12  C   UNL A   1      30.701  24.920  25.052  1.00  0.00     0.076 C 
BRANCH   7  13
ATOM     13  C   UNL A   1      33.908  24.728  23.596  1.00  0.00     0.299 C 
BRANCH  13  14
ATOM     14  C   UNL A   1      34.557  23.384  23.819  1.00  0.00     0.016 A 
ATOM     15  C   UNL A   1      32.155  21.884  23.432  1.00  0.00     0.052 C 
ATOM     16  C   UNL A   1      33.541  21.892  24.002  1.00  0.00     0.036 A 
ATOM     17  C   UNL A   1      34.312  20.371  24.588  1.00  0.00     0.272 A 
ATOM     18  C   UNL A   1      36.340  23.319  24.164  1.00  0.00     0.010 A 
ATOM     19  C   UNL A   1      36.066  20.324  25.001  1.00  0.00     0.086 A 
ATOM     20  C   UNL A   1      37.090  21.794  24.761  1.00  0.00     0.008 A 
BRANCH  17  21
ATOM     21  N   UNL A   1      33.540  19.171  24.757  1.00  0.00     0.062 N 
ATOM     22  O   UNL A   1      32.873  19.090  25.792  1.00  0.00    -0.258 OA
ATOM     23  O   UNL A   1      33.614  18.330  23.856  1.00  0.00    -0.258 OA
ENDBRANCH  17  21
ENDBRANCH  13  14
ENDBRANCH   7  13
ENDBRANCH   3   6
ENDBRANCH   1   2
BRANCH   1  24
ATOM     24  C   UNL A   1      32.081  31.154  26.695  1.00  0.00     0.042 C 
BRANCH  24  25
ATOM     25  C   UNL A   1      33.307  30.505  27.653  1.00  0.00     0.118 C 
BRANCH  25  26
ATOM     26  N   UNL A   1      34.205  31.526  28.233  1.00  0.00    -0.352 N 
ATOM     27  C   UNL A   1      35.481  31.386  28.762  1.00  0.00     0.251 C 
ATOM     28  H   UNL A   1      33.844  32.441  28.247  1.00  0.00     0.163 HD
ATOM     29  O   UNL A   1      36.124  32.362  29.129  1.00  0.00    -0.269 OA
BRANCH  27  30
ATOM     30  C   UNL A   1      36.130  30.057  28.702  1.00  0.00     0.039 A 
ATOM     31  C   UNL A   1      36.562  29.567  29.938  1.00  0.00     0.014 A 
ATOM     32  C   UNL A   1      36.775  29.706  27.525  1.00  0.00     0.014 A 
ATOM     33  C   UNL A   1      37.853  29.090  30.034  1.00  0.00     0.010 A 
ATOM     34  C   UNL A   1      38.107  29.393  27.634  1.00  0.00     0.010 A 
ATOM     35  C   UNL A   1      38.655  29.185  28.904  1.00  0.00    -0.014 A 
BRANCH  35  36
ATOM     36  C   UNL A   1      40.057  28.850  28.913  1.00  0.00     0.031 A 
ATOM     37  C   UNL A   1      40.307  27.432  28.614  1.00  0.00     0.074 A 
ATOM     38  C   UNL A   1      40.986  29.806  29.126  1.00  0.00     0.049 A 
ATOM     39  N   UNL A   1      41.353  26.784  28.963  1.00  0.00    -0.248 NA
ATOM     40  C   UNL A   1      39.283  26.578  28.003  1.00  0.00     0.031 C 
ATOM     41  C   UNL A   1      42.428  29.743  28.899  1.00  0.00     0.029 A 
ATOM     42  N   UNL A   1      40.796  31.047  29.768  1.00  0.00    -0.354 N 
ATOM     43  C   UNL A   1      41.269  25.530  28.390  1.00  0.00     0.074 A 
ATOM     44  C   UNL A   1      39.914  25.408  27.936  1.00  0.00     0.031 C 
ATOM     45  C   UNL A   1      43.025  30.723  29.605  1.00  0.00     0.029 A 
ATOM     46  C   UNL A   1      42.006  31.326  30.450  1.00  0.00     0.049 A 
ATOM     47  H   UNL A   1      39.985  31.607  29.747  1.00  0.00     0.167 HD
ATOM     48  C   UNL A   1      42.424  24.829  28.243  1.00  0.00     0.037 A 
ATOM     49  C   UNL A   1      42.057  31.343  31.818  1.00  0.00     0.037 A 
ATOM     50  C   UNL A   1      43.489  25.534  28.958  1.00  0.00     0.049 A 
ATOM     51  C   UNL A   1      42.915  30.235  32.369  1.00  0.00     0.074 A 
ATOM     52  C   UNL A   1      44.402  26.491  28.545  1.00  0.00     0.029 A 
ATOM     53  N   UNL A   1      43.393  25.654  30.342  1.00  0.00    -0.354 N 
ATOM     54  N   UNL A   1      43.142  29.105  31.756  1.00  0.00    -0.248 NA
ATOM     55  C   UNL A   1      43.552  30.322  33.676  1.00  0.00     0.031 C 
ATOM     56  C   UNL A   1      44.794  27.238  29.690  1.00  0.00     0.029 A 
ATOM     57  C   UNL A   1      44.164  26.706  30.805  1.00  0.00     0.049 A 
ATOM     58  H   UNL A   1      42.849  25.068  30.915  1.00  0.00     0.167 HD
ATOM     59  C   UNL A   1      43.906  28.306  32.565  1.00  0.00     0.074 A 
ATOM     60  C   UNL A   1      44.171  29.134  33.728  1.00  0.00     0.031 C 
ATOM     61  C   UNL A   1      44.225  27.019  32.230  1.00  0.00     0.037 A 
BRANCH  48  62
ATOM     62  C   UNL A   1      42.659  23.716  27.240  1.00  0.00     0.064 A 
ATOM     63  C   UNL A   1      42.334  22.388  27.594  1.00  0.00     0.173 A 
ATOM     64  C   UNL A   1      43.266  23.842  25.973  1.00  0.00     0.173 A 
ATOM     65  F   UNL A   1      41.709  22.107  28.745  1.00  0.00    -0.203 F 
ATOM     66  C   UNL A   1      42.650  21.289  26.786  1.00  0.00     0.198 A 
ATOM     67  C   UNL A   1      43.599  22.743  25.172  1.00  0.00     0.198 A 
ATOM     68  F   UNL A   1      43.544  25.025  25.424  1.00  0.00    -0.203 F 
ATOM     69  F   UNL A   1      42.334  20.052  27.196  1.00  0.00    -0.200 F 
ATOM     70  C   UNL A   1      43.298  21.465  25.582  1.00  0.00     0.200 A 
ATOM     71  F   UNL A   1      44.217  22.941  23.998  1.00  0.00    -0.200 F 
ATOM     72  F   UNL A   1      43.616  20.414  24.815  1.00  0.00    -0.200 F 
ENDBRANCH  48  62
BRANCH  49  73
ATOM     73  C   UNL A   1      40.769  31.756  32.451  1.00  0.00     0.064 A 
ATOM     74  C   UNL A   1      39.977  30.750  33.026  1.00  0.00     0.173 A 
ATOM     75  C   UNL A   1      40.634  33.058  32.946  1.00  0.00     0.173 A 
ATOM     76  F   UNL A   1      40.013  29.499  32.539  1.00  0.00    -0.203 F 
ATOM     77  C   UNL A   1      39.327  30.980  34.232  1.00  0.00     0.198 A 
ATOM     78  C   UNL A   1      39.971  33.280  34.149  1.00  0.00     0.198 A 
ATOM     79  F   UNL A   1      41.266  34.082  32.359  1.00  0.00    -0.203 F 
ATOM     80  F   UNL A   1      38.738  29.967  34.878  1.00  0.00    -0.200 F 
ATOM     81  C   UNL A   1      39.412  32.218  34.839  1.00  0.00     0.200 A 
ATOM     82  F   UNL A   1      39.979  34.502  34.698  1.00  0.00    -0.200 F 
ATOM     83  F   UNL A   1      39.020  32.363  36.111  1.00  0.00    -0.200 F 
ENDBRANCH  49  73
BRANCH  61  84
ATOM     84  C   UNL A   1      44.717  25.966  33.208  1.00  0.00     0.064 A 
ATOM     85  C   UNL A   1      46.030  25.465  33.239  1.00  0.00     0.173 A 
ATOM     86  C   UNL A   1      43.883  25.496  34.253  1.00  0.00     0.173 A 
ATOM     87  F   UNL A   1      46.998  25.965  32.461  1.00  0.00    -0.203 F 
ATOM     88  C   UNL A   1      46.430  24.472  34.135  1.00  0.00     0.198 A 
ATOM     89  C   UNL A   1      44.320  24.587  35.214  1.00  0.00     0.198 A 
ATOM     90  F   UNL A   1      42.623  25.923  34.407  1.00  0.00    -0.203 F 
ATOM     91  F   UNL A   1      47.666  23.960  34.042  1.00  0.00    -0.200 F 
ATOM     92  C   UNL A   1      45.579  24.041  35.129  1.00  0.00     0.200 A 
ATOM     93  F   UNL A   1      43.509  24.259  36.231  1.00  0.00    -0.200 F 
ATOM     94  F   UNL A   1      45.982  23.126  36.019  1.00  0.00    -0.200 F 
ENDBRANCH  61  84
ENDBRANCH  35  36
ENDBRANCH  27  30
ENDBRANCH  25  26
ENDBRANCH  24  25
ENDBRANCH   1  24
TORSDOF 13
ENDMDL
MODEL 2
REMARK VINA RESULT:     -14.3      1.509      2.200
REMARK SMILES Cc1c(C[N@H+]2CC[C@@H](C(=O)NCCCNC(=O)c3ccc(-c4c5nc(c(-c6c(F)c(F)c(F)c(F)c6F)c6ccc([nH]6)c(-c6c(F)c(F)c(F)c(F)c6F)c6nc(c(-c7c(F)c(F)c(F)c(F)c7F)c7ccc4[nH]7)C=C6)C=C5)cc3)[C@@H]2C)cccc1[N+](=O)[O-]
REMARK SMILES IDX 12 1 11 2 9 3 10 4 8 6 5 7 6 8 81 9 7 11 82 12 4 13 3 14
REMARK SMILES IDX 1 15 2 16 86 17 83 18 85 19 84 20 87 21 88 22 89 23 13 24
REMARK SMILES IDX 14 25 15 26 16 27 17 29 18 30 19 31 80 32 20 33 79 34 21 35
REMARK SMILES IDX 22 36 23 37 73 38 24 39 78 40 72 41 74 42 25 43 77 44 71 45
REMARK SMILES IDX 70 46 26 48 58 49 38 50 57 51 39 52 42 53 56 54 75 55 40 56
REMARK SMILES IDX 41 57 55 59 76 60 43 61 27 62 28 63 36 64 29 65 30 66 34 67
REMARK SMILES IDX 37 68 31 69 32 70 35 71 33 72 59 73 60 74 68 75 61 76 62 77
REMARK SMILES IDX 66 78 69 79 63 80 64 81 67 82 65 83 44 84 45 85 53 86 46 87
REMARK SMILES IDX 47 88 51 89 54 90 48 91 49 92 52 93 50 94
REMARK H PARENT 11 5 5 10 15 28 74 47 42 58
REMARK Flexibility Score: inf
ROOT
ATOM      1  C   UNL A   1      33.193  29.277  24.303  1.00  0.00     0.117 C 
ENDROOT
BRANCH   1   2
ATOM      2  N   UNL A   1      32.212  28.825  23.124  1.00  0.00    -0.356 N 
ATOM      3  C   UNL A   1      31.059  28.112  23.044  1.00  0.00     0.229 C 
ATOM      4  O   UNL A   1      30.584  27.981  21.910  1.00  0.00    -0.275 OA
ATOM      5  H   UNL A   1      32.517  29.141  22.244  1.00  0.00     0.163 HD
BRANCH   3   6
ATOM      6  C   UNL A   1      30.356  27.460  24.228  1.00  0.00     0.142 C 
ATOM      7  N   UNL A   1      30.143  25.080  24.577  1.00  0.00    -0.328 N 
ATOM      8  C   UNL A   1      31.050  25.588  25.606  1.00  0.00     0.263 C 
ATOM      9  C   UNL A   1      29.548  26.218  23.864  1.00  0.00     0.193 C 
ATOM     10  H   UNL A   1      29.400  24.565  25.050  1.00  0.00     0.348 HD
ATOM     11  C   UNL A   1      31.273  27.075  25.373  1.00  0.00     0.081 C 
ATOM     12  C   UNL A   1      28.074  26.334  24.248  1.00  0.00     0.076 C 
BRANCH   7  13
ATOM     13  C   UNL A   1      30.689  24.031  23.707  1.00  0.00     0.299 C 
BRANCH  13  14
ATOM     14  C   UNL A   1      31.912  23.345  24.264  1.00  0.00     0.016 A 
ATOM     15  C   UNL A   1      33.765  25.243  23.198  1.00  0.00     0.052 C 
ATOM     16  C   UNL A   1      33.571  23.860  23.742  1.00  0.00     0.036 A 
ATOM     17  C   UNL A   1      34.986  22.823  24.164  1.00  0.00     0.272 A 
ATOM     18  C   UNL A   1      31.696  21.836  25.253  1.00  0.00     0.010 A 
ATOM     19  C   UNL A   1      34.764  21.288  25.082  1.00  0.00     0.086 A 
ATOM     20  C   UNL A   1      33.118  20.806  25.653  1.00  0.00     0.008 A 
BRANCH  17  21
ATOM     21  N   UNL A   1      36.315  23.190  23.760  1.00  0.00     0.062 N 
ATOM     22  O   UNL A   1      36.615  22.954  22.586  1.00  0.00    -0.258 OA
ATOM     23  O   UNL A   1      37.036  23.706  24.620  1.00  0.00    -0.258 OA
ENDBRANCH  17  21
ENDBRANCH  13  14
ENDBRANCH   7  13
ENDBRANCH   3   6
ENDBRANCH   1   2
BRANCH   1  24
ATOM     24  C   UNL A   1      32.878  30.453  26.127  1.00  0.00     0.042 C 
BRANCH  24  25
ATOM     25  C   UNL A   1      33.271  30.270  27.756  1.00  0.00     0.118 C 
BRANCH  25  26
ATOM     26  N   UNL A   1      34.180  31.321  28.265  1.00  0.00    -0.352 N 
ATOM     27  C   UNL A   1      35.501  31.226  28.678  1.00  0.00     0.251 C 
ATOM     28  H   UNL A   1      33.788  32.222  28.318  1.00  0.00     0.163 HD
ATOM     29  O   UNL A   1      36.138  32.223  28.996  1.00  0.00    -0.269 OA
BRANCH  27  30
ATOM     30  C   UNL A   1      36.190  29.923  28.550  1.00  0.00     0.039 A 
ATOM     31  C   UNL A   1      36.526  29.323  29.767  1.00  0.00     0.014 A 
ATOM     32  C   UNL A   1      36.946  29.701  27.408  1.00  0.00     0.014 A 
ATOM     33  C   UNL A   1      37.818  28.865  29.933  1.00  0.00     0.010 A 
ATOM     34  C   UNL A   1      38.272  29.406  27.606  1.00  0.00     0.010 A 
ATOM     35  C   UNL A   1      38.712  29.086  28.894  1.00  0.00    -0.014 A 
BRANCH  35  36
ATOM     36  C   UNL A   1      40.117  28.780  28.997  1.00  0.00     0.031 A 
ATOM     37  C   UNL A   1      40.430  27.397  28.606  1.00  0.00     0.074 A 
ATOM     38  C   UNL A   1      40.998  29.734  29.367  1.00  0.00     0.049 A 
ATOM     39  N   UNL A   1      41.460  26.744  28.990  1.00  0.00    -0.248 NA
ATOM     40  C   UNL A   1      39.486  26.577  27.841  1.00  0.00     0.031 C 
ATOM     41  C   UNL A   1      42.455  29.719  29.262  1.00  0.00     0.029 A 
ATOM     42  N   UNL A   1      40.720  30.912  30.090  1.00  0.00    -0.354 N 
ATOM     43  C   UNL A   1      41.460  25.541  28.311  1.00  0.00     0.074 A 
ATOM     44  C   UNL A   1      40.152  25.430  27.733  1.00  0.00     0.031 C 
ATOM     45  C   UNL A   1      42.963  30.649  30.094  1.00  0.00     0.029 A 
ATOM     46  C   UNL A   1      41.861  31.158  30.894  1.00  0.00     0.049 A 
ATOM     47  H   UNL A   1      39.900  31.455  30.044  1.00  0.00     0.167 HD
ATOM     48  C   UNL A   1      42.642  24.878  28.208  1.00  0.00     0.037 A 
ATOM     49  C   UNL A   1      41.795  31.061  32.259  1.00  0.00     0.037 A 
ATOM     50  C   UNL A   1      43.623  25.543  29.068  1.00  0.00     0.049 A 
ATOM     51  C   UNL A   1      42.633  29.928  32.790  1.00  0.00     0.074 A 
ATOM     52  C   UNL A   1      44.541  26.549  28.815  1.00  0.00     0.029 A 
ATOM     53  N   UNL A   1      43.407  25.544  30.444  1.00  0.00    -0.354 N 
ATOM     54  N   UNL A   1      42.942  28.859  32.108  1.00  0.00    -0.248 NA
ATOM     55  C   UNL A   1      43.155  29.918  34.149  1.00  0.00     0.031 C 
ATOM     56  C   UNL A   1      44.814  27.205  30.047  1.00  0.00     0.029 A 
ATOM     57  C   UNL A   1      44.106  26.569  31.056  1.00  0.00     0.049 A 
ATOM     58  H   UNL A   1      42.832  24.901  30.918  1.00  0.00     0.167 HD
ATOM     59  C   UNL A   1      43.656  28.010  32.912  1.00  0.00     0.074 A 
ATOM     60  C   UNL A   1      43.799  28.743  34.158  1.00  0.00     0.031 C 
ATOM     61  C   UNL A   1      44.038  26.762  32.502  1.00  0.00     0.037 A 
BRANCH  48  62
ATOM     62  C   UNL A   1      42.991  23.858  27.142  1.00  0.00     0.064 A 
ATOM     63  C   UNL A   1      42.573  22.519  27.304  1.00  0.00     0.173 A 
ATOM     64  C   UNL A   1      43.789  24.078  25.999  1.00  0.00     0.173 A 
ATOM     65  F   UNL A   1      41.770  22.158  28.313  1.00  0.00    -0.203 F 
ATOM     66  C   UNL A   1      42.973  21.490  26.443  1.00  0.00     0.198 A 
ATOM     67  C   UNL A   1      44.205  23.047  25.148  1.00  0.00     0.198 A 
ATOM     68  F   UNL A   1      44.187  25.294  25.624  1.00  0.00    -0.203 F 
ATOM     69  F   UNL A   1      42.557  20.236  26.670  1.00  0.00    -0.200 F 
ATOM     70  C   UNL A   1      43.803  21.751  25.374  1.00  0.00     0.200 A 
ATOM     71  F   UNL A   1      45.002  23.329  24.106  1.00  0.00    -0.200 F 
ATOM     72  F   UNL A   1      44.201  20.766  24.558  1.00  0.00    -0.200 F 
ENDBRANCH  48  62
BRANCH  49  73
ATOM     73  C   UNL A   1      40.447  31.393  32.809  1.00  0.00     0.064 A 
ATOM     74  C   UNL A   1      39.911  32.652  32.494  1.00  0.00     0.173 A 
ATOM     75  C   UNL A   1      39.554  30.358  33.110  1.00  0.00     0.173 A 
ATOM     76  F   UNL A   1      40.723  33.697  32.270  1.00  0.00    -0.203 F 
ATOM     77  C   UNL A   1      38.560  32.777  32.191  1.00  0.00     0.198 A 
ATOM     78  C   UNL A   1      38.202  30.497  32.813  1.00  0.00     0.198 A 
ATOM     79  F   UNL A   1      40.003  29.171  33.539  1.00  0.00    -0.203 F 
ATOM     80  F   UNL A   1      38.089  33.929  31.700  1.00  0.00    -0.200 F 
ATOM     81  C   UNL A   1      37.731  31.673  32.254  1.00  0.00     0.200 A 
ATOM     82  F   UNL A   1      37.378  29.450  32.956  1.00  0.00    -0.200 F 
ATOM     83  F   UNL A   1      36.508  31.728  31.712  1.00  0.00    -0.200 F 
ENDBRANCH  49  73
BRANCH  61  84
ATOM     84  C   UNL A   1      44.474  25.641  33.429  1.00  0.00     0.064 A 
ATOM     85  C   UNL A   1      45.784  25.135  33.500  1.00  0.00     0.173 A 
ATOM     86  C   UNL A   1      43.582  25.102  34.390  1.00  0.00     0.173 A 
ATOM     87  F   UNL A   1      46.794  25.685  32.815  1.00  0.00    -0.203 F 
ATOM     88  C   UNL A   1      46.133  24.080  34.344  1.00  0.00     0.198 A 
ATOM     89  C   UNL A   1      43.964  24.126  35.308  1.00  0.00     0.198 A 
ATOM     90  F   UNL A   1      42.315  25.522  34.501  1.00  0.00    -0.203 F 
ATOM     91  F   UNL A   1      47.372  23.572  34.286  1.00  0.00    -0.200 F 
ATOM     92  C   UNL A   1      45.227  23.583  35.256  1.00  0.00     0.200 A 
ATOM     93  F   UNL A   1      43.098  23.730  36.251  1.00  0.00    -0.200 F 
ATOM     94  F   UNL A   1      45.579  22.606  36.100  1.00  0.00    -0.200 F 
ENDBRANCH  61  84
ENDBRANCH  35  36
ENDBRANCH  27  30
ENDBRANCH  25  26
ENDBRANCH  24  25
ENDBRANCH   1  24
TORSDOF 13
ENDMDL
MODEL 3
REMARK VINA RESULT:     -14.2      3.234      9.457
REMARK SMILES Cc1c(C[N@H+]2CC[C@@H](C(=O)NCCCNC(=O)c3ccc(-c4c5nc(c(-c6c(F)c(F)c(F)c(F)c6F)c6ccc([nH]6)c(-c6c(F)c(F)c(F)c(F)c6F)c6nc(c(-c7c(F)c(F)c(F)c(F)c7F)c7ccc4[nH]7)C=C6)C=C5)cc3)[C@@H]2C)cccc1[N+](=O)[O-]
REMARK SMILES IDX 12 1 11 2 9 3 10 4 8 6 5 7 6 8 81 9 7 11 82 12 4 13 3 14
REMARK SMILES IDX 1 15 2 16 86 17 83 18 85 19 84 20 87 21 88 22 89 23 13 24
REMARK SMILES IDX 14 25 15 26 16 27 17 29 18 30 19 31 80 32 20 33 79 34 21 35
REMARK SMILES IDX 22 36 23 37 73 38 24 39 78 40 72 41 74 42 25 43 77 44 71 45
REMARK SMILES IDX 70 46 26 48 58 49 38 50 57 51 39 52 42 53 56 54 75 55 40 56
REMARK SMILES IDX 41 57 55 59 76 60 43 61 27 62 28 63 36 64 29 65 30 66 34 67
REMARK SMILES IDX 37 68 31 69 32 70 35 71 33 72 59 73 60 74 68 75 61 76 62 77
REMARK SMILES IDX 66 78 69 79 63 80 64 81 67 82 65 83 44 84 45 85 53 86 46 87
REMARK SMILES IDX 47 88 51 89 54 90 48 91 49 92 52 93 50 94
REMARK H PARENT 11 5 5 10 15 28 74 47 42 58
REMARK Flexibility Score: inf
ROOT
ATOM      1  C   UNL A   1      35.474  19.778  24.957  1.00  0.00     0.117 C 
ENDROOT
BRANCH   1   2
ATOM      2  N   UNL A   1      34.087  20.341  25.517  1.00  0.00    -0.356 N 
ATOM      3  C   UNL A   1      33.424  21.525  25.448  1.00  0.00     0.229 C 
ATOM      4  O   UNL A   1      32.333  21.566  26.028  1.00  0.00    -0.275 OA
ATOM      5  H   UNL A   1      33.593  19.667  26.037  1.00  0.00     0.163 HD
BRANCH   3   6
ATOM      6  C   UNL A   1      33.944  22.772  24.746  1.00  0.00     0.142 C 
ATOM      7  N   UNL A   1      33.065  25.002  25.046  1.00  0.00    -0.328 N 
ATOM      8  C   UNL A   1      34.401  24.980  25.642  1.00  0.00     0.263 C 
ATOM      9  C   UNL A   1      32.850  23.745  24.316  1.00  0.00     0.193 C 
ATOM     10  H   UNL A   1      33.039  25.776  24.381  1.00  0.00     0.348 HD
ATOM     11  C   UNL A   1      34.961  23.568  25.543  1.00  0.00     0.081 C 
ATOM     12  C   UNL A   1      32.863  24.030  22.815  1.00  0.00     0.076 C 
BRANCH   7  13
ATOM     13  C   UNL A   1      31.971  25.381  25.948  1.00  0.00     0.299 C 
BRANCH  13  14
ATOM     14  C   UNL A   1      31.585  26.837  25.869  1.00  0.00     0.016 A 
ATOM     15  C   UNL A   1      29.924  26.526  23.563  1.00  0.00     0.052 C 
ATOM     16  C   UNL A   1      30.709  27.477  24.414  1.00  0.00     0.036 A 
ATOM     17  C   UNL A   1      30.552  29.261  24.198  1.00  0.00     0.272 A 
ATOM     18  C   UNL A   1      32.237  27.986  27.117  1.00  0.00     0.010 A 
ATOM     19  C   UNL A   1      31.263  30.402  25.398  1.00  0.00     0.086 A 
ATOM     20  C   UNL A   1      32.083  29.764  26.877  1.00  0.00     0.008 A 
BRANCH  17  21
ATOM     21  N   UNL A   1      29.876  29.808  23.055  1.00  0.00     0.062 N 
ATOM     22  O   UNL A   1      30.505  29.805  21.993  1.00  0.00    -0.258 OA
ATOM     23  O   UNL A   1      28.730  30.233  23.236  1.00  0.00    -0.258 OA
ENDBRANCH  17  21
ENDBRANCH  13  14
ENDBRANCH   7  13
ENDBRANCH   3   6
ENDBRANCH   1   2
BRANCH   1  24
ATOM     24  C   UNL A   1      37.511  20.590  24.949  1.00  0.00     0.042 C 
BRANCH  24  25
ATOM     25  C   UNL A   1      38.210  22.080  25.315  1.00  0.00     0.118 C 
BRANCH  25  26
ATOM     26  N   UNL A   1      39.552  21.967  25.927  1.00  0.00    -0.352 N 
ATOM     27  C   UNL A   1      40.334  22.940  26.534  1.00  0.00     0.251 C 
ATOM     28  H   UNL A   1      39.950  21.067  25.899  1.00  0.00     0.163 HD
ATOM     29  O   UNL A   1      41.398  22.654  27.068  1.00  0.00    -0.269 OA
BRANCH  27  30
ATOM     30  C   UNL A   1      39.773  24.301  26.693  1.00  0.00     0.039 A 
ATOM     31  C   UNL A   1      40.520  25.310  26.079  1.00  0.00     0.014 A 
ATOM     32  C   UNL A   1      39.011  24.557  27.824  1.00  0.00     0.014 A 
ATOM     33  C   UNL A   1      40.833  26.431  26.822  1.00  0.00     0.010 A 
ATOM     34  C   UNL A   1      39.447  25.580  28.629  1.00  0.00     0.010 A 
ATOM     35  C   UNL A   1      40.432  26.450  28.150  1.00  0.00    -0.014 A 
BRANCH  35  36
ATOM     36  C   UNL A   1      40.814  27.496  29.065  1.00  0.00     0.031 A 
ATOM     37  C   UNL A   1      39.899  28.647  29.030  1.00  0.00     0.074 A 
ATOM     38  C   UNL A   1      41.881  27.337  29.877  1.00  0.00     0.049 A 
ATOM     39  N   UNL A   1      40.207  29.837  29.384  1.00  0.00    -0.248 NA
ATOM     40  C   UNL A   1      38.565  28.557  28.429  1.00  0.00     0.031 C 
ATOM     41  C   UNL A   1      42.262  28.126  31.046  1.00  0.00     0.029 A 
ATOM     42  N   UNL A   1      42.967  26.457  29.689  1.00  0.00    -0.354 N 
ATOM     43  C   UNL A   1      39.053  30.593  29.326  1.00  0.00     0.074 A 
ATOM     44  C   UNL A   1      38.111  29.797  28.595  1.00  0.00     0.031 C 
ATOM     45  C   UNL A   1      43.564  27.907  31.315  1.00  0.00     0.029 A 
ATOM     46  C   UNL A   1      44.104  27.118  30.218  1.00  0.00     0.049 A 
ATOM     47  H   UNL A   1      42.941  25.564  29.275  1.00  0.00     0.167 HD
ATOM     48  C   UNL A   1      39.017  31.740  30.056  1.00  0.00     0.037 A 
ATOM     49  C   UNL A   1      45.120  27.536  29.401  1.00  0.00     0.037 A 
ATOM     50  C   UNL A   1      40.359  31.999  30.579  1.00  0.00     0.049 A 
ATOM     51  C   UNL A   1      45.238  29.037  29.361  1.00  0.00     0.074 A 
ATOM     52  C   UNL A   1      40.969  31.646  31.773  1.00  0.00     0.029 A 
ATOM     53  N   UNL A   1      41.386  32.259  29.675  1.00  0.00    -0.354 N 
ATOM     54  N   UNL A   1      44.250  29.859  29.589  1.00  0.00    -0.248 NA
ATOM     55  C   UNL A   1      46.485  29.709  29.028  1.00  0.00     0.031 C 
ATOM     56  C   UNL A   1      42.373  31.623  31.551  1.00  0.00     0.029 A 
ATOM     57  C   UNL A   1      42.623  32.011  30.243  1.00  0.00     0.049 A 
ATOM     58  H   UNL A   1      41.250  32.577  28.754  1.00  0.00     0.167 HD
ATOM     59  C   UNL A   1      44.690  31.143  29.407  1.00  0.00     0.074 A 
ATOM     60  C   UNL A   1      46.103  30.992  29.105  1.00  0.00     0.031 C 
ATOM     61  C   UNL A   1      43.852  32.221  29.482  1.00  0.00     0.037 A 
BRANCH  48  62
ATOM     62  C   UNL A   1      37.761  32.439  30.538  1.00  0.00     0.064 A 
ATOM     63  C   UNL A   1      37.236  32.116  31.809  1.00  0.00     0.173 A 
ATOM     64  C   UNL A   1      36.974  33.353  29.806  1.00  0.00     0.173 A 
ATOM     65  F   UNL A   1      37.891  31.299  32.645  1.00  0.00    -0.203 F 
ATOM     66  C   UNL A   1      36.009  32.606  32.270  1.00  0.00     0.198 A 
ATOM     67  C   UNL A   1      35.738  33.829  30.258  1.00  0.00     0.198 A 
ATOM     68  F   UNL A   1      37.362  33.857  28.635  1.00  0.00    -0.203 F 
ATOM     69  F   UNL A   1      35.559  32.238  33.478  1.00  0.00    -0.200 F 
ATOM     70  C   UNL A   1      35.250  33.450  31.488  1.00  0.00     0.200 A 
ATOM     71  F   UNL A   1      35.025  34.661  29.483  1.00  0.00    -0.200 F 
ATOM     72  F   UNL A   1      34.068  33.907  31.919  1.00  0.00    -0.200 F 
ENDBRANCH  48  62
BRANCH  49  73
ATOM     73  C   UNL A   1      45.290  26.681  28.189  1.00  0.00     0.064 A 
ATOM     74  C   UNL A   1      44.821  27.189  26.967  1.00  0.00     0.173 A 
ATOM     75  C   UNL A   1      46.325  25.739  28.152  1.00  0.00     0.173 A 
ATOM     76  F   UNL A   1      43.781  28.037  26.941  1.00  0.00    -0.203 F 
ATOM     77  C   UNL A   1      45.560  27.000  25.805  1.00  0.00     0.198 A 
ATOM     78  C   UNL A   1      47.051  25.549  26.981  1.00  0.00     0.198 A 
ATOM     79  F   UNL A   1      46.730  25.125  29.271  1.00  0.00    -0.203 F 
ATOM     80  F   UNL A   1      45.220  27.647  24.684  1.00  0.00    -0.200 F 
ATOM     81  C   UNL A   1      46.728  26.263  25.839  1.00  0.00     0.200 A 
ATOM     82  F   UNL A   1      48.138  24.765  26.992  1.00  0.00    -0.200 F 
ATOM     83  F   UNL A   1      47.571  26.304  24.800  1.00  0.00    -0.200 F 
ENDBRANCH  49  73
BRANCH  61  84
ATOM     84  C   UNL A   1      44.161  33.600  28.925  1.00  0.00     0.064 A 
ATOM     85  C   UNL A   1      44.487  34.718  29.712  1.00  0.00     0.173 A 
ATOM     86  C   UNL A   1      44.254  33.817  27.527  1.00  0.00     0.173 A 
ATOM     87  F   UNL A   1      44.657  34.627  31.037  1.00  0.00    -0.203 F 
ATOM     88  C   UNL A   1      44.732  35.976  29.159  1.00  0.00     0.198 A 
ATOM     89  C   UNL A   1      44.608  35.047  26.978  1.00  0.00     0.198 A 
ATOM     90  F   UNL A   1      44.039  32.838  26.638  1.00  0.00    -0.203 F 
ATOM     91  F   UNL A   1      44.931  37.025  29.969  1.00  0.00    -0.200 F 
ATOM     92  C   UNL A   1      44.803  36.139  27.792  1.00  0.00     0.200 A 
ATOM     93  F   UNL A   1      44.771  35.157  25.652  1.00  0.00    -0.200 F 
ATOM     94  F   UNL A   1      45.089  37.335  27.264  1.00  0.00    -0.200 F 
ENDBRANCH  61  84
ENDBRANCH  35  36
ENDBRANCH  27  30
ENDBRANCH  25  26
ENDBRANCH  24  25
ENDBRANCH   1  24
TORSDOF 13
ENDMDL
