MODEL 1
REMARK VINA RESULT:     -14.0      0.000      0.000
REMARK SMILES O=C(NCCCNC(=O)[C@H]1CC2=c3ccccc3=N[C@H]2[C@@H](c2ccccc2)[NH2+]1)c1ccc(-c2c3nc(c(-c4c(F)c(F)c(F)c(F)c4F)c4ccc([nH]4)c(-c4c(F)c(F)c(F)c(F)c4F)c4nc(c(-c5c(F)c(F)c(F)c(F)c5F)c5ccc2[nH]5)C=C4)C=C3)cc1
REMARK SMILES IDX 4 1 3 2 1 3 2 4 29 6 30 7 91 8 31 9 90 10 32 11 33 12 34 13
REMARK SMILES IDX 84 14 35 15 89 16 83 17 85 18 36 19 88 20 82 21 81 22 37 24
REMARK SMILES IDX 69 25 49 26 68 27 50 28 53 29 67 30 86 31 51 32 52 33 66 35
REMARK SMILES IDX 87 36 54 37 38 38 39 39 47 40 40 41 41 42 45 43 48 44 42 45
REMARK SMILES IDX 43 46 46 47 44 48 70 49 71 50 79 51 72 52 73 53 77 54 80 55
REMARK SMILES IDX 74 56 75 57 78 58 76 59 55 60 56 61 64 62 57 63 58 64 62 65
REMARK SMILES IDX 65 66 59 67 60 68 63 69 61 70 5 71 6 72 7 73 8 74 9 76 10 77
REMARK SMILES IDX 11 78 28 79 12 80 21 81 13 84 20 85 14 86 18 87 19 88 15 89
REMARK SMILES IDX 17 90 16 91 22 92 23 93 27 94 24 95 26 96 25 97
REMARK H PARENT 3 5 85 23 53 34 7 75 28 82 28 83
REMARK Flexibility Score: inf
ROOT
ATOM      1  C   UNL A   1      33.600  29.038  24.861  1.00  0.00     0.118 C 
ENDROOT
BRANCH   1   2
ATOM      2  N   UNL A   1      32.988  30.187  25.516  1.00  0.00    -0.352 N 
ATOM      3  O   UNL A   1      32.512  31.671  27.127  1.00  0.00    -0.269 OA
ATOM      4  C   UNL A   1      33.317  30.846  26.673  1.00  0.00     0.251 C 
ATOM      5  H   UNL A   1      32.203  30.553  25.047  1.00  0.00     0.163 HD
BRANCH   4   6
ATOM      6  C   UNL A   1      34.590  30.622  27.404  1.00  0.00     0.039 A 
ATOM      7  C   UNL A   1      34.803  29.371  28.001  1.00  0.00     0.014 A 
ATOM      8  C   UNL A   1      35.522  31.641  27.621  1.00  0.00     0.014 A 
ATOM      9  C   UNL A   1      35.944  29.133  28.778  1.00  0.00     0.010 A 
ATOM     10  C   UNL A   1      36.688  31.390  28.357  1.00  0.00     0.010 A 
ATOM     11  C   UNL A   1      36.907  30.138  28.954  1.00  0.00    -0.014 A 
BRANCH  11  12
ATOM     12  C   UNL A   1      38.118  29.911  29.793  1.00  0.00     0.031 A 
ATOM     13  C   UNL A   1      39.244  29.048  29.284  1.00  0.00     0.074 A 
ATOM     14  C   UNL A   1      38.214  30.462  31.021  1.00  0.00     0.049 A 
ATOM     15  N   UNL A   1      40.324  28.638  29.905  1.00  0.00    -0.248 NA
ATOM     16  C   UNL A   1      39.140  28.580  27.894  1.00  0.00     0.031 C 
ATOM     17  C   UNL A   1      37.218  31.341  31.632  1.00  0.00     0.029 A 
ATOM     18  N   UNL A   1      39.197  30.359  31.976  1.00  0.00    -0.354 N 
ATOM     19  C   UNL A   1      41.020  27.861  28.987  1.00  0.00     0.074 A 
ATOM     20  C   UNL A   1      40.226  27.827  27.776  1.00  0.00     0.031 C 
ATOM     21  C   UNL A   1      37.648  31.711  32.850  1.00  0.00     0.029 A 
ATOM     22  C   UNL A   1      38.926  31.060  33.126  1.00  0.00     0.049 A 
ATOM     23  H   UNL A   1      40.019  29.833  31.847  1.00  0.00     0.167 HD
ATOM     24  C   UNL A   1      42.219  27.247  29.133  1.00  0.00     0.037 A 
ATOM     25  C   UNL A   1      39.619  31.157  34.278  1.00  0.00     0.037 A 
ATOM     26  C   UNL A   1      43.025  27.291  30.324  1.00  0.00     0.049 A 
ATOM     27  C   UNL A   1      40.921  30.413  34.432  1.00  0.00     0.074 A 
ATOM     28  C   UNL A   1      44.244  26.678  30.564  1.00  0.00     0.029 A 
ATOM     29  N   UNL A   1      42.705  28.002  31.470  1.00  0.00    -0.354 N 
ATOM     30  N   UNL A   1      41.553  29.663  33.565  1.00  0.00    -0.248 NA
ATOM     31  C   UNL A   1      41.602  30.529  35.731  1.00  0.00     0.031 C 
ATOM     32  C   UNL A   1      44.650  26.997  31.863  1.00  0.00     0.029 A 
ATOM     33  C   UNL A   1      43.704  27.843  32.417  1.00  0.00     0.049 A 
ATOM     34  H   UNL A   1      41.889  28.540  31.593  1.00  0.00     0.167 HD
ATOM     35  C   UNL A   1      42.721  29.252  34.195  1.00  0.00     0.074 A 
ATOM     36  C   UNL A   1      42.714  29.838  35.517  1.00  0.00     0.031 C 
ATOM     37  C   UNL A   1      43.708  28.459  33.717  1.00  0.00     0.037 A 
BRANCH  24  38
ATOM     38  C   UNL A   1      42.759  26.475  27.965  1.00  0.00     0.064 A 
ATOM     39  C   UNL A   1      42.396  25.138  27.750  1.00  0.00     0.173 A 
ATOM     40  C   UNL A   1      43.557  27.106  27.000  1.00  0.00     0.173 A 
ATOM     41  F   UNL A   1      41.641  24.490  28.650  1.00  0.00    -0.203 F 
ATOM     42  C   UNL A   1      42.815  24.459  26.610  1.00  0.00     0.198 A 
ATOM     43  C   UNL A   1      43.956  26.430  25.850  1.00  0.00     0.198 A 
ATOM     44  F   UNL A   1      43.923  28.387  27.157  1.00  0.00    -0.203 F 
ATOM     45  F   UNL A   1      42.471  23.176  26.432  1.00  0.00    -0.200 F 
ATOM     46  C   UNL A   1      43.585  25.108  25.656  1.00  0.00     0.200 A 
ATOM     47  F   UNL A   1      44.686  27.064  24.921  1.00  0.00    -0.200 F 
ATOM     48  F   UNL A   1      43.967  24.460  24.547  1.00  0.00    -0.200 F 
ENDBRANCH  24  38
BRANCH  25  49
ATOM     49  C   UNL A   1      39.109  32.002  35.390  1.00  0.00     0.064 A 
ATOM     50  C   UNL A   1      39.415  33.369  35.448  1.00  0.00     0.173 A 
ATOM     51  C   UNL A   1      38.337  31.461  36.428  1.00  0.00     0.173 A 
ATOM     52  F   UNL A   1      40.175  33.926  34.492  1.00  0.00    -0.203 F 
ATOM     53  C   UNL A   1      38.986  34.159  36.512  1.00  0.00     0.198 A 
ATOM     54  C   UNL A   1      37.886  32.258  37.478  1.00  0.00     0.198 A 
ATOM     55  F   UNL A   1      38.021  30.158  36.421  1.00  0.00    -0.203 F 
ATOM     56  F   UNL A   1      39.337  35.450  36.568  1.00  0.00    -0.200 F 
ATOM     57  C   UNL A   1      38.218  33.603  37.524  1.00  0.00     0.200 A 
ATOM     58  F   UNL A   1      37.135  31.720  38.449  1.00  0.00    -0.200 F 
ATOM     59  F   UNL A   1      37.807  34.362  38.549  1.00  0.00    -0.200 F 
ENDBRANCH  25  49
BRANCH  37  60
ATOM     60  C   UNL A   1      44.901  28.222  34.596  1.00  0.00     0.064 A 
ATOM     61  C   UNL A   1      44.972  27.122  35.461  1.00  0.00     0.173 A 
ATOM     62  C   UNL A   1      46.013  29.074  34.523  1.00  0.00     0.173 A 
ATOM     63  F   UNL A   1      43.931  26.284  35.576  1.00  0.00    -0.203 F 
ATOM     64  C   UNL A   1      46.107  26.894  36.237  1.00  0.00     0.198 A 
ATOM     65  C   UNL A   1      47.155  28.830  35.280  1.00  0.00     0.198 A 
ATOM     66  F   UNL A   1      45.998  30.136  33.703  1.00  0.00    -0.203 F 
ATOM     67  F   UNL A   1      46.140  25.856  37.084  1.00  0.00    -0.200 F 
ATOM     68  C   UNL A   1      47.199  27.743  36.140  1.00  0.00     0.200 A 
ATOM     69  F   UNL A   1      48.214  29.644  35.175  1.00  0.00    -0.200 F 
ATOM     70  F   UNL A   1      48.294  27.516  36.879  1.00  0.00    -0.200 F 
ENDBRANCH  37  60
ENDBRANCH  11  12
ENDBRANCH   4   6
ENDBRANCH   1   2
BRANCH   1  71
ATOM     71  C   UNL A   1      33.011  27.711  25.345  1.00  0.00     0.042 C 
BRANCH  71  72
ATOM     72  C   UNL A   1      34.018  26.563  25.503  1.00  0.00     0.118 C 
BRANCH  72  73
ATOM     73  N   UNL A   1      34.087  25.730  24.306  1.00  0.00    -0.351 N 
ATOM     74  C   UNL A   1      34.390  24.429  24.039  1.00  0.00     0.278 C 
ATOM     75  H   UNL A   1      33.859  26.232  23.491  1.00  0.00     0.163 HD
ATOM     76  O   UNL A   1      34.548  24.190  22.830  1.00  0.00    -0.268 OA
BRANCH  74  77
ATOM     77  C   UNL A   1      34.469  23.240  25.041  1.00  0.00     0.277 C 
ATOM     78  C   UNL A   1      33.422  23.396  26.208  1.00  0.00     0.109 C 
ATOM     79  N   UNL A   1      34.549  21.887  24.453  1.00  0.00    -0.327 N 
ATOM     80  C   UNL A   1      32.066  22.936  25.734  1.00  0.00    -0.024 C 
ATOM     81  C   UNL A   1      33.393  21.056  24.820  1.00  0.00     0.243 C 
ATOM     82  H   UNL A   1      35.400  21.433  24.786  1.00  0.00     0.347 HD
ATOM     83  H   UNL A   1      34.556  21.985  23.438  1.00  0.00     0.347 HD
ATOM     84  C   UNL A   1      31.074  23.776  25.465  1.00  0.00     0.002 A 
ATOM     85  C   UNL A   1      32.000  21.749  24.810  1.00  0.00     0.196 C 
ATOM     86  C   UNL A   1      30.685  25.025  26.031  1.00  0.00     0.010 A 
ATOM     87  C   UNL A   1      30.925  23.470  24.019  1.00  0.00     0.066 A 
ATOM     88  N   UNL A   1      31.476  22.373  23.556  1.00  0.00    -0.270 NA
ATOM     89  C   UNL A   1      30.100  25.940  25.248  1.00  0.00     0.001 A 
ATOM     90  C   UNL A   1      30.303  24.560  23.219  1.00  0.00     0.028 A 
ATOM     91  C   UNL A   1      29.946  25.710  23.823  1.00  0.00     0.002 A 
BRANCH  81  92
ATOM     92  C   UNL A   1      33.487  19.619  24.337  1.00  0.00     0.012 A 
ATOM     93  C   UNL A   1      32.564  19.031  23.468  1.00  0.00     0.010 A 
ATOM     94  C   UNL A   1      34.609  18.854  24.735  1.00  0.00     0.010 A 
ATOM     95  C   UNL A   1      32.785  17.735  22.980  1.00  0.00     0.001 A 
ATOM     96  C   UNL A   1      34.825  17.566  24.252  1.00  0.00     0.001 A 
ATOM     97  C   UNL A   1      33.914  17.009  23.365  1.00  0.00     0.000 A 
ENDBRANCH  81  92
ENDBRANCH  74  77
ENDBRANCH  72  73
ENDBRANCH  71  72
ENDBRANCH   1  71
TORSDOF 11
ENDMDL
MODEL 2
REMARK VINA RESULT:     -13.8      0.195      1.666
REMARK SMILES O=C(NCCCNC(=O)[C@H]1CC2=c3ccccc3=N[C@H]2[C@@H](c2ccccc2)[NH2+]1)c1ccc(-c2c3nc(c(-c4c(F)c(F)c(F)c(F)c4F)c4ccc([nH]4)c(-c4c(F)c(F)c(F)c(F)c4F)c4nc(c(-c5c(F)c(F)c(F)c(F)c5F)c5ccc2[nH]5)C=C4)C=C3)cc1
REMARK SMILES IDX 4 1 3 2 1 3 2 4 29 6 30 7 91 8 31 9 90 10 32 11 33 12 34 13
REMARK SMILES IDX 84 14 35 15 89 16 83 17 85 18 36 19 88 20 82 21 81 22 37 24
REMARK SMILES IDX 69 25 49 26 68 27 50 28 53 29 67 30 86 31 51 32 52 33 66 35
REMARK SMILES IDX 87 36 54 37 38 38 39 39 47 40 40 41 41 42 45 43 48 44 42 45
REMARK SMILES IDX 43 46 46 47 44 48 70 49 71 50 79 51 72 52 73 53 77 54 80 55
REMARK SMILES IDX 74 56 75 57 78 58 76 59 55 60 56 61 64 62 57 63 58 64 62 65
REMARK SMILES IDX 65 66 59 67 60 68 63 69 61 70 5 71 6 72 7 73 8 74 9 76 10 77
REMARK SMILES IDX 11 78 28 79 12 80 21 81 13 84 20 85 14 86 18 87 19 88 15 89
REMARK SMILES IDX 17 90 16 91 22 92 23 93 27 94 24 95 26 96 25 97
REMARK H PARENT 3 5 85 23 53 34 7 75 28 82 28 83
REMARK Flexibility Score: inf
ROOT
ATOM      1  C   UNL A   1      33.643  28.956  24.828  1.00  0.00     0.118 C 
ENDROOT
BRANCH   1   2
ATOM      2  N   UNL A   1      32.972  30.129  25.374  1.00  0.00    -0.352 N 
ATOM      3  O   UNL A   1      32.315  31.654  26.880  1.00  0.00    -0.269 OA
ATOM      4  C   UNL A   1      33.156  30.806  26.552  1.00  0.00     0.251 C 
ATOM      5  H   UNL A   1      32.264  30.498  24.798  1.00  0.00     0.163 HD
BRANCH   4   6
ATOM      6  C   UNL A   1      34.316  30.575  27.450  1.00  0.00     0.039 A 
ATOM      7  C   UNL A   1      35.239  31.617  27.625  1.00  0.00     0.014 A 
ATOM      8  C   UNL A   1      34.585  29.331  28.027  1.00  0.00     0.014 A 
ATOM      9  C   UNL A   1      36.399  31.425  28.388  1.00  0.00     0.010 A 
ATOM     10  C   UNL A   1      35.719  29.153  28.831  1.00  0.00     0.010 A 
ATOM     11  C   UNL A   1      36.645  30.193  29.012  1.00  0.00    -0.014 A 
BRANCH  11  12
ATOM     12  C   UNL A   1      37.882  29.963  29.811  1.00  0.00     0.031 A 
ATOM     13  C   UNL A   1      39.003  29.125  29.251  1.00  0.00     0.074 A 
ATOM     14  C   UNL A   1      38.007  30.487  31.047  1.00  0.00     0.049 A 
ATOM     15  N   UNL A   1      40.105  28.714  29.831  1.00  0.00    -0.248 NA
ATOM     16  C   UNL A   1      38.865  28.687  27.853  1.00  0.00     0.031 C 
ATOM     17  C   UNL A   1      37.018  31.341  31.705  1.00  0.00     0.029 A 
ATOM     18  N   UNL A   1      39.018  30.376  31.971  1.00  0.00    -0.354 N 
ATOM     19  C   UNL A   1      40.783  27.967  28.877  1.00  0.00     0.074 A 
ATOM     20  C   UNL A   1      39.955  27.950  27.688  1.00  0.00     0.031 C 
ATOM     21  C   UNL A   1      37.479  31.690  32.919  1.00  0.00     0.029 A 
ATOM     22  C   UNL A   1      38.772  31.048  33.144  1.00  0.00     0.049 A 
ATOM     23  H   UNL A   1      39.842  29.863  31.807  1.00  0.00     0.167 HD
ATOM     24  C   UNL A   1      41.992  27.365  28.974  1.00  0.00     0.037 A 
ATOM     25  C   UNL A   1      39.497  31.128  34.278  1.00  0.00     0.037 A 
ATOM     26  C   UNL A   1      42.832  27.392  30.143  1.00  0.00     0.049 A 
ATOM     27  C   UNL A   1      40.810  30.396  34.378  1.00  0.00     0.074 A 
ATOM     28  C   UNL A   1      44.064  26.788  30.335  1.00  0.00     0.029 A 
ATOM     29  N   UNL A   1      42.537  28.073  31.313  1.00  0.00    -0.354 N 
ATOM     30  N   UNL A   1      41.426  29.674  33.477  1.00  0.00    -0.248 NA
ATOM     31  C   UNL A   1      41.528  30.492  35.659  1.00  0.00     0.031 C 
ATOM     32  C   UNL A   1      44.504  27.084  31.628  1.00  0.00     0.029 A 
ATOM     33  C   UNL A   1      43.564  27.905  32.228  1.00  0.00     0.049 A 
ATOM     34  H   UNL A   1      41.719  28.599  31.471  1.00  0.00     0.167 HD
ATOM     35  C   UNL A   1      42.616  29.263  34.064  1.00  0.00     0.074 A 
ATOM     36  C   UNL A   1      42.641  29.820  35.399  1.00  0.00     0.031 C 
ATOM     37  C   UNL A   1      43.599  28.493  33.541  1.00  0.00     0.037 A 
BRANCH  24  38
ATOM     38  C   UNL A   1      42.508  26.625  27.775  1.00  0.00     0.064 A 
ATOM     39  C   UNL A   1      43.357  27.247  26.850  1.00  0.00     0.173 A 
ATOM     40  C   UNL A   1      42.237  25.259  27.608  1.00  0.00     0.173 A 
ATOM     41  F   UNL A   1      43.638  28.554  26.964  1.00  0.00    -0.203 F 
ATOM     42  C   UNL A   1      43.917  26.527  25.798  1.00  0.00     0.198 A 
ATOM     43  C   UNL A   1      42.816  24.538  26.568  1.00  0.00     0.198 A 
ATOM     44  F   UNL A   1      41.436  24.617  28.473  1.00  0.00    -0.203 F 
ATOM     45  F   UNL A   1      44.714  27.145  24.914  1.00  0.00    -0.200 F 
ATOM     46  C   UNL A   1      43.655  25.172  25.664  1.00  0.00     0.200 A 
ATOM     47  F   UNL A   1      42.575  23.224  26.450  1.00  0.00    -0.200 F 
ATOM     48  F   UNL A   1      44.214  24.475  24.665  1.00  0.00    -0.200 F 
ENDBRANCH  24  38
BRANCH  25  49
ATOM     49  C   UNL A   1      39.009  31.942  35.422  1.00  0.00     0.064 A 
ATOM     50  C   UNL A   1      39.328  33.304  35.519  1.00  0.00     0.173 A 
ATOM     51  C   UNL A   1      38.246  31.375  36.453  1.00  0.00     0.173 A 
ATOM     52  F   UNL A   1      40.079  33.884  34.571  1.00  0.00    -0.203 F 
ATOM     53  C   UNL A   1      38.920  34.064  36.613  1.00  0.00     0.198 A 
ATOM     54  C   UNL A   1      37.816  32.142  37.534  1.00  0.00     0.198 A 
ATOM     55  F   UNL A   1      37.918  30.076  36.410  1.00  0.00    -0.203 F 
ATOM     56  F   UNL A   1      39.283  35.350  36.705  1.00  0.00    -0.200 F 
ATOM     57  C   UNL A   1      38.160  33.483  37.617  1.00  0.00     0.200 A 
ATOM     58  F   UNL A   1      37.074  31.581  38.498  1.00  0.00    -0.200 F 
ATOM     59  F   UNL A   1      37.770  34.213  38.671  1.00  0.00    -0.200 F 
ENDBRANCH  25  49
BRANCH  37  60
ATOM     60  C   UNL A   1      44.819  28.251  34.380  1.00  0.00     0.064 A 
ATOM     61  C   UNL A   1      45.912  29.128  34.361  1.00  0.00     0.173 A 
ATOM     62  C   UNL A   1      44.866  27.158  35.259  1.00  0.00     0.173 A 
ATOM     63  F   UNL A   1      45.921  30.180  33.530  1.00  0.00    -0.203 F 
ATOM     64  C   UNL A   1      47.018  28.909  35.181  1.00  0.00     0.198 A 
ATOM     65  C   UNL A   1      45.961  26.957  36.094  1.00  0.00     0.198 A 
ATOM     66  F   UNL A   1      43.841  26.295  35.319  1.00  0.00    -0.203 F 
ATOM     67  F   UNL A   1      48.068  29.739  35.122  1.00  0.00    -0.200 F 
ATOM     68  C   UNL A   1      47.038  27.829  36.051  1.00  0.00     0.200 A 
ATOM     69  F   UNL A   1      45.972  25.920  36.943  1.00  0.00    -0.200 F 
ATOM     70  F   UNL A   1      48.098  27.627  36.846  1.00  0.00    -0.200 F 
ENDBRANCH  37  60
ENDBRANCH  11  12
ENDBRANCH   4   6
ENDBRANCH   1   2
BRANCH   1  71
ATOM     71  C   UNL A   1      33.038  27.648  25.342  1.00  0.00     0.042 C 
BRANCH  71  72
ATOM     72  C   UNL A   1      34.023  26.479  25.484  1.00  0.00     0.118 C 
BRANCH  72  73
ATOM     73  N   UNL A   1      34.078  25.661  24.277  1.00  0.00    -0.351 N 
ATOM     74  C   UNL A   1      34.378  24.364  23.989  1.00  0.00     0.278 C 
ATOM     75  H   UNL A   1      33.839  26.173  23.470  1.00  0.00     0.163 HD
ATOM     76  O   UNL A   1      34.521  24.141  22.775  1.00  0.00    -0.268 OA
BRANCH  74  77
ATOM     77  C   UNL A   1      34.472  23.163  24.975  1.00  0.00     0.277 C 
ATOM     78  C   UNL A   1      33.449  23.309  26.163  1.00  0.00     0.109 C 
ATOM     79  N   UNL A   1      34.535  21.816  24.369  1.00  0.00    -0.327 N 
ATOM     80  C   UNL A   1      32.081  22.860  25.711  1.00  0.00    -0.024 C 
ATOM     81  C   UNL A   1      33.382  20.985  24.749  1.00  0.00     0.243 C 
ATOM     82  H   UNL A   1      35.390  21.355  24.679  1.00  0.00     0.347 HD
ATOM     83  H   UNL A   1      34.522  21.927  23.355  1.00  0.00     0.347 HD
ATOM     84  C   UNL A   1      31.089  23.708  25.472  1.00  0.00     0.002 A 
ATOM     85  C   UNL A   1      31.992  21.684  24.774  1.00  0.00     0.196 C 
ATOM     86  C   UNL A   1      30.716  24.951  26.060  1.00  0.00     0.010 A 
ATOM     87  C   UNL A   1      30.910  23.420  24.025  1.00  0.00     0.066 A 
ATOM     88  N   UNL A   1      31.446  22.326  23.539  1.00  0.00    -0.270 NA
ATOM     89  C   UNL A   1      30.119  25.878  25.300  1.00  0.00     0.001 A 
ATOM     90  C   UNL A   1      30.277  24.522  23.251  1.00  0.00     0.028 A 
ATOM     91  C   UNL A   1      29.937  25.666  23.875  1.00  0.00     0.002 A 
BRANCH  81  92
ATOM     92  C   UNL A   1      33.460  19.555  24.246  1.00  0.00     0.012 A 
ATOM     93  C   UNL A   1      32.528  18.986  23.375  1.00  0.00     0.010 A 
ATOM     94  C   UNL A   1      34.578  18.775  24.627  1.00  0.00     0.010 A 
ATOM     95  C   UNL A   1      32.734  17.695  22.869  1.00  0.00     0.001 A 
ATOM     96  C   UNL A   1      34.779  17.491  24.126  1.00  0.00     0.001 A 
ATOM     97  C   UNL A   1      33.858  16.953  23.237  1.00  0.00     0.000 A 
ENDBRANCH  81  92
ENDBRANCH  74  77
ENDBRANCH  72  73
ENDBRANCH  71  72
ENDBRANCH   1  71
TORSDOF 11
ENDMDL
MODEL 3
REMARK VINA RESULT:     -13.8      0.813      1.930
REMARK SMILES O=C(NCCCNC(=O)[C@H]1CC2=c3ccccc3=N[C@H]2[C@@H](c2ccccc2)[NH2+]1)c1ccc(-c2c3nc(c(-c4c(F)c(F)c(F)c(F)c4F)c4ccc([nH]4)c(-c4c(F)c(F)c(F)c(F)c4F)c4nc(c(-c5c(F)c(F)c(F)c(F)c5F)c5ccc2[nH]5)C=C4)C=C3)cc1
REMARK SMILES IDX 4 1 3 2 1 3 2 4 29 6 30 7 91 8 31 9 90 10 32 11 33 12 34 13
REMARK SMILES IDX 84 14 35 15 89 16 83 17 85 18 36 19 88 20 82 21 81 22 37 24
REMARK SMILES IDX 69 25 49 26 68 27 50 28 53 29 67 30 86 31 51 32 52 33 66 35
REMARK SMILES IDX 87 36 54 37 38 38 39 39 47 40 40 41 41 42 45 43 48 44 42 45
REMARK SMILES IDX 43 46 46 47 44 48 70 49 71 50 79 51 72 52 73 53 77 54 80 55
REMARK SMILES IDX 74 56 75 57 78 58 76 59 55 60 56 61 64 62 57 63 58 64 62 65
REMARK SMILES IDX 65 66 59 67 60 68 63 69 61 70 5 71 6 72 7 73 8 74 9 76 10 77
REMARK SMILES IDX 11 78 28 79 12 80 21 81 13 84 20 85 14 86 18 87 19 88 15 89
REMARK SMILES IDX 17 90 16 91 22 92 23 93 27 94 24 95 26 96 25 97
REMARK H PARENT 3 5 85 23 53 34 7 75 28 82 28 83
REMARK Flexibility Score: inf
ROOT
ATOM      1  C   UNL A   1      32.757  29.314  25.500  1.00  0.00     0.118 C 
ENDROOT
BRANCH   1   2
ATOM      2  N   UNL A   1      32.393  30.660  25.925  1.00  0.00    -0.352 N 
ATOM      3  O   UNL A   1      32.309  32.503  27.198  1.00  0.00    -0.269 OA
ATOM      4  C   UNL A   1      32.932  31.480  26.884  1.00  0.00     0.251 C 
ATOM      5  H   UNL A   1      31.628  31.047  25.441  1.00  0.00     0.163 HD
BRANCH   4   6
ATOM      6  C   UNL A   1      34.224  31.201  27.559  1.00  0.00     0.039 A 
ATOM      7  C   UNL A   1      34.474  29.895  28.006  1.00  0.00     0.014 A 
ATOM      8  C   UNL A   1      35.142  32.209  27.872  1.00  0.00     0.014 A 
ATOM      9  C   UNL A   1      35.637  29.596  28.729  1.00  0.00     0.010 A 
ATOM     10  C   UNL A   1      36.328  31.901  28.551  1.00  0.00     0.010 A 
ATOM     11  C   UNL A   1      36.584  30.594  28.998  1.00  0.00    -0.014 A 
BRANCH  11  12
ATOM     12  C   UNL A   1      37.818  30.300  29.782  1.00  0.00     0.031 A 
ATOM     13  C   UNL A   1      38.898  29.425  29.198  1.00  0.00     0.074 A 
ATOM     14  C   UNL A   1      37.974  30.798  31.026  1.00  0.00     0.049 A 
ATOM     15  N   UNL A   1      39.986  28.960  29.762  1.00  0.00    -0.248 NA
ATOM     16  C   UNL A   1      38.730  29.016  27.795  1.00  0.00     0.031 C 
ATOM     17  C   UNL A   1      37.027  31.680  31.707  1.00  0.00     0.029 A 
ATOM     18  N   UNL A   1      38.987  30.630  31.938  1.00  0.00    -0.354 N 
ATOM     19  C   UNL A   1      40.625  28.202  28.790  1.00  0.00     0.074 A 
ATOM     20  C   UNL A   1      39.788  28.239  27.608  1.00  0.00     0.031 C 
ATOM     21  C   UNL A   1      37.512  31.990  32.922  1.00  0.00     0.029 A 
ATOM     22  C   UNL A   1      38.780  31.291  33.125  1.00  0.00     0.049 A 
ATOM     23  H   UNL A   1      39.788  30.086  31.759  1.00  0.00     0.167 HD
ATOM     24  C   UNL A   1      41.809  27.548  28.866  1.00  0.00     0.037 A 
ATOM     25  C   UNL A   1      39.517  31.323  34.253  1.00  0.00     0.037 A 
ATOM     26  C   UNL A   1      42.659  27.522  30.027  1.00  0.00     0.049 A 
ATOM     27  C   UNL A   1      40.800  30.536  34.329  1.00  0.00     0.074 A 
ATOM     28  C   UNL A   1      43.867  26.865  30.198  1.00  0.00     0.029 A 
ATOM     29  N   UNL A   1      42.402  28.195  31.211  1.00  0.00    -0.354 N 
ATOM     30  N   UNL A   1      41.377  29.804  33.410  1.00  0.00    -0.248 NA
ATOM     31  C   UNL A   1      41.531  30.581  35.605  1.00  0.00     0.031 C 
ATOM     32  C   UNL A   1      44.330  27.120  31.492  1.00  0.00     0.029 A 
ATOM     33  C   UNL A   1      43.430  27.970  32.113  1.00  0.00     0.049 A 
ATOM     34  H   UNL A   1      41.608  28.751  31.385  1.00  0.00     0.167 HD
ATOM     35  C   UNL A   1      42.555  29.335  33.980  1.00  0.00     0.074 A 
ATOM     36  C   UNL A   1      42.613  29.868  35.323  1.00  0.00     0.031 C 
ATOM     37  C   UNL A   1      43.500  28.534  33.435  1.00  0.00     0.037 A 
BRANCH  24  38
ATOM     38  C   UNL A   1      42.284  26.808  27.650  1.00  0.00     0.064 A 
ATOM     39  C   UNL A   1      43.181  27.396  26.748  1.00  0.00     0.173 A 
ATOM     40  C   UNL A   1      41.922  25.468  27.444  1.00  0.00     0.173 A 
ATOM     41  F   UNL A   1      43.548  28.677  26.899  1.00  0.00    -0.203 F 
ATOM     42  C   UNL A   1      43.699  26.669  25.680  1.00  0.00     0.198 A 
ATOM     43  C   UNL A   1      42.460  24.738  26.388  1.00  0.00     0.198 A 
ATOM     44  F   UNL A   1      41.074  24.859  28.286  1.00  0.00    -0.203 F 
ATOM     45  F   UNL A   1      44.543  27.255  24.819  1.00  0.00    -0.200 F 
ATOM     46  C   UNL A   1      43.347  25.338  25.508  1.00  0.00     0.200 A 
ATOM     47  F   UNL A   1      42.132  23.447  26.233  1.00  0.00    -0.200 F 
ATOM     48  F   UNL A   1      43.867  24.633  24.493  1.00  0.00    -0.200 F 
ENDBRANCH  24  38
BRANCH  25  49
ATOM     49  C   UNL A   1      39.073  32.137  35.415  1.00  0.00     0.064 A 
ATOM     50  C   UNL A   1      39.410  33.495  35.507  1.00  0.00     0.173 A 
ATOM     51  C   UNL A   1      38.334  31.574  36.465  1.00  0.00     0.173 A 
ATOM     52  F   UNL A   1      40.140  34.070  34.540  1.00  0.00    -0.203 F 
ATOM     53  C   UNL A   1      39.044  34.254  36.616  1.00  0.00     0.198 A 
ATOM     54  C   UNL A   1      37.945  32.342  37.562  1.00  0.00     0.198 A 
ATOM     55  F   UNL A   1      37.990  30.279  36.427  1.00  0.00    -0.203 F 
ATOM     56  F   UNL A   1      39.424  35.535  36.703  1.00  0.00    -0.200 F 
ATOM     57  C   UNL A   1      38.307  33.678  37.640  1.00  0.00     0.200 A 
ATOM     58  F   UNL A   1      37.225  31.784  38.545  1.00  0.00    -0.200 F 
ATOM     59  F   UNL A   1      37.958  34.407  38.708  1.00  0.00    -0.200 F 
ENDBRANCH  25  49
BRANCH  37  60
ATOM     60  C   UNL A   1      44.716  28.227  34.259  1.00  0.00     0.064 A 
ATOM     61  C   UNL A   1      45.817  29.094  34.299  1.00  0.00     0.173 A 
ATOM     62  C   UNL A   1      44.752  27.080  35.066  1.00  0.00     0.173 A 
ATOM     63  F   UNL A   1      45.836  30.198  33.537  1.00  0.00    -0.203 F 
ATOM     64  C   UNL A   1      46.919  28.813  35.104  1.00  0.00     0.198 A 
ATOM     65  C   UNL A   1      45.843  26.816  35.889  1.00  0.00     0.198 A 
ATOM     66  F   UNL A   1      43.719  26.224  35.069  1.00  0.00    -0.203 F 
ATOM     67  F   UNL A   1      47.976  29.637  35.101  1.00  0.00    -0.200 F 
ATOM     68  C   UNL A   1      46.927  27.680  35.903  1.00  0.00     0.200 A 
ATOM     69  F   UNL A   1      45.843  25.727  36.670  1.00  0.00    -0.200 F 
ATOM     70  F   UNL A   1      47.983  27.418  36.686  1.00  0.00    -0.200 F 
ENDBRANCH  37  60
ENDBRANCH  11  12
ENDBRANCH   4   6
ENDBRANCH   1   2
BRANCH   1  71
ATOM     71  C   UNL A   1      31.792  28.254  26.036  1.00  0.00     0.042 C 
BRANCH  71  72
ATOM     72  C   UNL A   1      32.452  27.057  26.734  1.00  0.00     0.118 C 
BRANCH  72  73
ATOM     73  N   UNL A   1      33.380  26.354  25.854  1.00  0.00    -0.351 N 
ATOM     74  C   UNL A   1      33.724  25.055  25.635  1.00  0.00     0.278 C 
ATOM     75  H   UNL A   1      33.882  26.973  25.274  1.00  0.00     0.163 HD
ATOM     76  O   UNL A   1      34.743  24.917  24.938  1.00  0.00    -0.268 OA
BRANCH  74  77
ATOM     77  C   UNL A   1      32.956  23.775  26.077  1.00  0.00     0.277 C 
ATOM     78  C   UNL A   1      31.399  23.952  25.921  1.00  0.00     0.109 C 
ATOM     79  N   UNL A   1      33.488  22.485  25.589  1.00  0.00    -0.327 N 
ATOM     80  C   UNL A   1      31.006  23.719  24.482  1.00  0.00    -0.024 C 
ATOM     81  C   UNL A   1      32.524  21.780  24.731  1.00  0.00     0.243 C 
ATOM     82  H   UNL A   1      33.708  21.895  26.391  1.00  0.00     0.347 HD
ATOM     83  H   UNL A   1      34.321  22.679  25.033  1.00  0.00     0.347 HD
ATOM     84  C   UNL A   1      30.650  24.703  23.666  1.00  0.00     0.002 A 
ATOM     85  C   UNL A   1      31.727  22.645  23.713  1.00  0.00     0.196 C 
ATOM     86  C   UNL A   1      29.959  25.931  23.875  1.00  0.00     0.010 A 
ATOM     87  C   UNL A   1      31.747  24.559  22.674  1.00  0.00     0.066 A 
ATOM     88  N   UNL A   1      32.447  23.450  22.678  1.00  0.00    -0.270 NA
ATOM     89  C   UNL A   1      30.257  26.986  23.105  1.00  0.00     0.001 A 
ATOM     90  C   UNL A   1      32.038  25.793  21.893  1.00  0.00     0.028 A 
ATOM     91  C   UNL A   1      31.334  26.916  22.134  1.00  0.00     0.002 A 
BRANCH  81  92
ATOM     92  C   UNL A   1      32.979  20.396  24.300  1.00  0.00     0.012 A 
ATOM     93  C   UNL A   1      34.084  19.737  24.846  1.00  0.00     0.010 A 
ATOM     94  C   UNL A   1      32.199  19.707  23.341  1.00  0.00     0.010 A 
ATOM     95  C   UNL A   1      34.369  18.416  24.475  1.00  0.00     0.001 A 
ATOM     96  C   UNL A   1      32.486  18.396  22.970  1.00  0.00     0.001 A 
ATOM     97  C   UNL A   1      33.570  17.746  23.546  1.00  0.00     0.000 A 
ENDBRANCH  81  92
ENDBRANCH  74  77
ENDBRANCH  72  73
ENDBRANCH  71  72
ENDBRANCH   1  71
TORSDOF 11
ENDMDL
