MODEL 1
REMARK VINA RESULT:     -12.2      0.000      0.000
REMARK SMILES O=C(/C=C/c1ccc(NC(=O)CCc2nc(-c3cc(Br)cs3)no2)cc1)NCCCNC(=O)c1ccc(-c2c3nc(c(-c4c(F)c(F)c(F)c(F)c4F)c4ccc([nH]4)c(-c4c(F)c(F)c(F)c(F)c4F)c4nc(c(-c5c(F)c(F)c(F)c(F)c5F)c5ccc2[nH]5)C=C4)C=C3)cc1
REMARK SMILES IDX 1 1 2 2 27 3 3 5 4 6 5 7 6 8 26 9 7 10 25 11 8 12 9 13 10 14
REMARK SMILES IDX 11 16 12 17 13 18 14 19 15 20 24 21 16 22 23 23 17 24 18 25
REMARK SMILES IDX 22 26 19 27 21 28 20 29 28 30 29 31 30 32 31 33 32 34 33 36
REMARK SMILES IDX 34 37 35 38 96 39 36 40 95 41 37 42 38 43 39 44 89 45 40 46
REMARK SMILES IDX 94 47 88 48 90 49 41 50 93 51 87 52 86 53 42 55 74 56 54 57
REMARK SMILES IDX 73 58 55 59 58 60 72 61 91 62 56 63 57 64 71 66 92 67 59 68
REMARK SMILES IDX 43 69 44 70 52 71 45 72 46 73 50 74 53 75 47 76 48 77 51 78
REMARK SMILES IDX 49 79 75 80 76 81 84 82 77 83 78 84 82 85 85 86 79 87 80 88
REMARK SMILES IDX 83 89 81 90 60 91 61 92 69 93 62 94 63 95 67 96 70 97 64 98
REMARK SMILES IDX 65 99 68 100 66 101
REMARK H PARENT 27 4 9 15 31 35 90 54 58 65
REMARK Flexibility Score: inf
ROOT
ATOM      1  O   UNL A   1      41.230  22.054  27.407  1.00  0.00    -0.270 OA
ATOM      2  C   UNL A   1      40.561  21.193  26.848  1.00  0.00     0.244 C 
ATOM      3  N   UNL A   1      40.803  19.842  26.952  1.00  0.00    -0.352 N 
ATOM      4  H   UNL A   1      40.160  19.214  26.552  1.00  0.00     0.163 HD
ENDROOT
BRANCH   2   5
ATOM      5  C   UNL A   1      39.480  21.603  25.906  1.00  0.00     0.072 C 
ATOM      6  C   UNL A   1      38.558  22.543  26.158  1.00  0.00     0.014 C 
BRANCH   6   7
ATOM      7  C   UNL A   1      37.418  22.898  25.299  1.00  0.00    -0.025 A 
ATOM      8  C   UNL A   1      36.563  23.907  25.747  1.00  0.00     0.010 A 
ATOM      9  C   UNL A   1      37.045  22.171  24.163  1.00  0.00     0.010 A 
ATOM     10  C   UNL A   1      35.321  24.121  25.144  1.00  0.00     0.027 A 
ATOM     11  C   UNL A   1      35.788  22.378  23.571  1.00  0.00     0.027 A 
ATOM     12  C   UNL A   1      34.881  23.296  24.117  1.00  0.00     0.041 A 
BRANCH  12  13
ATOM     13  N   UNL A   1      33.566  23.277  23.620  1.00  0.00    -0.326 N 
ATOM     14  C   UNL A   1      32.393  22.775  24.113  1.00  0.00     0.224 C 
ATOM     15  H   UNL A   1      33.470  23.711  22.743  1.00  0.00     0.169 HD
ATOM     16  O   UNL A   1      31.382  22.890  23.411  1.00  0.00    -0.275 OA
BRANCH  14  17
ATOM     17  C   UNL A   1      32.295  22.008  25.418  1.00  0.00     0.110 C 
BRANCH  17  18
ATOM     18  C   UNL A   1      32.064  22.833  26.687  1.00  0.00     0.110 C 
BRANCH  18  19
ATOM     19  C   UNL A   1      31.703  24.255  26.489  1.00  0.00     0.227 A 
ATOM     20  N   UNL A   1      32.458  25.297  26.216  1.00  0.00    -0.190 NA
ATOM     21  O   UNL A   1      30.379  24.563  26.595  1.00  0.00    -0.339 OA
ATOM     22  C   UNL A   1      31.549  26.332  26.279  1.00  0.00     0.212 A 
ATOM     23  N   UNL A   1      30.285  25.946  26.502  1.00  0.00    -0.056 NA
BRANCH  22  24
ATOM     24  C   UNL A   1      31.934  27.776  26.215  1.00  0.00     0.076 A 
ATOM     25  C   UNL A   1      32.804  28.369  27.110  1.00  0.00     0.039 A 
ATOM     26  S   UNL A   1      31.417  28.865  25.003  1.00  0.00    -0.139 S 
ATOM     27  C   UNL A   1      33.099  29.700  26.734  1.00  0.00     0.029 A 
ATOM     28  C   UNL A   1      32.361  30.134  25.663  1.00  0.00     0.081 A 
ATOM     29  Br  UNL A   1      34.404  30.724  27.628  1.00  0.00    -0.050 Br
ENDBRANCH  22  24
ENDBRANCH  18  19
ENDBRANCH  17  18
ENDBRANCH  14  17
ENDBRANCH  12  13
ENDBRANCH   6   7
ENDBRANCH   2   5
BRANCH   3  30
ATOM     30  C   UNL A   1      41.976  19.307  27.627  1.00  0.00     0.118 C 
BRANCH  30  31
ATOM     31  C   UNL A   1      42.820  18.392  26.750  1.00  0.00     0.042 C 
BRANCH  31  32
ATOM     32  C   UNL A   1      42.844  18.765  25.270  1.00  0.00     0.118 C 
BRANCH  32  33
ATOM     33  N   UNL A   1      44.131  18.541  24.622  1.00  0.00    -0.352 N 
ATOM     34  C   UNL A   1      45.145  19.430  24.343  1.00  0.00     0.251 C 
ATOM     35  H   UNL A   1      44.301  17.612  24.341  1.00  0.00     0.163 HD
ATOM     36  O   UNL A   1      46.122  19.058  23.695  1.00  0.00    -0.269 OA
BRANCH  34  37
ATOM     37  C   UNL A   1      45.057  20.844  24.777  1.00  0.00     0.039 A 
ATOM     38  C   UNL A   1      45.260  21.151  26.127  1.00  0.00     0.014 A 
ATOM     39  C   UNL A   1      44.784  21.870  23.869  1.00  0.00     0.014 A 
ATOM     40  C   UNL A   1      45.285  22.485  26.544  1.00  0.00     0.010 A 
ATOM     41  C   UNL A   1      44.890  23.202  24.270  1.00  0.00     0.010 A 
ATOM     42  C   UNL A   1      45.152  23.526  25.610  1.00  0.00    -0.014 A 
BRANCH  42  43
ATOM     43  C   UNL A   1      45.304  24.952  26.011  1.00  0.00     0.031 A 
ATOM     44  C   UNL A   1      46.649  25.624  25.952  1.00  0.00     0.074 A 
ATOM     45  C   UNL A   1      44.243  25.625  26.500  1.00  0.00     0.049 A 
ATOM     46  N   UNL A   1      46.990  26.831  26.330  1.00  0.00    -0.248 NA
ATOM     47  C   UNL A   1      47.763  24.826  25.421  1.00  0.00     0.031 C 
ATOM     48  C   UNL A   1      42.893  25.080  26.657  1.00  0.00     0.029 A 
ATOM     49  N   UNL A   1      44.133  26.913  26.968  1.00  0.00    -0.354 N 
ATOM     50  C   UNL A   1      48.356  26.931  26.093  1.00  0.00     0.074 A 
ATOM     51  C   UNL A   1      48.790  25.644  25.592  1.00  0.00     0.031 C 
ATOM     52  C   UNL A   1      42.089  26.029  27.160  1.00  0.00     0.029 A 
ATOM     53  C   UNL A   1      42.871  27.237  27.405  1.00  0.00     0.049 A 
ATOM     54  H   UNL A   1      44.889  27.545  26.988  1.00  0.00     0.167 HD
ATOM     55  C   UNL A   1      49.168  28.003  26.255  1.00  0.00     0.037 A 
ATOM     56  C   UNL A   1      42.399  28.374  27.951  1.00  0.00     0.037 A 
ATOM     57  C   UNL A   1      48.732  29.289  26.735  1.00  0.00     0.049 A 
ATOM     58  C   UNL A   1      43.328  29.542  28.143  1.00  0.00     0.074 A 
ATOM     59  C   UNL A   1      49.468  30.452  26.876  1.00  0.00     0.029 A 
ATOM     60  N   UNL A   1      47.443  29.579  27.161  1.00  0.00    -0.354 N 
ATOM     61  N   UNL A   1      44.600  29.647  27.846  1.00  0.00    -0.248 NA
ATOM     62  C   UNL A   1      42.752  30.755  28.742  1.00  0.00     0.031 C 
ATOM     63  C   UNL A   1      48.641  31.430  27.439  1.00  0.00     0.029 A 
ATOM     64  C   UNL A   1      47.373  30.895  27.593  1.00  0.00     0.049 A 
ATOM     65  H   UNL A   1      46.690  28.945  27.157  1.00  0.00     0.167 HD
ATOM     66  C   UNL A   1      44.970  30.939  28.193  1.00  0.00     0.074 A 
ATOM     67  C   UNL A   1      43.782  31.589  28.707  1.00  0.00     0.031 C 
ATOM     68  C   UNL A   1      46.184  31.534  28.098  1.00  0.00     0.037 A 
BRANCH  55  69
ATOM     69  C   UNL A   1      50.620  27.833  25.908  1.00  0.00     0.064 A 
ATOM     70  C   UNL A   1      51.085  27.966  24.591  1.00  0.00     0.173 A 
ATOM     71  C   UNL A   1      51.566  27.574  26.912  1.00  0.00     0.173 A 
ATOM     72  F   UNL A   1      50.221  28.204  23.591  1.00  0.00    -0.203 F 
ATOM     73  C   UNL A   1      52.435  27.814  24.287  1.00  0.00     0.198 A 
ATOM     74  C   UNL A   1      52.920  27.457  26.609  1.00  0.00     0.198 A 
ATOM     75  F   UNL A   1      51.180  27.446  28.190  1.00  0.00    -0.203 F 
ATOM     76  F   UNL A   1      52.846  27.891  23.013  1.00  0.00    -0.200 F 
ATOM     77  C   UNL A   1      53.353  27.568  25.296  1.00  0.00     0.200 A 
ATOM     78  F   UNL A   1      53.808  27.234  27.588  1.00  0.00    -0.200 F 
ATOM     79  F   UNL A   1      54.653  27.429  25.003  1.00  0.00    -0.200 F 
ENDBRANCH  55  69
BRANCH  56  80
ATOM     80  C   UNL A   1      40.968  28.471  28.348  1.00  0.00     0.064 A 
ATOM     81  C   UNL A   1      40.002  28.946  27.449  1.00  0.00     0.173 A 
ATOM     82  C   UNL A   1      40.539  28.109  29.632  1.00  0.00     0.173 A 
ATOM     83  F   UNL A   1      40.366  29.328  26.216  1.00  0.00    -0.203 F 
ATOM     84  C   UNL A   1      38.667  29.078  27.828  1.00  0.00     0.198 A 
ATOM     85  C   UNL A   1      39.198  28.210  30.000  1.00  0.00     0.198 A 
ATOM     86  F   UNL A   1      41.421  27.646  30.531  1.00  0.00    -0.203 F 
ATOM     87  F   UNL A   1      37.777  29.586  26.966  1.00  0.00    -0.200 F 
ATOM     88  C   UNL A   1      38.265  28.705  29.100  1.00  0.00     0.200 A 
ATOM     89  F   UNL A   1      38.811  27.834  31.227  1.00  0.00    -0.200 F 
ATOM     90  F   UNL A   1      36.981  28.829  29.464  1.00  0.00    -0.200 F 
ENDBRANCH  56  80
BRANCH  68  91
ATOM     91  C   UNL A   1      46.286  32.972  28.524  1.00  0.00     0.064 A 
ATOM     92  C   UNL A   1      46.634  33.331  29.834  1.00  0.00     0.173 A 
ATOM     93  C   UNL A   1      46.069  34.004  27.598  1.00  0.00     0.173 A 
ATOM     94  F   UNL A   1      46.838  32.384  30.763  1.00  0.00    -0.203 F 
ATOM     95  C   UNL A   1      46.732  34.669  30.209  1.00  0.00     0.198 A 
ATOM     96  C   UNL A   1      46.201  35.340  27.966  1.00  0.00     0.198 A 
ATOM     97  F   UNL A   1      45.741  33.717  26.329  1.00  0.00    -0.203 F 
ATOM     98  F   UNL A   1      47.015  34.988  31.479  1.00  0.00    -0.200 F 
ATOM     99  C   UNL A   1      46.524  35.671  29.273  1.00  0.00     0.200 A 
ATOM    100  F   UNL A   1      46.016  36.306  27.057  1.00  0.00    -0.200 F 
ATOM    101  F   UNL A   1      46.628  36.958  29.634  1.00  0.00    -0.200 F 
ENDBRANCH  68  91
ENDBRANCH  42  43
ENDBRANCH  34  37
ENDBRANCH  32  33
ENDBRANCH  31  32
ENDBRANCH  30  31
ENDBRANCH   3  30
TORSDOF 16
ENDMDL
MODEL 2
REMARK VINA RESULT:     -11.9      3.658      9.254
REMARK SMILES O=C(/C=C/c1ccc(NC(=O)CCc2nc(-c3cc(Br)cs3)no2)cc1)NCCCNC(=O)c1ccc(-c2c3nc(c(-c4c(F)c(F)c(F)c(F)c4F)c4ccc([nH]4)c(-c4c(F)c(F)c(F)c(F)c4F)c4nc(c(-c5c(F)c(F)c(F)c(F)c5F)c5ccc2[nH]5)C=C4)C=C3)cc1
REMARK SMILES IDX 1 1 2 2 27 3 3 5 4 6 5 7 6 8 26 9 7 10 25 11 8 12 9 13 10 14
REMARK SMILES IDX 11 16 12 17 13 18 14 19 15 20 24 21 16 22 23 23 17 24 18 25
REMARK SMILES IDX 22 26 19 27 21 28 20 29 28 30 29 31 30 32 31 33 32 34 33 36
REMARK SMILES IDX 34 37 35 38 96 39 36 40 95 41 37 42 38 43 39 44 89 45 40 46
REMARK SMILES IDX 94 47 88 48 90 49 41 50 93 51 87 52 86 53 42 55 74 56 54 57
REMARK SMILES IDX 73 58 55 59 58 60 72 61 91 62 56 63 57 64 71 66 92 67 59 68
REMARK SMILES IDX 43 69 44 70 52 71 45 72 46 73 50 74 53 75 47 76 48 77 51 78
REMARK SMILES IDX 49 79 75 80 76 81 84 82 77 83 78 84 82 85 85 86 79 87 80 88
REMARK SMILES IDX 83 89 81 90 60 91 61 92 69 93 62 94 63 95 67 96 70 97 64 98
REMARK SMILES IDX 65 99 68 100 66 101
REMARK H PARENT 27 4 9 15 31 35 90 54 58 65
REMARK Flexibility Score: inf
ROOT
ATOM      1  O   UNL A   1      36.224  31.592  28.001  1.00  0.00    -0.270 OA
ATOM      2  C   UNL A   1      35.008  31.718  27.918  1.00  0.00     0.244 C 
ATOM      3  N   UNL A   1      34.303  32.767  28.462  1.00  0.00    -0.352 N 
ATOM      4  H   UNL A   1      33.342  32.845  28.265  1.00  0.00     0.163 HD
ENDROOT
BRANCH   2   5
ATOM      5  C   UNL A   1      34.201  30.631  27.290  1.00  0.00     0.072 C 
ATOM      6  C   UNL A   1      32.903  30.726  26.969  1.00  0.00     0.014 C 
BRANCH   6   7
ATOM      7  C   UNL A   1      32.052  29.644  26.449  1.00  0.00    -0.025 A 
ATOM      8  C   UNL A   1      32.013  28.451  27.173  1.00  0.00     0.010 A 
ATOM      9  C   UNL A   1      31.432  29.678  25.196  1.00  0.00     0.010 A 
ATOM     10  C   UNL A   1      31.460  27.292  26.624  1.00  0.00     0.027 A 
ATOM     11  C   UNL A   1      30.893  28.506  24.640  1.00  0.00     0.027 A 
ATOM     12  C   UNL A   1      30.986  27.284  25.318  1.00  0.00     0.041 A 
BRANCH  12  13
ATOM     13  N   UNL A   1      30.644  26.121  24.604  1.00  0.00    -0.326 N 
ATOM     14  C   UNL A   1      30.835  25.738  23.306  1.00  0.00     0.224 C 
ATOM     15  H   UNL A   1      30.172  25.450  25.147  1.00  0.00     0.169 HD
ATOM     16  O   UNL A   1      30.381  24.641  22.960  1.00  0.00    -0.275 OA
BRANCH  14  17
ATOM     17  C   UNL A   1      31.483  26.625  22.258  1.00  0.00     0.110 C 
BRANCH  17  18
ATOM     18  C   UNL A   1      33.013  26.675  22.249  1.00  0.00     0.110 C 
BRANCH  18  19
ATOM     19  C   UNL A   1      33.708  25.673  23.088  1.00  0.00     0.227 A 
ATOM     20  N   UNL A   1      34.040  24.426  22.830  1.00  0.00    -0.190 NA
ATOM     21  O   UNL A   1      34.083  26.082  24.333  1.00  0.00    -0.339 OA
ATOM     22  C   UNL A   1      34.544  24.008  24.042  1.00  0.00     0.212 A 
ATOM     23  N   UNL A   1      34.594  24.964  24.981  1.00  0.00    -0.056 NA
BRANCH  22  24
ATOM     24  C   UNL A   1      34.908  22.588  24.342  1.00  0.00     0.076 A 
ATOM     25  C   UNL A   1      36.199  22.103  24.259  1.00  0.00     0.039 A 
ATOM     26  S   UNL A   1      33.808  21.400  24.888  1.00  0.00    -0.139 S 
ATOM     27  C   UNL A   1      36.279  20.771  24.730  1.00  0.00     0.029 A 
ATOM     28  C   UNL A   1      35.055  20.231  25.027  1.00  0.00     0.081 A 
ATOM     29  Br  UNL A   1      37.927  19.883  24.939  1.00  0.00    -0.050 Br
ENDBRANCH  22  24
ENDBRANCH  18  19
ENDBRANCH  17  18
ENDBRANCH  14  17
ENDBRANCH  12  13
ENDBRANCH   6   7
ENDBRANCH   2   5
BRANCH   3  30
ATOM     30  C   UNL A   1      34.924  33.765  29.319  1.00  0.00     0.118 C 
BRANCH  30  31
ATOM     31  C   UNL A   1      34.418  33.736  30.756  1.00  0.00     0.042 C 
BRANCH  31  32
ATOM     32  C   UNL A   1      34.730  32.451  31.519  1.00  0.00     0.118 C 
BRANCH  32  33
ATOM     33  N   UNL A   1      35.256  32.672  32.862  1.00  0.00    -0.352 N 
ATOM     34  C   UNL A   1      36.477  32.329  33.398  1.00  0.00     0.251 C 
ATOM     35  H   UNL A   1      34.645  33.137  33.477  1.00  0.00     0.163 HD
ATOM     36  O   UNL A   1      36.692  32.519  34.594  1.00  0.00    -0.269 OA
BRANCH  34  37
ATOM     37  C   UNL A   1      37.522  31.692  32.563  1.00  0.00     0.039 A 
ATOM     38  C   UNL A   1      37.616  32.043  31.212  1.00  0.00     0.014 A 
ATOM     39  C   UNL A   1      38.414  30.760  33.098  1.00  0.00     0.014 A 
ATOM     40  C   UNL A   1      38.656  31.536  30.429  1.00  0.00     0.010 A 
ATOM     41  C   UNL A   1      39.499  30.318  32.339  1.00  0.00     0.010 A 
ATOM     42  C   UNL A   1      39.639  30.709  30.998  1.00  0.00    -0.014 A 
BRANCH  42  43
ATOM     43  C   UNL A   1      40.825  30.263  30.216  1.00  0.00     0.031 A 
ATOM     44  C   UNL A   1      41.933  31.227  29.891  1.00  0.00     0.074 A 
ATOM     45  C   UNL A   1      40.873  29.004  29.735  1.00  0.00     0.049 A 
ATOM     46  N   UNL A   1      43.005  31.042  29.160  1.00  0.00    -0.248 NA
ATOM     47  C   UNL A   1      41.808  32.586  30.438  1.00  0.00     0.031 C 
ATOM     48  C   UNL A   1      39.844  27.982  29.935  1.00  0.00     0.029 A 
ATOM     49  N   UNL A   1      41.821  28.371  28.967  1.00  0.00    -0.354 N 
ATOM     50  C   UNL A   1      43.672  32.261  29.151  1.00  0.00     0.074 A 
ATOM     51  C   UNL A   1      42.857  33.192  29.902  1.00  0.00     0.031 C 
ATOM     52  C   UNL A   1      40.226  26.847  29.328  1.00  0.00     0.029 A 
ATOM     53  C   UNL A   1      41.503  27.070  28.657  1.00  0.00     0.049 A 
ATOM     54  H   UNL A   1      42.650  28.809  28.666  1.00  0.00     0.167 HD
ATOM     55  C   UNL A   1      44.866  32.569  28.591  1.00  0.00     0.037 A 
ATOM     56  C   UNL A   1      42.159  26.163  27.908  1.00  0.00     0.037 A 
ATOM     57  C   UNL A   1      45.687  31.638  27.860  1.00  0.00     0.049 A 
ATOM     58  C   UNL A   1      43.472  26.539  27.276  1.00  0.00     0.074 A 
ATOM     59  C   UNL A   1      46.939  31.842  27.307  1.00  0.00     0.029 A 
ATOM     60  N   UNL A   1      45.333  30.327  27.574  1.00  0.00    -0.354 N 
ATOM     61  N   UNL A   1      44.127  27.673  27.337  1.00  0.00    -0.248 NA
ATOM     62  C   UNL A   1      44.141  25.505  26.473  1.00  0.00     0.031 C 
ATOM     63  C   UNL A   1      47.318  30.673  26.638  1.00  0.00     0.029 A 
ATOM     64  C   UNL A   1      46.331  29.720  26.826  1.00  0.00     0.049 A 
ATOM     65  H   UNL A   1      44.498  29.892  27.860  1.00  0.00     0.167 HD
ATOM     66  C   UNL A   1      45.294  27.481  26.609  1.00  0.00     0.074 A 
ATOM     67  C   UNL A   1      45.266  26.115  26.129  1.00  0.00     0.031 C 
ATOM     68  C   UNL A   1      46.296  28.358  26.358  1.00  0.00     0.037 A 
BRANCH  55  69
ATOM     69  C   UNL A   1      45.363  33.980  28.744  1.00  0.00     0.064 A 
ATOM     70  C   UNL A   1      45.044  34.980  27.813  1.00  0.00     0.173 A 
ATOM     71  C   UNL A   1      46.133  34.346  29.859  1.00  0.00     0.173 A 
ATOM     72  F   UNL A   1      44.319  34.681  26.723  1.00  0.00    -0.203 F 
ATOM     73  C   UNL A   1      45.504  36.284  27.973  1.00  0.00     0.198 A 
ATOM     74  C   UNL A   1      46.563  35.659  30.034  1.00  0.00     0.198 A 
ATOM     75  F   UNL A   1      46.460  33.434  30.786  1.00  0.00    -0.203 F 
ATOM     76  F   UNL A   1      45.233  37.208  27.041  1.00  0.00    -0.200 F 
ATOM     77  C   UNL A   1      46.256  36.625  29.087  1.00  0.00     0.200 A 
ATOM     78  F   UNL A   1      47.276  35.990  31.119  1.00  0.00    -0.200 F 
ATOM     79  F   UNL A   1      46.693  37.882  29.244  1.00  0.00    -0.200 F 
ENDBRANCH  55  69
BRANCH  56  80
ATOM     80  C   UNL A   1      41.592  24.800  27.723  1.00  0.00     0.064 A 
ATOM     81  C   UNL A   1      42.172  23.688  28.350  1.00  0.00     0.173 A 
ATOM     82  C   UNL A   1      40.474  24.578  26.906  1.00  0.00     0.173 A 
ATOM     83  F   UNL A   1      43.257  23.845  29.122  1.00  0.00    -0.203 F 
ATOM     84  C   UNL A   1      41.669  22.403  28.147  1.00  0.00     0.198 A 
ATOM     85  C   UNL A   1      39.953  23.297  26.731  1.00  0.00     0.198 A 
ATOM     86  F   UNL A   1      39.880  25.608  26.285  1.00  0.00    -0.203 F 
ATOM     87  F   UNL A   1      42.276  21.353  28.716  1.00  0.00    -0.200 F 
ATOM     88  C   UNL A   1      40.557  22.210  27.343  1.00  0.00     0.200 A 
ATOM     89  F   UNL A   1      38.868  23.117  25.964  1.00  0.00    -0.200 F 
ATOM     90  F   UNL A   1      40.073  20.975  27.151  1.00  0.00    -0.200 F 
ENDBRANCH  56  80
BRANCH  68  91
ATOM     91  C   UNL A   1      47.467  27.860  25.557  1.00  0.00     0.064 A 
ATOM     92  C   UNL A   1      47.435  27.808  24.156  1.00  0.00     0.173 A 
ATOM     93  C   UNL A   1      48.650  27.465  26.200  1.00  0.00     0.173 A 
ATOM     94  F   UNL A   1      46.323  28.161  23.492  1.00  0.00    -0.203 F 
ATOM     95  C   UNL A   1      48.532  27.352  23.430  1.00  0.00     0.198 A 
ATOM     96  C   UNL A   1      49.758  27.042  25.470  1.00  0.00     0.198 A 
ATOM     97  F   UNL A   1      48.738  27.502  27.538  1.00  0.00    -0.203 F 
ATOM     98  F   UNL A   1      48.459  27.262  22.095  1.00  0.00    -0.200 F 
ATOM     99  C   UNL A   1      49.695  26.978  24.087  1.00  0.00     0.200 A 
ATOM    100  F   UNL A   1      50.885  26.696  26.106  1.00  0.00    -0.200 F 
ATOM    101  F   UNL A   1      50.753  26.548  23.385  1.00  0.00    -0.200 F 
ENDBRANCH  68  91
ENDBRANCH  42  43
ENDBRANCH  34  37
ENDBRANCH  32  33
ENDBRANCH  31  32
ENDBRANCH  30  31
ENDBRANCH   3  30
TORSDOF 16
ENDMDL
MODEL 3
REMARK VINA RESULT:     -11.9      2.090      3.290
REMARK SMILES O=C(/C=C/c1ccc(NC(=O)CCc2nc(-c3cc(Br)cs3)no2)cc1)NCCCNC(=O)c1ccc(-c2c3nc(c(-c4c(F)c(F)c(F)c(F)c4F)c4ccc([nH]4)c(-c4c(F)c(F)c(F)c(F)c4F)c4nc(c(-c5c(F)c(F)c(F)c(F)c5F)c5ccc2[nH]5)C=C4)C=C3)cc1
REMARK SMILES IDX 1 1 2 2 27 3 3 5 4 6 5 7 6 8 26 9 7 10 25 11 8 12 9 13 10 14
REMARK SMILES IDX 11 16 12 17 13 18 14 19 15 20 24 21 16 22 23 23 17 24 18 25
REMARK SMILES IDX 22 26 19 27 21 28 20 29 28 30 29 31 30 32 31 33 32 34 33 36
REMARK SMILES IDX 34 37 35 38 96 39 36 40 95 41 37 42 38 43 39 44 89 45 40 46
REMARK SMILES IDX 94 47 88 48 90 49 41 50 93 51 87 52 86 53 42 55 74 56 54 57
REMARK SMILES IDX 73 58 55 59 58 60 72 61 91 62 56 63 57 64 71 66 92 67 59 68
REMARK SMILES IDX 43 69 44 70 52 71 45 72 46 73 50 74 53 75 47 76 48 77 51 78
REMARK SMILES IDX 49 79 75 80 76 81 84 82 77 83 78 84 82 85 85 86 79 87 80 88
REMARK SMILES IDX 83 89 81 90 60 91 61 92 69 93 62 94 63 95 67 96 70 97 64 98
REMARK SMILES IDX 65 99 68 100 66 101
REMARK H PARENT 27 4 9 15 31 35 90 54 58 65
REMARK Flexibility Score: inf
ROOT
ATOM      1  O   UNL A   1      37.680  20.502  25.340  1.00  0.00    -0.270 OA
ATOM      2  C   UNL A   1      38.167  21.626  25.370  1.00  0.00     0.244 C 
ATOM      3  N   UNL A   1      39.407  21.914  25.893  1.00  0.00    -0.352 N 
ATOM      4  H   UNL A   1      39.765  22.825  25.788  1.00  0.00     0.163 HD
ENDROOT
BRANCH   2   5
ATOM      5  C   UNL A   1      37.349  22.790  24.922  1.00  0.00     0.072 C 
ATOM      6  C   UNL A   1      36.015  22.879  25.029  1.00  0.00     0.014 C 
BRANCH   6   7
ATOM      7  C   UNL A   1      35.169  23.961  24.504  1.00  0.00    -0.025 A 
ATOM      8  C   UNL A   1      34.890  25.032  25.356  1.00  0.00     0.010 A 
ATOM      9  C   UNL A   1      34.492  23.895  23.282  1.00  0.00     0.010 A 
ATOM     10  C   UNL A   1      33.890  25.957  25.048  1.00  0.00     0.027 A 
ATOM     11  C   UNL A   1      33.476  24.817  22.984  1.00  0.00     0.027 A 
ATOM     12  C   UNL A   1      33.108  25.802  23.911  1.00  0.00     0.041 A 
BRANCH  12  13
ATOM     13  N   UNL A   1      31.934  26.530  23.647  1.00  0.00    -0.326 N 
ATOM     14  C   UNL A   1      30.884  26.917  24.433  1.00  0.00     0.224 C 
ATOM     15  H   UNL A   1      31.851  26.818  22.710  1.00  0.00     0.169 HD
ATOM     16  O   UNL A   1      29.962  27.538  23.891  1.00  0.00    -0.275 OA
BRANCH  14  17
ATOM     17  C   UNL A   1      30.752  26.542  25.897  1.00  0.00     0.110 C 
BRANCH  17  18
ATOM     18  C   UNL A   1      30.104  25.190  26.207  1.00  0.00     0.110 C 
BRANCH  18  19
ATOM     19  C   UNL A   1      30.976  24.001  26.087  1.00  0.00     0.227 A 
ATOM     20  N   UNL A   1      31.122  23.145  25.097  1.00  0.00    -0.190 NA
ATOM     21  O   UNL A   1      31.773  23.724  27.158  1.00  0.00    -0.339 OA
ATOM     22  C   UNL A   1      31.978  22.215  25.648  1.00  0.00     0.212 A 
ATOM     23  N   UNL A   1      32.402  22.516  26.884  1.00  0.00    -0.056 NA
BRANCH  22  24
ATOM     24  C   UNL A   1      32.331  20.922  24.985  1.00  0.00     0.076 A 
ATOM     25  C   UNL A   1      32.654  19.775  25.685  1.00  0.00     0.039 A 
ATOM     26  S   UNL A   1      32.317  20.662  23.296  1.00  0.00    -0.139 S 
ATOM     27  C   UNL A   1      32.806  18.669  24.817  1.00  0.00     0.029 A 
ATOM     28  C   UNL A   1      32.734  19.010  23.491  1.00  0.00     0.081 A 
ATOM     29  Br  UNL A   1      33.051  16.917  25.464  1.00  0.00    -0.050 Br
ENDBRANCH  22  24
ENDBRANCH  18  19
ENDBRANCH  17  18
ENDBRANCH  14  17
ENDBRANCH  12  13
ENDBRANCH   6   7
ENDBRANCH   2   5
BRANCH   3  30
ATOM     30  C   UNL A   1      40.209  20.924  26.595  1.00  0.00     0.118 C 
BRANCH  30  31
ATOM     31  C   UNL A   1      40.991  20.003  25.667  1.00  0.00     0.042 C 
BRANCH  31  32
ATOM     32  C   UNL A   1      42.321  19.508  26.227  1.00  0.00     0.118 C 
BRANCH  32  33
ATOM     33  N   UNL A   1      43.238  18.997  25.213  1.00  0.00    -0.352 N 
ATOM     34  C   UNL A   1      44.273  19.630  24.561  1.00  0.00     0.251 C 
ATOM     35  H   UNL A   1      43.095  18.058  24.956  1.00  0.00     0.163 HD
ATOM     36  O   UNL A   1      44.871  19.047  23.658  1.00  0.00    -0.269 OA
BRANCH  34  37
ATOM     37  C   UNL A   1      44.650  21.022  24.902  1.00  0.00     0.039 A 
ATOM     38  C   UNL A   1      44.256  22.057  24.048  1.00  0.00     0.014 A 
ATOM     39  C   UNL A   1      45.378  21.318  26.056  1.00  0.00     0.014 A 
ATOM     40  C   UNL A   1      44.509  23.387  24.399  1.00  0.00     0.010 A 
ATOM     41  C   UNL A   1      45.557  22.645  26.446  1.00  0.00     0.010 A 
ATOM     42  C   UNL A   1      45.116  23.696  25.628  1.00  0.00    -0.014 A 
BRANCH  42  43
ATOM     43  C   UNL A   1      45.276  25.105  26.080  1.00  0.00     0.031 A 
ATOM     44  C   UNL A   1      46.623  25.774  26.036  1.00  0.00     0.074 A 
ATOM     45  C   UNL A   1      44.221  25.765  26.599  1.00  0.00     0.049 A 
ATOM     46  N   UNL A   1      46.972  26.966  26.456  1.00  0.00    -0.248 NA
ATOM     47  C   UNL A   1      47.731  24.991  25.470  1.00  0.00     0.031 C 
ATOM     48  C   UNL A   1      42.870  25.219  26.744  1.00  0.00     0.029 A 
ATOM     49  N   UNL A   1      44.119  27.036  27.113  1.00  0.00    -0.354 N 
ATOM     50  C   UNL A   1      48.336  27.069  26.215  1.00  0.00     0.074 A 
ATOM     51  C   UNL A   1      48.763  25.799  25.665  1.00  0.00     0.031 C 
ATOM     52  C   UNL A   1      42.073  26.153  27.286  1.00  0.00     0.029 A 
ATOM     53  C   UNL A   1      42.861  27.349  27.570  1.00  0.00     0.049 A 
ATOM     54  H   UNL A   1      44.877  27.663  27.152  1.00  0.00     0.167 HD
ATOM     55  C   UNL A   1      49.154  28.131  26.410  1.00  0.00     0.037 A 
ATOM     56  C   UNL A   1      42.397  28.466  28.160  1.00  0.00     0.037 A 
ATOM     57  C   UNL A   1      48.726  29.400  26.939  1.00  0.00     0.049 A 
ATOM     58  C   UNL A   1      43.332  29.623  28.388  1.00  0.00     0.074 A 
ATOM     59  C   UNL A   1      49.468  30.554  27.118  1.00  0.00     0.029 A 
ATOM     60  N   UNL A   1      47.441  29.680  27.383  1.00  0.00    -0.354 N 
ATOM     61  N   UNL A   1      44.603  29.734  28.088  1.00  0.00    -0.248 NA
ATOM     62  C   UNL A   1      42.765  30.816  29.034  1.00  0.00     0.031 C 
ATOM     63  C   UNL A   1      48.649  31.514  27.721  1.00  0.00     0.029 A 
ATOM     64  C   UNL A   1      47.380  30.980  27.863  1.00  0.00     0.049 A 
ATOM     65  H   UNL A   1      46.686  29.049  27.361  1.00  0.00     0.167 HD
ATOM     66  C   UNL A   1      44.980  31.011  28.479  1.00  0.00     0.074 A 
ATOM     67  C   UNL A   1      43.797  31.646  29.023  1.00  0.00     0.031 C 
ATOM     68  C   UNL A   1      46.196  31.604  28.398  1.00  0.00     0.037 A 
BRANCH  55  69
ATOM     69  C   UNL A   1      50.604  27.968  26.049  1.00  0.00     0.064 A 
ATOM     70  C   UNL A   1      51.053  28.097  24.726  1.00  0.00     0.173 A 
ATOM     71  C   UNL A   1      51.562  27.720  27.044  1.00  0.00     0.173 A 
ATOM     72  F   UNL A   1      50.177  28.324  23.734  1.00  0.00    -0.203 F 
ATOM     73  C   UNL A   1      52.401  27.952  24.408  1.00  0.00     0.198 A 
ATOM     74  C   UNL A   1      52.913  27.609  26.727  1.00  0.00     0.198 A 
ATOM     75  F   UNL A   1      51.191  27.596  28.327  1.00  0.00    -0.203 F 
ATOM     76  F   UNL A   1      52.798  28.024  23.130  1.00  0.00    -0.200 F 
ATOM     77  C   UNL A   1      53.331  27.716  25.409  1.00  0.00     0.200 A 
ATOM     78  F   UNL A   1      53.813  27.397  27.698  1.00  0.00    -0.200 F 
ATOM     79  F   UNL A   1      54.629  27.583  25.103  1.00  0.00    -0.200 F 
ENDBRANCH  55  69
BRANCH  56  80
ATOM     80  C   UNL A   1      40.969  28.555  28.568  1.00  0.00     0.064 A 
ATOM     81  C   UNL A   1      39.991  29.013  27.673  1.00  0.00     0.173 A 
ATOM     82  C   UNL A   1      40.554  28.202  29.860  1.00  0.00     0.173 A 
ATOM     83  F   UNL A   1      40.340  29.386  26.434  1.00  0.00    -0.203 F 
ATOM     84  C   UNL A   1      38.658  29.137  28.064  1.00  0.00     0.198 A 
ATOM     85  C   UNL A   1      39.216  28.294  30.239  1.00  0.00     0.198 A 
ATOM     86  F   UNL A   1      41.449  27.755  30.755  1.00  0.00    -0.203 F 
ATOM     87  F   UNL A   1      37.755  29.628  27.205  1.00  0.00    -0.200 F 
ATOM     88  C   UNL A   1      38.271  28.772  29.343  1.00  0.00     0.200 A 
ATOM     89  F   UNL A   1      38.844  27.926  31.473  1.00  0.00    -0.200 F 
ATOM     90  F   UNL A   1      36.989  28.888  29.717  1.00  0.00    -0.200 F 
ENDBRANCH  56  80
BRANCH  68  91
ATOM     91  C   UNL A   1      46.307  33.025  28.875  1.00  0.00     0.064 A 
ATOM     92  C   UNL A   1      46.075  34.112  28.019  1.00  0.00     0.173 A 
ATOM     93  C   UNL A   1      46.613  33.302  30.216  1.00  0.00     0.173 A 
ATOM     94  F   UNL A   1      45.794  33.904  26.724  1.00  0.00    -0.203 F 
ATOM     95  C   UNL A   1      46.175  35.422  28.482  1.00  0.00     0.198 A 
ATOM     96  C   UNL A   1      46.678  34.611  30.684  1.00  0.00     0.198 A 
ATOM     97  F   UNL A   1      46.836  32.299  31.080  1.00  0.00    -0.203 F 
ATOM     98  F   UNL A   1      46.001  36.445  27.633  1.00  0.00    -0.200 F 
ATOM     99  C   UNL A   1      46.468  35.670  29.814  1.00  0.00     0.200 A 
ATOM    100  F   UNL A   1      46.945  34.848  31.975  1.00  0.00    -0.200 F 
ATOM    101  F   UNL A   1      46.554  36.932  30.259  1.00  0.00    -0.200 F 
ENDBRANCH  68  91
ENDBRANCH  42  43
ENDBRANCH  34  37
ENDBRANCH  32  33
ENDBRANCH  31  32
ENDBRANCH  30  31
ENDBRANCH   3  30
TORSDOF 16
ENDMDL
