MODEL 1
REMARK VINA RESULT:     -11.4      0.000      0.000
REMARK SMILES C[C@@H](O)C[C@H](C(=O)NCCCNC(=O)c1ccc(-c2c3nc(c(-c4c(F)c(F)c(F)c(F)c4F)c4ccc([nH]4)c(-c4c(F)c(F)c(F)c(F)c4F)c4nc(c(-c5c(F)c(F)c(F)c(F)c5F)c5ccc2[nH]5)C=C4)C=C3)cc1)c1ccc(Br)cc1
REMARK SMILES IDX 9 1 8 2 6 3 7 4 5 6 4 7 2 8 1 9 3 10 78 12 79 13 84 14 80 15
REMARK SMILES IDX 83 16 81 17 82 18 10 19 11 20 12 21 13 22 14 24 15 25 16 26
REMARK SMILES IDX 77 27 17 28 76 29 18 30 19 31 20 32 70 33 21 34 75 35 69 36
REMARK SMILES IDX 71 37 22 38 74 39 68 40 67 41 23 43 55 44 35 45 54 46 36 47
REMARK SMILES IDX 39 48 53 49 72 50 37 51 38 52 52 54 73 55 40 56 24 57 25 58
REMARK SMILES IDX 33 59 26 60 27 61 31 62 34 63 28 64 29 65 32 66 30 67 56 68
REMARK SMILES IDX 57 69 65 70 58 71 59 72 63 73 66 74 60 75 61 76 64 77 62 78
REMARK SMILES IDX 41 79 42 80 50 81 43 82 44 83 48 84 51 85 45 86 46 87 49 88
REMARK SMILES IDX 47 89
REMARK H PARENT 8 5 3 11 12 23 71 42 39 53
REMARK Flexibility Score: inf
ROOT
ATOM      1  C   UNL A   1      31.154  30.574  26.080  1.00  0.00     0.117 C 
ENDROOT
BRANCH   1   2
ATOM      2  N   UNL A   1      31.986  30.098  24.992  1.00  0.00    -0.356 N 
ATOM      3  C   UNL A   1      31.806  29.095  24.084  1.00  0.00     0.227 C 
ATOM      4  O   UNL A   1      32.736  28.934  23.289  1.00  0.00    -0.274 OA
ATOM      5  H   UNL A   1      32.834  30.586  24.890  1.00  0.00     0.163 HD
BRANCH   3   6
ATOM      6  C   UNL A   1      30.501  28.255  24.019  1.00  0.00     0.111 C 
BRANCH   6   7
ATOM      7  C   UNL A   1      29.881  28.356  22.592  1.00  0.00     0.049 C 
BRANCH   7   8
ATOM      8  C   UNL A   1      29.469  29.723  22.031  1.00  0.00     0.112 C 
ATOM      9  C   UNL A   1      28.919  30.706  23.051  1.00  0.00     0.038 C 
BRANCH   8  10
ATOM     10  O   UNL A   1      30.645  30.310  21.459  1.00  0.00    -0.393 OA
ATOM     11  H   UNL A   1      31.137  30.784  22.147  1.00  0.00     0.210 HD
ENDBRANCH   8  10
ENDBRANCH   7   8
ENDBRANCH   6   7
BRANCH   6  12
ATOM     12  C   UNL A   1      30.703  26.826  24.499  1.00  0.00    -0.035 A 
ATOM     13  C   UNL A   1      30.563  25.761  23.588  1.00  0.00     0.006 A 
ATOM     14  C   UNL A   1      31.023  26.535  25.833  1.00  0.00     0.006 A 
ATOM     15  C   UNL A   1      30.713  24.439  24.003  1.00  0.00     0.016 A 
ATOM     16  C   UNL A   1      31.185  25.210  26.248  1.00  0.00     0.016 A 
ATOM     17  C   UNL A   1      31.020  24.170  25.334  1.00  0.00     0.017 A 
ATOM     18  Br  UNL A   1      31.199  22.378  25.906  1.00  0.00    -0.051 Br
ENDBRANCH   6  12
ENDBRANCH   3   6
ENDBRANCH   1   2
BRANCH   1  19
ATOM     19  C   UNL A   1      31.301  32.077  26.320  1.00  0.00     0.042 C 
BRANCH  19  20
ATOM     20  C   UNL A   1      32.601  32.498  27.001  1.00  0.00     0.118 C 
BRANCH  20  21
ATOM     21  N   UNL A   1      32.517  33.829  27.580  1.00  0.00    -0.352 N 
ATOM     22  C   UNL A   1      33.237  34.410  28.590  1.00  0.00     0.251 C 
ATOM     23  H   UNL A   1      31.828  34.407  27.180  1.00  0.00     0.163 HD
ATOM     24  O   UNL A   1      32.846  35.490  29.046  1.00  0.00    -0.269 OA
BRANCH  22  25
ATOM     25  C   UNL A   1      34.457  33.789  29.160  1.00  0.00     0.039 A 
ATOM     26  C   UNL A   1      34.296  32.736  30.069  1.00  0.00     0.014 A 
ATOM     27  C   UNL A   1      35.742  34.272  28.895  1.00  0.00     0.014 A 
ATOM     28  C   UNL A   1      35.410  32.151  30.678  1.00  0.00     0.010 A 
ATOM     29  C   UNL A   1      36.862  33.646  29.457  1.00  0.00     0.010 A 
ATOM     30  C   UNL A   1      36.707  32.587  30.364  1.00  0.00    -0.014 A 
BRANCH  30  31
ATOM     31  C   UNL A   1      37.890  31.940  30.990  1.00  0.00     0.031 A 
ATOM     32  C   UNL A   1      38.322  32.305  32.384  1.00  0.00     0.074 A 
ATOM     33  C   UNL A   1      38.592  31.025  30.293  1.00  0.00     0.049 A 
ATOM     34  N   UNL A   1      39.315  31.830  33.095  1.00  0.00    -0.248 NA
ATOM     35  C   UNL A   1      37.549  33.355  33.064  1.00  0.00     0.031 C 
ATOM     36  C   UNL A   1      38.314  30.620  28.916  1.00  0.00     0.029 A 
ATOM     37  N   UNL A   1      39.683  30.271  30.649  1.00  0.00    -0.354 N 
ATOM     38  C   UNL A   1      39.290  32.526  34.297  1.00  0.00     0.074 A 
ATOM     39  C   UNL A   1      38.214  33.488  34.203  1.00  0.00     0.031 C 
ATOM     40  C   UNL A   1      39.193  29.673  28.551  1.00  0.00     0.029 A 
ATOM     41  C   UNL A   1      40.109  29.420  29.659  1.00  0.00     0.049 A 
ATOM     42  H   UNL A   1      40.119  30.334  31.529  1.00  0.00     0.167 HD
ATOM     43  C   UNL A   1      40.077  32.362  35.388  1.00  0.00     0.037 A 
ATOM     44  C   UNL A   1      41.119  28.530  29.647  1.00  0.00     0.037 A 
ATOM     45  C   UNL A   1      41.135  31.390  35.495  1.00  0.00     0.049 A 
ATOM     46  C   UNL A   1      41.959  28.347  30.880  1.00  0.00     0.074 A 
ATOM     47  C   UNL A   1      41.953  31.117  36.578  1.00  0.00     0.029 A 
ATOM     48  N   UNL A   1      41.522  30.531  34.478  1.00  0.00    -0.354 N 
ATOM     49  N   UNL A   1      41.882  28.967  32.032  1.00  0.00    -0.248 NA
ATOM     50  C   UNL A   1      43.019  27.330  30.814  1.00  0.00     0.031 C 
ATOM     51  C   UNL A   1      42.856  30.113  36.206  1.00  0.00     0.029 A 
ATOM     52  C   UNL A   1      42.575  29.736  34.904  1.00  0.00     0.049 A 
ATOM     53  H   UNL A   1      41.109  30.491  33.585  1.00  0.00     0.167 HD
ATOM     54  C   UNL A   1      42.871  28.410  32.831  1.00  0.00     0.074 A 
ATOM     55  C   UNL A   1      43.518  27.383  32.041  1.00  0.00     0.031 C 
ATOM     56  C   UNL A   1      43.214  28.724  34.103  1.00  0.00     0.037 A 
BRANCH  43  57
ATOM     57  C   UNL A   1      39.816  33.251  36.569  1.00  0.00     0.064 A 
ATOM     58  C   UNL A   1      40.498  34.466  36.735  1.00  0.00     0.173 A 
ATOM     59  C   UNL A   1      38.847  32.906  37.524  1.00  0.00     0.173 A 
ATOM     60  F   UNL A   1      41.441  34.835  35.855  1.00  0.00    -0.203 F 
ATOM     61  C   UNL A   1      40.237  35.291  37.826  1.00  0.00     0.198 A 
ATOM     62  C   UNL A   1      38.571  33.746  38.599  1.00  0.00     0.198 A 
ATOM     63  F   UNL A   1      38.162  31.758  37.408  1.00  0.00    -0.203 F 
ATOM     64  F   UNL A   1      40.930  36.427  37.985  1.00  0.00    -0.200 F 
ATOM     65  C   UNL A   1      39.270  34.934  38.753  1.00  0.00     0.200 A 
ATOM     66  F   UNL A   1      37.629  33.406  39.489  1.00  0.00    -0.200 F 
ATOM     67  F   UNL A   1      39.016  35.732  39.799  1.00  0.00    -0.200 F 
ENDBRANCH  43  57
BRANCH  44  68
ATOM     68  C   UNL A   1      41.368  27.715  28.430  1.00  0.00     0.064 A 
ATOM     69  C   UNL A   1      42.283  28.140  27.457  1.00  0.00     0.173 A 
ATOM     70  C   UNL A   1      40.705  26.499  28.221  1.00  0.00     0.173 A 
ATOM     71  F   UNL A   1      42.924  29.308  27.605  1.00  0.00    -0.203 F 
ATOM     72  C   UNL A   1      42.513  27.384  26.310  1.00  0.00     0.198 A 
ATOM     73  C   UNL A   1      40.955  25.731  27.086  1.00  0.00     0.198 A 
ATOM     74  F   UNL A   1      39.823  26.050  29.126  1.00  0.00    -0.203 F 
ATOM     75  F   UNL A   1      43.363  27.830  25.375  1.00  0.00    -0.200 F 
ATOM     76  C   UNL A   1      41.853  26.177  26.128  1.00  0.00     0.200 A 
ATOM     77  F   UNL A   1      40.323  24.562  26.918  1.00  0.00    -0.200 F 
ATOM     78  F   UNL A   1      42.079  25.448  25.027  1.00  0.00    -0.200 F 
ENDBRANCH  44  68
BRANCH  56  79
ATOM     79  C   UNL A   1      44.337  27.942  34.719  1.00  0.00     0.064 A 
ATOM     80  C   UNL A   1      45.665  28.388  34.645  1.00  0.00     0.173 A 
ATOM     81  C   UNL A   1      44.082  26.744  35.403  1.00  0.00     0.173 A 
ATOM     82  F   UNL A   1      45.960  29.520  33.989  1.00  0.00    -0.203 F 
ATOM     83  C   UNL A   1      46.700  27.649  35.210  1.00  0.00     0.198 A 
ATOM     84  C   UNL A   1      45.117  26.019  35.987  1.00  0.00     0.198 A 
ATOM     85  F   UNL A   1      42.828  26.276  35.504  1.00  0.00    -0.203 F 
ATOM     86  F   UNL A   1      47.966  28.069  35.085  1.00  0.00    -0.200 F 
ATOM     87  C   UNL A   1      46.426  26.468  35.883  1.00  0.00     0.200 A 
ATOM     88  F   UNL A   1      44.849  24.883  36.644  1.00  0.00    -0.200 F 
ATOM     89  F   UNL A   1      47.424  25.756  36.424  1.00  0.00    -0.200 F 
ENDBRANCH  56  79
ENDBRANCH  30  31
ENDBRANCH  22  25
ENDBRANCH  20  21
ENDBRANCH  19  20
ENDBRANCH   1  19
TORSDOF 14
ENDMDL
MODEL 2
REMARK VINA RESULT:     -11.4      2.460      3.716
REMARK SMILES C[C@@H](O)C[C@H](C(=O)NCCCNC(=O)c1ccc(-c2c3nc(c(-c4c(F)c(F)c(F)c(F)c4F)c4ccc([nH]4)c(-c4c(F)c(F)c(F)c(F)c4F)c4nc(c(-c5c(F)c(F)c(F)c(F)c5F)c5ccc2[nH]5)C=C4)C=C3)cc1)c1ccc(Br)cc1
REMARK SMILES IDX 9 1 8 2 6 3 7 4 5 6 4 7 2 8 1 9 3 10 78 12 79 13 84 14 80 15
REMARK SMILES IDX 83 16 81 17 82 18 10 19 11 20 12 21 13 22 14 24 15 25 16 26
REMARK SMILES IDX 77 27 17 28 76 29 18 30 19 31 20 32 70 33 21 34 75 35 69 36
REMARK SMILES IDX 71 37 22 38 74 39 68 40 67 41 23 43 55 44 35 45 54 46 36 47
REMARK SMILES IDX 39 48 53 49 72 50 37 51 38 52 52 54 73 55 40 56 24 57 25 58
REMARK SMILES IDX 33 59 26 60 27 61 31 62 34 63 28 64 29 65 32 66 30 67 56 68
REMARK SMILES IDX 57 69 65 70 58 71 59 72 63 73 66 74 60 75 61 76 64 77 62 78
REMARK SMILES IDX 41 79 42 80 50 81 43 82 44 83 48 84 51 85 45 86 46 87 49 88
REMARK SMILES IDX 47 89
REMARK H PARENT 8 5 3 11 12 23 71 42 39 53
REMARK Flexibility Score: inf
ROOT
ATOM      1  C   UNL A   1      32.334  26.941  24.419  1.00  0.00     0.117 C 
ENDROOT
BRANCH   1   2
ATOM      2  N   UNL A   1      32.832  26.690  23.081  1.00  0.00    -0.356 N 
ATOM      3  C   UNL A   1      33.297  25.554  22.484  1.00  0.00     0.227 C 
ATOM      4  O   UNL A   1      33.672  25.692  21.316  1.00  0.00    -0.274 OA
ATOM      5  H   UNL A   1      32.835  27.482  22.497  1.00  0.00     0.163 HD
BRANCH   3   6
ATOM      6  C   UNL A   1      33.301  24.177  23.203  1.00  0.00     0.111 C 
BRANCH   6   7
ATOM      7  C   UNL A   1      32.886  23.059  22.200  1.00  0.00     0.049 C 
BRANCH   7   8
ATOM      8  C   UNL A   1      32.539  21.656  22.716  1.00  0.00     0.112 C 
ATOM      9  C   UNL A   1      31.934  21.607  24.109  1.00  0.00     0.038 C 
BRANCH   8  10
ATOM     10  O   UNL A   1      31.575  21.105  21.810  1.00  0.00    -0.393 OA
ATOM     11  H   UNL A   1      30.880  21.760  21.639  1.00  0.00     0.210 HD
ENDBRANCH   8  10
ENDBRANCH   7   8
ENDBRANCH   6   7
BRANCH   6  12
ATOM     12  C   UNL A   1      34.612  23.899  23.922  1.00  0.00    -0.035 A 
ATOM     13  C   UNL A   1      34.771  24.309  25.261  1.00  0.00     0.006 A 
ATOM     14  C   UNL A   1      35.678  23.247  23.286  1.00  0.00     0.006 A 
ATOM     15  C   UNL A   1      35.970  24.096  25.937  1.00  0.00     0.016 A 
ATOM     16  C   UNL A   1      36.878  23.023  23.968  1.00  0.00     0.016 A 
ATOM     17  C   UNL A   1      37.020  23.455  25.285  1.00  0.00     0.017 A 
ATOM     18  Br  UNL A   1      38.656  23.188  26.192  1.00  0.00    -0.051 Br
ENDBRANCH   6  12
ENDBRANCH   3   6
ENDBRANCH   1   2
BRANCH   1  19
ATOM     19  C   UNL A   1      32.022  28.418  24.665  1.00  0.00     0.042 C 
BRANCH  19  20
ATOM     20  C   UNL A   1      33.152  29.218  25.307  1.00  0.00     0.118 C 
BRANCH  20  21
ATOM     21  N   UNL A   1      32.701  30.502  25.816  1.00  0.00    -0.352 N 
ATOM     22  C   UNL A   1      33.164  31.262  26.858  1.00  0.00     0.251 C 
ATOM     23  H   UNL A   1      31.937  30.890  25.332  1.00  0.00     0.163 HD
ATOM     24  O   UNL A   1      32.486  32.226  27.230  1.00  0.00    -0.269 OA
BRANCH  22  25
ATOM     25  C   UNL A   1      34.435  30.964  27.560  1.00  0.00     0.039 A 
ATOM     26  C   UNL A   1      34.599  29.688  28.113  1.00  0.00     0.014 A 
ATOM     27  C   UNL A   1      35.426  31.930  27.765  1.00  0.00     0.014 A 
ATOM     28  C   UNL A   1      35.755  29.372  28.833  1.00  0.00     0.010 A 
ATOM     29  C   UNL A   1      36.611  31.595  28.431  1.00  0.00     0.010 A 
ATOM     30  C   UNL A   1      36.783  30.316  28.983  1.00  0.00    -0.014 A 
BRANCH  30  31
ATOM     31  C   UNL A   1      38.025  29.964  29.721  1.00  0.00     0.031 A 
ATOM     32  C   UNL A   1      38.270  30.485  31.111  1.00  0.00     0.074 A 
ATOM     33  C   UNL A   1      38.948  29.181  29.131  1.00  0.00     0.049 A 
ATOM     34  N   UNL A   1      39.285  30.267  31.911  1.00  0.00    -0.248 NA
ATOM     35  C   UNL A   1      37.251  31.386  31.671  1.00  0.00     0.031 C 
ATOM     36  C   UNL A   1      38.859  28.654  27.770  1.00  0.00     0.029 A 
ATOM     37  N   UNL A   1      40.141  28.691  29.602  1.00  0.00    -0.354 N 
ATOM     38  C   UNL A   1      39.031  31.005  33.060  1.00  0.00     0.074 A 
ATOM     39  C   UNL A   1      37.790  31.715  32.837  1.00  0.00     0.031 C 
ATOM     40  C   UNL A   1      39.938  27.893  27.523  1.00  0.00     0.029 A 
ATOM     41  C   UNL A   1      40.803  27.896  28.699  1.00  0.00     0.049 A 
ATOM     42  H   UNL A   1      40.490  28.890  30.500  1.00  0.00     0.167 HD
ATOM     43  C   UNL A   1      39.753  31.067  34.205  1.00  0.00     0.037 A 
ATOM     44  C   UNL A   1      41.972  27.236  28.807  1.00  0.00     0.037 A 
ATOM     45  C   UNL A   1      40.977  30.344  34.441  1.00  0.00     0.049 A 
ATOM     46  C   UNL A   1      42.740  27.299  30.098  1.00  0.00     0.074 A 
ATOM     47  C   UNL A   1      41.752  30.306  35.586  1.00  0.00     0.029 A 
ATOM     48  N   UNL A   1      41.604  29.532  33.509  1.00  0.00    -0.354 N 
ATOM     49  N   UNL A   1      42.454  27.950  31.199  1.00  0.00    -0.248 NA
ATOM     50  C   UNL A   1      43.987  26.524  30.165  1.00  0.00     0.031 C 
ATOM     51  C   UNL A   1      42.866  29.494  35.338  1.00  0.00     0.029 A 
ATOM     52  C   UNL A   1      42.764  28.998  34.049  1.00  0.00     0.049 A 
ATOM     53  H   UNL A   1      41.274  29.359  32.597  1.00  0.00     0.167 HD
ATOM     54  C   UNL A   1      43.475  27.654  32.092  1.00  0.00     0.074 A 
ATOM     55  C   UNL A   1      44.374  26.744  31.413  1.00  0.00     0.031 C 
ATOM     56  C   UNL A   1      43.653  28.100  33.359  1.00  0.00     0.037 A 
BRANCH  43  57
ATOM     57  C   UNL A   1      39.230  31.944  35.306  1.00  0.00     0.064 A 
ATOM     58  C   UNL A   1      38.449  31.421  36.348  1.00  0.00     0.173 A 
ATOM     59  C   UNL A   1      39.545  33.310  35.343  1.00  0.00     0.173 A 
ATOM     60  F   UNL A   1      38.112  30.122  36.353  1.00  0.00    -0.203 F 
ATOM     61  C   UNL A   1      37.983  32.240  37.373  1.00  0.00     0.198 A 
ATOM     62  C   UNL A   1      39.098  34.120  36.383  1.00  0.00     0.198 A 
ATOM     63  F   UNL A   1      40.295  33.858  34.374  1.00  0.00    -0.203 F 
ATOM     64  F   UNL A   1      37.204  31.727  38.336  1.00  0.00    -0.200 F 
ATOM     65  C   UNL A   1      38.312  33.587  37.394  1.00  0.00     0.200 A 
ATOM     66  F   UNL A   1      39.426  35.419  36.408  1.00  0.00    -0.200 F 
ATOM     67  F   UNL A   1      37.867  34.371  38.384  1.00  0.00    -0.200 F 
ENDBRANCH  43  57
BRANCH  44  68
ATOM     68  C   UNL A   1      42.471  26.428  27.665  1.00  0.00     0.064 A 
ATOM     69  C   UNL A   1      43.394  26.963  26.757  1.00  0.00     0.173 A 
ATOM     70  C   UNL A   1      42.040  25.110  27.465  1.00  0.00     0.173 A 
ATOM     71  F   UNL A   1      43.817  28.227  26.897  1.00  0.00    -0.203 F 
ATOM     72  C   UNL A   1      43.858  26.211  25.679  1.00  0.00     0.198 A 
ATOM     73  C   UNL A   1      42.523  24.352  26.401  1.00  0.00     0.198 A 
ATOM     74  F   UNL A   1      41.160  24.555  28.310  1.00  0.00    -0.203 F 
ATOM     75  F   UNL A   1      44.711  26.757  24.802  1.00  0.00    -0.200 F 
ATOM     76  C   UNL A   1      43.426  24.905  25.506  1.00  0.00     0.200 A 
ATOM     77  F   UNL A   1      42.112  23.086  26.242  1.00  0.00    -0.200 F 
ATOM     78  F   UNL A   1      43.876  24.181  24.471  1.00  0.00    -0.200 F 
ENDBRANCH  44  68
BRANCH  56  79
ATOM     79  C   UNL A   1      44.864  27.604  34.092  1.00  0.00     0.064 A 
ATOM     80  C   UNL A   1      44.830  26.420  34.843  1.00  0.00     0.173 A 
ATOM     81  C   UNL A   1      46.075  28.311  34.033  1.00  0.00     0.173 A 
ATOM     82  F   UNL A   1      43.691  25.718  34.943  1.00  0.00    -0.203 F 
ATOM     83  C   UNL A   1      45.956  25.975  35.529  1.00  0.00     0.198 A 
ATOM     84  C   UNL A   1      47.206  27.850  34.700  1.00  0.00     0.198 A 
ATOM     85  F   UNL A   1      46.160  29.448  33.325  1.00  0.00    -0.203 F 
ATOM     86  F   UNL A   1      45.886  24.867  36.280  1.00  0.00    -0.200 F 
ATOM     87  C   UNL A   1      47.143  26.688  35.455  1.00  0.00     0.200 A 
ATOM     88  F   UNL A   1      48.354  28.535  34.621  1.00  0.00    -0.200 F 
ATOM     89  F   UNL A   1      48.226  26.260  36.119  1.00  0.00    -0.200 F 
ENDBRANCH  56  79
ENDBRANCH  30  31
ENDBRANCH  22  25
ENDBRANCH  20  21
ENDBRANCH  19  20
ENDBRANCH   1  19
TORSDOF 14
ENDMDL
MODEL 3
REMARK VINA RESULT:     -11.4      0.231      1.737
REMARK SMILES C[C@@H](O)C[C@H](C(=O)NCCCNC(=O)c1ccc(-c2c3nc(c(-c4c(F)c(F)c(F)c(F)c4F)c4ccc([nH]4)c(-c4c(F)c(F)c(F)c(F)c4F)c4nc(c(-c5c(F)c(F)c(F)c(F)c5F)c5ccc2[nH]5)C=C4)C=C3)cc1)c1ccc(Br)cc1
REMARK SMILES IDX 9 1 8 2 6 3 7 4 5 6 4 7 2 8 1 9 3 10 78 12 79 13 84 14 80 15
REMARK SMILES IDX 83 16 81 17 82 18 10 19 11 20 12 21 13 22 14 24 15 25 16 26
REMARK SMILES IDX 77 27 17 28 76 29 18 30 19 31 20 32 70 33 21 34 75 35 69 36
REMARK SMILES IDX 71 37 22 38 74 39 68 40 67 41 23 43 55 44 35 45 54 46 36 47
REMARK SMILES IDX 39 48 53 49 72 50 37 51 38 52 52 54 73 55 40 56 24 57 25 58
REMARK SMILES IDX 33 59 26 60 27 61 31 62 34 63 28 64 29 65 32 66 30 67 56 68
REMARK SMILES IDX 57 69 65 70 58 71 59 72 63 73 66 74 60 75 61 76 64 77 62 78
REMARK SMILES IDX 41 79 42 80 50 81 43 82 44 83 48 84 51 85 45 86 46 87 49 88
REMARK SMILES IDX 47 89
REMARK H PARENT 8 5 3 11 12 23 71 42 39 53
REMARK Flexibility Score: inf
ROOT
ATOM      1  C   UNL A   1      31.330  30.431  26.188  1.00  0.00     0.117 C 
ENDROOT
BRANCH   1   2
ATOM      2  N   UNL A   1      32.125  30.073  25.029  1.00  0.00    -0.356 N 
ATOM      3  C   UNL A   1      31.888  29.213  23.996  1.00  0.00     0.227 C 
ATOM      4  O   UNL A   1      32.800  29.123  23.169  1.00  0.00    -0.274 OA
ATOM      5  H   UNL A   1      32.994  30.533  24.979  1.00  0.00     0.163 HD
BRANCH   3   6
ATOM      6  C   UNL A   1      30.545  28.448  23.842  1.00  0.00     0.111 C 
BRANCH   6   7
ATOM      7  C   UNL A   1      30.020  28.596  22.381  1.00  0.00     0.049 C 
BRANCH   7   8
ATOM      8  C   UNL A   1      29.078  29.752  22.019  1.00  0.00     0.112 C 
ATOM      9  C   UNL A   1      28.119  30.178  23.118  1.00  0.00     0.038 C 
BRANCH   8  10
ATOM     10  O   UNL A   1      29.905  30.882  21.710  1.00  0.00    -0.393 OA
ATOM     11  H   UNL A   1      29.710  31.190  20.811  1.00  0.00     0.210 HD
ENDBRANCH   8  10
ENDBRANCH   7   8
ENDBRANCH   6   7
BRANCH   6  12
ATOM     12  C   UNL A   1      30.639  27.006  24.315  1.00  0.00    -0.035 A 
ATOM     13  C   UNL A   1      30.862  26.736  25.680  1.00  0.00     0.006 A 
ATOM     14  C   UNL A   1      30.513  25.928  23.426  1.00  0.00     0.006 A 
ATOM     15  C   UNL A   1      30.982  25.426  26.140  1.00  0.00     0.016 A 
ATOM     16  C   UNL A   1      30.622  24.614  23.889  1.00  0.00     0.016 A 
ATOM     17  C   UNL A   1      30.865  24.370  25.240  1.00  0.00     0.017 A 
ATOM     18  Br  UNL A   1      31.053  22.594  25.857  1.00  0.00    -0.051 Br
ENDBRANCH   6  12
ENDBRANCH   3   6
ENDBRANCH   1   2
BRANCH   1  19
ATOM     19  C   UNL A   1      31.344  31.934  26.471  1.00  0.00     0.042 C 
BRANCH  19  20
ATOM     20  C   UNL A   1      32.702  32.501  26.879  1.00  0.00     0.118 C 
BRANCH  20  21
ATOM     21  N   UNL A   1      32.590  33.807  27.506  1.00  0.00    -0.352 N 
ATOM     22  C   UNL A   1      33.279  34.355  28.556  1.00  0.00     0.251 C 
ATOM     23  H   UNL A   1      31.906  34.394  27.112  1.00  0.00     0.163 HD
ATOM     24  O   UNL A   1      32.865  35.412  29.044  1.00  0.00    -0.269 OA
BRANCH  22  25
ATOM     25  C   UNL A   1      34.490  33.723  29.133  1.00  0.00     0.039 A 
ATOM     26  C   UNL A   1      34.315  32.654  30.020  1.00  0.00     0.014 A 
ATOM     27  C   UNL A   1      35.779  34.210  28.896  1.00  0.00     0.014 A 
ATOM     28  C   UNL A   1      35.419  32.057  30.636  1.00  0.00     0.010 A 
ATOM     29  C   UNL A   1      36.890  33.573  29.462  1.00  0.00     0.010 A 
ATOM     30  C   UNL A   1      36.721  32.498  30.348  1.00  0.00    -0.014 A 
BRANCH  30  31
ATOM     31  C   UNL A   1      37.894  31.838  30.980  1.00  0.00     0.031 A 
ATOM     32  C   UNL A   1      38.315  32.189  32.381  1.00  0.00     0.074 A 
ATOM     33  C   UNL A   1      38.598  30.926  30.281  1.00  0.00     0.049 A 
ATOM     34  N   UNL A   1      39.299  31.703  33.097  1.00  0.00    -0.248 NA
ATOM     35  C   UNL A   1      37.541  33.238  33.063  1.00  0.00     0.031 C 
ATOM     36  C   UNL A   1      38.330  30.534  28.898  1.00  0.00     0.029 A 
ATOM     37  N   UNL A   1      39.681  30.163  30.641  1.00  0.00    -0.354 N 
ATOM     38  C   UNL A   1      39.266  32.388  34.305  1.00  0.00     0.074 A 
ATOM     39  C   UNL A   1      38.196  33.357  34.209  1.00  0.00     0.031 C 
ATOM     40  C   UNL A   1      39.208  29.585  28.533  1.00  0.00     0.029 A 
ATOM     41  C   UNL A   1      40.112  29.317  29.648  1.00  0.00     0.049 A 
ATOM     42  H   UNL A   1      40.109  30.216  31.526  1.00  0.00     0.167 HD
ATOM     43  C   UNL A   1      40.041  32.210  35.402  1.00  0.00     0.037 A 
ATOM     44  C   UNL A   1      41.117  28.422  29.638  1.00  0.00     0.037 A 
ATOM     45  C   UNL A   1      41.093  31.231  35.510  1.00  0.00     0.049 A 
ATOM     46  C   UNL A   1      41.944  28.224  30.877  1.00  0.00     0.074 A 
ATOM     47  C   UNL A   1      41.899  30.944  36.598  1.00  0.00     0.029 A 
ATOM     48  N   UNL A   1      41.485  30.379  34.490  1.00  0.00    -0.354 N 
ATOM     49  N   UNL A   1      41.860  28.834  32.034  1.00  0.00    -0.248 NA
ATOM     50  C   UNL A   1      42.999  27.202  30.813  1.00  0.00     0.031 C 
ATOM     51  C   UNL A   1      42.800  29.939  36.227  1.00  0.00     0.029 A 
ATOM     52  C   UNL A   1      42.529  29.574  34.919  1.00  0.00     0.049 A 
ATOM     53  H   UNL A   1      41.080  30.349  33.593  1.00  0.00     0.167 HD
ATOM     54  C   UNL A   1      42.837  28.264  32.838  1.00  0.00     0.074 A 
ATOM     55  C   UNL A   1      43.487  27.241  32.044  1.00  0.00     0.031 C 
ATOM     56  C   UNL A   1      43.171  28.566  34.116  1.00  0.00     0.037 A 
BRANCH  43  57
ATOM     57  C   UNL A   1      39.774  33.091  36.588  1.00  0.00     0.064 A 
ATOM     58  C   UNL A   1      38.830  32.735  37.564  1.00  0.00     0.173 A 
ATOM     59  C   UNL A   1      40.495  34.280  36.774  1.00  0.00     0.173 A 
ATOM     60  F   UNL A   1      38.108  31.613  37.427  1.00  0.00    -0.203 F 
ATOM     61  C   UNL A   1      38.602  33.552  38.669  1.00  0.00     0.198 A 
ATOM     62  C   UNL A   1      40.281  35.079  37.893  1.00  0.00     0.198 A 
ATOM     63  F   UNL A   1      41.414  34.661  35.873  1.00  0.00    -0.203 F 
ATOM     64  F   UNL A   1      37.666  33.213  39.567  1.00  0.00    -0.200 F 
ATOM     65  C   UNL A   1      39.331  34.719  38.836  1.00  0.00     0.200 A 
ATOM     66  F   UNL A   1      40.995  36.202  38.059  1.00  0.00    -0.200 F 
ATOM     67  F   UNL A   1      39.113  35.499  39.903  1.00  0.00    -0.200 F 
ENDBRANCH  43  57
BRANCH  44  68
ATOM     68  C   UNL A   1      41.373  27.616  28.417  1.00  0.00     0.064 A 
ATOM     69  C   UNL A   1      40.698  26.408  28.198  1.00  0.00     0.173 A 
ATOM     70  C   UNL A   1      42.290  28.041  27.445  1.00  0.00     0.173 A 
ATOM     71  F   UNL A   1      39.829  25.952  29.112  1.00  0.00    -0.203 F 
ATOM     72  C   UNL A   1      40.943  25.644  27.059  1.00  0.00     0.198 A 
ATOM     73  C   UNL A   1      42.515  27.290  26.294  1.00  0.00     0.198 A 
ATOM     74  F   UNL A   1      42.957  29.193  27.609  1.00  0.00    -0.203 F 
ATOM     75  F   UNL A   1      40.314  24.474  26.891  1.00  0.00    -0.200 F 
ATOM     76  C   UNL A   1      41.847  26.089  26.105  1.00  0.00     0.200 A 
ATOM     77  F   UNL A   1      43.381  27.727  25.370  1.00  0.00    -0.200 F 
ATOM     78  F   UNL A   1      42.078  25.357  25.006  1.00  0.00    -0.200 F 
ENDBRANCH  44  68
BRANCH  56  79
ATOM     79  C   UNL A   1      44.283  27.773  34.735  1.00  0.00     0.064 A 
ATOM     80  C   UNL A   1      45.613  28.217  34.687  1.00  0.00     0.173 A 
ATOM     81  C   UNL A   1      44.016  26.564  35.397  1.00  0.00     0.173 A 
ATOM     82  F   UNL A   1      45.919  29.358  34.052  1.00  0.00    -0.203 F 
ATOM     83  C   UNL A   1      46.638  27.467  35.255  1.00  0.00     0.198 A 
ATOM     84  C   UNL A   1      45.042  25.829  35.985  1.00  0.00     0.198 A 
ATOM     85  F   UNL A   1      42.760  26.098  35.473  1.00  0.00    -0.203 F 
ATOM     86  F   UNL A   1      47.907  27.887  35.154  1.00  0.00    -0.200 F 
ATOM     87  C   UNL A   1      46.352  26.276  35.906  1.00  0.00     0.200 A 
ATOM     88  F   UNL A   1      44.763  24.683  36.620  1.00  0.00    -0.200 F 
ATOM     89  F   UNL A   1      47.342  25.554  36.450  1.00  0.00    -0.200 F 
ENDBRANCH  56  79
ENDBRANCH  30  31
ENDBRANCH  22  25
ENDBRANCH  20  21
ENDBRANCH  19  20
ENDBRANCH   1  19
TORSDOF 14
ENDMDL
