MODEL 1
REMARK VINA RESULT:     -11.8      0.000      0.000
REMARK SMILES [NH3+][C@]1(C(=O)NCCCNC(=O)c2ccc(-c3c4nc(c(-c5c(F)c(F)c(F)c(F)c5F)c5ccc([nH]5)c(-c5c(F)c(F)c(F)c(F)c5F)c5nc(c(-c6c(F)c(F)c(F)c(F)c6F)c6ccc3[nH]6)C=C5)C=C4)cc2)CCC[C@@H]1CCOc1ccc(CO)cc1
REMARK SMILES IDX 3 1 4 2 5 3 2 5 75 6 78 7 76 8 77 9 1 10 79 14 80 15 81 16
REMARK SMILES IDX 82 17 83 18 89 19 84 20 88 21 85 22 86 23 87 24 6 26 7 27
REMARK SMILES IDX 8 28 9 29 10 30 11 32 12 33 13 34 74 35 14 36 73 37 15 38
REMARK SMILES IDX 16 39 17 40 67 41 18 42 72 43 66 44 68 45 19 46 71 47 65 48
REMARK SMILES IDX 64 49 20 51 52 52 32 53 51 54 33 55 36 56 50 57 69 58 34 59
REMARK SMILES IDX 35 60 49 62 70 63 37 64 21 65 22 66 30 67 23 68 24 69 28 70
REMARK SMILES IDX 31 71 25 72 26 73 29 74 27 75 53 76 54 77 62 78 55 79 56 80
REMARK SMILES IDX 60 81 63 82 57 83 58 84 61 85 59 86 38 87 39 88 47 89 40 90
REMARK SMILES IDX 41 91 45 92 48 93 42 94 43 95 46 96 44 97
REMARK H PARENT 5 4 1 11 1 12 1 13 87 25 9 31 68 50 36 61
REMARK Flexibility Score: inf
ROOT
ATOM      1  C   UNL A   1      33.357  29.447  26.624  1.00  0.00     0.281 C 
ATOM      2  O   UNL A   1      34.402  29.314  27.284  1.00  0.00    -0.268 OA
ATOM      3  N   UNL A   1      32.635  30.530  26.970  1.00  0.00    -0.351 N 
ATOM      4  H   UNL A   1      33.011  31.027  27.732  1.00  0.00     0.163 HD
ENDROOT
BRANCH   1   5
ATOM      5  C   UNL A   1      33.072  28.456  25.437  1.00  0.00     0.176 C 
ATOM      6  C   UNL A   1      34.005  27.249  25.761  1.00  0.00     0.079 C 
ATOM      7  C   UNL A   1      31.689  27.738  25.200  1.00  0.00     0.064 C 
ATOM      8  C   UNL A   1      33.556  26.130  24.860  1.00  0.00     0.008 C 
ATOM      9  C   UNL A   1      32.051  26.268  24.865  1.00  0.00     0.011 C 
BRANCH   5  10
ATOM     10  N   UNL A   1      33.568  29.107  24.200  1.00  0.00    -0.345 N 
ATOM     11  H   UNL A   1      34.244  28.496  23.742  1.00  0.00     0.345 HD
ATOM     12  H   UNL A   1      34.015  29.993  24.438  1.00  0.00     0.345 HD
ATOM     13  H   UNL A   1      32.785  29.280  23.570  1.00  0.00     0.345 HD
ENDBRANCH   5  10
BRANCH   7  14
ATOM     14  C   UNL A   1      30.696  28.415  24.185  1.00  0.00     0.052 C 
BRANCH  14  15
ATOM     15  C   UNL A   1      30.069  27.625  23.020  1.00  0.00     0.230 C 
BRANCH  15  16
ATOM     16  O   UNL A   1      28.692  27.963  22.775  1.00  0.00    -0.494 OA
BRANCH  16  17
ATOM     17  C   UNL A   1      28.499  29.312  22.698  1.00  0.00     0.119 A 
ATOM     18  C   UNL A   1      27.628  29.978  23.556  1.00  0.00     0.047 A 
ATOM     19  C   UNL A   1      29.239  30.010  21.750  1.00  0.00     0.047 A 
ATOM     20  C   UNL A   1      27.625  31.373  23.578  1.00  0.00     0.010 A 
ATOM     21  C   UNL A   1      29.243  31.402  21.774  1.00  0.00     0.010 A 
ATOM     22  C   UNL A   1      28.479  32.093  22.729  1.00  0.00    -0.022 A 
BRANCH  22  23
ATOM     23  C   UNL A   1      28.648  33.580  22.888  1.00  0.00     0.191 C 
BRANCH  23  24
ATOM     24  O   UNL A   1      29.881  33.901  23.510  1.00  0.00    -0.392 OA
ATOM     25  H   UNL A   1      30.164  33.160  24.067  1.00  0.00     0.211 HD
ENDBRANCH  23  24
ENDBRANCH  22  23
ENDBRANCH  16  17
ENDBRANCH  15  16
ENDBRANCH  14  15
ENDBRANCH   7  14
ENDBRANCH   1   5
BRANCH   3  26
ATOM     26  C   UNL A   1      31.427  31.107  26.449  1.00  0.00     0.118 C 
BRANCH  26  27
ATOM     27  C   UNL A   1      31.382  32.619  26.649  1.00  0.00     0.042 C 
BRANCH  27  28
ATOM     28  C   UNL A   1      32.688  33.203  27.191  1.00  0.00     0.118 C 
BRANCH  28  29
ATOM     29  N   UNL A   1      32.503  34.523  27.778  1.00  0.00    -0.352 N 
ATOM     30  C   UNL A   1      33.053  35.095  28.894  1.00  0.00     0.251 C 
ATOM     31  H   UNL A   1      31.876  35.103  27.289  1.00  0.00     0.163 HD
ATOM     32  O   UNL A   1      32.595  36.155  29.310  1.00  0.00    -0.269 OA
BRANCH  30  33
ATOM     33  C   UNL A   1      34.185  34.463  29.607  1.00  0.00     0.039 A 
ATOM     34  C   UNL A   1      35.472  34.627  29.083  1.00  0.00     0.014 A 
ATOM     35  C   UNL A   1      33.989  33.648  30.724  1.00  0.00     0.014 A 
ATOM     36  C   UNL A   1      36.561  34.004  29.694  1.00  0.00     0.010 A 
ATOM     37  C   UNL A   1      35.083  33.077  31.373  1.00  0.00     0.010 A 
ATOM     38  C   UNL A   1      36.377  33.239  30.856  1.00  0.00    -0.014 A 
BRANCH  38  39
ATOM     39  C   UNL A   1      37.529  32.586  31.527  1.00  0.00     0.031 A 
ATOM     40  C   UNL A   1      38.238  31.437  30.866  1.00  0.00     0.074 A 
ATOM     41  C   UNL A   1      37.906  33.002  32.751  1.00  0.00     0.049 A 
ATOM     42  N   UNL A   1      39.230  30.708  31.314  1.00  0.00    -0.248 NA
ATOM     43  C   UNL A   1      37.753  31.038  29.537  1.00  0.00     0.031 C 
ATOM     44  C   UNL A   1      37.268  34.078  33.510  1.00  0.00     0.029 A 
ATOM     45  N   UNL A   1      38.911  32.561  33.575  1.00  0.00    -0.354 N 
ATOM     46  C   UNL A   1      39.474  29.757  30.332  1.00  0.00     0.074 A 
ATOM     47  C   UNL A   1      38.499  29.971  29.285  1.00  0.00     0.031 C 
ATOM     48  C   UNL A   1      37.909  34.229  34.680  1.00  0.00     0.029 A 
ATOM     49  C   UNL A   1      38.980  33.240  34.766  1.00  0.00     0.049 A 
ATOM     50  H   UNL A   1      39.523  31.829  33.335  1.00  0.00     0.167 HD
ATOM     51  C   UNL A   1      40.439  28.807  30.298  1.00  0.00     0.037 A 
ATOM     52  C   UNL A   1      39.811  33.079  35.813  1.00  0.00     0.037 A 
ATOM     53  C   UNL A   1      41.427  28.619  31.328  1.00  0.00     0.049 A 
ATOM     54  C   UNL A   1      40.881  32.023  35.744  1.00  0.00     0.074 A 
ATOM     55  C   UNL A   1      42.484  27.726  31.358  1.00  0.00     0.029 A 
ATOM     56  N   UNL A   1      41.478  29.339  32.512  1.00  0.00    -0.354 N 
ATOM     57  N   UNL A   1      41.142  31.173  34.783  1.00  0.00    -0.248 NA
ATOM     58  C   UNL A   1      41.773  31.910  36.906  1.00  0.00     0.031 C 
ATOM     59  C   UNL A   1      43.152  27.880  32.578  1.00  0.00     0.029 A 
ATOM     60  C   UNL A   1      42.537  28.898  33.289  1.00  0.00     0.049 A 
ATOM     61  H   UNL A   1      40.853  30.058  32.764  1.00  0.00     0.167 HD
ATOM     62  C   UNL A   1      42.242  30.441  35.210  1.00  0.00     0.074 A 
ATOM     63  C   UNL A   1      42.608  30.959  36.511  1.00  0.00     0.031 C 
ATOM     64  C   UNL A   1      42.888  29.429  34.581  1.00  0.00     0.037 A 
BRANCH  51  65
ATOM     65  C   UNL A   1      40.475  27.897  29.104  1.00  0.00     0.064 A 
ATOM     66  C   UNL A   1      39.674  26.748  29.031  1.00  0.00     0.173 A 
ATOM     67  C   UNL A   1      41.296  28.196  28.005  1.00  0.00     0.173 A 
ATOM     68  F   UNL A   1      38.880  26.412  30.059  1.00  0.00    -0.203 F 
ATOM     69  C   UNL A   1      39.714  25.917  27.913  1.00  0.00     0.198 A 
ATOM     70  C   UNL A   1      41.311  27.378  26.879  1.00  0.00     0.198 A 
ATOM     71  F   UNL A   1      42.078  29.286  28.021  1.00  0.00    -0.203 F 
ATOM     72  F   UNL A   1      38.974  24.800  27.886  1.00  0.00    -0.200 F 
ATOM     73  C   UNL A   1      40.527  26.236  26.837  1.00  0.00     0.200 A 
ATOM     74  F   UNL A   1      42.088  27.694  25.834  1.00  0.00    -0.200 F 
ATOM     75  F   UNL A   1      40.558  25.438  25.760  1.00  0.00    -0.200 F 
ENDBRANCH  51  65
BRANCH  52  76
ATOM     76  C   UNL A   1      39.684  33.962  37.001  1.00  0.00     0.064 A 
ATOM     77  C   UNL A   1      38.906  33.577  38.101  1.00  0.00     0.173 A 
ATOM     78  C   UNL A   1      40.339  35.200  37.063  1.00  0.00     0.173 A 
ATOM     79  F   UNL A   1      38.246  32.410  38.078  1.00  0.00    -0.203 F 
ATOM     80  C   UNL A   1      38.774  34.406  39.212  1.00  0.00     0.198 A 
ATOM     81  C   UNL A   1      40.227  36.016  38.187  1.00  0.00     0.198 A 
ATOM     82  F   UNL A   1      41.100  35.611  36.038  1.00  0.00    -0.203 F 
ATOM     83  F   UNL A   1      37.992  34.033  40.235  1.00  0.00    -0.200 F 
ATOM     84  C   UNL A   1      39.438  35.622  39.258  1.00  0.00     0.200 A 
ATOM     85  F   UNL A   1      40.881  37.185  38.231  1.00  0.00    -0.200 F 
ATOM     86  F   UNL A   1      39.315  36.417  40.329  1.00  0.00    -0.200 F 
ENDBRANCH  52  76
BRANCH  64  87
ATOM     87  C   UNL A   1      44.073  28.834  35.283  1.00  0.00     0.064 A 
ATOM     88  C   UNL A   1      43.937  27.742  36.152  1.00  0.00     0.173 A 
ATOM     89  C   UNL A   1      45.361  29.340  35.058  1.00  0.00     0.173 A 
ATOM     90  F   UNL A   1      42.724  27.231  36.412  1.00  0.00    -0.203 F 
ATOM     91  C   UNL A   1      45.048  27.193  36.788  1.00  0.00     0.198 A 
ATOM     92  C   UNL A   1      46.472  28.773  35.675  1.00  0.00     0.198 A 
ATOM     93  F   UNL A   1      45.543  30.381  34.231  1.00  0.00    -0.203 F 
ATOM     94  F   UNL A   1      44.891  26.179  37.650  1.00  0.00    -0.200 F 
ATOM     95  C   UNL A   1      46.314  27.704  36.544  1.00  0.00     0.200 A 
ATOM     96  F   UNL A   1      47.696  29.260  35.428  1.00  0.00    -0.200 F 
ATOM     97  F   UNL A   1      47.382  27.172  37.155  1.00  0.00    -0.200 F 
ENDBRANCH  64  87
ENDBRANCH  38  39
ENDBRANCH  30  33
ENDBRANCH  28  29
ENDBRANCH  27  28
ENDBRANCH  26  27
ENDBRANCH   3  26
TORSDOF 17
ENDMDL
MODEL 2
REMARK VINA RESULT:     -11.6      1.794      8.081
REMARK SMILES [NH3+][C@]1(C(=O)NCCCNC(=O)c2ccc(-c3c4nc(c(-c5c(F)c(F)c(F)c(F)c5F)c5ccc([nH]5)c(-c5c(F)c(F)c(F)c(F)c5F)c5nc(c(-c6c(F)c(F)c(F)c(F)c6F)c6ccc3[nH]6)C=C5)C=C4)cc2)CCC[C@@H]1CCOc1ccc(CO)cc1
REMARK SMILES IDX 3 1 4 2 5 3 2 5 75 6 78 7 76 8 77 9 1 10 79 14 80 15 81 16
REMARK SMILES IDX 82 17 83 18 89 19 84 20 88 21 85 22 86 23 87 24 6 26 7 27
REMARK SMILES IDX 8 28 9 29 10 30 11 32 12 33 13 34 74 35 14 36 73 37 15 38
REMARK SMILES IDX 16 39 17 40 67 41 18 42 72 43 66 44 68 45 19 46 71 47 65 48
REMARK SMILES IDX 64 49 20 51 52 52 32 53 51 54 33 55 36 56 50 57 69 58 34 59
REMARK SMILES IDX 35 60 49 62 70 63 37 64 21 65 22 66 30 67 23 68 24 69 28 70
REMARK SMILES IDX 31 71 25 72 26 73 29 74 27 75 53 76 54 77 62 78 55 79 56 80
REMARK SMILES IDX 60 81 63 82 57 83 58 84 61 85 59 86 38 87 39 88 47 89 40 90
REMARK SMILES IDX 41 91 45 92 48 93 42 94 43 95 46 96 44 97
REMARK H PARENT 5 4 1 11 1 12 1 13 87 25 9 31 68 50 36 61
REMARK Flexibility Score: inf
ROOT
ATOM      1  C   UNL A   1      31.039  29.245  23.901  1.00  0.00     0.281 C 
ATOM      2  O   UNL A   1      30.452  29.427  22.822  1.00  0.00    -0.268 OA
ATOM      3  N   UNL A   1      30.958  30.294  24.744  1.00  0.00    -0.351 N 
ATOM      4  H   UNL A   1      30.493  31.071  24.360  1.00  0.00     0.163 HD
ENDROOT
BRANCH   1   5
ATOM      5  C   UNL A   1      31.675  27.838  24.198  1.00  0.00     0.176 C 
ATOM      6  C   UNL A   1      33.206  28.120  24.093  1.00  0.00     0.079 C 
ATOM      7  C   UNL A   1      31.579  27.100  25.587  1.00  0.00     0.064 C 
ATOM      8  C   UNL A   1      33.886  26.911  24.678  1.00  0.00     0.008 C 
ATOM      9  C   UNL A   1      33.006  26.557  25.855  1.00  0.00     0.011 C 
BRANCH   5  10
ATOM     10  N   UNL A   1      31.291  26.944  23.077  1.00  0.00    -0.345 N 
ATOM     11  H   UNL A   1      32.079  26.843  22.437  1.00  0.00     0.345 HD
ATOM     12  H   UNL A   1      30.496  27.345  22.579  1.00  0.00     0.345 HD
ATOM     13  H   UNL A   1      31.034  26.029  23.446  1.00  0.00     0.345 HD
ENDBRANCH   5  10
BRANCH   7  14
ATOM     14  C   UNL A   1      30.431  26.036  25.753  1.00  0.00     0.052 C 
BRANCH  14  15
ATOM     15  C   UNL A   1      30.730  24.524  25.776  1.00  0.00     0.230 C 
BRANCH  15  16
ATOM     16  O   UNL A   1      30.796  23.935  24.465  1.00  0.00    -0.494 OA
BRANCH  16  17
ATOM     17  C   UNL A   1      32.038  23.445  24.182  1.00  0.00     0.119 A 
ATOM     18  C   UNL A   1      32.599  23.557  22.913  1.00  0.00     0.047 A 
ATOM     19  C   UNL A   1      32.747  22.861  25.226  1.00  0.00     0.047 A 
ATOM     20  C   UNL A   1      33.943  23.234  22.729  1.00  0.00     0.010 A 
ATOM     21  C   UNL A   1      34.091  22.544  25.048  1.00  0.00     0.010 A 
ATOM     22  C   UNL A   1      34.714  22.784  23.812  1.00  0.00    -0.022 A 
BRANCH  22  23
ATOM     23  C   UNL A   1      36.207  22.638  23.686  1.00  0.00     0.191 C 
BRANCH  23  24
ATOM     24  O   UNL A   1      36.653  22.953  22.377  1.00  0.00    -0.392 OA
ATOM     25  H   UNL A   1      37.213  23.744  22.409  1.00  0.00     0.211 HD
ENDBRANCH  23  24
ENDBRANCH  22  23
ENDBRANCH  16  17
ENDBRANCH  15  16
ENDBRANCH  14  15
ENDBRANCH   7  14
ENDBRANCH   1   5
BRANCH   3  26
ATOM     26  C   UNL A   1      31.413  30.504  26.091  1.00  0.00     0.118 C 
BRANCH  26  27
ATOM     27  C   UNL A   1      31.320  31.969  26.503  1.00  0.00     0.042 C 
BRANCH  27  28
ATOM     28  C   UNL A   1      32.673  32.596  26.845  1.00  0.00     0.118 C 
BRANCH  28  29
ATOM     29  N   UNL A   1      32.536  33.912  27.453  1.00  0.00    -0.352 N 
ATOM     30  C   UNL A   1      33.133  34.457  28.558  1.00  0.00     0.251 C 
ATOM     31  H   UNL A   1      31.908  34.512  26.991  1.00  0.00     0.163 HD
ATOM     32  O   UNL A   1      32.712  35.522  29.001  1.00  0.00    -0.269 OA
BRANCH  30  33
ATOM     33  C   UNL A   1      34.272  33.792  29.227  1.00  0.00     0.039 A 
ATOM     34  C   UNL A   1      35.569  34.181  28.872  1.00  0.00     0.014 A 
ATOM     35  C   UNL A   1      34.085  32.740  30.127  1.00  0.00     0.014 A 
ATOM     36  C   UNL A   1      36.671  33.541  29.440  1.00  0.00     0.010 A 
ATOM     37  C   UNL A   1      35.185  32.144  30.743  1.00  0.00     0.010 A 
ATOM     38  C   UNL A   1      36.487  32.530  30.395  1.00  0.00    -0.014 A 
BRANCH  38  39
ATOM     39  C   UNL A   1      37.652  31.854  31.021  1.00  0.00     0.031 A 
ATOM     40  C   UNL A   1      38.090  32.230  32.409  1.00  0.00     0.074 A 
ATOM     41  C   UNL A   1      38.340  30.934  30.319  1.00  0.00     0.049 A 
ATOM     42  N   UNL A   1      39.110  31.790  33.103  1.00  0.00    -0.248 NA
ATOM     43  C   UNL A   1      37.292  33.254  33.099  1.00  0.00     0.031 C 
ATOM     44  C   UNL A   1      38.036  30.517  28.949  1.00  0.00     0.029 A 
ATOM     45  N   UNL A   1      39.443  30.191  30.658  1.00  0.00    -0.354 N 
ATOM     46  C   UNL A   1      39.084  32.494  34.300  1.00  0.00     0.074 A 
ATOM     47  C   UNL A   1      37.977  33.422  34.222  1.00  0.00     0.031 C 
ATOM     48  C   UNL A   1      38.918  29.578  28.571  1.00  0.00     0.029 A 
ATOM     49  C   UNL A   1      39.867  29.351  29.658  1.00  0.00     0.049 A 
ATOM     50  H   UNL A   1      39.887  30.254  31.534  1.00  0.00     0.167 HD
ATOM     51  C   UNL A   1      39.898  32.362  35.375  1.00  0.00     0.037 A 
ATOM     52  C   UNL A   1      40.907  28.497  29.621  1.00  0.00     0.037 A 
ATOM     53  C   UNL A   1      40.978  31.414  35.461  1.00  0.00     0.049 A 
ATOM     54  C   UNL A   1      41.788  28.362  30.833  1.00  0.00     0.074 A 
ATOM     55  C   UNL A   1      41.820  31.159  36.530  1.00  0.00     0.029 A 
ATOM     56  N   UNL A   1      41.366  30.565  34.435  1.00  0.00    -0.354 N 
ATOM     57  N   UNL A   1      41.715  28.987  31.982  1.00  0.00    -0.248 NA
ATOM     58  C   UNL A   1      42.892  27.398  30.742  1.00  0.00     0.031 C 
ATOM     59  C   UNL A   1      42.741  30.181  36.137  1.00  0.00     0.029 A 
ATOM     60  C   UNL A   1      42.446  29.798  34.839  1.00  0.00     0.049 A 
ATOM     61  H   UNL A   1      40.935  30.515  33.550  1.00  0.00     0.167 HD
ATOM     62  C   UNL A   1      42.745  28.476  32.760  1.00  0.00     0.074 A 
ATOM     63  C   UNL A   1      43.419  27.478  31.956  1.00  0.00     0.031 C 
ATOM     64  C   UNL A   1      43.101  28.806  34.025  1.00  0.00     0.037 A 
BRANCH  51  65
ATOM     65  C   UNL A   1      39.647  33.262  36.550  1.00  0.00     0.064 A 
ATOM     66  C   UNL A   1      38.754  32.906  37.572  1.00  0.00     0.173 A 
ATOM     67  C   UNL A   1      40.334  34.479  36.674  1.00  0.00     0.173 A 
ATOM     68  F   UNL A   1      38.064  31.758  37.495  1.00  0.00    -0.203 F 
ATOM     69  C   UNL A   1      38.536  33.749  38.660  1.00  0.00     0.198 A 
ATOM     70  C   UNL A   1      40.135  35.305  37.778  1.00  0.00     0.198 A 
ATOM     71  F   UNL A   1      41.204  34.865  35.729  1.00  0.00    -0.203 F 
ATOM     72  F   UNL A   1      37.644  33.408  39.599  1.00  0.00    -0.200 F 
ATOM     73  C   UNL A   1      39.232  34.943  38.765  1.00  0.00     0.200 A 
ATOM     74  F   UNL A   1      40.817  36.454  37.884  1.00  0.00    -0.200 F 
ATOM     75  F   UNL A   1      39.025  35.749  39.816  1.00  0.00    -0.200 F 
ENDBRANCH  51  65
BRANCH  52  76
ATOM     76  C   UNL A   1      41.151  27.682  28.404  1.00  0.00     0.064 A 
ATOM     77  C   UNL A   1      42.007  28.139  27.393  1.00  0.00     0.173 A 
ATOM     78  C   UNL A   1      40.541  26.431  28.229  1.00  0.00     0.173 A 
ATOM     79  F   UNL A   1      42.598  29.337  27.508  1.00  0.00    -0.203 F 
ATOM     80  C   UNL A   1      42.230  27.384  26.244  1.00  0.00     0.198 A 
ATOM     81  C   UNL A   1      40.786  25.665  27.092  1.00  0.00     0.198 A 
ATOM     82  F   UNL A   1      39.717  25.947  29.171  1.00  0.00    -0.203 F 
ATOM     83  F   UNL A   1      43.022  27.861  25.274  1.00  0.00    -0.200 F 
ATOM     84  C   UNL A   1      41.624  26.145  26.096  1.00  0.00     0.200 A 
ATOM     85  F   UNL A   1      40.208  24.463  26.959  1.00  0.00    -0.200 F 
ATOM     86  F   UNL A   1      41.843  25.417  24.994  1.00  0.00    -0.200 F 
ENDBRANCH  52  76
BRANCH  64  87
ATOM     87  C   UNL A   1      44.258  28.062  34.625  1.00  0.00     0.064 A 
ATOM     88  C   UNL A   1      44.077  26.843  35.294  1.00  0.00     0.173 A 
ATOM     89  C   UNL A   1      45.564  28.558  34.500  1.00  0.00     0.173 A 
ATOM     90  F   UNL A   1      42.845  26.335  35.454  1.00  0.00    -0.203 F 
ATOM     91  C   UNL A   1      45.161  26.159  35.837  1.00  0.00     0.198 A 
ATOM     92  C   UNL A   1      46.648  27.858  35.021  1.00  0.00     0.198 A 
ATOM     93  F   UNL A   1      45.789  29.718  33.865  1.00  0.00    -0.203 F 
ATOM     94  F   UNL A   1      44.962  25.019  36.513  1.00  0.00    -0.200 F 
ATOM     95  C   UNL A   1      46.446  26.663  35.694  1.00  0.00     0.200 A 
ATOM     96  F   UNL A   1      47.890  28.341  34.871  1.00  0.00    -0.200 F 
ATOM     97  F   UNL A   1      47.489  26.001  36.214  1.00  0.00    -0.200 F 
ENDBRANCH  64  87
ENDBRANCH  38  39
ENDBRANCH  30  33
ENDBRANCH  28  29
ENDBRANCH  27  28
ENDBRANCH  26  27
ENDBRANCH   3  26
TORSDOF 17
ENDMDL
MODEL 3
REMARK VINA RESULT:     -11.5      3.635     10.582
REMARK SMILES [NH3+][C@]1(C(=O)NCCCNC(=O)c2ccc(-c3c4nc(c(-c5c(F)c(F)c(F)c(F)c5F)c5ccc([nH]5)c(-c5c(F)c(F)c(F)c(F)c5F)c5nc(c(-c6c(F)c(F)c(F)c(F)c6F)c6ccc3[nH]6)C=C5)C=C4)cc2)CCC[C@@H]1CCOc1ccc(CO)cc1
REMARK SMILES IDX 3 1 4 2 5 3 2 5 75 6 78 7 76 8 77 9 1 10 79 14 80 15 81 16
REMARK SMILES IDX 82 17 83 18 89 19 84 20 88 21 85 22 86 23 87 24 6 26 7 27
REMARK SMILES IDX 8 28 9 29 10 30 11 32 12 33 13 34 74 35 14 36 73 37 15 38
REMARK SMILES IDX 16 39 17 40 67 41 18 42 72 43 66 44 68 45 19 46 71 47 65 48
REMARK SMILES IDX 64 49 20 51 52 52 32 53 51 54 33 55 36 56 50 57 69 58 34 59
REMARK SMILES IDX 35 60 49 62 70 63 37 64 21 65 22 66 30 67 23 68 24 69 28 70
REMARK SMILES IDX 31 71 25 72 26 73 29 74 27 75 53 76 54 77 62 78 55 79 56 80
REMARK SMILES IDX 60 81 63 82 57 83 58 84 61 85 59 86 38 87 39 88 47 89 40 90
REMARK SMILES IDX 41 91 45 92 48 93 42 94 43 95 46 96 44 97
REMARK H PARENT 5 4 1 11 1 12 1 13 87 25 9 31 68 50 36 61
REMARK Flexibility Score: inf
ROOT
ATOM      1  C   UNL A   1      34.096  35.325  31.355  1.00  0.00     0.281 C 
ATOM      2  O   UNL A   1      33.423  35.975  32.172  1.00  0.00    -0.268 OA
ATOM      3  N   UNL A   1      33.860  35.662  30.072  1.00  0.00    -0.351 N 
ATOM      4  H   UNL A   1      33.150  36.334  29.966  1.00  0.00     0.163 HD
ENDROOT
BRANCH   1   5
ATOM      5  C   UNL A   1      35.182  34.319  31.887  1.00  0.00     0.176 C 
ATOM      6  C   UNL A   1      34.407  32.966  31.936  1.00  0.00     0.079 C 
ATOM      7  C   UNL A   1      36.480  33.917  31.089  1.00  0.00     0.064 C 
ATOM      8  C   UNL A   1      35.453  31.901  32.122  1.00  0.00     0.008 C 
ATOM      9  C   UNL A   1      36.590  32.379  31.248  1.00  0.00     0.011 C 
BRANCH   5  10
ATOM     10  N   UNL A   1      35.500  34.722  33.280  1.00  0.00    -0.345 N 
ATOM     11  H   UNL A   1      35.219  35.691  33.426  1.00  0.00     0.345 HD
ATOM     12  H   UNL A   1      36.504  34.631  33.439  1.00  0.00     0.345 HD
ATOM     13  H   UNL A   1      34.996  34.119  33.930  1.00  0.00     0.345 HD
ENDBRANCH   5  10
BRANCH   7  14
ATOM     14  C   UNL A   1      37.799  34.706  31.425  1.00  0.00     0.052 C 
BRANCH  14  15
ATOM     15  C   UNL A   1      38.743  34.255  32.557  1.00  0.00     0.230 C 
BRANCH  15  16
ATOM     16  O   UNL A   1      38.524  34.953  33.796  1.00  0.00    -0.494 OA
BRANCH  16  17
ATOM     17  C   UNL A   1      38.495  34.107  34.865  1.00  0.00     0.119 A 
ATOM     18  C   UNL A   1      38.545  34.578  36.174  1.00  0.00     0.047 A 
ATOM     19  C   UNL A   1      38.371  32.747  34.601  1.00  0.00     0.047 A 
ATOM     20  C   UNL A   1      38.299  33.697  37.228  1.00  0.00     0.010 A 
ATOM     21  C   UNL A   1      38.119  31.866  35.649  1.00  0.00     0.010 A 
ATOM     22  C   UNL A   1      38.023  32.346  36.966  1.00  0.00    -0.022 A 
BRANCH  22  23
ATOM     23  C   UNL A   1      37.546  31.432  38.062  1.00  0.00     0.191 C 
BRANCH  23  24
ATOM     24  O   UNL A   1      37.398  30.099  37.601  1.00  0.00    -0.392 OA
ATOM     25  H   UNL A   1      36.826  29.608  38.211  1.00  0.00     0.211 HD
ENDBRANCH  23  24
ENDBRANCH  22  23
ENDBRANCH  16  17
ENDBRANCH  15  16
ENDBRANCH  14  15
ENDBRANCH   7  14
ENDBRANCH   1   5
BRANCH   3  26
ATOM     26  C   UNL A   1      34.439  35.238  28.827  1.00  0.00     0.118 C 
BRANCH  26  27
ATOM     27  C   UNL A   1      33.748  34.000  28.267  1.00  0.00     0.042 C 
BRANCH  27  28
ATOM     28  C   UNL A   1      34.681  32.798  28.104  1.00  0.00     0.118 C 
BRANCH  28  29
ATOM     29  N   UNL A   1      33.968  31.593  27.704  1.00  0.00    -0.352 N 
ATOM     30  C   UNL A   1      34.402  30.303  27.548  1.00  0.00     0.251 C 
ATOM     31  H   UNL A   1      33.012  31.728  27.513  1.00  0.00     0.163 HD
ATOM     32  O   UNL A   1      33.664  29.486  27.006  1.00  0.00    -0.269 OA
BRANCH  30  33
ATOM     33  C   UNL A   1      35.737  29.876  28.019  1.00  0.00     0.039 A 
ATOM     34  C   UNL A   1      35.845  29.336  29.305  1.00  0.00     0.014 A 
ATOM     35  C   UNL A   1      36.887  30.077  27.251  1.00  0.00     0.014 A 
ATOM     36  C   UNL A   1      37.094  28.969  29.807  1.00  0.00     0.010 A 
ATOM     37  C   UNL A   1      38.127  29.652  27.727  1.00  0.00     0.010 A 
ATOM     38  C   UNL A   1      38.244  29.107  29.014  1.00  0.00    -0.014 A 
BRANCH  38  39
ATOM     39  C   UNL A   1      39.576  28.704  29.530  1.00  0.00     0.031 A 
ATOM     40  C   UNL A   1      40.254  29.520  30.594  1.00  0.00     0.074 A 
ATOM     41  C   UNL A   1      40.192  27.628  29.004  1.00  0.00     0.049 A 
ATOM     42  N   UNL A   1      41.437  29.356  31.135  1.00  0.00    -0.248 NA
ATOM     43  C   UNL A   1      39.519  30.687  31.102  1.00  0.00     0.031 C 
ATOM     44  C   UNL A   1      39.652  26.783  27.938  1.00  0.00     0.029 A 
ATOM     45  N   UNL A   1      41.411  27.066  29.291  1.00  0.00    -0.354 N 
ATOM     46  C   UNL A   1      41.591  30.407  32.030  1.00  0.00     0.074 A 
ATOM     47  C   UNL A   1      40.404  31.227  31.929  1.00  0.00     0.031 C 
ATOM     48  C   UNL A   1      40.526  25.799  27.673  1.00  0.00     0.029 A 
ATOM     49  C   UNL A   1      41.699  25.962  28.527  1.00  0.00     0.049 A 
ATOM     50  H   UNL A   1      42.020  27.421  29.977  1.00  0.00     0.167 HD
ATOM     51  C   UNL A   1      42.621  30.652  32.875  1.00  0.00     0.037 A 
ATOM     52  C   UNL A   1      42.789  25.173  28.515  1.00  0.00     0.037 A 
ATOM     53  C   UNL A   1      43.786  29.815  32.996  1.00  0.00     0.049 A 
ATOM     54  C   UNL A   1      43.914  25.461  29.471  1.00  0.00     0.074 A 
ATOM     55  C   UNL A   1      44.854  29.942  33.867  1.00  0.00     0.029 A 
ATOM     56  N   UNL A   1      44.034  28.693  32.219  1.00  0.00    -0.354 N 
ATOM     57  N   UNL A   1      44.020  26.420  30.358  1.00  0.00    -0.248 NA
ATOM     58  C   UNL A   1      45.067  24.552  29.428  1.00  0.00     0.031 C 
ATOM     59  C   UNL A   1      45.767  28.918  33.591  1.00  0.00     0.029 A 
ATOM     60  C   UNL A   1      45.248  28.128  32.578  1.00  0.00     0.049 A 
ATOM     61  H   UNL A   1      43.435  28.348  31.517  1.00  0.00     0.167 HD
ATOM     62  C   UNL A   1      45.237  26.217  30.995  1.00  0.00     0.074 A 
ATOM     63  C   UNL A   1      45.825  25.034  30.403  1.00  0.00     0.031 C 
ATOM     64  C   UNL A   1      45.815  26.947  31.979  1.00  0.00     0.037 A 
BRANCH  51  65
ATOM     65  C   UNL A   1      42.532  31.875  33.742  1.00  0.00     0.064 A 
ATOM     66  C   UNL A   1      42.930  33.137  33.275  1.00  0.00     0.173 A 
ATOM     67  C   UNL A   1      42.012  31.790  35.043  1.00  0.00     0.173 A 
ATOM     68  F   UNL A   1      43.444  33.270  32.043  1.00  0.00    -0.203 F 
ATOM     69  C   UNL A   1      42.835  34.264  34.089  1.00  0.00     0.198 A 
ATOM     70  C   UNL A   1      41.893  32.924  35.842  1.00  0.00     0.198 A 
ATOM     71  F   UNL A   1      41.612  30.609  35.536  1.00  0.00    -0.203 F 
ATOM     72  F   UNL A   1      43.264  35.450  33.637  1.00  0.00    -0.200 F 
ATOM     73  C   UNL A   1      42.311  34.158  35.368  1.00  0.00     0.200 A 
ATOM     74  F   UNL A   1      41.375  32.822  37.073  1.00  0.00    -0.200 F 
ATOM     75  F   UNL A   1      42.216  35.245  36.146  1.00  0.00    -0.200 F 
ENDBRANCH  51  65
BRANCH  52  76
ATOM     76  C   UNL A   1      42.855  24.017  27.585  1.00  0.00     0.064 A 
ATOM     77  C   UNL A   1      42.423  22.746  27.988  1.00  0.00     0.173 A 
ATOM     78  C   UNL A   1      43.344  24.158  26.278  1.00  0.00     0.173 A 
ATOM     79  F   UNL A   1      41.965  22.559  29.234  1.00  0.00    -0.203 F 
ATOM     80  C   UNL A   1      42.494  21.656  27.124  1.00  0.00     0.198 A 
ATOM     81  C   UNL A   1      43.390  23.072  25.407  1.00  0.00     0.198 A 
ATOM     82  F   UNL A   1      43.765  25.355  25.843  1.00  0.00    -0.203 F 
ATOM     83  F   UNL A   1      42.111  20.443  27.547  1.00  0.00    -0.200 F 
ATOM     84  C   UNL A   1      42.971  21.820  25.833  1.00  0.00     0.200 A 
ATOM     85  F   UNL A   1      43.840  23.238  24.156  1.00  0.00    -0.200 F 
ATOM     86  F   UNL A   1      43.034  20.772  25.001  1.00  0.00    -0.200 F 
ENDBRANCH  52  76
BRANCH  64  87
ATOM     87  C   UNL A   1      47.141  26.471  32.495  1.00  0.00     0.064 A 
ATOM     88  C   UNL A   1      48.348  26.980  31.994  1.00  0.00     0.173 A 
ATOM     89  C   UNL A   1      47.204  25.521  33.524  1.00  0.00     0.173 A 
ATOM     90  F   UNL A   1      48.341  27.880  30.998  1.00  0.00    -0.203 F 
ATOM     91  C   UNL A   1      49.571  26.536  32.489  1.00  0.00     0.198 A 
ATOM     92  C   UNL A   1      48.428  25.098  34.036  1.00  0.00     0.198 A 
ATOM     93  F   UNL A   1      46.077  25.007  34.040  1.00  0.00    -0.203 F 
ATOM     94  F   UNL A   1      50.713  27.001  31.965  1.00  0.00    -0.200 F 
ATOM     95  C   UNL A   1      49.609  25.601  33.514  1.00  0.00     0.200 A 
ATOM     96  F   UNL A   1      48.462  24.205  35.034  1.00  0.00    -0.200 F 
ATOM     97  F   UNL A   1      50.788  25.178  33.992  1.00  0.00    -0.200 F 
ENDBRANCH  64  87
ENDBRANCH  38  39
ENDBRANCH  30  33
ENDBRANCH  28  29
ENDBRANCH  27  28
ENDBRANCH  26  27
ENDBRANCH   3  26
TORSDOF 17
ENDMDL
