MODEL 1
REMARK VINA RESULT:     -13.1      0.000      0.000
REMARK SMILES C#Cc1cc(Cl)c2c(c1)C=C(C(=O)NCCCNC(=O)c1ccc(-c3c4nc(c(-c5c(F)c(F)c(F)c(F)c5F)c5ccc([nH]5)c(-c5c(F)c(F)c(F)c(F)c5F)c5nc(c(-c6c(F)c(F)c(F)c(F)c6F)c6ccc3[nH]6)C=C5)C=C4)cc1)[C@@H](C(F)(F)F)O2
REMARK SMILES IDX 16 1 15 2 14 3 12 4 13 5 11 7 3 8 4 9 9 10 5 11 8 12 6 13
REMARK SMILES IDX 7 14 10 15 89 16 84 17 2 18 1 19 85 20 86 21 87 22 88 23
REMARK SMILES IDX 17 24 18 25 19 26 20 28 21 29 22 30 83 31 23 32 82 33 24 34
REMARK SMILES IDX 25 35 26 36 76 37 27 38 81 39 75 40 77 41 28 42 80 43 74 44
REMARK SMILES IDX 73 45 29 47 61 48 41 49 60 50 42 51 45 52 59 53 78 54 43 55
REMARK SMILES IDX 44 56 58 58 79 59 46 60 30 61 31 62 39 63 32 64 33 65 37 66
REMARK SMILES IDX 40 67 34 68 35 69 38 70 36 71 62 72 63 73 71 74 64 75 65 76
REMARK SMILES IDX 69 77 72 78 66 79 67 80 70 81 68 82 47 83 48 84 56 85 49 86
REMARK SMILES IDX 50 87 54 88 57 89 51 90 52 91 55 92 53 93
REMARK H PARENT 14 6 18 27 77 46 45 57
REMARK Flexibility Score: inf
ROOT
ATOM      1  C   UNL A   1      31.419  32.225  26.672  1.00  0.00     0.042 C 
ENDROOT
BRANCH   1   2
ATOM      2  C   UNL A   1      31.589  30.750  26.358  1.00  0.00     0.118 C 
BRANCH   2   3
ATOM      3  N   UNL A   1      31.239  30.445  24.978  1.00  0.00    -0.352 N 
ATOM      4  C   UNL A   1      31.142  29.339  24.202  1.00  0.00     0.251 C 
ATOM      5  O   UNL A   1      30.782  29.538  23.039  1.00  0.00    -0.270 OA
ATOM      6  H   UNL A   1      31.013  31.260  24.476  1.00  0.00     0.163 HD
BRANCH   4   7
ATOM      7  C   UNL A   1      31.443  27.953  24.661  1.00  0.00     0.067 C 
ATOM      8  C   UNL A   1      34.711  24.513  25.597  1.00  0.00     0.027 A 
ATOM      9  C   UNL A   1      33.712  23.698  26.134  1.00  0.00     0.041 A 
ATOM     10  C   UNL A   1      34.400  25.792  25.122  1.00  0.00     0.029 A 
ATOM     11  C   UNL A   1      32.404  24.166  26.201  1.00  0.00     0.084 A 
ATOM     12  C   UNL A   1      33.084  26.262  25.184  1.00  0.00     0.020 A 
ATOM     13  Cl  UNL A   1      31.191  23.140  26.878  1.00  0.00    -0.080 Cl
ATOM     14  C   UNL A   1      32.088  25.442  25.724  1.00  0.00     0.146 A 
ATOM     15  C   UNL A   1      32.742  27.611  24.739  1.00  0.00     0.025 C 
ATOM     16  O   UNL A   1      30.798  25.867  25.857  1.00  0.00    -0.474 OA
ATOM     17  C   UNL A   1      30.379  26.954  25.002  1.00  0.00     0.314 C 
BRANCH   8  18
ATOM     18  C   UNL A   1      36.055  24.032  25.558  1.00  0.00    -0.070 C 
ATOM     19  C   UNL A   1      37.197  23.660  25.535  1.00  0.00     0.010 C 
ENDBRANCH   8  18
BRANCH  17  20
ATOM     20  C   UNL A   1      29.678  26.386  23.752  1.00  0.00     0.429 C 
ATOM     21  F   UNL A   1      28.505  27.031  23.533  1.00  0.00    -0.167 F 
ATOM     22  F   UNL A   1      30.414  26.539  22.625  1.00  0.00    -0.167 F 
ATOM     23  F   UNL A   1      29.407  25.067  23.862  1.00  0.00    -0.167 F 
ENDBRANCH  17  20
ENDBRANCH   4   7
ENDBRANCH   2   3
ENDBRANCH   1   2
BRANCH   1  24
ATOM     24  C   UNL A   1      32.689  32.818  27.258  1.00  0.00     0.118 C 
BRANCH  24  25
ATOM     25  N   UNL A   1      32.511  34.222  27.626  1.00  0.00    -0.352 N 
ATOM     26  C   UNL A   1      33.009  34.929  28.690  1.00  0.00     0.251 C 
ATOM     27  H   UNL A   1      31.944  34.742  27.012  1.00  0.00     0.163 HD
ATOM     28  O   UNL A   1      32.531  36.019  28.986  1.00  0.00    -0.269 OA
BRANCH  26  29
ATOM     29  C   UNL A   1      34.120  34.366  29.476  1.00  0.00     0.039 A 
ATOM     30  C   UNL A   1      33.847  33.689  30.664  1.00  0.00     0.014 A 
ATOM     31  C   UNL A   1      35.434  34.513  29.028  1.00  0.00     0.014 A 
ATOM     32  C   UNL A   1      34.895  33.099  31.367  1.00  0.00     0.010 A 
ATOM     33  C   UNL A   1      36.455  33.823  29.659  1.00  0.00     0.010 A 
ATOM     34  C   UNL A   1      36.200  33.131  30.848  1.00  0.00    -0.014 A 
BRANCH  34  35
ATOM     35  C   UNL A   1      37.326  32.482  31.556  1.00  0.00     0.031 A 
ATOM     36  C   UNL A   1      38.031  31.319  30.919  1.00  0.00     0.074 A 
ATOM     37  C   UNL A   1      37.679  32.915  32.780  1.00  0.00     0.049 A 
ATOM     38  N   UNL A   1      39.012  30.591  31.388  1.00  0.00    -0.248 NA
ATOM     39  C   UNL A   1      37.558  30.899  29.588  1.00  0.00     0.031 C 
ATOM     40  C   UNL A   1      37.035  34.010  33.508  1.00  0.00     0.029 A 
ATOM     41  N   UNL A   1      38.669  32.488  33.629  1.00  0.00    -0.354 N 
ATOM     42  C   UNL A   1      39.267  29.637  30.414  1.00  0.00     0.074 A 
ATOM     43  C   UNL A   1      38.291  29.820  29.364  1.00  0.00     0.031 C 
ATOM     44  C   UNL A   1      37.675  34.199  34.672  1.00  0.00     0.029 A 
ATOM     45  C   UNL A   1      38.740  33.209  34.796  1.00  0.00     0.049 A 
ATOM     46  H   UNL A   1      39.270  31.737  33.421  1.00  0.00     0.167 HD
ATOM     47  C   UNL A   1      40.256  28.715  30.381  1.00  0.00     0.037 A 
ATOM     48  C   UNL A   1      39.573  33.080  35.846  1.00  0.00     0.037 A 
ATOM     49  C   UNL A   1      41.234  28.555  31.422  1.00  0.00     0.049 A 
ATOM     50  C   UNL A   1      40.634  32.014  35.806  1.00  0.00     0.074 A 
ATOM     51  C   UNL A   1      42.300  27.675  31.470  1.00  0.00     0.029 A 
ATOM     52  N   UNL A   1      41.262  29.289  32.599  1.00  0.00    -0.354 N 
ATOM     53  N   UNL A   1      40.910  31.157  34.851  1.00  0.00    -0.248 NA
ATOM     54  C   UNL A   1      41.502  31.896  36.985  1.00  0.00     0.031 C 
ATOM     55  C   UNL A   1      42.935  27.831  32.704  1.00  0.00     0.029 A 
ATOM     56  C   UNL A   1      42.309  28.857  33.396  1.00  0.00     0.049 A 
ATOM     57  H   UNL A   1      40.633  30.009  32.832  1.00  0.00     0.167 HD
ATOM     58  C   UNL A   1      41.995  30.419  35.301  1.00  0.00     0.074 A 
ATOM     59  C   UNL A   1      42.342  30.942  36.607  1.00  0.00     0.031 C 
ATOM     60  C   UNL A   1      42.644  29.397  34.691  1.00  0.00     0.037 A 
BRANCH  47  61
ATOM     61  C   UNL A   1      40.344  27.821  29.178  1.00  0.00     0.064 A 
ATOM     62  C   UNL A   1      39.627  26.616  29.106  1.00  0.00     0.173 A 
ATOM     63  C   UNL A   1      41.097  28.203  28.059  1.00  0.00     0.173 A 
ATOM     64  F   UNL A   1      38.904  26.195  30.154  1.00  0.00    -0.203 F 
ATOM     65  C   UNL A   1      39.676  25.821  27.964  1.00  0.00     0.198 A 
ATOM     66  C   UNL A   1      41.114  27.424  26.906  1.00  0.00     0.198 A 
ATOM     67  F   UNL A   1      41.801  29.346  28.075  1.00  0.00    -0.203 F 
ATOM     68  F   UNL A   1      39.016  24.655  27.933  1.00  0.00    -0.200 F 
ATOM     69  C   UNL A   1      40.407  26.232  26.861  1.00  0.00     0.200 A 
ATOM     70  F   UNL A   1      41.809  27.831  25.834  1.00  0.00    -0.200 F 
ATOM     71  F   UNL A   1      40.433  25.477  25.754  1.00  0.00    -0.200 F 
ENDBRANCH  47  61
BRANCH  48  72
ATOM     72  C   UNL A   1      39.454  34.010  37.001  1.00  0.00     0.064 A 
ATOM     73  C   UNL A   1      38.673  33.675  38.116  1.00  0.00     0.173 A 
ATOM     74  C   UNL A   1      40.136  35.236  37.027  1.00  0.00     0.173 A 
ATOM     75  F   UNL A   1      37.988  32.523  38.133  1.00  0.00    -0.203 F 
ATOM     76  C   UNL A   1      38.568  34.537  39.206  1.00  0.00     0.198 A 
ATOM     77  C   UNL A   1      40.057  36.081  38.133  1.00  0.00     0.198 A 
ATOM     78  F   UNL A   1      40.903  35.602  35.990  1.00  0.00    -0.203 F 
ATOM     79  F   UNL A   1      37.782  34.210  40.241  1.00  0.00    -0.200 F 
ATOM     80  C   UNL A   1      39.267  35.735  39.218  1.00  0.00     0.200 A 
ATOM     81  F   UNL A   1      40.751  37.227  38.148  1.00  0.00    -0.200 F 
ATOM     82  F   UNL A   1      39.178  36.555  40.273  1.00  0.00    -0.200 F 
ENDBRANCH  48  72
BRANCH  60  83
ATOM     83  C   UNL A   1      43.808  28.777  35.410  1.00  0.00     0.064 A 
ATOM     84  C   UNL A   1      45.112  29.270  35.255  1.00  0.00     0.173 A 
ATOM     85  C   UNL A   1      43.602  27.742  36.334  1.00  0.00     0.173 A 
ATOM     86  F   UNL A   1      45.363  30.253  34.377  1.00  0.00    -0.203 F 
ATOM     87  C   UNL A   1      46.168  28.739  35.989  1.00  0.00     0.198 A 
ATOM     88  C   UNL A   1      44.655  27.239  37.094  1.00  0.00     0.198 A 
ATOM     89  F   UNL A   1      42.372  27.242  36.529  1.00  0.00    -0.203 F 
ATOM     90  F   UNL A   1      47.412  29.200  35.797  1.00  0.00    -0.200 F 
ATOM     91  C   UNL A   1      45.938  27.735  36.917  1.00  0.00     0.200 A 
ATOM     92  F   UNL A   1      44.424  26.286  38.008  1.00  0.00    -0.200 F 
ATOM     93  F   UNL A   1      46.952  27.243  37.642  1.00  0.00    -0.200 F 
ENDBRANCH  60  83
ENDBRANCH  34  35
ENDBRANCH  26  29
ENDBRANCH  24  25
ENDBRANCH   1  24
TORSDOF 12
ENDMDL
MODEL 2
REMARK VINA RESULT:     -13.0      5.787     10.752
REMARK SMILES C#Cc1cc(Cl)c2c(c1)C=C(C(=O)NCCCNC(=O)c1ccc(-c3c4nc(c(-c5c(F)c(F)c(F)c(F)c5F)c5ccc([nH]5)c(-c5c(F)c(F)c(F)c(F)c5F)c5nc(c(-c6c(F)c(F)c(F)c(F)c6F)c6ccc3[nH]6)C=C5)C=C4)cc1)[C@@H](C(F)(F)F)O2
REMARK SMILES IDX 16 1 15 2 14 3 12 4 13 5 11 7 3 8 4 9 9 10 5 11 8 12 6 13
REMARK SMILES IDX 7 14 10 15 89 16 84 17 2 18 1 19 85 20 86 21 87 22 88 23
REMARK SMILES IDX 17 24 18 25 19 26 20 28 21 29 22 30 83 31 23 32 82 33 24 34
REMARK SMILES IDX 25 35 26 36 76 37 27 38 81 39 75 40 77 41 28 42 80 43 74 44
REMARK SMILES IDX 73 45 29 47 61 48 41 49 60 50 42 51 45 52 59 53 78 54 43 55
REMARK SMILES IDX 44 56 58 58 79 59 46 60 30 61 31 62 39 63 32 64 33 65 37 66
REMARK SMILES IDX 40 67 34 68 35 69 38 70 36 71 62 72 63 73 71 74 64 75 65 76
REMARK SMILES IDX 69 77 72 78 66 79 67 80 70 81 68 82 47 83 48 84 56 85 49 86
REMARK SMILES IDX 50 87 54 88 57 89 51 90 52 91 55 92 53 93
REMARK H PARENT 14 6 18 27 77 46 45 57
REMARK Flexibility Score: inf
ROOT
ATOM      1  C   UNL A   1      38.145  19.614  25.014  1.00  0.00     0.042 C 
ENDROOT
BRANCH   1   2
ATOM      2  C   UNL A   1      37.109  20.693  24.759  1.00  0.00     0.118 C 
BRANCH   2   3
ATOM      3  N   UNL A   1      35.810  20.343  25.315  1.00  0.00    -0.352 N 
ATOM      4  C   UNL A   1      34.575  20.895  25.372  1.00  0.00     0.251 C 
ATOM      5  O   UNL A   1      33.720  20.222  25.954  1.00  0.00    -0.270 OA
ATOM      6  H   UNL A   1      35.837  19.470  25.770  1.00  0.00     0.163 HD
BRANCH   4   7
ATOM      7  C   UNL A   1      34.213  22.223  24.799  1.00  0.00     0.067 C 
ATOM      8  C   UNL A   1      33.711  26.997  25.391  1.00  0.00     0.027 A 
ATOM      9  C   UNL A   1      33.451  27.147  24.027  1.00  0.00     0.041 A 
ATOM     10  C   UNL A   1      33.996  25.733  25.921  1.00  0.00     0.029 A 
ATOM     11  C   UNL A   1      33.482  26.034  23.193  1.00  0.00     0.084 A 
ATOM     12  C   UNL A   1      34.023  24.612  25.085  1.00  0.00     0.020 A 
ATOM     13  Cl  UNL A   1      33.166  26.251  21.510  1.00  0.00    -0.080 Cl
ATOM     14  C   UNL A   1      33.763  24.770  23.720  1.00  0.00     0.146 A 
ATOM     15  C   UNL A   1      34.365  23.290  25.604  1.00  0.00     0.025 C 
ATOM     16  O   UNL A   1      33.826  23.721  22.848  1.00  0.00    -0.474 OA
ATOM     17  C   UNL A   1      33.679  22.397  23.409  1.00  0.00     0.314 C 
BRANCH   8  18
ATOM     18  C   UNL A   1      33.701  28.150  26.233  1.00  0.00    -0.070 C 
ATOM     19  C   UNL A   1      33.690  29.100  26.969  1.00  0.00     0.010 C 
ENDBRANCH   8  18
BRANCH  17  20
ATOM     20  C   UNL A   1      32.211  21.943  23.279  1.00  0.00     0.429 C 
ATOM     21  F   UNL A   1      31.593  21.989  24.485  1.00  0.00    -0.167 F 
ATOM     22  F   UNL A   1      31.490  22.737  22.450  1.00  0.00    -0.167 F 
ATOM     23  F   UNL A   1      32.097  20.683  22.806  1.00  0.00    -0.167 F 
ENDBRANCH  17  20
ENDBRANCH   4   7
ENDBRANCH   2   3
ENDBRANCH   1   2
BRANCH   1  24
ATOM     24  C   UNL A   1      39.318  20.149  25.818  1.00  0.00     0.118 C 
BRANCH  24  25
ATOM     25  N   UNL A   1      40.378  19.151  25.958  1.00  0.00    -0.352 N 
ATOM     26  C   UNL A   1      41.732  19.312  26.092  1.00  0.00     0.251 C 
ATOM     27  H   UNL A   1      40.068  18.217  25.956  1.00  0.00     0.163 HD
ATOM     28  O   UNL A   1      42.488  18.361  25.917  1.00  0.00    -0.269 OA
BRANCH  26  29
ATOM     29  C   UNL A   1      42.273  20.636  26.444  1.00  0.00     0.039 A 
ATOM     30  C   UNL A   1      42.714  21.488  25.432  1.00  0.00     0.014 A 
ATOM     31  C   UNL A   1      42.339  21.028  27.782  1.00  0.00     0.014 A 
ATOM     32  C   UNL A   1      43.159  22.766  25.765  1.00  0.00     0.010 A 
ATOM     33  C   UNL A   1      42.663  22.336  28.099  1.00  0.00     0.010 A 
ATOM     34  C   UNL A   1      43.100  23.209  27.097  1.00  0.00    -0.014 A 
BRANCH  34  35
ATOM     35  C   UNL A   1      43.534  24.573  27.473  1.00  0.00     0.031 A 
ATOM     36  C   UNL A   1      42.504  25.607  27.828  1.00  0.00     0.074 A 
ATOM     37  C   UNL A   1      44.843  24.884  27.454  1.00  0.00     0.049 A 
ATOM     38  N   UNL A   1      42.672  26.864  28.148  1.00  0.00    -0.248 NA
ATOM     39  C   UNL A   1      41.093  25.183  27.796  1.00  0.00     0.031 C 
ATOM     40  C   UNL A   1      45.924  23.967  27.086  1.00  0.00     0.029 A 
ATOM     41  N   UNL A   1      45.489  26.057  27.754  1.00  0.00    -0.354 N 
ATOM     42  C   UNL A   1      41.398  27.372  28.353  1.00  0.00     0.074 A 
ATOM     43  C   UNL A   1      40.459  26.318  28.044  1.00  0.00     0.031 C 
ATOM     44  C   UNL A   1      47.100  24.597  27.226  1.00  0.00     0.029 A 
ATOM     45  C   UNL A   1      46.856  25.974  27.645  1.00  0.00     0.049 A 
ATOM     46  H   UNL A   1      45.018  26.878  28.022  1.00  0.00     0.167 HD
ATOM     47  C   UNL A   1      41.045  28.598  28.799  1.00  0.00     0.037 A 
ATOM     48  C   UNL A   1      47.801  26.909  27.858  1.00  0.00     0.037 A 
ATOM     49  C   UNL A   1      41.988  29.634  29.122  1.00  0.00     0.049 A 
ATOM     50  C   UNL A   1      47.378  28.281  28.308  1.00  0.00     0.074 A 
ATOM     51  C   UNL A   1      41.737  30.900  29.617  1.00  0.00     0.029 A 
ATOM     52  N   UNL A   1      43.364  29.521  28.979  1.00  0.00    -0.354 N 
ATOM     53  N   UNL A   1      46.173  28.734  28.562  1.00  0.00    -0.248 NA
ATOM     54  C   UNL A   1      48.443  29.274  28.503  1.00  0.00     0.031 C 
ATOM     55  C   UNL A   1      42.954  31.577  29.712  1.00  0.00     0.029 A 
ATOM     56  C   UNL A   1      43.972  30.711  29.345  1.00  0.00     0.049 A 
ATOM     57  H   UNL A   1      43.837  28.717  28.665  1.00  0.00     0.167 HD
ATOM     58  C   UNL A   1      46.337  30.049  28.971  1.00  0.00     0.074 A 
ATOM     59  C   UNL A   1      47.760  30.318  28.951  1.00  0.00     0.031 C 
ATOM     60  C   UNL A   1      45.393  30.956  29.327  1.00  0.00     0.037 A 
BRANCH  47  61
ATOM     61  C   UNL A   1      39.583  28.886  28.982  1.00  0.00     0.064 A 
ATOM     62  C   UNL A   1      38.965  28.776  30.238  1.00  0.00     0.173 A 
ATOM     63  C   UNL A   1      38.805  29.342  27.907  1.00  0.00     0.173 A 
ATOM     64  F   UNL A   1      39.659  28.330  31.296  1.00  0.00    -0.203 F 
ATOM     65  C   UNL A   1      37.621  29.095  30.407  1.00  0.00     0.198 A 
ATOM     66  C   UNL A   1      37.471  29.695  28.087  1.00  0.00     0.198 A 
ATOM     67  F   UNL A   1      39.346  29.465  26.685  1.00  0.00    -0.203 F 
ATOM     68  F   UNL A   1      37.043  28.943  31.605  1.00  0.00    -0.200 F 
ATOM     69  C   UNL A   1      36.879  29.568  29.335  1.00  0.00     0.200 A 
ATOM     70  F   UNL A   1      36.759  30.167  27.054  1.00  0.00    -0.200 F 
ATOM     71  F   UNL A   1      35.591  29.899  29.504  1.00  0.00    -0.200 F 
ENDBRANCH  47  61
BRANCH  48  72
ATOM     72  C   UNL A   1      49.236  26.560  27.684  1.00  0.00     0.064 A 
ATOM     73  C   UNL A   1      50.053  26.304  28.794  1.00  0.00     0.173 A 
ATOM     74  C   UNL A   1      49.815  26.451  26.410  1.00  0.00     0.173 A 
ATOM     75  F   UNL A   1      49.553  26.412  30.033  1.00  0.00    -0.203 F 
ATOM     76  C   UNL A   1      51.396  25.964  28.637  1.00  0.00     0.198 A 
ATOM     77  C   UNL A   1      51.149  26.079  26.255  1.00  0.00     0.198 A 
ATOM     78  F   UNL A   1      49.078  26.679  25.314  1.00  0.00    -0.203 F 
ATOM     79  F   UNL A   1      52.163  25.764  29.717  1.00  0.00    -0.200 F 
ATOM     80  C   UNL A   1      51.941  25.843  27.368  1.00  0.00     0.200 A 
ATOM     81  F   UNL A   1      51.665  25.943  25.025  1.00  0.00    -0.200 F 
ATOM     82  F   UNL A   1      53.227  25.501  27.218  1.00  0.00    -0.200 F 
ENDBRANCH  48  72
BRANCH  60  83
ATOM     83  C   UNL A   1      45.856  32.323  29.742  1.00  0.00     0.064 A 
ATOM     84  C   UNL A   1      45.951  33.376  28.821  1.00  0.00     0.173 A 
ATOM     85  C   UNL A   1      46.117  32.605  31.092  1.00  0.00     0.173 A 
ATOM     86  F   UNL A   1      45.723  33.157  27.518  1.00  0.00    -0.203 F 
ATOM     87  C   UNL A   1      46.304  34.657  29.234  1.00  0.00     0.198 A 
ATOM     88  C   UNL A   1      46.432  33.895  31.507  1.00  0.00     0.198 A 
ATOM     89  F   UNL A   1      46.028  31.635  32.016  1.00  0.00    -0.203 F 
ATOM     90  F   UNL A   1      46.426  35.640  28.331  1.00  0.00    -0.200 F 
ATOM     91  C   UNL A   1      46.530  34.919  30.577  1.00  0.00     0.200 A 
ATOM     92  F   UNL A   1      46.625  34.150  32.808  1.00  0.00    -0.200 F 
ATOM     93  F   UNL A   1      46.844  36.159  30.976  1.00  0.00    -0.200 F 
ENDBRANCH  60  83
ENDBRANCH  34  35
ENDBRANCH  26  29
ENDBRANCH  24  25
ENDBRANCH   1  24
TORSDOF 12
ENDMDL
MODEL 3
REMARK VINA RESULT:     -13.0      0.841      7.536
REMARK SMILES C#Cc1cc(Cl)c2c(c1)C=C(C(=O)NCCCNC(=O)c1ccc(-c3c4nc(c(-c5c(F)c(F)c(F)c(F)c5F)c5ccc([nH]5)c(-c5c(F)c(F)c(F)c(F)c5F)c5nc(c(-c6c(F)c(F)c(F)c(F)c6F)c6ccc3[nH]6)C=C5)C=C4)cc1)[C@@H](C(F)(F)F)O2
REMARK SMILES IDX 16 1 15 2 14 3 12 4 13 5 11 7 3 8 4 9 9 10 5 11 8 12 6 13
REMARK SMILES IDX 7 14 10 15 89 16 84 17 2 18 1 19 85 20 86 21 87 22 88 23
REMARK SMILES IDX 17 24 18 25 19 26 20 28 21 29 22 30 83 31 23 32 82 33 24 34
REMARK SMILES IDX 25 35 26 36 76 37 27 38 81 39 75 40 77 41 28 42 80 43 74 44
REMARK SMILES IDX 73 45 29 47 61 48 41 49 60 50 42 51 45 52 59 53 78 54 43 55
REMARK SMILES IDX 44 56 58 58 79 59 46 60 30 61 31 62 39 63 32 64 33 65 37 66
REMARK SMILES IDX 40 67 34 68 35 69 38 70 36 71 62 72 63 73 71 74 64 75 65 76
REMARK SMILES IDX 69 77 72 78 66 79 67 80 70 81 68 82 47 83 48 84 56 85 49 86
REMARK SMILES IDX 50 87 54 88 57 89 51 90 52 91 55 92 53 93
REMARK H PARENT 14 6 18 27 77 46 45 57
REMARK Flexibility Score: inf
ROOT
ATOM      1  C   UNL A   1      31.409  32.170  26.780  1.00  0.00     0.042 C 
ENDROOT
BRANCH   1   2
ATOM      2  C   UNL A   1      31.615  30.708  26.429  1.00  0.00     0.118 C 
BRANCH   2   3
ATOM      3  N   UNL A   1      31.245  30.423  25.050  1.00  0.00    -0.352 N 
ATOM      4  C   UNL A   1      31.129  29.328  24.262  1.00  0.00     0.251 C 
ATOM      5  O   UNL A   1      30.755  29.543  23.106  1.00  0.00    -0.270 OA
ATOM      6  H   UNL A   1      31.019  31.246  24.560  1.00  0.00     0.163 HD
BRANCH   4   7
ATOM      7  C   UNL A   1      31.424  27.933  24.699  1.00  0.00     0.067 C 
ATOM      8  C   UNL A   1      34.681  24.482  25.632  1.00  0.00     0.027 A 
ATOM      9  C   UNL A   1      33.674  23.655  26.133  1.00  0.00     0.041 A 
ATOM     10  C   UNL A   1      34.377  25.769  25.176  1.00  0.00     0.029 A 
ATOM     11  C   UNL A   1      32.364  24.119  26.184  1.00  0.00     0.084 A 
ATOM     12  C   UNL A   1      33.059  26.235  25.221  1.00  0.00     0.020 A 
ATOM     13  Cl  UNL A   1      31.140  23.077  26.817  1.00  0.00    -0.080 Cl
ATOM     14  C   UNL A   1      32.055  25.403  25.725  1.00  0.00     0.146 A 
ATOM     15  C   UNL A   1      32.722  27.592  24.796  1.00  0.00     0.025 C 
ATOM     16  O   UNL A   1      30.761  25.823  25.841  1.00  0.00    -0.474 OA
ATOM     17  C   UNL A   1      30.356  26.926  25.000  1.00  0.00     0.314 C 
BRANCH   8  18
ATOM     18  C   UNL A   1      36.027  24.005  25.609  1.00  0.00    -0.070 C 
ATOM     19  C   UNL A   1      37.162  23.610  25.624  1.00  0.00     0.010 C 
ENDBRANCH   8  18
BRANCH  17  20
ATOM     20  C   UNL A   1      29.680  26.381  23.725  1.00  0.00     0.429 C 
ATOM     21  F   UNL A   1      28.467  26.958  23.549  1.00  0.00    -0.167 F 
ATOM     22  F   UNL A   1      30.394  26.642  22.603  1.00  0.00    -0.167 F 
ATOM     23  F   UNL A   1      29.497  25.043  23.767  1.00  0.00    -0.167 F 
ENDBRANCH  17  20
ENDBRANCH   4   7
ENDBRANCH   2   3
ENDBRANCH   1   2
BRANCH   1  24
ATOM     24  C   UNL A   1      32.729  32.862  27.074  1.00  0.00     0.118 C 
BRANCH  24  25
ATOM     25  N   UNL A   1      32.526  34.202  27.625  1.00  0.00    -0.352 N 
ATOM     26  C   UNL A   1      33.054  34.787  28.746  1.00  0.00     0.251 C 
ATOM     27  H   UNL A   1      31.913  34.773  27.108  1.00  0.00     0.163 HD
ATOM     28  O   UNL A   1      32.558  35.813  29.200  1.00  0.00    -0.269 OA
BRANCH  26  29
ATOM     29  C   UNL A   1      34.220  34.172  29.403  1.00  0.00     0.039 A 
ATOM     30  C   UNL A   1      34.022  33.254  30.435  1.00  0.00     0.014 A 
ATOM     31  C   UNL A   1      35.510  34.507  28.989  1.00  0.00     0.014 A 
ATOM     32  C   UNL A   1      35.125  32.623  31.005  1.00  0.00     0.010 A 
ATOM     33  C   UNL A   1      36.593  33.791  29.469  1.00  0.00     0.010 A 
ATOM     34  C   UNL A   1      36.414  32.861  30.499  1.00  0.00    -0.014 A 
BRANCH  34  35
ATOM     35  C   UNL A   1      37.600  32.177  31.062  1.00  0.00     0.031 A 
ATOM     36  C   UNL A   1      38.104  32.567  32.422  1.00  0.00     0.074 A 
ATOM     37  C   UNL A   1      38.237  31.243  30.333  1.00  0.00     0.049 A 
ATOM     38  N   UNL A   1      39.145  32.119  33.076  1.00  0.00    -0.248 NA
ATOM     39  C   UNL A   1      37.357  33.618  33.135  1.00  0.00     0.031 C 
ATOM     40  C   UNL A   1      37.855  30.817  28.985  1.00  0.00     0.029 A 
ATOM     41  N   UNL A   1      39.339  30.480  30.624  1.00  0.00    -0.354 N 
ATOM     42  C   UNL A   1      39.172  32.830  34.267  1.00  0.00     0.074 A 
ATOM     43  C   UNL A   1      38.099  33.796  34.217  1.00  0.00     0.031 C 
ATOM     44  C   UNL A   1      38.680  29.837  28.585  1.00  0.00     0.029 A 
ATOM     45  C   UNL A   1      39.678  29.600  29.624  1.00  0.00     0.049 A 
ATOM     46  H   UNL A   1      39.839  30.554  31.468  1.00  0.00     0.167 HD
ATOM     47  C   UNL A   1      39.997  32.663  35.325  1.00  0.00     0.037 A 
ATOM     48  C   UNL A   1      40.683  28.707  29.557  1.00  0.00     0.037 A 
ATOM     49  C   UNL A   1      41.049  31.685  35.372  1.00  0.00     0.049 A 
ATOM     50  C   UNL A   1      41.616  28.574  30.730  1.00  0.00     0.074 A 
ATOM     51  C   UNL A   1      41.918  31.408  36.411  1.00  0.00     0.029 A 
ATOM     52  N   UNL A   1      41.376  30.826  34.332  1.00  0.00    -0.354 N 
ATOM     53  N   UNL A   1      41.595  29.206  31.880  1.00  0.00    -0.248 NA
ATOM     54  C   UNL A   1      42.712  27.604  30.600  1.00  0.00     0.031 C 
ATOM     55  C   UNL A   1      42.813  30.427  35.978  1.00  0.00     0.029 A 
ATOM     56  C   UNL A   1      42.458  30.041  34.694  1.00  0.00     0.049 A 
ATOM     57  H   UNL A   1      40.908  30.781  33.467  1.00  0.00     0.167 HD
ATOM     58  C   UNL A   1      42.653  28.694  32.617  1.00  0.00     0.074 A 
ATOM     59  C   UNL A   1      43.284  27.683  31.794  1.00  0.00     0.031 C 
ATOM     60  C   UNL A   1      43.068  29.033  33.863  1.00  0.00     0.037 A 
BRANCH  47  61
ATOM     61  C   UNL A   1      39.787  33.540  36.525  1.00  0.00     0.064 A 
ATOM     62  C   UNL A   1      40.395  34.800  36.628  1.00  0.00     0.173 A 
ATOM     63  C   UNL A   1      38.916  33.146  37.552  1.00  0.00     0.173 A 
ATOM     64  F   UNL A   1      41.249  35.218  35.683  1.00  0.00    -0.203 F 
ATOM     65  C   UNL A   1      40.152  35.627  37.722  1.00  0.00     0.198 A 
ATOM     66  C   UNL A   1      38.646  33.990  38.626  1.00  0.00     0.198 A 
ATOM     67  F   UNL A   1      38.308  31.951  37.503  1.00  0.00    -0.203 F 
ATOM     68  F   UNL A   1      40.775  36.808  37.819  1.00  0.00    -0.200 F 
ATOM     69  C   UNL A   1      39.267  35.228  38.712  1.00  0.00     0.200 A 
ATOM     70  F   UNL A   1      37.778  33.609  39.574  1.00  0.00    -0.200 F 
ATOM     71  F   UNL A   1      39.015  36.034  39.752  1.00  0.00    -0.200 F 
ENDBRANCH  47  61
BRANCH  48  72
ATOM     72  C   UNL A   1      40.828  27.848  28.352  1.00  0.00     0.064 A 
ATOM     73  C   UNL A   1      41.578  28.278  27.249  1.00  0.00     0.173 A 
ATOM     74  C   UNL A   1      40.246  26.573  28.286  1.00  0.00     0.173 A 
ATOM     75  F   UNL A   1      42.140  29.495  27.254  1.00  0.00    -0.203 F 
ATOM     76  C   UNL A   1      41.728  27.473  26.121  1.00  0.00     0.198 A 
ATOM     77  C   UNL A   1      40.425  25.755  27.172  1.00  0.00     0.198 A 
ATOM     78  F   UNL A   1      39.524  26.109  29.316  1.00  0.00    -0.203 F 
ATOM     79  F   UNL A   1      42.416  27.927  25.064  1.00  0.00    -0.200 F 
ATOM     80  C   UNL A   1      41.160  26.208  26.087  1.00  0.00     0.200 A 
ATOM     81  F   UNL A   1      39.891  24.526  27.153  1.00  0.00    -0.200 F 
ATOM     82  F   UNL A   1      41.318  25.429  25.010  1.00  0.00    -0.200 F 
ENDBRANCH  48  72
BRANCH  60  83
ATOM     83  C   UNL A   1      44.249  28.300  34.431  1.00  0.00     0.064 A 
ATOM     84  C   UNL A   1      44.101  27.078  35.102  1.00  0.00     0.173 A 
ATOM     85  C   UNL A   1      45.551  28.780  34.219  1.00  0.00     0.173 A 
ATOM     86  F   UNL A   1      42.877  26.581  35.339  1.00  0.00    -0.203 F 
ATOM     87  C   UNL A   1      45.211  26.370  35.552  1.00  0.00     0.198 A 
ATOM     88  C   UNL A   1      46.660  28.051  34.637  1.00  0.00     0.198 A 
ATOM     89  F   UNL A   1      45.749  29.938  33.572  1.00  0.00    -0.203 F 
ATOM     90  F   UNL A   1      45.044  25.223  36.225  1.00  0.00    -0.200 F 
ATOM     91  C   UNL A   1      46.490  26.849  35.308  1.00  0.00     0.200 A 
ATOM     92  F   UNL A   1      47.895  28.504  34.377  1.00  0.00    -0.200 F 
ATOM     93  F   UNL A   1      47.558  26.153  35.719  1.00  0.00    -0.200 F 
ENDBRANCH  60  83
ENDBRANCH  34  35
ENDBRANCH  26  29
ENDBRANCH  24  25
ENDBRANCH   1  24
TORSDOF 12
ENDMDL
