MODEL 1
REMARK VINA RESULT:     -13.0      0.000      0.000
REMARK SMILES COc1ccc(-c2cc([C@@H]3CC[N@@H+](CC(=O)NCCCNC(=O)c4ccc(-c5c6nc(c(-c7c(F)c(F)c(F)c(F)c7F)c7ccc([nH]7)c(-c7c(F)c(F)c(F)c(F)c7F)c7nc(c(-c8c(F)c(F)c(F)c(F)c8F)c8ccc5[nH]8)C=C7)C=C6)cc4)C3)ccn2)c2ccc(C)nc12
REMARK SMILES IDX 18 1 17 2 15 3 16 4 14 6 13 7 10 8 11 9 87 10 12 11 9 13
REMARK SMILES IDX 7 14 8 15 90 16 89 17 88 18 6 19 3 20 4 21 97 22 5 23 91 24
REMARK SMILES IDX 96 25 92 26 94 27 93 28 95 29 2 30 1 31 19 32 20 33 21 34
REMARK SMILES IDX 22 35 23 37 24 38 25 39 86 40 26 41 85 42 27 43 28 44 29 45
REMARK SMILES IDX 79 46 30 47 84 48 78 49 80 50 31 51 83 52 77 53 76 54 32 56
REMARK SMILES IDX 64 57 44 58 63 59 45 60 48 61 62 62 81 63 46 64 47 65 61 67
REMARK SMILES IDX 82 68 49 69 33 70 34 71 42 72 35 73 36 74 40 75 43 76 37 77
REMARK SMILES IDX 38 78 41 79 39 80 65 81 66 82 74 83 67 84 68 85 72 86 75 87
REMARK SMILES IDX 69 88 70 89 73 90 71 91 50 92 51 93 59 94 52 95 53 96 57 97
REMARK SMILES IDX 60 98 54 99 55 100 58 101 56 102
REMARK H PARENT 17 5 13 12 21 36 80 55 48 66
REMARK Flexibility Score: inf
ROOT
ATOM      1  C   UNL A   1      41.178  19.778  27.595  1.00  0.00     0.118 C 
ENDROOT
BRANCH   1   2
ATOM      2  N   UNL A   1      41.136  21.177  28.002  1.00  0.00    -0.351 N 
ATOM      3  C   UNL A   1      40.503  22.278  27.499  1.00  0.00     0.275 C 
ATOM      4  O   UNL A   1      40.696  23.344  28.092  1.00  0.00    -0.269 OA
ATOM      5  H   UNL A   1      41.675  21.367  28.804  1.00  0.00     0.163 HD
BRANCH   3   6
ATOM      6  C   UNL A   1      39.622  22.219  26.246  1.00  0.00     0.363 C 
BRANCH   6   7
ATOM      7  N   UNL A   1      38.166  22.375  26.483  1.00  0.00    -0.327 N 
ATOM      8  C   UNL A   1      36.749  23.791  25.078  1.00  0.00     0.080 C 
ATOM      9  C   UNL A   1      36.989  22.422  24.431  1.00  0.00     0.075 C 
ATOM     10  C   UNL A   1      37.642  23.751  26.341  1.00  0.00     0.271 C 
ATOM     11  C   UNL A   1      37.370  21.531  25.604  1.00  0.00     0.263 C 
ATOM     12  H   UNL A   1      38.076  22.097  27.460  1.00  0.00     0.348 HD
BRANCH   8  13
ATOM     13  C   UNL A   1      35.250  23.943  25.274  1.00  0.00    -0.035 A 
ATOM     14  C   UNL A   1      33.283  25.357  25.159  1.00  0.00     0.071 A 
ATOM     15  C   UNL A   1      34.554  25.010  24.700  1.00  0.00     0.033 A 
ATOM     16  N   UNL A   1      32.644  24.629  26.102  1.00  0.00    -0.256 NA
ATOM     17  C   UNL A   1      33.290  23.547  26.591  1.00  0.00     0.112 A 
ATOM     18  C   UNL A   1      34.578  23.178  26.229  1.00  0.00     0.024 A 
BRANCH  14  19
ATOM     19  C   UNL A   1      32.700  26.669  24.802  1.00  0.00     0.010 A 
ATOM     20  C   UNL A   1      31.240  29.008  24.299  1.00  0.00     0.145 A 
ATOM     21  C   UNL A   1      30.938  27.836  23.604  1.00  0.00     0.049 A 
ATOM     22  C   UNL A   1      32.255  29.054  25.270  1.00  0.00     0.113 A 
ATOM     23  C   UNL A   1      31.663  26.680  23.851  1.00  0.00     0.015 A 
ATOM     24  C   UNL A   1      33.020  27.882  25.487  1.00  0.00     0.013 A 
ATOM     25  N   UNL A   1      32.474  30.178  25.995  1.00  0.00    -0.249 NA
ATOM     26  C   UNL A   1      34.083  27.986  26.412  1.00  0.00     0.013 A 
ATOM     27  C   UNL A   1      33.453  30.212  26.927  1.00  0.00     0.038 A 
ATOM     28  C   UNL A   1      34.300  29.146  27.141  1.00  0.00     0.024 A 
ATOM     29  C   UNL A   1      33.611  31.486  27.698  1.00  0.00     0.067 C 
BRANCH  20  30
ATOM     30  O   UNL A   1      30.413  30.064  23.977  1.00  0.00    -0.494 OA
ATOM     31  C   UNL A   1      29.254  29.676  23.243  1.00  0.00     0.278 C 
ENDBRANCH  20  30
ENDBRANCH  14  19
ENDBRANCH   8  13
ENDBRANCH   6   7
ENDBRANCH   3   6
ENDBRANCH   1   2
BRANCH   1  32
ATOM     32  C   UNL A   1      42.463  19.345  26.866  1.00  0.00     0.042 C 
BRANCH  32  33
ATOM     33  C   UNL A   1      42.499  19.553  25.352  1.00  0.00     0.118 C 
BRANCH  33  34
ATOM     34  N   UNL A   1      43.694  18.982  24.763  1.00  0.00    -0.352 N 
ATOM     35  C   UNL A   1      44.835  19.607  24.323  1.00  0.00     0.251 C 
ATOM     36  H   UNL A   1      43.686  18.002  24.665  1.00  0.00     0.163 HD
ATOM     37  O   UNL A   1      45.623  18.979  23.620  1.00  0.00    -0.269 OA
BRANCH  35  38
ATOM     38  C   UNL A   1      45.147  21.015  24.677  1.00  0.00     0.039 A 
ATOM     39  C   UNL A   1      45.631  21.282  25.965  1.00  0.00     0.014 A 
ATOM     40  C   UNL A   1      44.849  22.081  23.821  1.00  0.00     0.014 A 
ATOM     41  C   UNL A   1      45.816  22.601  26.393  1.00  0.00     0.010 A 
ATOM     42  C   UNL A   1      45.069  23.401  24.237  1.00  0.00     0.010 A 
ATOM     43  C   UNL A   1      45.530  23.674  25.535  1.00  0.00    -0.014 A 
BRANCH  43  44
ATOM     44  C   UNL A   1      45.656  25.079  26.010  1.00  0.00     0.031 A 
ATOM     45  C   UNL A   1      46.986  25.781  25.961  1.00  0.00     0.074 A 
ATOM     46  C   UNL A   1      44.582  25.726  26.501  1.00  0.00     0.049 A 
ATOM     47  N   UNL A   1      47.303  26.989  26.360  1.00  0.00    -0.248 NA
ATOM     48  C   UNL A   1      48.112  25.020  25.400  1.00  0.00     0.031 C 
ATOM     49  C   UNL A   1      43.239  25.163  26.619  1.00  0.00     0.029 A 
ATOM     50  N   UNL A   1      44.457  27.000  26.999  1.00  0.00    -0.354 N 
ATOM     51  C   UNL A   1      48.661  27.128  26.108  1.00  0.00     0.074 A 
ATOM     52  C   UNL A   1      49.117  25.870  25.554  1.00  0.00     0.031 C 
ATOM     53  C   UNL A   1      42.424  26.087  27.155  1.00  0.00     0.029 A 
ATOM     54  C   UNL A   1      43.191  27.298  27.438  1.00  0.00     0.049 A 
ATOM     55  H   UNL A   1      45.205  27.640  27.038  1.00  0.00     0.167 HD
ATOM     56  C   UNL A   1      49.454  28.209  26.305  1.00  0.00     0.037 A 
ATOM     57  C   UNL A   1      42.704  28.416  28.012  1.00  0.00     0.037 A 
ATOM     58  C   UNL A   1      49.006  29.471  26.833  1.00  0.00     0.049 A 
ATOM     59  C   UNL A   1      43.606  29.600  28.227  1.00  0.00     0.074 A 
ATOM     60  C   UNL A   1      49.732  30.635  27.023  1.00  0.00     0.029 A 
ATOM     61  N   UNL A   1      47.713  29.735  27.256  1.00  0.00    -0.354 N 
ATOM     62  N   UNL A   1      44.878  29.733  27.942  1.00  0.00    -0.248 NA
ATOM     63  C   UNL A   1      43.001  30.793  28.839  1.00  0.00     0.031 C 
ATOM     64  C   UNL A   1      48.886  31.593  27.591  1.00  0.00     0.029 A 
ATOM     65  C   UNL A   1      47.624  31.037  27.723  1.00  0.00     0.049 A 
ATOM     66  H   UNL A   1      46.967  29.092  27.229  1.00  0.00     0.167 HD
ATOM     67  C   UNL A   1      45.220  31.025  28.319  1.00  0.00     0.074 A 
ATOM     68  C   UNL A   1      44.020  31.642  28.843  1.00  0.00     0.031 C 
ATOM     69  C   UNL A   1      46.424  31.642  28.238  1.00  0.00     0.037 A 
BRANCH  56  70
ATOM     70  C   UNL A   1      50.904  28.075  25.944  1.00  0.00     0.064 A 
ATOM     71  C   UNL A   1      51.351  28.260  24.628  1.00  0.00     0.173 A 
ATOM     72  C   UNL A   1      51.862  27.802  26.932  1.00  0.00     0.173 A 
ATOM     73  F   UNL A   1      50.472  28.514  23.646  1.00  0.00    -0.203 F 
ATOM     74  C   UNL A   1      52.702  28.153  24.309  1.00  0.00     0.198 A 
ATOM     75  C   UNL A   1      53.215  27.718  26.613  1.00  0.00     0.198 A 
ATOM     76  F   UNL A   1      51.486  27.624  28.207  1.00  0.00    -0.203 F 
ATOM     77  F   UNL A   1      53.102  28.296  23.037  1.00  0.00    -0.200 F 
ATOM     78  C   UNL A   1      53.632  27.888  25.303  1.00  0.00     0.200 A 
ATOM     79  F   UNL A   1      54.115  27.471  27.576  1.00  0.00    -0.200 F 
ATOM     80  F   UNL A   1      54.933  27.789  24.995  1.00  0.00    -0.200 F 
ENDBRANCH  56  70
BRANCH  57  81
ATOM     81  C   UNL A   1      41.276  28.470  28.413  1.00  0.00     0.064 A 
ATOM     82  C   UNL A   1      40.870  28.042  29.684  1.00  0.00     0.173 A 
ATOM     83  C   UNL A   1      40.295  28.954  27.538  1.00  0.00     0.173 A 
ATOM     84  F   UNL A   1      41.772  27.550  30.545  1.00  0.00    -0.203 F 
ATOM     85  C   UNL A   1      39.529  28.088  30.061  1.00  0.00     0.198 A 
ATOM     86  C   UNL A   1      38.958  29.019  27.925  1.00  0.00     0.198 A 
ATOM     87  F   UNL A   1      40.637  29.373  26.311  1.00  0.00    -0.203 F 
ATOM     88  F   UNL A   1      39.161  27.641  31.270  1.00  0.00    -0.200 F 
ATOM     89  C   UNL A   1      38.576  28.582  29.184  1.00  0.00     0.200 A 
ATOM     90  F   UNL A   1      38.041  29.507  27.078  1.00  0.00    -0.200 F 
ATOM     91  F   UNL A   1      37.288  28.630  29.550  1.00  0.00    -0.200 F 
ENDBRANCH  57  81
BRANCH  69  92
ATOM     92  C   UNL A   1      46.501  33.066  28.704  1.00  0.00     0.064 A 
ATOM     93  C   UNL A   1      46.848  33.385  30.024  1.00  0.00     0.173 A 
ATOM     94  C   UNL A   1      46.267  34.122  27.810  1.00  0.00     0.173 A 
ATOM     95  F   UNL A   1      47.068  32.410  30.919  1.00  0.00    -0.203 F 
ATOM     96  C   UNL A   1      46.940  34.711  30.438  1.00  0.00     0.198 A 
ATOM     97  C   UNL A   1      46.380  35.446  28.223  1.00  0.00     0.198 A 
ATOM     98  F   UNL A   1      45.936  33.867  26.535  1.00  0.00    -0.203 F 
ATOM     99  F   UNL A   1      47.238  34.994  31.714  1.00  0.00    -0.200 F 
ATOM    100  C   UNL A   1      46.712  35.740  29.536  1.00  0.00     0.200 A 
ATOM    101  F   UNL A   1      46.167  36.439  27.348  1.00  0.00    -0.200 F 
ATOM    102  F   UNL A   1      46.805  37.017  29.936  1.00  0.00    -0.200 F 
ENDBRANCH  69  92
ENDBRANCH  43  44
ENDBRANCH  35  38
ENDBRANCH  33  34
ENDBRANCH  32  33
ENDBRANCH   1  32
TORSDOF 14
ENDMDL
MODEL 2
REMARK VINA RESULT:     -12.8      6.176     11.257
REMARK SMILES COc1ccc(-c2cc([C@@H]3CC[N@@H+](CC(=O)NCCCNC(=O)c4ccc(-c5c6nc(c(-c7c(F)c(F)c(F)c(F)c7F)c7ccc([nH]7)c(-c7c(F)c(F)c(F)c(F)c7F)c7nc(c(-c8c(F)c(F)c(F)c(F)c8F)c8ccc5[nH]8)C=C7)C=C6)cc4)C3)ccn2)c2ccc(C)nc12
REMARK SMILES IDX 18 1 17 2 15 3 16 4 14 6 13 7 10 8 11 9 87 10 12 11 9 13
REMARK SMILES IDX 7 14 8 15 90 16 89 17 88 18 6 19 3 20 4 21 97 22 5 23 91 24
REMARK SMILES IDX 96 25 92 26 94 27 93 28 95 29 2 30 1 31 19 32 20 33 21 34
REMARK SMILES IDX 22 35 23 37 24 38 25 39 86 40 26 41 85 42 27 43 28 44 29 45
REMARK SMILES IDX 79 46 30 47 84 48 78 49 80 50 31 51 83 52 77 53 76 54 32 56
REMARK SMILES IDX 64 57 44 58 63 59 45 60 48 61 62 62 81 63 46 64 47 65 61 67
REMARK SMILES IDX 82 68 49 69 33 70 34 71 42 72 35 73 36 74 40 75 43 76 37 77
REMARK SMILES IDX 38 78 41 79 39 80 65 81 66 82 74 83 67 84 68 85 72 86 75 87
REMARK SMILES IDX 69 88 70 89 73 90 71 91 50 92 51 93 59 94 52 95 53 96 57 97
REMARK SMILES IDX 60 98 54 99 55 100 58 101 56 102
REMARK H PARENT 17 5 13 12 21 36 80 55 48 66
REMARK Flexibility Score: inf
ROOT
ATOM      1  C   UNL A   1      31.262  30.852  26.430  1.00  0.00     0.118 C 
ENDROOT
BRANCH   1   2
ATOM      2  N   UNL A   1      32.258  30.092  27.176  1.00  0.00    -0.351 N 
ATOM      3  C   UNL A   1      33.469  29.557  26.840  1.00  0.00     0.275 C 
ATOM      4  O   UNL A   1      34.067  28.944  27.730  1.00  0.00    -0.269 OA
ATOM      5  H   UNL A   1      32.005  29.931  28.113  1.00  0.00     0.163 HD
BRANCH   3   6
ATOM      6  C   UNL A   1      34.056  29.673  25.428  1.00  0.00     0.363 C 
BRANCH   6   7
ATOM      7  N   UNL A   1      34.166  28.398  24.677  1.00  0.00    -0.327 N 
ATOM      8  C   UNL A   1      32.232  27.304  23.655  1.00  0.00     0.080 C 
ATOM      9  C   UNL A   1      32.768  28.434  22.769  1.00  0.00     0.075 C 
ATOM     10  C   UNL A   1      33.093  27.413  24.935  1.00  0.00     0.271 C 
ATOM     11  C   UNL A   1      34.206  28.608  23.237  1.00  0.00     0.263 C 
ATOM     12  H   UNL A   1      35.044  28.017  25.029  1.00  0.00     0.348 HD
BRANCH   8  13
ATOM     13  C   UNL A   1      32.319  26.018  22.849  1.00  0.00    -0.035 A 
ATOM     14  C   UNL A   1      32.840  23.650  22.786  1.00  0.00     0.071 A 
ATOM     15  C   UNL A   1      32.403  24.776  23.485  1.00  0.00     0.033 A 
ATOM     16  N   UNL A   1      33.107  23.694  21.462  1.00  0.00    -0.256 NA
ATOM     17  C   UNL A   1      32.939  24.881  20.836  1.00  0.00     0.112 A 
ATOM     18  C   UNL A   1      32.570  26.055  21.477  1.00  0.00     0.024 A 
BRANCH  14  19
ATOM     19  C   UNL A   1      33.254  22.436  23.523  1.00  0.00     0.010 A 
ATOM     20  C   UNL A   1      34.063  19.953  24.539  1.00  0.00     0.145 A 
ATOM     21  C   UNL A   1      32.794  20.095  23.976  1.00  0.00     0.049 A 
ATOM     22  C   UNL A   1      34.972  21.023  24.601  1.00  0.00     0.113 A 
ATOM     23  C   UNL A   1      32.394  21.325  23.477  1.00  0.00     0.015 A 
ATOM     24  C   UNL A   1      34.541  22.287  24.128  1.00  0.00     0.013 A 
ATOM     25  N   UNL A   1      36.230  20.843  25.072  1.00  0.00    -0.249 NA
ATOM     26  C   UNL A   1      35.450  23.359  24.276  1.00  0.00     0.013 A 
ATOM     27  C   UNL A   1      37.097  21.879  25.125  1.00  0.00     0.038 A 
ATOM     28  C   UNL A   1      36.732  23.160  24.768  1.00  0.00     0.024 A 
ATOM     29  C   UNL A   1      38.473  21.586  25.638  1.00  0.00     0.067 C 
BRANCH  20  30
ATOM     30  O   UNL A   1      34.336  18.668  24.959  1.00  0.00    -0.494 OA
ATOM     31  C   UNL A   1      33.480  17.685  24.378  1.00  0.00     0.278 C 
ENDBRANCH  20  30
ENDBRANCH  14  19
ENDBRANCH   8  13
ENDBRANCH   6   7
ENDBRANCH   3   6
ENDBRANCH   1   2
BRANCH   1  32
ATOM     32  C   UNL A   1      31.352  32.381  26.585  1.00  0.00     0.042 C 
BRANCH  32  33
ATOM     33  C   UNL A   1      32.568  32.927  27.334  1.00  0.00     0.118 C 
BRANCH  33  34
ATOM     34  N   UNL A   1      32.414  34.333  27.649  1.00  0.00    -0.352 N 
ATOM     35  C   UNL A   1      32.971  35.067  28.667  1.00  0.00     0.251 C 
ATOM     36  H   UNL A   1      31.822  34.836  27.043  1.00  0.00     0.163 HD
ATOM     37  O   UNL A   1      32.515  36.179  28.917  1.00  0.00    -0.269 OA
BRANCH  35  38
ATOM     38  C   UNL A   1      34.114  34.558  29.468  1.00  0.00     0.039 A 
ATOM     39  C   UNL A   1      35.387  34.566  28.883  1.00  0.00     0.014 A 
ATOM     40  C   UNL A   1      33.936  33.958  30.719  1.00  0.00     0.014 A 
ATOM     41  C   UNL A   1      36.474  33.979  29.543  1.00  0.00     0.010 A 
ATOM     42  C   UNL A   1      35.031  33.402  31.395  1.00  0.00     0.010 A 
ATOM     43  C   UNL A   1      36.304  33.386  30.802  1.00  0.00    -0.014 A 
BRANCH  43  44
ATOM     44  C   UNL A   1      37.439  32.696  31.475  1.00  0.00     0.031 A 
ATOM     45  C   UNL A   1      38.116  31.526  30.812  1.00  0.00     0.074 A 
ATOM     46  C   UNL A   1      37.859  33.106  32.686  1.00  0.00     0.049 A 
ATOM     47  N   UNL A   1      39.095  30.774  31.252  1.00  0.00    -0.248 NA
ATOM     48  C   UNL A   1      37.616  31.141  29.484  1.00  0.00     0.031 C 
ATOM     49  C   UNL A   1      37.287  34.214  33.447  1.00  0.00     0.029 A 
ATOM     50  N   UNL A   1      38.863  32.627  33.493  1.00  0.00    -0.354 N 
ATOM     51  C   UNL A   1      39.321  29.826  30.264  1.00  0.00     0.074 A 
ATOM     52  C   UNL A   1      38.355  30.074  29.214  1.00  0.00     0.031 C 
ATOM     53  C   UNL A   1      37.948  34.333  34.610  1.00  0.00     0.029 A 
ATOM     54  C   UNL A   1      38.975  33.296  34.687  1.00  0.00     0.049 A 
ATOM     55  H   UNL A   1      39.446  31.875  33.240  1.00  0.00     0.167 HD
ATOM     56  C   UNL A   1      40.259  28.848  30.224  1.00  0.00     0.037 A 
ATOM     57  C   UNL A   1      39.804  33.093  35.729  1.00  0.00     0.037 A 
ATOM     58  C   UNL A   1      41.239  28.608  31.251  1.00  0.00     0.049 A 
ATOM     59  C   UNL A   1      40.831  31.996  35.665  1.00  0.00     0.074 A 
ATOM     60  C   UNL A   1      42.256  27.669  31.272  1.00  0.00     0.029 A 
ATOM     61  N   UNL A   1      41.326  29.315  32.439  1.00  0.00    -0.354 N 
ATOM     62  N   UNL A   1      41.064  31.136  34.704  1.00  0.00    -0.248 NA
ATOM     63  C   UNL A   1      41.716  31.846  36.830  1.00  0.00     0.031 C 
ATOM     64  C   UNL A   1      42.937  27.785  32.488  1.00  0.00     0.029 A 
ATOM     65  C   UNL A   1      42.367  28.821  33.210  1.00  0.00     0.049 A 
ATOM     66  H   UNL A   1      40.735  30.059  32.700  1.00  0.00     0.167 HD
ATOM     67  C   UNL A   1      42.130  30.359  35.137  1.00  0.00     0.074 A 
ATOM     68  C   UNL A   1      42.509  30.855  36.443  1.00  0.00     0.031 C 
ATOM     69  C   UNL A   1      42.739  29.325  34.506  1.00  0.00     0.037 A 
BRANCH  56  70
ATOM     70  C   UNL A   1      40.272  27.954  29.020  1.00  0.00     0.064 A 
ATOM     71  C   UNL A   1      41.025  28.270  27.881  1.00  0.00     0.173 A 
ATOM     72  C   UNL A   1      39.557  26.746  29.023  1.00  0.00     0.173 A 
ATOM     73  F   UNL A   1      41.717  29.418  27.827  1.00  0.00    -0.203 F 
ATOM     74  C   UNL A   1      41.043  27.422  26.778  1.00  0.00     0.198 A 
ATOM     75  C   UNL A   1      39.596  25.889  27.926  1.00  0.00     0.198 A 
ATOM     76  F   UNL A   1      38.827  26.395  30.091  1.00  0.00    -0.203 F 
ATOM     77  F   UNL A   1      41.740  27.763  25.683  1.00  0.00    -0.200 F 
ATOM     78  C   UNL A   1      40.335  26.230  26.804  1.00  0.00     0.200 A 
ATOM     79  F   UNL A   1      38.918  24.733  27.956  1.00  0.00    -0.200 F 
ATOM     80  F   UNL A   1      40.358  25.412  25.742  1.00  0.00    -0.200 F 
ENDBRANCH  56  70
BRANCH  57  81
ATOM     81  C   UNL A   1      39.703  33.964  36.926  1.00  0.00     0.064 A 
ATOM     82  C   UNL A   1      40.378  35.191  36.982  1.00  0.00     0.173 A 
ATOM     83  C   UNL A   1      38.927  33.591  38.032  1.00  0.00     0.173 A 
ATOM     84  F   UNL A   1      41.151  35.577  35.956  1.00  0.00    -0.203 F 
ATOM     85  C   UNL A   1      40.289  36.008  38.106  1.00  0.00     0.198 A 
ATOM     86  C   UNL A   1      38.821  34.420  39.146  1.00  0.00     0.198 A 
ATOM     87  F   UNL A   1      38.265  32.425  38.023  1.00  0.00    -0.203 F 
ATOM     88  F   UNL A   1      40.971  37.160  38.149  1.00  0.00    -0.200 F 
ATOM     89  C   UNL A   1      39.506  35.626  39.185  1.00  0.00     0.200 A 
ATOM     90  F   UNL A   1      38.055  34.051  40.182  1.00  0.00    -0.200 F 
ATOM     91  F   UNL A   1      39.416  36.415  40.264  1.00  0.00    -0.200 F 
ENDBRANCH  57  81
BRANCH  69  92
ATOM     92  C   UNL A   1      43.894  28.674  35.206  1.00  0.00     0.064 A 
ATOM     93  C   UNL A   1      43.711  27.558  36.035  1.00  0.00     0.173 A 
ATOM     94  C   UNL A   1      45.201  29.145  35.014  1.00  0.00     0.173 A 
ATOM     95  F   UNL A   1      42.478  27.080  36.261  1.00  0.00    -0.203 F 
ATOM     96  C   UNL A   1      44.795  26.948  36.661  1.00  0.00     0.198 A 
ATOM     97  C   UNL A   1      46.284  28.520  35.624  1.00  0.00     0.198 A 
ATOM     98  F   UNL A   1      45.427  30.208  34.226  1.00  0.00    -0.203 F 
ATOM     99  F   UNL A   1      44.595  25.904  37.477  1.00  0.00    -0.200 F 
ATOM    100  C   UNL A   1      46.080  27.425  36.450  1.00  0.00     0.200 A 
ATOM    101  F   UNL A   1      47.526  28.978  35.414  1.00  0.00    -0.200 F 
ATOM    102  F   UNL A   1      47.123  26.834  37.050  1.00  0.00    -0.200 F 
ENDBRANCH  69  92
ENDBRANCH  43  44
ENDBRANCH  35  38
ENDBRANCH  33  34
ENDBRANCH  32  33
ENDBRANCH   1  32
TORSDOF 14
ENDMDL
MODEL 3
REMARK VINA RESULT:     -12.3      0.871      2.249
REMARK SMILES COc1ccc(-c2cc([C@@H]3CC[N@@H+](CC(=O)NCCCNC(=O)c4ccc(-c5c6nc(c(-c7c(F)c(F)c(F)c(F)c7F)c7ccc([nH]7)c(-c7c(F)c(F)c(F)c(F)c7F)c7nc(c(-c8c(F)c(F)c(F)c(F)c8F)c8ccc5[nH]8)C=C7)C=C6)cc4)C3)ccn2)c2ccc(C)nc12
REMARK SMILES IDX 18 1 17 2 15 3 16 4 14 6 13 7 10 8 11 9 87 10 12 11 9 13
REMARK SMILES IDX 7 14 8 15 90 16 89 17 88 18 6 19 3 20 4 21 97 22 5 23 91 24
REMARK SMILES IDX 96 25 92 26 94 27 93 28 95 29 2 30 1 31 19 32 20 33 21 34
REMARK SMILES IDX 22 35 23 37 24 38 25 39 86 40 26 41 85 42 27 43 28 44 29 45
REMARK SMILES IDX 79 46 30 47 84 48 78 49 80 50 31 51 83 52 77 53 76 54 32 56
REMARK SMILES IDX 64 57 44 58 63 59 45 60 48 61 62 62 81 63 46 64 47 65 61 67
REMARK SMILES IDX 82 68 49 69 33 70 34 71 42 72 35 73 36 74 40 75 43 76 37 77
REMARK SMILES IDX 38 78 41 79 39 80 65 81 66 82 74 83 67 84 68 85 72 86 75 87
REMARK SMILES IDX 69 88 70 89 73 90 71 91 50 92 51 93 59 94 52 95 53 96 57 97
REMARK SMILES IDX 60 98 54 99 55 100 58 101 56 102
REMARK H PARENT 17 5 13 12 21 36 80 55 48 66
REMARK Flexibility Score: inf
ROOT
ATOM      1  C   UNL A   1      40.824  20.201  27.337  1.00  0.00     0.118 C 
ENDROOT
BRANCH   1   2
ATOM      2  N   UNL A   1      40.565  21.626  27.176  1.00  0.00    -0.351 N 
ATOM      3  C   UNL A   1      39.593  22.330  26.525  1.00  0.00     0.275 C 
ATOM      4  O   UNL A   1      39.676  23.562  26.576  1.00  0.00    -0.269 OA
ATOM      5  H   UNL A   1      41.226  22.197  27.629  1.00  0.00     0.163 HD
BRANCH   3   6
ATOM      6  C   UNL A   1      38.468  21.647  25.739  1.00  0.00     0.363 C 
BRANCH   6   7
ATOM      7  N   UNL A   1      37.162  22.352  25.753  1.00  0.00    -0.327 N 
ATOM      8  C   UNL A   1      35.654  22.362  23.828  1.00  0.00     0.080 C 
ATOM      9  C   UNL A   1      35.514  21.071  24.640  1.00  0.00     0.075 C 
ATOM     10  C   UNL A   1      36.827  23.095  24.518  1.00  0.00     0.271 C 
ATOM     11  C   UNL A   1      36.051  21.449  26.013  1.00  0.00     0.263 C 
ATOM     12  H   UNL A   1      37.289  23.025  26.509  1.00  0.00     0.348 HD
BRANCH   8  13
ATOM     13  C   UNL A   1      34.295  23.045  23.824  1.00  0.00    -0.035 A 
ATOM     14  C   UNL A   1      32.942  24.960  24.442  1.00  0.00     0.071 A 
ATOM     15  C   UNL A   1      34.176  24.411  24.091  1.00  0.00     0.033 A 
ATOM     16  N   UNL A   1      31.811  24.220  24.450  1.00  0.00    -0.256 NA
ATOM     17  C   UNL A   1      31.921  22.917  24.106  1.00  0.00     0.112 A 
ATOM     18  C   UNL A   1      33.122  22.289  23.807  1.00  0.00     0.024 A 
BRANCH  14  19
ATOM     19  C   UNL A   1      32.878  26.307  25.051  1.00  0.00     0.010 A 
ATOM     20  C   UNL A   1      33.105  28.940  25.984  1.00  0.00     0.145 A 
ATOM     21  C   UNL A   1      34.030  27.976  26.387  1.00  0.00     0.049 A 
ATOM     22  C   UNL A   1      32.056  28.637  25.098  1.00  0.00     0.113 A 
ATOM     23  C   UNL A   1      33.915  26.672  25.927  1.00  0.00     0.015 A 
ATOM     24  C   UNL A   1      31.918  27.295  24.667  1.00  0.00     0.013 A 
ATOM     25  N   UNL A   1      31.221  29.607  24.651  1.00  0.00    -0.249 NA
ATOM     26  C   UNL A   1      30.808  27.010  23.841  1.00  0.00     0.013 A 
ATOM     27  C   UNL A   1      30.216  29.305  23.799  1.00  0.00     0.038 A 
ATOM     28  C   UNL A   1      29.957  28.012  23.398  1.00  0.00     0.024 A 
ATOM     29  C   UNL A   1      29.355  30.440  23.337  1.00  0.00     0.067 C 
BRANCH  20  30
ATOM     30  O   UNL A   1      33.367  30.196  26.489  1.00  0.00    -0.494 OA
ATOM     31  C   UNL A   1      34.512  30.241  27.338  1.00  0.00     0.278 C 
ENDBRANCH  20  30
ENDBRANCH  14  19
ENDBRANCH   8  13
ENDBRANCH   6   7
ENDBRANCH   3   6
ENDBRANCH   1   2
BRANCH   1  32
ATOM     32  C   UNL A   1      42.170  19.711  26.772  1.00  0.00     0.042 C 
BRANCH  32  33
ATOM     33  C   UNL A   1      42.285  19.614  25.251  1.00  0.00     0.118 C 
BRANCH  33  34
ATOM     34  N   UNL A   1      43.522  18.975  24.848  1.00  0.00    -0.352 N 
ATOM     35  C   UNL A   1      44.731  19.538  24.524  1.00  0.00     0.251 C 
ATOM     36  H   UNL A   1      43.490  17.992  24.801  1.00  0.00     0.163 HD
ATOM     37  O   UNL A   1      45.576  18.848  23.959  1.00  0.00    -0.269 OA
BRANCH  35  38
ATOM     38  C   UNL A   1      45.049  20.954  24.841  1.00  0.00     0.039 A 
ATOM     39  C   UNL A   1      45.512  21.256  26.129  1.00  0.00     0.014 A 
ATOM     40  C   UNL A   1      44.777  21.996  23.948  1.00  0.00     0.014 A 
ATOM     41  C   UNL A   1      45.701  22.586  26.521  1.00  0.00     0.010 A 
ATOM     42  C   UNL A   1      45.000  23.326  24.328  1.00  0.00     0.010 A 
ATOM     43  C   UNL A   1      45.441  23.634  25.626  1.00  0.00    -0.014 A 
BRANCH  43  44
ATOM     44  C   UNL A   1      45.570  25.052  26.061  1.00  0.00     0.031 A 
ATOM     45  C   UNL A   1      46.899  25.754  25.976  1.00  0.00     0.074 A 
ATOM     46  C   UNL A   1      44.501  25.712  26.546  1.00  0.00     0.049 A 
ATOM     47  N   UNL A   1      47.219  26.973  26.338  1.00  0.00    -0.248 NA
ATOM     48  C   UNL A   1      48.018  24.979  25.424  1.00  0.00     0.031 C 
ATOM     49  C   UNL A   1      43.160  25.151  26.695  1.00  0.00     0.029 A 
ATOM     50  N   UNL A   1      44.381  26.999  27.011  1.00  0.00    -0.354 N 
ATOM     51  C   UNL A   1      48.574  27.106  26.067  1.00  0.00     0.074 A 
ATOM     52  C   UNL A   1      49.025  25.834  25.542  1.00  0.00     0.031 C 
ATOM     53  C   UNL A   1      42.350  26.088  27.216  1.00  0.00     0.029 A 
ATOM     54  C   UNL A   1      43.119  27.308  27.456  1.00  0.00     0.049 A 
ATOM     55  H   UNL A   1      45.128  27.640  27.023  1.00  0.00     0.167 HD
ATOM     56  C   UNL A   1      49.368  28.193  26.225  1.00  0.00     0.037 A 
ATOM     57  C   UNL A   1      42.638  28.440  28.004  1.00  0.00     0.037 A 
ATOM     58  C   UNL A   1      48.924  29.469  26.723  1.00  0.00     0.049 A 
ATOM     59  C   UNL A   1      43.541  29.631  28.177  1.00  0.00     0.074 A 
ATOM     60  C   UNL A   1      49.651  30.638  26.873  1.00  0.00     0.029 A 
ATOM     61  N   UNL A   1      47.636  29.743  27.154  1.00  0.00    -0.354 N 
ATOM     62  N   UNL A   1      44.809  29.757  27.873  1.00  0.00    -0.248 NA
ATOM     63  C   UNL A   1      42.941  30.839  28.762  1.00  0.00     0.031 C 
ATOM     64  C   UNL A   1      48.810  31.611  27.424  1.00  0.00     0.029 A 
ATOM     65  C   UNL A   1      47.551  31.057  27.586  1.00  0.00     0.049 A 
ATOM     66  H   UNL A   1      46.890  29.099  27.154  1.00  0.00     0.167 HD
ATOM     67  C   UNL A   1      45.154  31.059  28.210  1.00  0.00     0.074 A 
ATOM     68  C   UNL A   1      43.959  31.689  28.731  1.00  0.00     0.031 C 
ATOM     69  C   UNL A   1      46.356  31.675  28.098  1.00  0.00     0.037 A 
BRANCH  56  70
ATOM     70  C   UNL A   1      50.813  28.051  25.850  1.00  0.00     0.064 A 
ATOM     71  C   UNL A   1      51.798  27.790  26.815  1.00  0.00     0.173 A 
ATOM     72  C   UNL A   1      51.213  28.135  24.508  1.00  0.00     0.173 A 
ATOM     73  F   UNL A   1      51.466  27.710  28.113  1.00  0.00    -0.203 F 
ATOM     74  C   UNL A   1      53.133  27.641  26.451  1.00  0.00     0.198 A 
ATOM     75  C   UNL A   1      52.547  27.962  24.146  1.00  0.00     0.198 A 
ATOM     76  F   UNL A   1      50.309  28.375  23.548  1.00  0.00    -0.203 F 
ATOM     77  F   UNL A   1      54.063  27.430  27.394  1.00  0.00    -0.200 F 
ATOM     78  C   UNL A   1      53.505  27.722  25.118  1.00  0.00     0.200 A 
ATOM     79  F   UNL A   1      52.903  28.031  22.856  1.00  0.00    -0.200 F 
ATOM     80  F   UNL A   1      54.791  27.574  24.770  1.00  0.00    -0.200 F 
ENDBRANCH  56  70
BRANCH  57  81
ATOM     81  C   UNL A   1      41.215  28.504  28.421  1.00  0.00     0.064 A 
ATOM     82  C   UNL A   1      40.825  28.123  29.712  1.00  0.00     0.173 A 
ATOM     83  C   UNL A   1      40.220  28.951  27.540  1.00  0.00     0.173 A 
ATOM     84  F   UNL A   1      41.740  27.667  30.580  1.00  0.00    -0.203 F 
ATOM     85  C   UNL A   1      39.489  28.178  30.104  1.00  0.00     0.198 A 
ATOM     86  C   UNL A   1      38.888  29.026  27.941  1.00  0.00     0.198 A 
ATOM     87  F   UNL A   1      40.546  29.324  26.295  1.00  0.00    -0.203 F 
ATOM     88  F   UNL A   1      39.138  27.776  31.332  1.00  0.00    -0.200 F 
ATOM     89  C   UNL A   1      38.523  28.634  29.221  1.00  0.00     0.200 A 
ATOM     90  F   UNL A   1      37.959  29.477  27.088  1.00  0.00    -0.200 F 
ATOM     91  F   UNL A   1      37.239  28.691  29.600  1.00  0.00    -0.200 F 
ENDBRANCH  57  81
BRANCH  69  92
ATOM     92  C   UNL A   1      46.437  33.111  28.524  1.00  0.00     0.064 A 
ATOM     93  C   UNL A   1      46.181  34.155  27.625  1.00  0.00     0.173 A 
ATOM     94  C   UNL A   1      46.734  33.444  29.854  1.00  0.00     0.173 A 
ATOM     95  F   UNL A   1      45.907  33.888  26.339  1.00  0.00    -0.203 F 
ATOM     96  C   UNL A   1      46.237  35.484  28.039  1.00  0.00     0.198 A 
ATOM     97  C   UNL A   1      46.769  34.772  30.269  1.00  0.00     0.198 A 
ATOM     98  F   UNL A   1      46.983  32.479  30.753  1.00  0.00    -0.203 F 
ATOM     99  F   UNL A   1      46.023  36.469  27.155  1.00  0.00    -0.200 F 
ATOM    100  C   UNL A   1      46.524  35.791  29.360  1.00  0.00     0.200 A 
ATOM    101  F   UNL A   1      47.039  35.066  31.548  1.00  0.00    -0.200 F 
ATOM    102  F   UNL A   1      46.573  37.070  29.758  1.00  0.00    -0.200 F 
ENDBRANCH  69  92
ENDBRANCH  43  44
ENDBRANCH  35  38
ENDBRANCH  33  34
ENDBRANCH  32  33
ENDBRANCH   1  32
TORSDOF 14
ENDMDL
