MODEL 1
REMARK VINA RESULT:     -13.0      0.000      0.000
REMARK SMILES O=C(Cc1ccccc1C(=O)NCCCNC(=O)c1ccc(-c2c3nc(c(-c4c(F)c(F)c(F)c(F)c4F)c4ccc([nH]4)c(-c4c(F)c(F)c(F)c(F)c4F)c4nc(c(-c5c(F)c(F)c(F)c(F)c5F)c5ccc2[nH]5)C=C4)C=C3)cc1)Nc1cccc(OC[C@@H]2CCCO2)c1
REMARK SMILES IDX 10 1 11 2 12 3 9 5 4 6 5 7 6 8 8 9 7 10 3 11 2 12 1 13 82 14
REMARK SMILES IDX 83 16 84 17 95 18 85 19 87 20 86 21 88 22 89 23 90 24 91 25
REMARK SMILES IDX 94 26 92 27 93 28 13 29 14 30 15 31 16 32 17 33 18 35 19 36
REMARK SMILES IDX 20 37 81 38 21 39 80 40 22 41 23 42 24 43 74 44 25 45 79 46
REMARK SMILES IDX 73 47 75 48 26 49 78 50 72 51 71 52 27 54 59 55 39 56 58 57
REMARK SMILES IDX 40 58 43 59 57 60 76 61 41 62 42 63 56 65 77 66 44 67 28 68
REMARK SMILES IDX 29 69 37 70 30 71 31 72 35 73 38 74 32 75 33 76 36 77 34 78
REMARK SMILES IDX 60 79 61 80 69 81 62 82 63 83 67 84 70 85 64 86 65 87 68 88
REMARK SMILES IDX 66 89 45 90 46 91 54 92 47 93 48 94 52 95 55 96 49 97 50 98
REMARK SMILES IDX 53 99 51 100
REMARK H PARENT 12 4 82 15 16 34 75 53 43 64
REMARK Flexibility Score: inf
ROOT
ATOM      1  C   UNL A   1      34.824  20.815  25.604  1.00  0.00     0.251 C 
ATOM      2  O   UNL A   1      34.246  21.191  26.632  1.00  0.00    -0.269 OA
ATOM      3  N   UNL A   1      36.132  21.219  25.527  1.00  0.00    -0.352 N 
ATOM      4  H   UNL A   1      36.408  21.702  26.339  1.00  0.00     0.163 HD
ENDROOT
BRANCH   1   5
ATOM      5  C   UNL A   1      34.053  19.915  24.668  1.00  0.00     0.043 A 
ATOM      6  C   UNL A   1      32.841  20.130  23.974  1.00  0.00    -0.026 A 
ATOM      7  C   UNL A   1      32.299  19.085  23.186  1.00  0.00     0.005 A 
ATOM      8  C   UNL A   1      32.881  17.824  23.132  1.00  0.00     0.000 A 
ATOM      9  C   UNL A   1      34.618  18.617  24.588  1.00  0.00     0.014 A 
ATOM     10  C   UNL A   1      34.039  17.584  23.846  1.00  0.00     0.001 A 
BRANCH   6  11
ATOM     11  C   UNL A   1      32.035  21.390  24.013  1.00  0.00     0.136 C 
BRANCH  11  12
ATOM     12  C   UNL A   1      32.687  22.625  23.450  1.00  0.00     0.228 C 
ATOM     13  O   UNL A   1      33.282  22.576  22.374  1.00  0.00    -0.274 OA
ATOM     14  N   UNL A   1      32.498  23.776  24.194  1.00  0.00    -0.326 N 
ATOM     15  H   UNL A   1      32.331  23.693  25.161  1.00  0.00     0.169 HD
BRANCH  14  16
ATOM     16  C   UNL A   1      32.535  25.057  23.618  1.00  0.00     0.044 A 
ATOM     17  C   UNL A   1      33.740  25.746  23.538  1.00  0.00     0.026 A 
ATOM     18  C   UNL A   1      31.356  25.658  23.163  1.00  0.00     0.072 A 
ATOM     19  C   UNL A   1      33.772  26.995  22.915  1.00  0.00     0.006 A 
ATOM     20  C   UNL A   1      31.369  26.921  22.574  1.00  0.00     0.121 A 
ATOM     21  C   UNL A   1      32.592  27.576  22.434  1.00  0.00     0.046 A 
BRANCH  20  22
ATOM     22  O   UNL A   1      30.277  27.593  22.091  1.00  0.00    -0.491 OA
BRANCH  22  23
ATOM     23  C   UNL A   1      29.519  28.396  23.007  1.00  0.00     0.261 C 
BRANCH  23  24
ATOM     24  C   UNL A   1      29.503  29.885  22.621  1.00  0.00     0.156 C 
ATOM     25  C   UNL A   1      28.512  30.693  23.445  1.00  0.00     0.038 C 
ATOM     26  O   UNL A   1      29.121  30.087  21.251  1.00  0.00    -0.375 OA
ATOM     27  C   UNL A   1      28.060  31.765  22.487  1.00  0.00     0.031 C 
ATOM     28  C   UNL A   1      28.029  31.006  21.189  1.00  0.00     0.161 C 
ENDBRANCH  23  24
ENDBRANCH  22  23
ENDBRANCH  20  22
ENDBRANCH  14  16
ENDBRANCH  11  12
ENDBRANCH   6  11
ENDBRANCH   1   5
BRANCH   3  29
ATOM     29  C   UNL A   1      37.220  21.128  24.567  1.00  0.00     0.118 C 
BRANCH  29  30
ATOM     30  C   UNL A   1      38.109  19.912  24.888  1.00  0.00     0.042 C 
BRANCH  30  31
ATOM     31  C   UNL A   1      38.988  20.049  26.126  1.00  0.00     0.118 C 
BRANCH  31  32
ATOM     32  N   UNL A   1      40.166  19.201  26.057  1.00  0.00    -0.352 N 
ATOM     33  C   UNL A   1      41.508  19.498  26.041  1.00  0.00     0.251 C 
ATOM     34  H   UNL A   1      39.966  18.238  26.014  1.00  0.00     0.163 HD
ATOM     35  O   UNL A   1      42.295  18.597  25.751  1.00  0.00    -0.269 OA
BRANCH  33  36
ATOM     36  C   UNL A   1      42.049  20.851  26.348  1.00  0.00     0.039 A 
ATOM     37  C   UNL A   1      42.276  21.183  27.693  1.00  0.00     0.014 A 
ATOM     38  C   UNL A   1      42.241  21.835  25.380  1.00  0.00     0.014 A 
ATOM     39  C   UNL A   1      42.719  22.464  28.057  1.00  0.00     0.010 A 
ATOM     40  C   UNL A   1      42.765  23.085  25.734  1.00  0.00     0.010 A 
ATOM     41  C   UNL A   1      42.999  23.427  27.078  1.00  0.00    -0.014 A 
BRANCH  41  42
ATOM     42  C   UNL A   1      43.500  24.794  27.419  1.00  0.00     0.031 A 
ATOM     43  C   UNL A   1      42.529  25.866  27.858  1.00  0.00     0.074 A 
ATOM     44  C   UNL A   1      44.801  25.117  27.262  1.00  0.00     0.049 A 
ATOM     45  N   UNL A   1      42.734  27.146  28.052  1.00  0.00    -0.248 NA
ATOM     46  C   UNL A   1      41.142  25.441  28.109  1.00  0.00     0.031 C 
ATOM     47  C   UNL A   1      45.873  24.199  26.873  1.00  0.00     0.029 A 
ATOM     48  N   UNL A   1      45.436  26.336  27.350  1.00  0.00    -0.354 N 
ATOM     49  C   UNL A   1      41.514  27.667  28.469  1.00  0.00     0.074 A 
ATOM     50  C   UNL A   1      40.552  26.589  28.408  1.00  0.00     0.031 C 
ATOM     51  C   UNL A   1      47.002  24.895  26.664  1.00  0.00     0.029 A 
ATOM     52  C   UNL A   1      46.744  26.305  26.923  1.00  0.00     0.049 A 
ATOM     53  H   UNL A   1      44.998  27.150  27.687  1.00  0.00     0.167 HD
ATOM     54  C   UNL A   1      41.231  28.913  28.920  1.00  0.00     0.037 A 
ATOM     55  C   UNL A   1      47.635  27.300  26.740  1.00  0.00     0.037 A 
ATOM     56  C   UNL A   1      42.183  29.988  29.007  1.00  0.00     0.049 A 
ATOM     57  C   UNL A   1      47.269  28.702  27.140  1.00  0.00     0.074 A 
ATOM     58  C   UNL A   1      42.000  31.267  29.504  1.00  0.00     0.029 A 
ATOM     59  N   UNL A   1      43.500  29.909  28.584  1.00  0.00    -0.354 N 
ATOM     60  N   UNL A   1      46.137  29.158  27.614  1.00  0.00    -0.248 NA
ATOM     61  C   UNL A   1      48.325  29.720  27.025  1.00  0.00     0.031 C 
ATOM     62  C   UNL A   1      43.198  31.974  29.351  1.00  0.00     0.029 A 
ATOM     63  C   UNL A   1      44.138  31.121  28.797  1.00  0.00     0.049 A 
ATOM     64  H   UNL A   1      43.921  29.111  28.191  1.00  0.00     0.167 HD
ATOM     65  C   UNL A   1      46.364  30.492  27.923  1.00  0.00     0.074 A 
ATOM     66  C   UNL A   1      47.738  30.778  27.566  1.00  0.00     0.031 C 
ATOM     67  C   UNL A   1      45.514  31.391  28.475  1.00  0.00     0.037 A 
BRANCH  54  68
ATOM     68  C   UNL A   1      39.835  29.171  29.415  1.00  0.00     0.064 A 
ATOM     69  C   UNL A   1      38.807  29.518  28.525  1.00  0.00     0.173 A 
ATOM     70  C   UNL A   1      39.503  29.003  30.767  1.00  0.00     0.173 A 
ATOM     71  F   UNL A   1      39.073  29.697  27.222  1.00  0.00    -0.203 F 
ATOM     72  C   UNL A   1      37.503  29.710  28.973  1.00  0.00     0.198 A 
ATOM     73  C   UNL A   1      38.193  29.168  31.208  1.00  0.00     0.198 A 
ATOM     74  F   UNL A   1      40.446  28.661  31.658  1.00  0.00    -0.203 F 
ATOM     75  F   UNL A   1      36.547  30.078  28.110  1.00  0.00    -0.200 F 
ATOM     76  C   UNL A   1      37.195  29.526  30.312  1.00  0.00     0.200 A 
ATOM     77  F   UNL A   1      37.892  28.976  32.500  1.00  0.00    -0.200 F 
ATOM     78  F   UNL A   1      35.936  29.697  30.741  1.00  0.00    -0.200 F 
ENDBRANCH  54  68
BRANCH  55  79
ATOM     79  C   UNL A   1      48.981  27.004  26.184  1.00  0.00     0.064 A 
ATOM     80  C   UNL A   1      49.227  27.093  24.807  1.00  0.00     0.173 A 
ATOM     81  C   UNL A   1      50.034  26.587  27.011  1.00  0.00     0.173 A 
ATOM     82  F   UNL A   1      48.245  27.469  23.976  1.00  0.00    -0.203 F 
ATOM     83  C   UNL A   1      50.464  26.740  24.273  1.00  0.00     0.198 A 
ATOM     84  C   UNL A   1      51.278  26.256  26.479  1.00  0.00     0.198 A 
ATOM     85  F   UNL A   1      49.849  26.495  28.336  1.00  0.00    -0.203 F 
ATOM     86  F   UNL A   1      50.654  26.778  22.947  1.00  0.00    -0.200 F 
ATOM     87  C   UNL A   1      51.488  26.321  25.109  1.00  0.00     0.200 A 
ATOM     88  F   UNL A   1      52.268  25.855  27.287  1.00  0.00    -0.200 F 
ATOM     89  F   UNL A   1      52.674  25.969  24.593  1.00  0.00    -0.200 F 
ENDBRANCH  55  79
BRANCH  67  90
ATOM     90  C   UNL A   1      46.064  32.746  28.812  1.00  0.00     0.064 A 
ATOM     91  C   UNL A   1      46.697  33.008  30.034  1.00  0.00     0.173 A 
ATOM     92  C   UNL A   1      45.978  33.790  27.878  1.00  0.00     0.173 A 
ATOM     93  F   UNL A   1      46.788  32.046  30.967  1.00  0.00    -0.203 F 
ATOM     94  C   UNL A   1      47.199  34.273  30.322  1.00  0.00     0.198 A 
ATOM     95  C   UNL A   1      46.509  35.046  28.157  1.00  0.00     0.198 A 
ATOM     96  F   UNL A   1      45.387  33.591  26.690  1.00  0.00    -0.203 F 
ATOM     97  F   UNL A   1      47.754  34.517  31.518  1.00  0.00    -0.200 F 
ATOM     98  C   UNL A   1      47.111  35.290  29.381  1.00  0.00     0.200 A 
ATOM     99  F   UNL A   1      46.434  36.023  27.242  1.00  0.00    -0.200 F 
ATOM    100  F   UNL A   1      47.600  36.506  29.659  1.00  0.00    -0.200 F 
ENDBRANCH  67  90
ENDBRANCH  41  42
ENDBRANCH  33  36
ENDBRANCH  31  32
ENDBRANCH  30  31
ENDBRANCH  29  30
ENDBRANCH   3  29
TORSDOF 16
ENDMDL
MODEL 2
REMARK VINA RESULT:     -12.9      5.329     11.316
REMARK SMILES O=C(Cc1ccccc1C(=O)NCCCNC(=O)c1ccc(-c2c3nc(c(-c4c(F)c(F)c(F)c(F)c4F)c4ccc([nH]4)c(-c4c(F)c(F)c(F)c(F)c4F)c4nc(c(-c5c(F)c(F)c(F)c(F)c5F)c5ccc2[nH]5)C=C4)C=C3)cc1)Nc1cccc(OC[C@@H]2CCCO2)c1
REMARK SMILES IDX 10 1 11 2 12 3 9 5 4 6 5 7 6 8 8 9 7 10 3 11 2 12 1 13 82 14
REMARK SMILES IDX 83 16 84 17 95 18 85 19 87 20 86 21 88 22 89 23 90 24 91 25
REMARK SMILES IDX 94 26 92 27 93 28 13 29 14 30 15 31 16 32 17 33 18 35 19 36
REMARK SMILES IDX 20 37 81 38 21 39 80 40 22 41 23 42 24 43 74 44 25 45 79 46
REMARK SMILES IDX 73 47 75 48 26 49 78 50 72 51 71 52 27 54 59 55 39 56 58 57
REMARK SMILES IDX 40 58 43 59 57 60 76 61 41 62 42 63 56 65 77 66 44 67 28 68
REMARK SMILES IDX 29 69 37 70 30 71 31 72 35 73 38 74 32 75 33 76 36 77 34 78
REMARK SMILES IDX 60 79 61 80 69 81 62 82 63 83 67 84 70 85 64 86 65 87 68 88
REMARK SMILES IDX 66 89 45 90 46 91 54 92 47 93 48 94 52 95 55 96 49 97 50 98
REMARK SMILES IDX 53 99 51 100
REMARK H PARENT 12 4 82 15 16 34 75 53 43 64
REMARK Flexibility Score: inf
ROOT
ATOM      1  C   UNL A   1      33.084  29.168  25.678  1.00  0.00     0.251 C 
ATOM      2  O   UNL A   1      34.117  28.942  26.322  1.00  0.00    -0.269 OA
ATOM      3  N   UNL A   1      32.412  30.290  26.090  1.00  0.00    -0.352 N 
ATOM      4  H   UNL A   1      32.901  30.760  26.804  1.00  0.00     0.163 HD
ENDROOT
BRANCH   1   5
ATOM      5  C   UNL A   1      32.784  28.259  24.511  1.00  0.00     0.043 A 
ATOM      6  C   UNL A   1      31.849  27.209  24.379  1.00  0.00    -0.026 A 
ATOM      7  C   UNL A   1      31.804  26.468  23.172  1.00  0.00     0.005 A 
ATOM      8  C   UNL A   1      32.705  26.689  22.137  1.00  0.00     0.000 A 
ATOM      9  C   UNL A   1      33.685  28.456  23.434  1.00  0.00     0.014 A 
ATOM     10  C   UNL A   1      33.658  27.680  22.273  1.00  0.00     0.001 A 
BRANCH   6  11
ATOM     11  C   UNL A   1      30.884  26.772  25.436  1.00  0.00     0.136 C 
BRANCH  11  12
ATOM     12  C   UNL A   1      31.187  25.469  26.128  1.00  0.00     0.228 C 
ATOM     13  O   UNL A   1      30.281  24.818  26.647  1.00  0.00    -0.274 OA
ATOM     14  N   UNL A   1      32.508  25.066  26.062  1.00  0.00    -0.326 N 
ATOM     15  H   UNL A   1      33.208  25.750  25.953  1.00  0.00     0.169 HD
BRANCH  14  16
ATOM     16  C   UNL A   1      32.886  23.715  26.143  1.00  0.00     0.044 A 
ATOM     17  C   UNL A   1      34.005  23.351  26.884  1.00  0.00     0.026 A 
ATOM     18  C   UNL A   1      32.163  22.739  25.445  1.00  0.00     0.072 A 
ATOM     19  C   UNL A   1      34.338  22.000  27.000  1.00  0.00     0.006 A 
ATOM     20  C   UNL A   1      32.508  21.392  25.523  1.00  0.00     0.121 A 
ATOM     21  C   UNL A   1      33.590  21.028  26.325  1.00  0.00     0.046 A 
BRANCH  20  22
ATOM     22  O   UNL A   1      31.866  20.361  24.888  1.00  0.00    -0.491 OA
BRANCH  22  23
ATOM     23  C   UNL A   1      32.541  19.711  23.802  1.00  0.00     0.261 C 
BRANCH  23  24
ATOM     24  C   UNL A   1      32.481  18.177  23.896  1.00  0.00     0.156 C 
ATOM     25  C   UNL A   1      33.285  17.630  25.067  1.00  0.00     0.038 C 
ATOM     26  O   UNL A   1      33.021  17.540  22.727  1.00  0.00    -0.375 OA
ATOM     27  C   UNL A   1      33.766  16.294  24.561  1.00  0.00     0.031 C 
ATOM     28  C   UNL A   1      34.031  16.606  23.114  1.00  0.00     0.161 C 
ENDBRANCH  23  24
ENDBRANCH  22  23
ENDBRANCH  20  22
ENDBRANCH  14  16
ENDBRANCH  11  12
ENDBRANCH   6  11
ENDBRANCH   1   5
BRANCH   3  29
ATOM     29  C   UNL A   1      31.172  30.971  25.758  1.00  0.00     0.118 C 
BRANCH  29  30
ATOM     30  C   UNL A   1      31.115  32.341  26.458  1.00  0.00     0.042 C 
BRANCH  30  31
ATOM     31  C   UNL A   1      32.388  32.762  27.183  1.00  0.00     0.118 C 
BRANCH  31  32
ATOM     32  N   UNL A   1      32.329  34.141  27.635  1.00  0.00    -0.352 N 
ATOM     33  C   UNL A   1      33.004  34.808  28.630  1.00  0.00     0.251 C 
ATOM     34  H   UNL A   1      31.689  34.701  27.138  1.00  0.00     0.163 HD
ATOM     35  O   UNL A   1      32.601  35.926  28.952  1.00  0.00    -0.269 OA
BRANCH  33  36
ATOM     36  C   UNL A   1      34.187  34.243  29.336  1.00  0.00     0.039 A 
ATOM     37  C   UNL A   1      35.458  34.475  28.788  1.00  0.00     0.014 A 
ATOM     38  C   UNL A   1      34.086  33.410  30.449  1.00  0.00     0.014 A 
ATOM     39  C   UNL A   1      36.608  33.913  29.364  1.00  0.00     0.010 A 
ATOM     40  C   UNL A   1      35.240  32.920  31.074  1.00  0.00     0.010 A 
ATOM     41  C   UNL A   1      36.518  33.150  30.535  1.00  0.00    -0.014 A 
BRANCH  41  42
ATOM     42  C   UNL A   1      37.720  32.556  31.198  1.00  0.00     0.031 A 
ATOM     43  C   UNL A   1      38.389  31.341  30.599  1.00  0.00     0.074 A 
ATOM     44  C   UNL A   1      38.174  33.037  32.375  1.00  0.00     0.049 A 
ATOM     45  N   UNL A   1      39.341  30.586  31.092  1.00  0.00    -0.248 NA
ATOM     46  C   UNL A   1      37.922  30.915  29.269  1.00  0.00     0.031 C 
ATOM     47  C   UNL A   1      37.662  34.215  33.076  1.00  0.00     0.029 A 
ATOM     48  N   UNL A   1      39.137  32.548  33.229  1.00  0.00    -0.354 N 
ATOM     49  C   UNL A   1      39.600  29.621  30.126  1.00  0.00     0.074 A 
ATOM     50  C   UNL A   1      38.643  29.822  29.061  1.00  0.00     0.031 C 
ATOM     51  C   UNL A   1      38.242  34.304  34.283  1.00  0.00     0.029 A 
ATOM     52  C   UNL A   1      39.182  33.202  34.439  1.00  0.00     0.049 A 
ATOM     53  H   UNL A   1      39.737  31.802  32.996  1.00  0.00     0.167 HD
ATOM     54  C   UNL A   1      40.583  28.688  30.097  1.00  0.00     0.037 A 
ATOM     55  C   UNL A   1      39.886  32.939  35.557  1.00  0.00     0.037 A 
ATOM     56  C   UNL A   1      41.555  28.491  31.139  1.00  0.00     0.049 A 
ATOM     57  C   UNL A   1      40.896  31.826  35.550  1.00  0.00     0.074 A 
ATOM     58  C   UNL A   1      42.623  27.610  31.171  1.00  0.00     0.029 A 
ATOM     59  N   UNL A   1      41.578  29.188  32.337  1.00  0.00    -0.354 N 
ATOM     60  N   UNL A   1      41.186  30.978  34.595  1.00  0.00    -0.248 NA
ATOM     61  C   UNL A   1      41.713  31.665  36.762  1.00  0.00     0.031 C 
ATOM     62  C   UNL A   1      43.272  27.749  32.402  1.00  0.00     0.029 A 
ATOM     63  C   UNL A   1      42.633  28.747  33.119  1.00  0.00     0.049 A 
ATOM     64  H   UNL A   1      40.941  29.893  32.593  1.00  0.00     0.167 HD
ATOM     65  C   UNL A   1      42.263  30.237  35.059  1.00  0.00     0.074 A 
ATOM     66  C   UNL A   1      42.565  30.721  36.389  1.00  0.00     0.031 C 
ATOM     67  C   UNL A   1      42.953  29.257  34.426  1.00  0.00     0.037 A 
BRANCH  54  68
ATOM     68  C   UNL A   1      40.696  27.837  28.863  1.00  0.00     0.064 A 
ATOM     69  C   UNL A   1      39.936  26.665  28.724  1.00  0.00     0.173 A 
ATOM     70  C   UNL A   1      41.506  28.225  27.787  1.00  0.00     0.173 A 
ATOM     71  F   UNL A   1      39.150  26.246  29.727  1.00  0.00    -0.203 F 
ATOM     72  C   UNL A   1      40.002  25.901  27.562  1.00  0.00     0.198 A 
ATOM     73  C   UNL A   1      41.548  27.474  26.615  1.00  0.00     0.198 A 
ATOM     74  F   UNL A   1      42.244  29.343  27.864  1.00  0.00    -0.203 F 
ATOM     75  F   UNL A   1      39.296  24.765  27.469  1.00  0.00    -0.200 F 
ATOM     76  C   UNL A   1      40.800  26.310  26.506  1.00  0.00     0.200 A 
ATOM     77  F   UNL A   1      42.308  27.878  25.588  1.00  0.00    -0.200 F 
ATOM     78  F   UNL A   1      40.851  25.581  25.382  1.00  0.00    -0.200 F 
ENDBRANCH  54  68
BRANCH  55  79
ATOM     79  C   UNL A   1      39.690  33.767  36.775  1.00  0.00     0.064 A 
ATOM     80  C   UNL A   1      38.836  33.347  37.804  1.00  0.00     0.173 A 
ATOM     81  C   UNL A   1      40.320  35.013  36.915  1.00  0.00     0.173 A 
ATOM     82  F   UNL A   1      38.198  32.172  37.703  1.00  0.00    -0.203 F 
ATOM     83  C   UNL A   1      38.587  34.157  38.909  1.00  0.00     0.198 A 
ATOM     84  C   UNL A   1      40.088  35.813  38.033  1.00  0.00     0.198 A 
ATOM     85  F   UNL A   1      41.152  35.454  35.961  1.00  0.00    -0.203 F 
ATOM     86  F   UNL A   1      37.721  33.756  39.849  1.00  0.00    -0.200 F 
ATOM     87  C   UNL A   1      39.214  35.389  39.023  1.00  0.00     0.200 A 
ATOM     88  F   UNL A   1      40.696  37.001  38.144  1.00  0.00    -0.200 F 
ATOM     89  F   UNL A   1      38.963  36.173  40.081  1.00  0.00    -0.200 F 
ENDBRANCH  55  79
BRANCH  67  90
ATOM     90  C   UNL A   1      44.159  28.700  35.124  1.00  0.00     0.064 A 
ATOM     91  C   UNL A   1      45.429  29.276  34.987  1.00  0.00     0.173 A 
ATOM     92  C   UNL A   1      44.030  27.585  35.967  1.00  0.00     0.173 A 
ATOM     93  F   UNL A   1      45.607  30.332  34.178  1.00  0.00    -0.203 F 
ATOM     94  C   UNL A   1      46.532  28.740  35.645  1.00  0.00     0.198 A 
ATOM     95  C   UNL A   1      45.129  27.071  36.649  1.00  0.00     0.198 A 
ATOM     96  F   UNL A   1      42.835  26.999  36.138  1.00  0.00    -0.203 F 
ATOM     97  F   UNL A   1      47.747  29.275  35.459  1.00  0.00    -0.200 F 
ATOM     98  C   UNL A   1      46.381  27.642  36.481  1.00  0.00     0.200 A 
ATOM     99  F   UNL A   1      44.978  26.018  37.465  1.00  0.00    -0.200 F 
ATOM    100  F   UNL A   1      47.443  27.131  37.118  1.00  0.00    -0.200 F 
ENDBRANCH  67  90
ENDBRANCH  41  42
ENDBRANCH  33  36
ENDBRANCH  31  32
ENDBRANCH  30  31
ENDBRANCH  29  30
ENDBRANCH   3  29
TORSDOF 16
ENDMDL
MODEL 3
REMARK VINA RESULT:     -12.8      3.452      6.923
REMARK SMILES O=C(Cc1ccccc1C(=O)NCCCNC(=O)c1ccc(-c2c3nc(c(-c4c(F)c(F)c(F)c(F)c4F)c4ccc([nH]4)c(-c4c(F)c(F)c(F)c(F)c4F)c4nc(c(-c5c(F)c(F)c(F)c(F)c5F)c5ccc2[nH]5)C=C4)C=C3)cc1)Nc1cccc(OC[C@@H]2CCCO2)c1
REMARK SMILES IDX 10 1 11 2 12 3 9 5 4 6 5 7 6 8 8 9 7 10 3 11 2 12 1 13 82 14
REMARK SMILES IDX 83 16 84 17 95 18 85 19 87 20 86 21 88 22 89 23 90 24 91 25
REMARK SMILES IDX 94 26 92 27 93 28 13 29 14 30 15 31 16 32 17 33 18 35 19 36
REMARK SMILES IDX 20 37 81 38 21 39 80 40 22 41 23 42 24 43 74 44 25 45 79 46
REMARK SMILES IDX 73 47 75 48 26 49 78 50 72 51 71 52 27 54 59 55 39 56 58 57
REMARK SMILES IDX 40 58 43 59 57 60 76 61 41 62 42 63 56 65 77 66 44 67 28 68
REMARK SMILES IDX 29 69 37 70 30 71 31 72 35 73 38 74 32 75 33 76 36 77 34 78
REMARK SMILES IDX 60 79 61 80 69 81 62 82 63 83 67 84 70 85 64 86 65 87 68 88
REMARK SMILES IDX 66 89 45 90 46 91 54 92 47 93 48 94 52 95 55 96 49 97 50 98
REMARK SMILES IDX 53 99 51 100
REMARK H PARENT 12 4 82 15 16 34 75 53 43 64
REMARK Flexibility Score: inf
ROOT
ATOM      1  C   UNL A   1      34.549  24.417  23.605  1.00  0.00     0.251 C 
ATOM      2  O   UNL A   1      34.364  24.504  22.384  1.00  0.00    -0.269 OA
ATOM      3  N   UNL A   1      34.102  25.506  24.309  1.00  0.00    -0.352 N 
ATOM      4  H   UNL A   1      33.657  26.157  23.720  1.00  0.00     0.163 HD
ENDROOT
BRANCH   1   5
ATOM      5  C   UNL A   1      35.130  23.124  24.126  1.00  0.00     0.043 A 
ATOM      6  C   UNL A   1      34.516  21.880  24.390  1.00  0.00    -0.026 A 
ATOM      7  C   UNL A   1      35.292  20.825  24.932  1.00  0.00     0.005 A 
ATOM      8  C   UNL A   1      36.625  20.997  25.285  1.00  0.00     0.000 A 
ATOM      9  C   UNL A   1      36.491  23.261  24.498  1.00  0.00     0.014 A 
ATOM     10  C   UNL A   1      37.225  22.224  25.079  1.00  0.00     0.001 A 
BRANCH   6  11
ATOM     11  C   UNL A   1      33.069  21.565  24.169  1.00  0.00     0.136 C 
BRANCH  11  12
ATOM     12  C   UNL A   1      32.076  22.599  24.632  1.00  0.00     0.228 C 
ATOM     13  O   UNL A   1      31.905  22.800  25.833  1.00  0.00    -0.274 OA
ATOM     14  N   UNL A   1      31.462  23.312  23.618  1.00  0.00    -0.326 N 
ATOM     15  H   UNL A   1      31.375  22.895  22.730  1.00  0.00     0.169 HD
BRANCH  14  16
ATOM     16  C   UNL A   1      30.958  24.610  23.812  1.00  0.00     0.044 A 
ATOM     17  C   UNL A   1      30.385  24.956  25.031  1.00  0.00     0.026 A 
ATOM     18  C   UNL A   1      30.993  25.541  22.768  1.00  0.00     0.072 A 
ATOM     19  C   UNL A   1      29.936  26.263  25.228  1.00  0.00     0.006 A 
ATOM     20  C   UNL A   1      30.515  26.838  22.940  1.00  0.00     0.121 A 
ATOM     21  C   UNL A   1      30.005  27.198  24.188  1.00  0.00     0.046 A 
BRANCH  20  22
ATOM     22  O   UNL A   1      30.509  27.825  21.990  1.00  0.00    -0.491 OA
BRANCH  22  23
ATOM     23  C   UNL A   1      30.765  29.172  22.413  1.00  0.00     0.261 C 
BRANCH  23  24
ATOM     24  C   UNL A   1      29.541  30.090  22.249  1.00  0.00     0.156 C 
ATOM     25  C   UNL A   1      29.199  30.844  23.526  1.00  0.00     0.038 C 
ATOM     26  O   UNL A   1      28.355  29.357  21.904  1.00  0.00    -0.375 OA
ATOM     27  C   UNL A   1      27.700  30.982  23.453  1.00  0.00     0.031 C 
ATOM     28  C   UNL A   1      27.313  29.668  22.831  1.00  0.00     0.161 C 
ENDBRANCH  23  24
ENDBRANCH  22  23
ENDBRANCH  20  22
ENDBRANCH  14  16
ENDBRANCH  11  12
ENDBRANCH   6  11
ENDBRANCH   1   5
BRANCH   3  29
ATOM     29  C   UNL A   1      34.111  25.956  25.691  1.00  0.00     0.118 C 
BRANCH  29  30
ATOM     30  C   UNL A   1      33.680  27.433  25.769  1.00  0.00     0.042 C 
BRANCH  30  31
ATOM     31  C   UNL A   1      33.281  27.928  27.154  1.00  0.00     0.118 C 
BRANCH  31  32
ATOM     32  N   UNL A   1      33.264  29.379  27.233  1.00  0.00    -0.352 N 
ATOM     33  C   UNL A   1      34.185  30.281  27.710  1.00  0.00     0.251 C 
ATOM     34  H   UNL A   1      32.442  29.791  26.880  1.00  0.00     0.163 HD
ATOM     35  O   UNL A   1      33.824  31.448  27.863  1.00  0.00    -0.269 OA
BRANCH  33  36
ATOM     36  C   UNL A   1      35.587  29.914  28.052  1.00  0.00     0.039 A 
ATOM     37  C   UNL A   1      35.868  29.534  29.374  1.00  0.00     0.014 A 
ATOM     38  C   UNL A   1      36.647  30.027  27.154  1.00  0.00     0.014 A 
ATOM     39  C   UNL A   1      37.179  29.242  29.779  1.00  0.00     0.010 A 
ATOM     40  C   UNL A   1      37.942  29.653  27.535  1.00  0.00     0.010 A 
ATOM     41  C   UNL A   1      38.233  29.269  28.857  1.00  0.00    -0.014 A 
BRANCH  41  42
ATOM     42  C   UNL A   1      39.641  28.937  29.239  1.00  0.00     0.031 A 
ATOM     43  C   UNL A   1      40.512  29.983  29.894  1.00  0.00     0.074 A 
ATOM     44  C   UNL A   1      40.180  27.737  28.932  1.00  0.00     0.049 A 
ATOM     45  N   UNL A   1      41.794  29.949  30.164  1.00  0.00    -0.248 NA
ATOM     46  C   UNL A   1      39.852  31.237  30.296  1.00  0.00     0.031 C 
ATOM     47  C   UNL A   1      39.474  26.609  28.324  1.00  0.00     0.029 A 
ATOM     48  N   UNL A   1      41.478  27.289  29.034  1.00  0.00    -0.354 N 
ATOM     49  C   UNL A   1      42.084  31.158  30.787  1.00  0.00     0.074 A 
ATOM     50  C   UNL A   1      40.869  31.943  30.768  1.00  0.00     0.031 C 
ATOM     51  C   UNL A   1      40.355  25.642  28.022  1.00  0.00     0.029 A 
ATOM     52  C   UNL A   1      41.687  26.071  28.430  1.00  0.00     0.049 A 
ATOM     53  H   UNL A   1      42.189  27.792  29.494  1.00  0.00     0.167 HD
ATOM     54  C   UNL A   1      43.237  31.558  31.374  1.00  0.00     0.037 A 
ATOM     55  C   UNL A   1      42.822  25.379  28.211  1.00  0.00     0.037 A 
ATOM     56  C   UNL A   1      44.446  30.779  31.419  1.00  0.00     0.049 A 
ATOM     57  C   UNL A   1      44.119  25.890  28.772  1.00  0.00     0.074 A 
ATOM     58  C   UNL A   1      45.645  31.078  32.042  1.00  0.00     0.029 A 
ATOM     59  N   UNL A   1      44.608  29.542  30.814  1.00  0.00    -0.354 N 
ATOM     60  N   UNL A   1      44.356  26.995  29.433  1.00  0.00    -0.248 NA
ATOM     61  C   UNL A   1      45.300  25.031  28.599  1.00  0.00     0.031 C 
ATOM     62  C   UNL A   1      46.546  30.038  31.785  1.00  0.00     0.029 A 
ATOM     63  C   UNL A   1      45.892  29.072  31.038  1.00  0.00     0.049 A 
ATOM     64  H   UNL A   1      43.914  29.068  30.302  1.00  0.00     0.167 HD
ATOM     65  C   UNL A   1      45.687  26.930  29.818  1.00  0.00     0.074 A 
ATOM     66  C   UNL A   1      46.214  25.685  29.301  1.00  0.00     0.031 C 
ATOM     67  C   UNL A   1      46.401  27.816  30.554  1.00  0.00     0.037 A 
BRANCH  54  68
ATOM     68  C   UNL A   1      43.235  32.888  32.075  1.00  0.00     0.064 A 
ATOM     69  C   UNL A   1      43.540  34.069  31.382  1.00  0.00     0.173 A 
ATOM     70  C   UNL A   1      42.858  32.996  33.422  1.00  0.00     0.173 A 
ATOM     71  F   UNL A   1      43.912  34.020  30.094  1.00  0.00    -0.203 F 
ATOM     72  C   UNL A   1      43.491  35.307  32.017  1.00  0.00     0.198 A 
ATOM     73  C   UNL A   1      42.782  34.238  34.046  1.00  0.00     0.198 A 
ATOM     74  F   UNL A   1      42.545  31.899  34.127  1.00  0.00    -0.203 F 
ATOM     75  F   UNL A   1      43.824  36.417  31.343  1.00  0.00    -0.200 F 
ATOM     76  C   UNL A   1      43.103  35.392  33.345  1.00  0.00     0.200 A 
ATOM     77  F   UNL A   1      42.393  34.321  35.326  1.00  0.00    -0.200 F 
ATOM     78  F   UNL A   1      43.042  36.586  33.951  1.00  0.00    -0.200 F 
ENDBRANCH  54  68
BRANCH  55  79
ATOM     79  C   UNL A   1      42.784  24.101  27.452  1.00  0.00     0.064 A 
ATOM     80  C   UNL A   1      42.488  22.891  28.094  1.00  0.00     0.173 A 
ATOM     81  C   UNL A   1      43.084  24.060  26.083  1.00  0.00     0.173 A 
ATOM     82  F   UNL A   1      42.214  22.880  29.406  1.00  0.00    -0.203 F 
ATOM     83  C   UNL A   1      42.530  21.681  27.404  1.00  0.00     0.198 A 
ATOM     84  C   UNL A   1      43.103  22.852  25.388  1.00  0.00     0.198 A 
ATOM     85  F   UNL A   1      43.366  25.193  25.424  1.00  0.00    -0.203 F 
ATOM     86  F   UNL A   1      42.300  20.533  28.055  1.00  0.00    -0.200 F 
ATOM     87  C   UNL A   1      42.838  21.663  26.052  1.00  0.00     0.200 A 
ATOM     88  F   UNL A   1      43.397  22.835  24.081  1.00  0.00    -0.200 F 
ATOM     89  F   UNL A   1      42.891  20.497  25.392  1.00  0.00    -0.200 F 
ENDBRANCH  55  79
BRANCH  67  90
ATOM     90  C   UNL A   1      47.804  27.435  30.924  1.00  0.00     0.064 A 
ATOM     91  C   UNL A   1      48.098  26.734  32.101  1.00  0.00     0.173 A 
ATOM     92  C   UNL A   1      48.869  27.756  30.067  1.00  0.00     0.173 A 
ATOM     93  F   UNL A   1      47.117  26.419  32.962  1.00  0.00    -0.203 F 
ATOM     94  C   UNL A   1      49.409  26.392  32.422  1.00  0.00     0.198 A 
ATOM     95  C   UNL A   1      50.174  27.386  30.375  1.00  0.00     0.198 A 
ATOM     96  F   UNL A   1      48.641  28.423  28.925  1.00  0.00    -0.203 F 
ATOM     97  F   UNL A   1      49.673  25.766  33.578  1.00  0.00    -0.200 F 
ATOM     98  C   UNL A   1      50.445  26.712  31.555  1.00  0.00     0.200 A 
ATOM     99  F   UNL A   1      51.172  27.685  29.531  1.00  0.00    -0.200 F 
ATOM    100  F   UNL A   1      51.705  26.377  31.864  1.00  0.00    -0.200 F 
ENDBRANCH  67  90
ENDBRANCH  41  42
ENDBRANCH  33  36
ENDBRANCH  31  32
ENDBRANCH  30  31
ENDBRANCH  29  30
ENDBRANCH   3  29
TORSDOF 16
ENDMDL
