MODEL 1
REMARK VINA RESULT:      -9.6      0.000      0.000
REMARK SMILES CC(C)(O)CC[NH2+]CC(=O)NCCCNC(=O)c1ccc(-c2c3nc(c(-c4c(F)c(F)c(F)c(F)c4F)c4ccc([nH]4)c(-c4c(F)c(F)c(F)c(F)c4F)c4nc(c(-c5c(F)c(F)c(F)c(F)c5F)c5ccc2[nH]5)C=C4)C=C3)cc1
REMARK SMILES IDX 9 1 10 2 11 3 8 5 7 6 6 9 5 10 2 11 1 12 3 13 4 14 12 16
REMARK SMILES IDX 13 17 14 18 15 19 16 20 17 22 18 23 19 24 80 25 20 26 79 27
REMARK SMILES IDX 21 28 22 29 23 30 73 31 24 32 78 33 72 34 74 35 25 36 77 37
REMARK SMILES IDX 71 38 70 39 26 41 58 42 38 43 57 44 39 45 42 46 56 47 75 48
REMARK SMILES IDX 40 49 41 50 55 52 76 53 43 54 27 55 28 56 36 57 29 58 30 59
REMARK SMILES IDX 34 60 37 61 31 62 32 63 35 64 33 65 59 66 60 67 68 68 61 69
REMARK SMILES IDX 62 70 66 71 69 72 63 73 64 74 67 75 65 76 44 77 45 78 53 79
REMARK SMILES IDX 46 80 47 81 51 82 54 83 48 84 49 85 52 86 50 87
REMARK H PARENT 11 4 7 7 7 8 4 15 15 21 74 40 42 51
REMARK Flexibility Score: inf
ROOT
ATOM      1  C   UNL A   1      44.743  19.361  24.405  1.00  0.00     0.275 C 
ATOM      2  O   UNL A   1      44.857  18.527  23.502  1.00  0.00    -0.269 OA
ATOM      3  N   UNL A   1      43.525  19.475  25.014  1.00  0.00    -0.351 N 
ATOM      4  H   UNL A   1      42.848  18.834  24.695  1.00  0.00     0.163 HD
ENDROOT
BRANCH   1   5
ATOM      5  C   UNL A   1      45.918  20.274  24.785  1.00  0.00     0.361 C 
BRANCH   5   6
ATOM      6  N   UNL A   1      45.796  21.616  24.162  1.00  0.00    -0.338 N 
ATOM      7  H   UNL A   1      46.507  21.719  23.438  1.00  0.00     0.346 HD
ATOM      8  H   UNL A   1      44.867  21.710  23.752  1.00  0.00     0.346 HD
BRANCH   6   9
ATOM      9  C   UNL A   1      45.980  22.656  25.172  1.00  0.00     0.263 C 
BRANCH   9  10
ATOM     10  C   UNL A   1      45.403  24.037  24.853  1.00  0.00     0.096 C 
BRANCH  10  11
ATOM     11  C   UNL A   1      43.958  24.284  25.334  1.00  0.00     0.064 C 
ATOM     12  C   UNL A   1      43.520  25.734  25.128  1.00  0.00     0.042 C 
ATOM     13  C   UNL A   1      43.839  23.901  26.813  1.00  0.00     0.042 C 
BRANCH  11  14
ATOM     14  O   UNL A   1      43.064  23.424  24.615  1.00  0.00    -0.390 OA
ATOM     15  H   UNL A   1      43.443  22.532  24.567  1.00  0.00     0.211 HD
ENDBRANCH  11  14
ENDBRANCH  10  11
ENDBRANCH   9  10
ENDBRANCH   6   9
ENDBRANCH   5   6
ENDBRANCH   1   5
BRANCH   3  16
ATOM     16  C   UNL A   1      43.055  20.380  26.055  1.00  0.00     0.118 C 
BRANCH  16  17
ATOM     17  C   UNL A   1      41.539  20.325  26.278  1.00  0.00     0.042 C 
BRANCH  17  18
ATOM     18  C   UNL A   1      40.908  21.642  26.718  1.00  0.00     0.118 C 
BRANCH  18  19
ATOM     19  N   UNL A   1      39.709  21.941  25.953  1.00  0.00    -0.352 N 
ATOM     20  C   UNL A   1      38.860  23.018  26.032  1.00  0.00     0.251 C 
ATOM     21  H   UNL A   1      39.469  21.269  25.274  1.00  0.00     0.163 HD
ATOM     22  O   UNL A   1      37.760  22.953  25.490  1.00  0.00    -0.269 OA
BRANCH  20  23
ATOM     23  C   UNL A   1      39.238  24.257  26.757  1.00  0.00     0.039 A 
ATOM     24  C   UNL A   1      39.987  25.226  26.078  1.00  0.00     0.014 A 
ATOM     25  C   UNL A   1      38.954  24.436  28.114  1.00  0.00     0.014 A 
ATOM     26  C   UNL A   1      40.423  26.376  26.746  1.00  0.00     0.010 A 
ATOM     27  C   UNL A   1      39.336  25.611  28.765  1.00  0.00     0.010 A 
ATOM     28  C   UNL A   1      40.091  26.586  28.093  1.00  0.00    -0.014 A 
BRANCH  28  29
ATOM     29  C   UNL A   1      40.561  27.795  28.820  1.00  0.00     0.031 A 
ATOM     30  C   UNL A   1      41.988  27.890  29.290  1.00  0.00     0.074 A 
ATOM     31  C   UNL A   1      39.702  28.795  29.096  1.00  0.00     0.049 A 
ATOM     32  N   UNL A   1      42.571  28.832  29.990  1.00  0.00    -0.248 NA
ATOM     33  C   UNL A   1      42.873  26.767  28.946  1.00  0.00     0.031 C 
ATOM     34  C   UNL A   1      38.287  28.816  28.728  1.00  0.00     0.029 A 
ATOM     35  N   UNL A   1      39.893  29.982  29.759  1.00  0.00    -0.354 N 
ATOM     36  C   UNL A   1      43.878  28.406  30.187  1.00  0.00     0.074 A 
ATOM     37  C   UNL A   1      43.995  27.104  29.565  1.00  0.00     0.031 C 
ATOM     38  C   UNL A   1      37.741  29.967  29.157  1.00  0.00     0.029 A 
ATOM     39  C   UNL A   1      38.758  30.749  29.855  1.00  0.00     0.049 A 
ATOM     40  H   UNL A   1      40.762  30.257  30.132  1.00  0.00     0.167 HD
ATOM     41  C   UNL A   1      44.894  29.047  30.812  1.00  0.00     0.037 A 
ATOM     42  C   UNL A   1      38.558  31.943  30.442  1.00  0.00     0.037 A 
ATOM     43  C   UNL A   1      44.796  30.360  31.396  1.00  0.00     0.049 A 
ATOM     44  C   UNL A   1      39.706  32.640  31.122  1.00  0.00     0.074 A 
ATOM     45  C   UNL A   1      45.792  31.119  31.986  1.00  0.00     0.029 A 
ATOM     46  N   UNL A   1      43.631  31.108  31.459  1.00  0.00    -0.354 N 
ATOM     47  N   UNL A   1      40.949  32.250  31.253  1.00  0.00    -0.248 NA
ATOM     48  C   UNL A   1      39.419  33.946  31.734  1.00  0.00     0.031 C 
ATOM     49  C   UNL A   1      45.222  32.315  32.436  1.00  0.00     0.029 A 
ATOM     50  C   UNL A   1      43.880  32.315  32.095  1.00  0.00     0.049 A 
ATOM     51  H   UNL A   1      42.758  30.826  31.103  1.00  0.00     0.167 HD
ATOM     52  C   UNL A   1      41.597  33.265  31.943  1.00  0.00     0.074 A 
ATOM     53  C   UNL A   1      40.614  34.297  32.191  1.00  0.00     0.031 C 
ATOM     54  C   UNL A   1      42.892  33.334  32.335  1.00  0.00     0.037 A 
BRANCH  41  55
ATOM     55  C   UNL A   1      46.213  28.338  30.895  1.00  0.00     0.064 A 
ATOM     56  C   UNL A   1      47.204  28.516  29.918  1.00  0.00     0.173 A 
ATOM     57  C   UNL A   1      46.505  27.504  31.985  1.00  0.00     0.173 A 
ATOM     58  F   UNL A   1      46.969  29.295  28.853  1.00  0.00    -0.203 F 
ATOM     59  C   UNL A   1      48.431  27.863  30.016  1.00  0.00     0.198 A 
ATOM     60  C   UNL A   1      47.742  26.872  32.092  1.00  0.00     0.198 A 
ATOM     61  F   UNL A   1      45.594  27.307  32.949  1.00  0.00    -0.203 F 
ATOM     62  F   UNL A   1      49.346  28.015  29.050  1.00  0.00    -0.200 F 
ATOM     63  C   UNL A   1      48.700  27.048  31.105  1.00  0.00     0.200 A 
ATOM     64  F   UNL A   1      48.005  26.094  33.149  1.00  0.00    -0.200 F 
ATOM     65  F   UNL A   1      49.883  26.424  31.200  1.00  0.00    -0.200 F 
ENDBRANCH  41  55
BRANCH  42  66
ATOM     66  C   UNL A   1      37.214  32.572  30.396  1.00  0.00     0.064 A 
ATOM     67  C   UNL A   1      36.279  32.342  31.412  1.00  0.00     0.173 A 
ATOM     68  C   UNL A   1      36.840  33.412  29.338  1.00  0.00     0.173 A 
ATOM     69  F   UNL A   1      36.586  31.525  32.432  1.00  0.00    -0.203 F 
ATOM     70  C   UNL A   1      35.012  32.920  31.368  1.00  0.00     0.198 A 
ATOM     71  C   UNL A   1      35.581  34.007  29.306  1.00  0.00     0.198 A 
ATOM     72  F   UNL A   1      37.701  33.662  28.340  1.00  0.00    -0.203 F 
ATOM     73  F   UNL A   1      34.123  32.655  32.335  1.00  0.00    -0.200 F 
ATOM     74  C   UNL A   1      34.666  33.757  30.317  1.00  0.00     0.200 A 
ATOM     75  F   UNL A   1      35.252  34.823  28.293  1.00  0.00    -0.200 F 
ATOM     76  F   UNL A   1      33.449  34.315  30.277  1.00  0.00    -0.200 F 
ENDBRANCH  42  66
BRANCH  54  77
ATOM     77  C   UNL A   1      43.326  34.573  33.058  1.00  0.00     0.064 A 
ATOM     78  C   UNL A   1      43.700  35.732  32.363  1.00  0.00     0.173 A 
ATOM     79  C   UNL A   1      43.327  34.614  34.461  1.00  0.00     0.173 A 
ATOM     80  F   UNL A   1      43.728  35.734  31.023  1.00  0.00    -0.203 F 
ATOM     81  C   UNL A   1      44.076  36.884  33.048  1.00  0.00     0.198 A 
ATOM     82  C   UNL A   1      43.684  35.775  35.141  1.00  0.00     0.198 A 
ATOM     83  F   UNL A   1      42.974  33.532  35.170  1.00  0.00    -0.203 F 
ATOM     84  F   UNL A   1      44.466  37.969  32.364  1.00  0.00    -0.200 F 
ATOM     85  C   UNL A   1      44.063  36.907  34.435  1.00  0.00     0.200 A 
ATOM     86  F   UNL A   1      43.662  35.799  36.480  1.00  0.00    -0.200 F 
ATOM     87  F   UNL A   1      44.421  38.019  35.091  1.00  0.00    -0.200 F 
ENDBRANCH  54  77
ENDBRANCH  28  29
ENDBRANCH  20  23
ENDBRANCH  18  19
ENDBRANCH  17  18
ENDBRANCH  16  17
ENDBRANCH   3  16
TORSDOF 15
ENDMDL
MODEL 2
REMARK VINA RESULT:      -9.6      3.923     11.062
REMARK SMILES CC(C)(O)CC[NH2+]CC(=O)NCCCNC(=O)c1ccc(-c2c3nc(c(-c4c(F)c(F)c(F)c(F)c4F)c4ccc([nH]4)c(-c4c(F)c(F)c(F)c(F)c4F)c4nc(c(-c5c(F)c(F)c(F)c(F)c5F)c5ccc2[nH]5)C=C4)C=C3)cc1
REMARK SMILES IDX 9 1 10 2 11 3 8 5 7 6 6 9 5 10 2 11 1 12 3 13 4 14 12 16
REMARK SMILES IDX 13 17 14 18 15 19 16 20 17 22 18 23 19 24 80 25 20 26 79 27
REMARK SMILES IDX 21 28 22 29 23 30 73 31 24 32 78 33 72 34 74 35 25 36 77 37
REMARK SMILES IDX 71 38 70 39 26 41 58 42 38 43 57 44 39 45 42 46 56 47 75 48
REMARK SMILES IDX 40 49 41 50 55 52 76 53 43 54 27 55 28 56 36 57 29 58 30 59
REMARK SMILES IDX 34 60 37 61 31 62 32 63 35 64 33 65 59 66 60 67 68 68 61 69
REMARK SMILES IDX 62 70 66 71 69 72 63 73 64 74 67 75 65 76 44 77 45 78 53 79
REMARK SMILES IDX 46 80 47 81 51 82 54 83 48 84 49 85 52 86 50 87
REMARK H PARENT 11 4 7 7 7 8 4 15 15 21 74 40 42 51
REMARK Flexibility Score: inf
ROOT
ATOM      1  C   UNL A   1      33.159  36.106  30.799  1.00  0.00     0.275 C 
ATOM      2  O   UNL A   1      32.162  36.730  31.175  1.00  0.00    -0.269 OA
ATOM      3  N   UNL A   1      33.420  36.078  29.457  1.00  0.00    -0.351 N 
ATOM      4  H   UNL A   1      32.796  36.607  28.909  1.00  0.00     0.163 HD
ENDROOT
BRANCH   1   5
ATOM      5  C   UNL A   1      34.036  35.344  31.803  1.00  0.00     0.361 C 
BRANCH   5   6
ATOM      6  N   UNL A   1      33.223  34.690  32.858  1.00  0.00    -0.338 N 
ATOM      7  H   UNL A   1      33.128  35.323  33.652  1.00  0.00     0.346 HD
ATOM      8  H   UNL A   1      32.302  34.467  32.480  1.00  0.00     0.346 HD
BRANCH   6   9
ATOM      9  C   UNL A   1      33.871  33.456  33.298  1.00  0.00     0.263 C 
BRANCH   9  10
ATOM     10  C   UNL A   1      35.174  33.605  34.087  1.00  0.00     0.096 C 
BRANCH  10  11
ATOM     11  C   UNL A   1      36.382  32.820  33.535  1.00  0.00     0.064 C 
ATOM     12  C   UNL A   1      37.533  33.741  33.129  1.00  0.00     0.042 C 
ATOM     13  C   UNL A   1      35.938  31.972  32.338  1.00  0.00     0.042 C 
BRANCH  11  14
ATOM     14  O   UNL A   1      36.852  31.905  34.534  1.00  0.00    -0.390 OA
ATOM     15  H   UNL A   1      37.073  32.395  35.342  1.00  0.00     0.211 HD
ENDBRANCH  11  14
ENDBRANCH  10  11
ENDBRANCH   9  10
ENDBRANCH   6   9
ENDBRANCH   5   6
ENDBRANCH   1   5
BRANCH   3  16
ATOM     16  C   UNL A   1      34.464  35.401  28.698  1.00  0.00     0.118 C 
BRANCH  16  17
ATOM     17  C   UNL A   1      33.995  34.102  28.032  1.00  0.00     0.042 C 
BRANCH  17  18
ATOM     18  C   UNL A   1      34.511  32.824  28.687  1.00  0.00     0.118 C 
BRANCH  18  19
ATOM     19  N   UNL A   1      33.800  31.653  28.203  1.00  0.00    -0.352 N 
ATOM     20  C   UNL A   1      34.280  30.415  27.848  1.00  0.00     0.251 C 
ATOM     21  H   UNL A   1      32.825  31.762  28.116  1.00  0.00     0.163 HD
ATOM     22  O   UNL A   1      33.558  29.654  27.211  1.00  0.00    -0.269 OA
BRANCH  20  23
ATOM     23  C   UNL A   1      35.650  29.977  28.216  1.00  0.00     0.039 A 
ATOM     24  C   UNL A   1      35.879  29.523  29.521  1.00  0.00     0.014 A 
ATOM     25  C   UNL A   1      36.727  30.097  27.333  1.00  0.00     0.014 A 
ATOM     26  C   UNL A   1      37.169  29.167  29.929  1.00  0.00     0.010 A 
ATOM     27  C   UNL A   1      38.004  29.684  27.720  1.00  0.00     0.010 A 
ATOM     28  C   UNL A   1      38.243  29.232  29.027  1.00  0.00    -0.014 A 
BRANCH  28  29
ATOM     29  C   UNL A   1      39.623  28.872  29.451  1.00  0.00     0.031 A 
ATOM     30  C   UNL A   1      40.389  29.773  30.381  1.00  0.00     0.074 A 
ATOM     31  C   UNL A   1      40.208  27.758  28.971  1.00  0.00     0.049 A 
ATOM     32  N   UNL A   1      41.621  29.664  30.816  1.00  0.00    -0.248 NA
ATOM     33  C   UNL A   1      39.686  30.967  30.873  1.00  0.00     0.031 C 
ATOM     34  C   UNL A   1      39.591  26.815  28.038  1.00  0.00     0.029 A 
ATOM     35  N   UNL A   1      41.457  27.235  29.197  1.00  0.00    -0.354 N 
ATOM     36  C   UNL A   1      41.844  30.781  31.610  1.00  0.00     0.074 A 
ATOM     37  C   UNL A   1      40.635  31.575  31.569  1.00  0.00     0.031 C 
ATOM     38  C   UNL A   1      40.458  25.821  27.783  1.00  0.00     0.029 A 
ATOM     39  C   UNL A   1      41.701  26.072  28.509  1.00  0.00     0.049 A 
ATOM     40  H   UNL A   1      42.118  27.655  29.795  1.00  0.00     0.167 HD
ATOM     41  C   UNL A   1      42.949  31.107  32.323  1.00  0.00     0.037 A 
ATOM     42  C   UNL A   1      42.801  25.297  28.465  1.00  0.00     0.037 A 
ATOM     43  C   UNL A   1      44.138  30.301  32.402  1.00  0.00     0.049 A 
ATOM     44  C   UNL A   1      44.011  25.676  29.274  1.00  0.00     0.074 A 
ATOM     45  C   UNL A   1      45.278  30.516  33.158  1.00  0.00     0.029 A 
ATOM     46  N   UNL A   1      44.338  29.122  31.701  1.00  0.00    -0.354 N 
ATOM     47  N   UNL A   1      44.189  26.706  30.063  1.00  0.00    -0.248 NA
ATOM     48  C   UNL A   1      45.174  24.780  29.187  1.00  0.00     0.031 C 
ATOM     49  C   UNL A   1      46.183  29.482  32.889  1.00  0.00     0.029 A 
ATOM     50  C   UNL A   1      45.592  28.607  31.993  1.00  0.00     0.049 A 
ATOM     51  H   UNL A   1      43.687  28.711  31.089  1.00  0.00     0.167 HD
ATOM     52  C   UNL A   1      45.471  26.575  30.580  1.00  0.00     0.074 A 
ATOM     53  C   UNL A   1      46.023  25.357  30.027  1.00  0.00     0.031 C 
ATOM     54  C   UNL A   1      46.129  27.393  31.436  1.00  0.00     0.037 A 
BRANCH  41  55
ATOM     55  C   UNL A   1      42.922  32.398  33.088  1.00  0.00     0.064 A 
ATOM     56  C   UNL A   1      43.331  33.606  32.503  1.00  0.00     0.173 A 
ATOM     57  C   UNL A   1      42.443  32.433  34.406  1.00  0.00     0.173 A 
ATOM     58  F   UNL A   1      43.805  33.621  31.249  1.00  0.00    -0.203 F 
ATOM     59  C   UNL A   1      43.285  34.799  33.220  1.00  0.00     0.198 A 
ATOM     60  C   UNL A   1      42.377  33.632  35.111  1.00  0.00     0.198 A 
ATOM     61  F   UNL A   1      42.034  31.307  35.007  1.00  0.00    -0.203 F 
ATOM     62  F   UNL A   1      43.720  35.933  32.655  1.00  0.00    -0.200 F 
ATOM     63  C   UNL A   1      42.803  34.812  34.519  1.00  0.00     0.200 A 
ATOM     64  F   UNL A   1      41.901  33.646  36.363  1.00  0.00    -0.200 F 
ATOM     65  F   UNL A   1      42.756  35.962  35.206  1.00  0.00    -0.200 F 
ENDBRANCH  41  55
BRANCH  42  66
ATOM     66  C   UNL A   1      42.803  24.066  27.635  1.00  0.00     0.064 A 
ATOM     67  C   UNL A   1      42.459  22.827  28.190  1.00  0.00     0.173 A 
ATOM     68  C   UNL A   1      43.147  24.104  26.277  1.00  0.00     0.173 A 
ATOM     69  F   UNL A   1      42.145  22.740  29.492  1.00  0.00    -0.203 F 
ATOM     70  C   UNL A   1      42.469  21.667  27.420  1.00  0.00     0.198 A 
ATOM     71  C   UNL A   1      43.136  22.946  25.502  1.00  0.00     0.198 A 
ATOM     72  F   UNL A   1      43.485  25.267  25.701  1.00  0.00    -0.203 F 
ATOM     73  F   UNL A   1      42.171  20.488  27.983  1.00  0.00    -0.200 F 
ATOM     74  C   UNL A   1      42.803  21.728  26.075  1.00  0.00     0.200 A 
ATOM     75  F   UNL A   1      43.450  23.010  24.200  1.00  0.00    -0.200 F 
ATOM     76  F   UNL A   1      42.810  20.612  25.334  1.00  0.00    -0.200 F 
ENDBRANCH  42  66
BRANCH  54  77
ATOM     77  C   UNL A   1      47.514  26.990  31.842  1.00  0.00     0.064 A 
ATOM     78  C   UNL A   1      47.736  26.108  32.910  1.00  0.00     0.173 A 
ATOM     79  C   UNL A   1      48.629  27.458  31.130  1.00  0.00     0.173 A 
ATOM     80  F   UNL A   1      46.701  25.647  33.628  1.00  0.00    -0.203 F 
ATOM     81  C   UNL A   1      49.026  25.721  33.261  1.00  0.00     0.198 A 
ATOM     82  C   UNL A   1      49.917  27.052  31.470  1.00  0.00     0.198 A 
ATOM     83  F   UNL A   1      48.469  28.300  30.099  1.00  0.00    -0.203 F 
ATOM     84  F   UNL A   1      49.218  24.907  34.307  1.00  0.00    -0.200 F 
ATOM     85  C   UNL A   1      50.114  26.188  32.538  1.00  0.00     0.200 A 
ATOM     86  F   UNL A   1      50.967  27.496  30.767  1.00  0.00    -0.200 F 
ATOM     87  F   UNL A   1      51.355  25.811  32.875  1.00  0.00    -0.200 F 
ENDBRANCH  54  77
ENDBRANCH  28  29
ENDBRANCH  20  23
ENDBRANCH  18  19
ENDBRANCH  17  18
ENDBRANCH  16  17
ENDBRANCH   3  16
TORSDOF 15
ENDMDL
MODEL 3
REMARK VINA RESULT:      -9.5      0.570      2.219
REMARK SMILES CC(C)(O)CC[NH2+]CC(=O)NCCCNC(=O)c1ccc(-c2c3nc(c(-c4c(F)c(F)c(F)c(F)c4F)c4ccc([nH]4)c(-c4c(F)c(F)c(F)c(F)c4F)c4nc(c(-c5c(F)c(F)c(F)c(F)c5F)c5ccc2[nH]5)C=C4)C=C3)cc1
REMARK SMILES IDX 9 1 10 2 11 3 8 5 7 6 6 9 5 10 2 11 1 12 3 13 4 14 12 16
REMARK SMILES IDX 13 17 14 18 15 19 16 20 17 22 18 23 19 24 80 25 20 26 79 27
REMARK SMILES IDX 21 28 22 29 23 30 73 31 24 32 78 33 72 34 74 35 25 36 77 37
REMARK SMILES IDX 71 38 70 39 26 41 58 42 38 43 57 44 39 45 42 46 56 47 75 48
REMARK SMILES IDX 40 49 41 50 55 52 76 53 43 54 27 55 28 56 36 57 29 58 30 59
REMARK SMILES IDX 34 60 37 61 31 62 32 63 35 64 33 65 59 66 60 67 68 68 61 69
REMARK SMILES IDX 62 70 66 71 69 72 63 73 64 74 67 75 65 76 44 77 45 78 53 79
REMARK SMILES IDX 46 80 47 81 51 82 54 83 48 84 49 85 52 86 50 87
REMARK H PARENT 11 4 7 7 7 8 4 15 15 21 74 40 42 51
REMARK Flexibility Score: inf
ROOT
ATOM      1  C   UNL A   1      44.618  19.369  25.261  1.00  0.00     0.275 C 
ATOM      2  O   UNL A   1      45.048  18.236  25.023  1.00  0.00    -0.269 OA
ATOM      3  N   UNL A   1      43.426  19.468  25.923  1.00  0.00    -0.351 N 
ATOM      4  H   UNL A   1      43.036  18.605  26.191  1.00  0.00     0.163 HD
ENDROOT
BRANCH   1   5
ATOM      5  C   UNL A   1      45.373  20.616  24.777  1.00  0.00     0.361 C 
BRANCH   5   6
ATOM      6  N   UNL A   1      44.856  21.100  23.472  1.00  0.00    -0.338 N 
ATOM      7  H   UNL A   1      45.487  20.802  22.728  1.00  0.00     0.346 HD
ATOM      8  H   UNL A   1      43.927  20.709  23.315  1.00  0.00     0.346 HD
BRANCH   6   9
ATOM      9  C   UNL A   1      44.768  22.558  23.478  1.00  0.00     0.263 C 
BRANCH   9  10
ATOM     10  C   UNL A   1      43.751  23.184  24.434  1.00  0.00     0.096 C 
BRANCH  10  11
ATOM     11  C   UNL A   1      44.275  24.354  25.294  1.00  0.00     0.064 C 
ATOM     12  C   UNL A   1      45.798  24.467  25.247  1.00  0.00     0.042 C 
ATOM     13  C   UNL A   1      43.802  24.178  26.740  1.00  0.00     0.042 C 
BRANCH  11  14
ATOM     14  O   UNL A   1      43.705  25.582  24.822  1.00  0.00    -0.390 OA
ATOM     15  H   UNL A   1      44.318  26.313  25.003  1.00  0.00     0.211 HD
ENDBRANCH  11  14
ENDBRANCH  10  11
ENDBRANCH   9  10
ENDBRANCH   6   9
ENDBRANCH   5   6
ENDBRANCH   1   5
BRANCH   3  16
ATOM     16  C   UNL A   1      42.635  20.632  26.302  1.00  0.00     0.118 C 
BRANCH  16  17
ATOM     17  C   UNL A   1      41.206  20.287  26.738  1.00  0.00     0.042 C 
BRANCH  17  18
ATOM     18  C   UNL A   1      40.396  21.467  27.267  1.00  0.00     0.118 C 
BRANCH  18  19
ATOM     19  N   UNL A   1      39.421  21.924  26.292  1.00  0.00    -0.352 N 
ATOM     20  C   UNL A   1      38.817  23.152  26.160  1.00  0.00     0.251 C 
ATOM     21  H   UNL A   1      39.152  21.253  25.624  1.00  0.00     0.163 HD
ATOM     22  O   UNL A   1      37.826  23.256  25.443  1.00  0.00    -0.269 OA
BRANCH  20  23
ATOM     23  C   UNL A   1      39.332  24.354  26.863  1.00  0.00     0.039 A 
ATOM     24  C   UNL A   1      38.917  24.587  28.180  1.00  0.00     0.014 A 
ATOM     25  C   UNL A   1      40.133  25.301  26.219  1.00  0.00     0.014 A 
ATOM     26  C   UNL A   1      39.324  25.744  28.854  1.00  0.00     0.010 A 
ATOM     27  C   UNL A   1      40.589  26.425  26.910  1.00  0.00     0.010 A 
ATOM     28  C   UNL A   1      40.175  26.669  28.229  1.00  0.00    -0.014 A 
BRANCH  28  29
ATOM     29  C   UNL A   1      40.602  27.911  28.927  1.00  0.00     0.031 A 
ATOM     30  C   UNL A   1      42.017  28.056  29.418  1.00  0.00     0.074 A 
ATOM     31  C   UNL A   1      39.713  28.895  29.158  1.00  0.00     0.049 A 
ATOM     32  N   UNL A   1      42.564  29.033  30.100  1.00  0.00    -0.248 NA
ATOM     33  C   UNL A   1      42.936  26.946  29.123  1.00  0.00     0.031 C 
ATOM     34  C   UNL A   1      38.304  28.870  28.766  1.00  0.00     0.029 A 
ATOM     35  N   UNL A   1      39.862  30.106  29.788  1.00  0.00    -0.354 N 
ATOM     36  C   UNL A   1      43.877  28.646  30.332  1.00  0.00     0.074 A 
ATOM     37  C   UNL A   1      44.038  27.330  29.751  1.00  0.00     0.031 C 
ATOM     38  C   UNL A   1      37.722  30.018  29.150  1.00  0.00     0.029 A 
ATOM     39  C   UNL A   1      38.707  30.847  29.842  1.00  0.00     0.049 A 
ATOM     40  H   UNL A   1      40.717  30.415  30.168  1.00  0.00     0.167 HD
ATOM     41  C   UNL A   1      44.865  29.332  30.955  1.00  0.00     0.037 A 
ATOM     42  C   UNL A   1      38.466  32.053  30.389  1.00  0.00     0.037 A 
ATOM     43  C   UNL A   1      44.724  30.659  31.497  1.00  0.00     0.049 A 
ATOM     44  C   UNL A   1      39.584  32.798  31.067  1.00  0.00     0.074 A 
ATOM     45  C   UNL A   1      45.690  31.460  32.080  1.00  0.00     0.029 A 
ATOM     46  N   UNL A   1      43.540  31.378  31.517  1.00  0.00    -0.354 N 
ATOM     47  N   UNL A   1      40.833  32.444  31.231  1.00  0.00    -0.248 NA
ATOM     48  C   UNL A   1      39.253  34.114  31.634  1.00  0.00     0.031 C 
ATOM     49  C   UNL A   1      45.082  32.654  32.485  1.00  0.00     0.029 A 
ATOM     50  C   UNL A   1      43.747  32.609  32.121  1.00  0.00     0.049 A 
ATOM     51  H   UNL A   1      42.681  31.063  31.155  1.00  0.00     0.167 HD
ATOM     52  C   UNL A   1      41.444  33.496  31.901  1.00  0.00     0.074 A 
ATOM     53  C   UNL A   1      40.430  34.509  32.101  1.00  0.00     0.031 C 
ATOM     54  C   UNL A   1      42.729  33.609  32.313  1.00  0.00     0.037 A 
BRANCH  41  55
ATOM     55  C   UNL A   1      46.200  28.660  31.081  1.00  0.00     0.064 A 
ATOM     56  C   UNL A   1      46.527  27.882  32.202  1.00  0.00     0.173 A 
ATOM     57  C   UNL A   1      47.147  28.760  30.051  1.00  0.00     0.173 A 
ATOM     58  F   UNL A   1      45.658  27.764  33.217  1.00  0.00    -0.203 F 
ATOM     59  C   UNL A   1      47.764  27.250  32.298  1.00  0.00     0.198 A 
ATOM     60  C   UNL A   1      48.374  28.107  30.140  1.00  0.00     0.198 A 
ATOM     61  F   UNL A   1      46.880  29.486  28.956  1.00  0.00    -0.203 F 
ATOM     62  F   UNL A   1      48.071  26.547  33.397  1.00  0.00    -0.200 F 
ATOM     63  C   UNL A   1      48.683  27.358  31.266  1.00  0.00     0.200 A 
ATOM     64  F   UNL A   1      49.257  28.204  29.138  1.00  0.00    -0.200 F 
ATOM     65  F   UNL A   1      49.872  26.746  31.358  1.00  0.00    -0.200 F 
ENDBRANCH  41  55
BRANCH  42  66
ATOM     66  C   UNL A   1      37.107  32.645  30.300  1.00  0.00     0.064 A 
ATOM     67  C   UNL A   1      36.754  33.469  29.225  1.00  0.00     0.173 A 
ATOM     68  C   UNL A   1      36.141  32.400  31.285  1.00  0.00     0.173 A 
ATOM     69  F   UNL A   1      37.655  33.750  28.272  1.00  0.00    -0.203 F 
ATOM     70  C   UNL A   1      35.485  34.036  29.142  1.00  0.00     0.198 A 
ATOM     71  C   UNL A   1      34.865  32.950  31.190  1.00  0.00     0.198 A 
ATOM     72  F   UNL A   1      36.433  31.618  32.335  1.00  0.00    -0.203 F 
ATOM     73  F   UNL A   1      35.183  34.850  28.121  1.00  0.00    -0.200 F 
ATOM     74  C   UNL A   1      34.539  33.772  30.122  1.00  0.00     0.200 A 
ATOM     75  F   UNL A   1      33.950  32.686  32.134  1.00  0.00    -0.200 F 
ATOM     76  F   UNL A   1      33.318  34.317  30.040  1.00  0.00    -0.200 F 
ENDBRANCH  42  66
BRANCH  54  77
ATOM     77  C   UNL A   1      43.118  34.880  33.006  1.00  0.00     0.064 A 
ATOM     78  C   UNL A   1      42.975  35.029  34.393  1.00  0.00     0.173 A 
ATOM     79  C   UNL A   1      43.678  35.943  32.282  1.00  0.00     0.173 A 
ATOM     80  F   UNL A   1      42.431  34.045  35.124  1.00  0.00    -0.203 F 
ATOM     81  C   UNL A   1      43.363  36.205  35.028  1.00  0.00     0.198 A 
ATOM     82  C   UNL A   1      44.085  37.110  32.924  1.00  0.00     0.198 A 
ATOM     83  F   UNL A   1      43.839  35.847  30.954  1.00  0.00    -0.203 F 
ATOM     84  F   UNL A   1      43.184  36.341  36.349  1.00  0.00    -0.200 F 
ATOM     85  C   UNL A   1      43.923  37.242  34.295  1.00  0.00     0.200 A 
ATOM     86  F   UNL A   1      44.633  38.107  32.217  1.00  0.00    -0.200 F 
ATOM     87  F   UNL A   1      44.300  38.371  34.910  1.00  0.00    -0.200 F 
ENDBRANCH  54  77
ENDBRANCH  28  29
ENDBRANCH  20  23
ENDBRANCH  18  19
ENDBRANCH  17  18
ENDBRANCH  16  17
ENDBRANCH   3  16
TORSDOF 15
ENDMDL
