MODEL 1
REMARK VINA RESULT:     -10.0      0.000      0.000
REMARK SMILES O=C(NCCCNC(=O)c1ccc(-c2c3nc(c(-c4c(F)c(F)c(F)c(F)c4F)c4ccc([nH]4)c(-c4c(F)c(F)c(F)c(F)c4F)c4nc(c(-c5c(F)c(F)c(F)c(F)c5F)c5ccc2[nH]5)C=C4)C=C3)cc1)c1ccc(N[C@H]2OC[C@@H](O)[C@@H](O)[C@H]2O)cc1
REMARK SMILES IDX 4 1 3 2 1 3 2 4 73 6 74 7 88 8 75 9 87 10 76 11 77 12 78 14
REMARK SMILES IDX 79 15 85 16 80 17 83 18 81 19 86 20 84 22 82 24 5 26 6 27
REMARK SMILES IDX 7 28 8 29 9 31 10 32 11 33 72 34 12 35 71 36 13 37 14 38
REMARK SMILES IDX 15 39 65 40 16 41 70 42 64 43 66 44 17 45 69 46 63 47 62 48
REMARK SMILES IDX 18 50 50 51 30 52 49 53 31 54 34 55 48 56 67 57 32 58 33 59
REMARK SMILES IDX 47 61 68 62 35 63 19 64 20 65 28 66 21 67 22 68 26 69 29 70
REMARK SMILES IDX 23 71 24 72 27 73 25 74 51 75 52 76 60 77 53 78 54 79 58 80
REMARK SMILES IDX 61 81 55 82 56 83 59 84 57 85 36 86 37 87 45 88 38 89 39 90
REMARK SMILES IDX 43 91 46 92 40 93 41 94 44 95 42 96
REMARK H PARENT 3 5 77 13 86 21 84 23 82 25 7 30 66 49 34 60
REMARK Flexibility Score: inf
ROOT
ATOM      1  C   UNL A   1      37.242  33.612  29.862  1.00  0.00     0.118 C 
ENDROOT
BRANCH   1   2
ATOM      2  N   UNL A   1      36.918  34.579  30.903  1.00  0.00    -0.352 N 
ATOM      3  O   UNL A   1      36.447  35.307  32.983  1.00  0.00    -0.269 OA
ATOM      4  C   UNL A   1      36.940  34.439  32.269  1.00  0.00     0.251 C 
ATOM      5  H   UNL A   1      36.643  35.466  30.578  1.00  0.00     0.163 HD
BRANCH   4   6
ATOM      6  C   UNL A   1      37.532  33.230  32.876  1.00  0.00     0.039 A 
ATOM      7  C   UNL A   1      36.927  31.986  32.720  1.00  0.00     0.016 A 
ATOM      8  C   UNL A   1      38.715  33.337  33.605  1.00  0.00     0.016 A 
ATOM      9  C   UNL A   1      37.422  30.881  33.413  1.00  0.00     0.026 A 
ATOM     10  C   UNL A   1      39.228  32.209  34.256  1.00  0.00     0.026 A 
ATOM     11  C   UNL A   1      38.562  30.973  34.215  1.00  0.00     0.036 A 
BRANCH  11  12
ATOM     12  N   UNL A   1      39.090  29.904  34.923  1.00  0.00    -0.358 N 
ATOM     13  H   UNL A   1      38.466  29.328  35.421  1.00  0.00     0.163 HD
BRANCH  12  14
ATOM     14  C   UNL A   1      40.513  29.577  34.978  1.00  0.00     0.244 C 
ATOM     15  O   UNL A   1      40.778  28.736  36.101  1.00  0.00    -0.353 OA
ATOM     16  C   UNL A   1      40.868  28.784  33.696  1.00  0.00     0.195 C 
ATOM     17  C   UNL A   1      42.167  28.419  36.244  1.00  0.00     0.197 C 
ATOM     18  C   UNL A   1      42.339  28.360  33.748  1.00  0.00     0.178 C 
ATOM     19  C   UNL A   1      42.659  27.604  35.048  1.00  0.00     0.171 C 
BRANCH  16  20
ATOM     20  O   UNL A   1      40.031  27.601  33.623  1.00  0.00    -0.386 OA
ATOM     21  H   UNL A   1      39.584  27.468  34.475  1.00  0.00     0.211 HD
ENDBRANCH  16  20
BRANCH  18  22
ATOM     22  O   UNL A   1      42.652  27.545  32.617  1.00  0.00    -0.387 OA
ATOM     23  H   UNL A   1      43.461  27.876  32.195  1.00  0.00     0.211 HD
ENDBRANCH  18  22
BRANCH  19  24
ATOM     24  O   UNL A   1      42.015  26.321  35.047  1.00  0.00    -0.388 OA
ATOM     25  H   UNL A   1      42.569  25.681  35.520  1.00  0.00     0.211 HD
ENDBRANCH  19  24
ENDBRANCH  12  14
ENDBRANCH  11  12
ENDBRANCH   4   6
ENDBRANCH   1   2
BRANCH   1  26
ATOM     26  C   UNL A   1      36.073  33.352  28.925  1.00  0.00     0.042 C 
BRANCH  26  27
ATOM     27  C   UNL A   1      34.880  32.690  29.596  1.00  0.00     0.118 C 
BRANCH  27  28
ATOM     28  N   UNL A   1      34.169  31.774  28.712  1.00  0.00    -0.352 N 
ATOM     29  C   UNL A   1      34.603  30.648  28.058  1.00  0.00     0.251 C 
ATOM     30  H   UNL A   1      33.222  31.999  28.560  1.00  0.00     0.163 HD
ATOM     31  O   UNL A   1      33.885  30.119  27.213  1.00  0.00    -0.269 OA
BRANCH  29  32
ATOM     32  C   UNL A   1      35.940  30.085  28.340  1.00  0.00     0.039 A 
ATOM     33  C   UNL A   1      36.927  30.156  27.353  1.00  0.00     0.014 A 
ATOM     34  C   UNL A   1      36.226  29.482  29.567  1.00  0.00     0.014 A 
ATOM     35  C   UNL A   1      38.219  29.703  27.628  1.00  0.00     0.010 A 
ATOM     36  C   UNL A   1      37.534  29.121  29.874  1.00  0.00     0.010 A 
ATOM     37  C   UNL A   1      38.546  29.228  28.908  1.00  0.00    -0.014 A 
BRANCH  37  38
ATOM     38  C   UNL A   1      39.935  28.841  29.264  1.00  0.00     0.031 A 
ATOM     39  C   UNL A   1      40.805  29.782  30.049  1.00  0.00     0.074 A 
ATOM     40  C   UNL A   1      40.439  27.677  28.809  1.00  0.00     0.049 A 
ATOM     41  N   UNL A   1      42.069  29.671  30.371  1.00  0.00    -0.248 NA
ATOM     42  C   UNL A   1      40.178  31.031  30.511  1.00  0.00     0.031 C 
ATOM     43  C   UNL A   1      39.713  26.699  27.998  1.00  0.00     0.029 A 
ATOM     44  N   UNL A   1      41.688  27.125  28.951  1.00  0.00    -0.354 N 
ATOM     45  C   UNL A   1      42.389  30.837  31.053  1.00  0.00     0.074 A 
ATOM     46  C   UNL A   1      41.206  31.668  31.051  1.00  0.00     0.031 C 
ATOM     47  C   UNL A   1      40.520  25.659  27.733  1.00  0.00     0.029 A 
ATOM     48  C   UNL A   1      41.833  25.917  28.313  1.00  0.00     0.049 A 
ATOM     49  H   UNL A   1      42.412  27.554  29.463  1.00  0.00     0.167 HD
ATOM     50  C   UNL A   1      43.559  31.173  31.648  1.00  0.00     0.037 A 
ATOM     51  C   UNL A   1      42.909  25.114  28.197  1.00  0.00     0.037 A 
ATOM     52  C   UNL A   1      44.727  30.332  31.669  1.00  0.00     0.049 A 
ATOM     53  C   UNL A   1      44.202  25.521  28.852  1.00  0.00     0.074 A 
ATOM     54  C   UNL A   1      45.940  30.555  32.297  1.00  0.00     0.029 A 
ATOM     55  N   UNL A   1      44.831  29.107  31.023  1.00  0.00    -0.354 N 
ATOM     56  N   UNL A   1      44.473  26.592  29.555  1.00  0.00    -0.248 NA
ATOM     57  C   UNL A   1      45.338  24.600  28.701  1.00  0.00     0.031 C 
ATOM     58  C   UNL A   1      46.795  29.494  31.986  1.00  0.00     0.029 A 
ATOM     59  C   UNL A   1      46.096  28.577  31.216  1.00  0.00     0.049 A 
ATOM     60  H   UNL A   1      44.110  28.679  30.506  1.00  0.00     0.167 HD
ATOM     61  C   UNL A   1      45.795  26.463  29.956  1.00  0.00     0.074 A 
ATOM     62  C   UNL A   1      46.269  25.200  29.429  1.00  0.00     0.031 C 
ATOM     63  C   UNL A   1      46.550  27.313  30.694  1.00  0.00     0.037 A 
BRANCH  50  64
ATOM     64  C   UNL A   1      43.635  32.509  32.330  1.00  0.00     0.064 A 
ATOM     65  C   UNL A   1      43.985  33.675  31.631  1.00  0.00     0.173 A 
ATOM     66  C   UNL A   1      43.316  32.633  33.690  1.00  0.00     0.173 A 
ATOM     67  F   UNL A   1      44.309  33.612  30.331  1.00  0.00    -0.203 F 
ATOM     68  C   UNL A   1      44.043  34.908  32.275  1.00  0.00     0.198 A 
ATOM     69  C   UNL A   1      43.343  33.873  34.324  1.00  0.00     0.198 A 
ATOM     70  F   UNL A   1      42.969  31.553  34.406  1.00  0.00    -0.203 F 
ATOM     71  F   UNL A   1      44.431  35.999  31.599  1.00  0.00    -0.200 F 
ATOM     72  C   UNL A   1      43.714  35.008  33.618  1.00  0.00     0.200 A 
ATOM     73  F   UNL A   1      43.009  33.970  35.618  1.00  0.00    -0.200 F 
ATOM     74  F   UNL A   1      43.762  36.197  34.235  1.00  0.00    -0.200 F 
ENDBRANCH  50  64
BRANCH  51  75
ATOM     75  C   UNL A   1      42.806  23.837  27.441  1.00  0.00     0.064 A 
ATOM     76  C   UNL A   1      42.345  22.669  28.064  1.00  0.00     0.173 A 
ATOM     77  C   UNL A   1      43.172  23.755  26.090  1.00  0.00     0.173 A 
ATOM     78  F   UNL A   1      42.001  22.691  29.359  1.00  0.00    -0.203 F 
ATOM     79  C   UNL A   1      42.277  21.462  27.370  1.00  0.00     0.198 A 
ATOM     80  C   UNL A   1      43.073  22.556  25.388  1.00  0.00     0.198 A 
ATOM     81  F   UNL A   1      43.613  24.846  25.445  1.00  0.00    -0.203 F 
ATOM     82  F   UNL A   1      41.881  20.349  28.002  1.00  0.00    -0.200 F 
ATOM     83  C   UNL A   1      42.635  21.408  26.031  1.00  0.00     0.200 A 
ATOM     84  F   UNL A   1      43.403  22.511  24.090  1.00  0.00    -0.200 F 
ATOM     85  F   UNL A   1      42.566  20.248  25.363  1.00  0.00    -0.200 F 
ENDBRANCH  51  75
BRANCH  63  86
ATOM     86  C   UNL A   1      47.955  26.890  31.016  1.00  0.00     0.064 A 
ATOM     87  C   UNL A   1      48.245  26.056  32.105  1.00  0.00     0.173 A 
ATOM     88  C   UNL A   1      49.020  27.289  30.192  1.00  0.00     0.173 A 
ATOM     89  F   UNL A   1      47.266  25.659  32.931  1.00  0.00    -0.203 F 
ATOM     90  C   UNL A   1      49.552  25.656  32.371  1.00  0.00     0.198 A 
ATOM     91  C   UNL A   1      50.320  26.861  30.442  1.00  0.00     0.198 A 
ATOM     92  F   UNL A   1      48.796  28.083  29.134  1.00  0.00    -0.203 F 
ATOM     93  F   UNL A   1      49.813  24.897  33.445  1.00  0.00    -0.200 F 
ATOM     94  C   UNL A   1      50.587  26.050  31.535  1.00  0.00     0.200 A 
ATOM     95  F   UNL A   1      51.314  27.230  29.624  1.00  0.00    -0.200 F 
ATOM     96  F   UNL A   1      51.841  25.655  31.787  1.00  0.00    -0.200 F 
ENDBRANCH  63  86
ENDBRANCH  37  38
ENDBRANCH  29  32
ENDBRANCH  27  28
ENDBRANCH  26  27
ENDBRANCH   1  26
TORSDOF 15
ENDMDL
MODEL 2
REMARK VINA RESULT:     -10.0      4.496     10.591
REMARK SMILES O=C(NCCCNC(=O)c1ccc(-c2c3nc(c(-c4c(F)c(F)c(F)c(F)c4F)c4ccc([nH]4)c(-c4c(F)c(F)c(F)c(F)c4F)c4nc(c(-c5c(F)c(F)c(F)c(F)c5F)c5ccc2[nH]5)C=C4)C=C3)cc1)c1ccc(N[C@H]2OC[C@@H](O)[C@@H](O)[C@H]2O)cc1
REMARK SMILES IDX 4 1 3 2 1 3 2 4 73 6 74 7 88 8 75 9 87 10 76 11 77 12 78 14
REMARK SMILES IDX 79 15 85 16 80 17 83 18 81 19 86 20 84 22 82 24 5 26 6 27
REMARK SMILES IDX 7 28 8 29 9 31 10 32 11 33 72 34 12 35 71 36 13 37 14 38
REMARK SMILES IDX 15 39 65 40 16 41 70 42 64 43 66 44 17 45 69 46 63 47 62 48
REMARK SMILES IDX 18 50 50 51 30 52 49 53 31 54 34 55 48 56 67 57 32 58 33 59
REMARK SMILES IDX 47 61 68 62 35 63 19 64 20 65 28 66 21 67 22 68 26 69 29 70
REMARK SMILES IDX 23 71 24 72 27 73 25 74 51 75 52 76 60 77 53 78 54 79 58 80
REMARK SMILES IDX 61 81 55 82 56 83 59 84 57 85 36 86 37 87 45 88 38 89 39 90
REMARK SMILES IDX 43 91 46 92 40 93 41 94 44 95 42 96
REMARK H PARENT 3 5 77 13 86 21 84 23 82 25 7 30 66 49 34 60
REMARK Flexibility Score: inf
ROOT
ATOM      1  C   UNL A   1      31.737  30.701  26.331  1.00  0.00     0.118 C 
ENDROOT
BRANCH   1   2
ATOM      2  N   UNL A   1      31.215  30.391  25.006  1.00  0.00    -0.352 N 
ATOM      3  O   UNL A   1      30.986  29.234  23.086  1.00  0.00    -0.269 OA
ATOM      4  C   UNL A   1      31.328  29.240  24.265  1.00  0.00     0.251 C 
ATOM      5  H   UNL A   1      30.705  31.116  24.578  1.00  0.00     0.163 HD
BRANCH   4   6
ATOM      6  C   UNL A   1      31.887  28.020  24.881  1.00  0.00     0.039 A 
ATOM      7  C   UNL A   1      33.248  27.740  24.798  1.00  0.00     0.016 A 
ATOM      8  C   UNL A   1      31.042  27.145  25.560  1.00  0.00     0.016 A 
ATOM      9  C   UNL A   1      33.736  26.519  25.263  1.00  0.00     0.026 A 
ATOM     10  C   UNL A   1      31.554  25.944  26.064  1.00  0.00     0.026 A 
ATOM     11  C   UNL A   1      32.900  25.585  25.879  1.00  0.00     0.036 A 
BRANCH  11  12
ATOM     12  N   UNL A   1      33.337  24.359  26.355  1.00  0.00    -0.358 N 
ATOM     13  H   UNL A   1      33.724  24.328  27.260  1.00  0.00     0.163 HD
BRANCH  12  14
ATOM     14  C   UNL A   1      33.261  23.110  25.602  1.00  0.00     0.244 C 
ATOM     15  O   UNL A   1      34.442  22.941  24.817  1.00  0.00    -0.353 OA
ATOM     16  C   UNL A   1      33.197  21.944  26.619  1.00  0.00     0.195 C 
ATOM     17  C   UNL A   1      34.411  21.758  24.010  1.00  0.00     0.197 C 
ATOM     18  C   UNL A   1      33.188  20.609  25.867  1.00  0.00     0.178 C 
ATOM     19  C   UNL A   1      34.371  20.509  24.890  1.00  0.00     0.171 C 
BRANCH  16  20
ATOM     20  O   UNL A   1      34.363  22.001  27.480  1.00  0.00    -0.386 OA
ATOM     21  H   UNL A   1      34.934  22.735  27.204  1.00  0.00     0.211 HD
ENDBRANCH  16  20
BRANCH  18  22
ATOM     22  O   UNL A   1      33.226  19.526  26.798  1.00  0.00    -0.387 OA
ATOM     23  H   UNL A   1      33.747  19.786  27.574  1.00  0.00     0.211 HD
ENDBRANCH  18  22
BRANCH  19  24
ATOM     24  O   UNL A   1      35.604  20.394  25.615  1.00  0.00    -0.388 OA
ATOM     25  H   UNL A   1      35.570  20.958  26.403  1.00  0.00     0.211 HD
ENDBRANCH  19  24
ENDBRANCH  12  14
ENDBRANCH  11  12
ENDBRANCH   4   6
ENDBRANCH   1   2
BRANCH   1  26
ATOM     26  C   UNL A   1      31.487  32.147  26.732  1.00  0.00     0.042 C 
BRANCH  26  27
ATOM     27  C   UNL A   1      32.714  32.856  27.283  1.00  0.00     0.118 C 
BRANCH  27  28
ATOM     28  N   UNL A   1      32.448  34.239  27.659  1.00  0.00    -0.352 N 
ATOM     29  C   UNL A   1      33.006  35.019  28.642  1.00  0.00     0.251 C 
ATOM     30  H   UNL A   1      31.757  34.687  27.121  1.00  0.00     0.163 HD
ATOM     31  O   UNL A   1      32.508  36.110  28.910  1.00  0.00    -0.269 OA
BRANCH  29  32
ATOM     32  C   UNL A   1      34.182  34.543  29.400  1.00  0.00     0.039 A 
ATOM     33  C   UNL A   1      33.990  33.987  30.668  1.00  0.00     0.014 A 
ATOM     34  C   UNL A   1      35.472  34.648  28.875  1.00  0.00     0.014 A 
ATOM     35  C   UNL A   1      35.078  33.459  31.367  1.00  0.00     0.010 A 
ATOM     36  C   UNL A   1      36.537  34.036  29.526  1.00  0.00     0.010 A 
ATOM     37  C   UNL A   1      36.353  33.434  30.779  1.00  0.00    -0.014 A 
BRANCH  37  38
ATOM     38  C   UNL A   1      37.507  32.782  31.451  1.00  0.00     0.031 A 
ATOM     39  C   UNL A   1      38.205  31.622  30.798  1.00  0.00     0.074 A 
ATOM     40  C   UNL A   1      37.872  33.183  32.684  1.00  0.00     0.049 A 
ATOM     41  N   UNL A   1      39.162  30.860  31.265  1.00  0.00    -0.248 NA
ATOM     42  C   UNL A   1      37.746  31.248  29.450  1.00  0.00     0.031 C 
ATOM     43  C   UNL A   1      37.245  34.265  33.444  1.00  0.00     0.029 A 
ATOM     44  N   UNL A   1      38.853  32.716  33.524  1.00  0.00    -0.354 N 
ATOM     45  C   UNL A   1      39.405  29.913  30.280  1.00  0.00     0.074 A 
ATOM     46  C   UNL A   1      38.459  30.156  29.214  1.00  0.00     0.031 C 
ATOM     47  C   UNL A   1      37.868  34.393  34.626  1.00  0.00     0.029 A 
ATOM     48  C   UNL A   1      38.906  33.373  34.729  1.00  0.00     0.049 A 
ATOM     49  H   UNL A   1      39.461  31.979  33.285  1.00  0.00     0.167 HD
ATOM     50  C   UNL A   1      40.349  28.941  30.257  1.00  0.00     0.037 A 
ATOM     51  C   UNL A   1      39.694  33.168  35.802  1.00  0.00     0.037 A 
ATOM     52  C   UNL A   1      41.304  28.716  31.311  1.00  0.00     0.049 A 
ATOM     53  C   UNL A   1      40.722  32.069  35.757  1.00  0.00     0.074 A 
ATOM     54  C   UNL A   1      42.338  27.799  31.355  1.00  0.00     0.029 A 
ATOM     55  N   UNL A   1      41.336  29.414  32.510  1.00  0.00    -0.354 N 
ATOM     56  N   UNL A   1      40.991  31.225  34.792  1.00  0.00    -0.248 NA
ATOM     57  C   UNL A   1      41.561  31.899  36.953  1.00  0.00     0.031 C 
ATOM     58  C   UNL A   1      42.961  27.901  32.603  1.00  0.00     0.029 A 
ATOM     59  C   UNL A   1      42.355  28.927  33.312  1.00  0.00     0.049 A 
ATOM     60  H   UNL A   1      40.725  30.147  32.754  1.00  0.00     0.167 HD
ATOM     61  C   UNL A   1      42.045  30.446  35.248  1.00  0.00     0.074 A 
ATOM     62  C   UNL A   1      42.378  30.927  36.572  1.00  0.00     0.031 C 
ATOM     63  C   UNL A   1      42.682  29.423  34.625  1.00  0.00     0.037 A 
BRANCH  50  64
ATOM     64  C   UNL A   1      40.397  28.045  29.052  1.00  0.00     0.064 A 
ATOM     65  C   UNL A   1      39.658  26.853  28.990  1.00  0.00     0.173 A 
ATOM     66  C   UNL A   1      41.160  28.400  27.931  1.00  0.00     0.173 A 
ATOM     67  F   UNL A   1      38.919  26.460  30.038  1.00  0.00    -0.203 F 
ATOM     68  C   UNL A   1      39.707  26.036  27.863  1.00  0.00     0.198 A 
ATOM     69  C   UNL A   1      41.180  27.598  26.792  1.00  0.00     0.198 A 
ATOM     70  F   UNL A   1      41.881  29.532  27.933  1.00  0.00    -0.203 F 
ATOM     71  F   UNL A   1      39.034  24.877  27.847  1.00  0.00    -0.200 F 
ATOM     72  C   UNL A   1      40.460  26.414  26.762  1.00  0.00     0.200 A 
ATOM     73  F   UNL A   1      41.897  27.973  25.724  1.00  0.00    -0.200 F 
ATOM     74  F   UNL A   1      40.499  25.631  25.675  1.00  0.00    -0.200 F 
ENDBRANCH  50  64
BRANCH  51  75
ATOM     75  C   UNL A   1      39.553  34.031  37.005  1.00  0.00     0.064 A 
ATOM     76  C   UNL A   1      40.207  35.269  37.082  1.00  0.00     0.173 A 
ATOM     77  C   UNL A   1      38.774  33.636  38.101  1.00  0.00     0.173 A 
ATOM     78  F   UNL A   1      40.980  35.683  36.068  1.00  0.00    -0.203 F 
ATOM     79  C   UNL A   1      40.105  36.068  38.220  1.00  0.00     0.198 A 
ATOM     80  C   UNL A   1      38.646  34.450  39.225  1.00  0.00     0.198 A 
ATOM     81  F   UNL A   1      38.122  32.464  38.076  1.00  0.00    -0.203 F 
ATOM     82  F   UNL A   1      40.780  37.223  38.288  1.00  0.00    -0.200 F 
ATOM     83  C   UNL A   1      39.320  35.660  39.288  1.00  0.00     0.200 A 
ATOM     84  F   UNL A   1      37.871  34.061  40.248  1.00  0.00    -0.200 F 
ATOM     85  F   UNL A   1      39.218  36.430  40.380  1.00  0.00    -0.200 F 
ENDBRANCH  51  75
BRANCH  63  86
ATOM     86  C   UNL A   1      43.832  28.781  35.347  1.00  0.00     0.064 A 
ATOM     87  C   UNL A   1      45.153  29.212  35.163  1.00  0.00     0.173 A 
ATOM     88  C   UNL A   1      43.600  27.751  36.272  1.00  0.00     0.173 A 
ATOM     89  F   UNL A   1      45.430  30.182  34.280  1.00  0.00    -0.203 F 
ATOM     90  C   UNL A   1      46.203  28.619  35.861  1.00  0.00     0.198 A 
ATOM     91  C   UNL A   1      44.647  27.183  36.992  1.00  0.00     0.198 A 
ATOM     92  F   UNL A   1      42.353  27.305  36.490  1.00  0.00    -0.203 F 
ATOM     93  F   UNL A   1      47.463  29.014  35.634  1.00  0.00    -0.200 F 
ATOM     94  C   UNL A   1      45.948  27.613  36.781  1.00  0.00     0.200 A 
ATOM     95  F   UNL A   1      44.396  26.223  37.892  1.00  0.00    -0.200 F 
ATOM     96  F   UNL A   1      46.958  27.052  37.459  1.00  0.00    -0.200 F 
ENDBRANCH  63  86
ENDBRANCH  37  38
ENDBRANCH  29  32
ENDBRANCH  27  28
ENDBRANCH  26  27
ENDBRANCH   1  26
TORSDOF 15
ENDMDL
MODEL 3
REMARK VINA RESULT:      -9.9      4.523     10.541
REMARK SMILES O=C(NCCCNC(=O)c1ccc(-c2c3nc(c(-c4c(F)c(F)c(F)c(F)c4F)c4ccc([nH]4)c(-c4c(F)c(F)c(F)c(F)c4F)c4nc(c(-c5c(F)c(F)c(F)c(F)c5F)c5ccc2[nH]5)C=C4)C=C3)cc1)c1ccc(N[C@H]2OC[C@@H](O)[C@@H](O)[C@H]2O)cc1
REMARK SMILES IDX 4 1 3 2 1 3 2 4 73 6 74 7 88 8 75 9 87 10 76 11 77 12 78 14
REMARK SMILES IDX 79 15 85 16 80 17 83 18 81 19 86 20 84 22 82 24 5 26 6 27
REMARK SMILES IDX 7 28 8 29 9 31 10 32 11 33 72 34 12 35 71 36 13 37 14 38
REMARK SMILES IDX 15 39 65 40 16 41 70 42 64 43 66 44 17 45 69 46 63 47 62 48
REMARK SMILES IDX 18 50 50 51 30 52 49 53 31 54 34 55 48 56 67 57 32 58 33 59
REMARK SMILES IDX 47 61 68 62 35 63 19 64 20 65 28 66 21 67 22 68 26 69 29 70
REMARK SMILES IDX 23 71 24 72 27 73 25 74 51 75 52 76 60 77 53 78 54 79 58 80
REMARK SMILES IDX 61 81 55 82 56 83 59 84 57 85 36 86 37 87 45 88 38 89 39 90
REMARK SMILES IDX 43 91 46 92 40 93 41 94 44 95 42 96
REMARK H PARENT 3 5 77 13 86 21 84 23 82 25 7 30 66 49 34 60
REMARK Flexibility Score: inf
ROOT
ATOM      1  C   UNL A   1      31.743  30.741  26.127  1.00  0.00     0.118 C 
ENDROOT
BRANCH   1   2
ATOM      2  N   UNL A   1      31.005  30.452  24.903  1.00  0.00    -0.352 N 
ATOM      3  O   UNL A   1      30.468  29.340  23.019  1.00  0.00    -0.269 OA
ATOM      4  C   UNL A   1      31.009  29.324  24.120  1.00  0.00     0.251 C 
ATOM      5  H   UNL A   1      30.415  31.176  24.591  1.00  0.00     0.163 HD
BRANCH   4   6
ATOM      6  C   UNL A   1      31.688  28.102  24.595  1.00  0.00     0.039 A 
ATOM      7  C   UNL A   1      31.123  27.316  25.596  1.00  0.00     0.016 A 
ATOM      8  C   UNL A   1      32.903  27.727  24.027  1.00  0.00     0.016 A 
ATOM      9  C   UNL A   1      31.841  26.245  26.127  1.00  0.00     0.026 A 
ATOM     10  C   UNL A   1      33.592  26.621  24.537  1.00  0.00     0.026 A 
ATOM     11  C   UNL A   1      33.098  25.891  25.632  1.00  0.00     0.036 A 
BRANCH  11  12
ATOM     12  N   UNL A   1      33.850  24.837  26.128  1.00  0.00    -0.358 N 
ATOM     13  H   UNL A   1      34.361  24.986  26.955  1.00  0.00     0.163 HD
BRANCH  12  14
ATOM     14  C   UNL A   1      33.931  23.521  25.501  1.00  0.00     0.244 C 
ATOM     15  O   UNL A   1      34.930  22.732  26.150  1.00  0.00    -0.353 OA
ATOM     16  C   UNL A   1      32.567  22.814  25.698  1.00  0.00     0.195 C 
ATOM     17  C   UNL A   1      35.100  21.442  25.551  1.00  0.00     0.197 C 
ATOM     18  C   UNL A   1      32.636  21.399  25.115  1.00  0.00     0.178 C 
ATOM     19  C   UNL A   1      33.824  20.612  25.692  1.00  0.00     0.171 C 
BRANCH  16  20
ATOM     20  O   UNL A   1      32.275  22.734  27.117  1.00  0.00    -0.386 OA
ATOM     21  H   UNL A   1      33.029  23.076  27.622  1.00  0.00     0.211 HD
ENDBRANCH  16  20
BRANCH  18  22
ATOM     22  O   UNL A   1      31.414  20.705  25.377  1.00  0.00    -0.387 OA
ATOM     23  H   UNL A   1      30.751  20.957  24.715  1.00  0.00     0.211 HD
ENDBRANCH  18  22
BRANCH  19  24
ATOM     24  O   UNL A   1      33.597  20.316  27.077  1.00  0.00    -0.388 OA
ATOM     25  H   UNL A   1      34.047  19.488  27.309  1.00  0.00     0.211 HD
ENDBRANCH  19  24
ENDBRANCH  12  14
ENDBRANCH  11  12
ENDBRANCH   4   6
ENDBRANCH   1   2
BRANCH   1  26
ATOM     26  C   UNL A   1      31.471  32.141  26.655  1.00  0.00     0.042 C 
BRANCH  26  27
ATOM     27  C   UNL A   1      32.687  32.815  27.270  1.00  0.00     0.118 C 
BRANCH  27  28
ATOM     28  N   UNL A   1      32.442  34.206  27.633  1.00  0.00    -0.352 N 
ATOM     29  C   UNL A   1      33.012  34.987  28.608  1.00  0.00     0.251 C 
ATOM     30  H   UNL A   1      31.756  34.658  27.091  1.00  0.00     0.163 HD
ATOM     31  O   UNL A   1      32.530  36.087  28.865  1.00  0.00    -0.269 OA
BRANCH  29  32
ATOM     32  C   UNL A   1      34.182  34.502  29.369  1.00  0.00     0.039 A 
ATOM     33  C   UNL A   1      33.982  33.950  30.638  1.00  0.00     0.014 A 
ATOM     34  C   UNL A   1      35.474  34.594  28.846  1.00  0.00     0.014 A 
ATOM     35  C   UNL A   1      35.064  33.413  31.340  1.00  0.00     0.010 A 
ATOM     36  C   UNL A   1      36.532  33.973  29.500  1.00  0.00     0.010 A 
ATOM     37  C   UNL A   1      36.340  33.375  30.755  1.00  0.00    -0.014 A 
BRANCH  37  38
ATOM     38  C   UNL A   1      37.486  32.714  31.429  1.00  0.00     0.031 A 
ATOM     39  C   UNL A   1      38.182  31.553  30.775  1.00  0.00     0.074 A 
ATOM     40  C   UNL A   1      37.848  33.108  32.667  1.00  0.00     0.049 A 
ATOM     41  N   UNL A   1      39.132  30.784  31.245  1.00  0.00    -0.248 NA
ATOM     42  C   UNL A   1      37.729  31.188  29.424  1.00  0.00     0.031 C 
ATOM     43  C   UNL A   1      37.222  34.190  33.428  1.00  0.00     0.029 A 
ATOM     44  N   UNL A   1      38.821  32.632  33.510  1.00  0.00    -0.354 N 
ATOM     45  C   UNL A   1      39.375  29.839  30.257  1.00  0.00     0.074 A 
ATOM     46  C   UNL A   1      38.437  30.093  29.186  1.00  0.00     0.031 C 
ATOM     47  C   UNL A   1      37.839  34.310  34.614  1.00  0.00     0.029 A 
ATOM     48  C   UNL A   1      38.871  33.284  34.718  1.00  0.00     0.049 A 
ATOM     49  H   UNL A   1      39.426  31.892  33.271  1.00  0.00     0.167 HD
ATOM     50  C   UNL A   1      40.314  28.863  30.235  1.00  0.00     0.037 A 
ATOM     51  C   UNL A   1      39.652  33.069  35.794  1.00  0.00     0.037 A 
ATOM     52  C   UNL A   1      41.262  28.628  31.293  1.00  0.00     0.049 A 
ATOM     53  C   UNL A   1      40.674  31.965  35.751  1.00  0.00     0.074 A 
ATOM     54  C   UNL A   1      42.291  27.705  31.339  1.00  0.00     0.029 A 
ATOM     55  N   UNL A   1      41.291  29.320  32.495  1.00  0.00    -0.354 N 
ATOM     56  N   UNL A   1      40.943  31.123  34.784  1.00  0.00    -0.248 NA
ATOM     57  C   UNL A   1      41.505  31.785  36.950  1.00  0.00     0.031 C 
ATOM     58  C   UNL A   1      42.907  27.799  32.590  1.00  0.00     0.029 A 
ATOM     59  C   UNL A   1      42.303  28.824  33.301  1.00  0.00     0.049 A 
ATOM     60  H   UNL A   1      40.683  30.055  32.739  1.00  0.00     0.167 HD
ATOM     61  C   UNL A   1      41.991  30.337  35.241  1.00  0.00     0.074 A 
ATOM     62  C   UNL A   1      42.319  30.810  36.570  1.00  0.00     0.031 C 
ATOM     63  C   UNL A   1      42.625  29.313  34.617  1.00  0.00     0.037 A 
BRANCH  50  64
ATOM     64  C   UNL A   1      40.364  27.971  29.026  1.00  0.00     0.064 A 
ATOM     65  C   UNL A   1      39.635  26.773  28.963  1.00  0.00     0.173 A 
ATOM     66  C   UNL A   1      41.118  28.338  27.902  1.00  0.00     0.173 A 
ATOM     67  F   UNL A   1      38.906  26.370  30.014  1.00  0.00    -0.203 F 
ATOM     68  C   UNL A   1      39.686  25.961  27.833  1.00  0.00     0.198 A 
ATOM     69  C   UNL A   1      41.139  27.541  26.760  1.00  0.00     0.198 A 
ATOM     70  F   UNL A   1      41.828  29.476  27.905  1.00  0.00    -0.203 F 
ATOM     71  F   UNL A   1      39.024  24.796  27.816  1.00  0.00    -0.200 F 
ATOM     72  C   UNL A   1      40.430  26.350  26.730  1.00  0.00     0.200 A 
ATOM     73  F   UNL A   1      41.847  27.926  25.690  1.00  0.00    -0.200 F 
ATOM     74  F   UNL A   1      40.471  25.572  25.639  1.00  0.00    -0.200 F 
ENDBRANCH  50  64
BRANCH  51  75
ATOM     75  C   UNL A   1      39.509  33.928  37.001  1.00  0.00     0.064 A 
ATOM     76  C   UNL A   1      38.733  33.512  38.091  1.00  0.00     0.173 A 
ATOM     77  C   UNL A   1      40.135  35.179  37.086  1.00  0.00     0.173 A 
ATOM     78  F   UNL A   1      38.098  32.332  38.050  1.00  0.00    -0.203 F 
ATOM     79  C   UNL A   1      38.569  34.326  39.211  1.00  0.00     0.198 A 
ATOM     80  C   UNL A   1      39.998  35.979  38.219  1.00  0.00     0.198 A 
ATOM     81  F   UNL A   1      40.895  35.622  36.073  1.00  0.00    -0.203 F 
ATOM     82  F   UNL A   1      37.781  33.926  40.218  1.00  0.00    -0.200 F 
ATOM     83  C   UNL A   1      39.206  35.556  39.276  1.00  0.00     0.200 A 
ATOM     84  F   UNL A   1      40.630  37.159  38.286  1.00  0.00    -0.200 F 
ATOM     85  F   UNL A   1      39.052  36.336  40.354  1.00  0.00    -0.200 F 
ENDBRANCH  51  75
BRANCH  63  86
ATOM     86  C   UNL A   1      43.768  28.662  35.343  1.00  0.00     0.064 A 
ATOM     87  C   UNL A   1      45.094  29.078  35.159  1.00  0.00     0.173 A 
ATOM     88  C   UNL A   1      43.524  27.637  36.271  1.00  0.00     0.173 A 
ATOM     89  F   UNL A   1      45.382  30.043  34.274  1.00  0.00    -0.203 F 
ATOM     90  C   UNL A   1      46.136  28.477  35.861  1.00  0.00     0.198 A 
ATOM     91  C   UNL A   1      44.564  27.061  36.994  1.00  0.00     0.198 A 
ATOM     92  F   UNL A   1      42.273  27.205  36.489  1.00  0.00    -0.203 F 
ATOM     93  F   UNL A   1      47.401  28.858  35.634  1.00  0.00    -0.200 F 
ATOM     94  C   UNL A   1      45.870  27.476  36.784  1.00  0.00     0.200 A 
ATOM     95  F   UNL A   1      44.302  26.106  37.897  1.00  0.00    -0.200 F 
ATOM     96  F   UNL A   1      46.873  26.907  37.465  1.00  0.00    -0.200 F 
ENDBRANCH  63  86
ENDBRANCH  37  38
ENDBRANCH  29  32
ENDBRANCH  27  28
ENDBRANCH  26  27
ENDBRANCH   1  26
TORSDOF 15
ENDMDL
