MODEL 1
REMARK VINA RESULT:     -12.7      0.000      0.000
REMARK SMILES C[C@H]1CCC[C@]1(C(=O)NCCCNC(=O)c1ccc(-c2c3nc(c(-c4c(F)c(F)c(F)c(F)c4F)c4ccc([nH]4)c(-c4c(F)c(F)c(F)c(F)c4F)c4nc(c(-c5c(F)c(F)c(F)c(F)c5F)c5ccc2[nH]5)C=C4)C=C3)cc1)c1ccc2c(c1)OCO2
REMARK SMILES IDX 11 1 10 2 9 3 7 4 8 5 6 7 1 8 2 9 3 10 4 11 5 12 79 13 80 14
REMARK SMILES IDX 84 15 81 16 83 17 82 18 85 19 87 20 86 21 12 22 13 23 14 24
REMARK SMILES IDX 15 26 16 27 17 28 78 29 18 30 77 31 19 32 20 33 21 34 71 35
REMARK SMILES IDX 22 36 76 37 70 38 72 39 23 40 75 41 69 42 68 43 24 45 56 46
REMARK SMILES IDX 36 47 55 48 37 49 40 50 54 51 73 52 38 53 39 54 53 56 74 57
REMARK SMILES IDX 41 58 25 59 26 60 34 61 27 62 28 63 32 64 35 65 29 66 30 67
REMARK SMILES IDX 33 68 31 69 57 70 58 71 66 72 59 73 60 74 64 75 67 76 61 77
REMARK SMILES IDX 62 78 65 79 63 80 42 81 43 82 51 83 44 84 45 85 49 86 52 87
REMARK SMILES IDX 46 88 47 89 50 90 48 91
REMARK H PARENT 9 6 13 25 72 44 40 55
REMARK Flexibility Score: inf
ROOT
ATOM      1  C   UNL A   1      31.147  32.125  26.224  1.00  0.00     0.042 C 
ENDROOT
BRANCH   1   2
ATOM      2  C   UNL A   1      31.136  30.664  25.804  1.00  0.00     0.117 C 
BRANCH   2   3
ATOM      3  N   UNL A   1      32.206  30.325  24.882  1.00  0.00    -0.355 N 
ATOM      4  C   UNL A   1      32.858  29.174  24.543  1.00  0.00     0.230 C 
ATOM      5  O   UNL A   1      33.556  29.307  23.532  1.00  0.00    -0.274 OA
ATOM      6  H   UNL A   1      32.540  31.107  24.385  1.00  0.00     0.163 HD
BRANCH   4   7
ATOM      7  C   UNL A   1      32.771  27.829  25.352  1.00  0.00     0.077 C 
ATOM      8  C   UNL A   1      34.589  28.897  26.931  1.00  0.00     0.009 C 
ATOM      9  C   UNL A   1      33.433  27.914  26.773  1.00  0.00     0.006 C 
ATOM     10  C   UNL A   1      32.300  28.095  27.772  1.00  0.00     0.005 C 
ATOM     11  C   UNL A   1      31.120  27.363  27.143  1.00  0.00     0.002 C 
ATOM     12  C   UNL A   1      31.274  27.497  25.624  1.00  0.00     0.022 C 
BRANCH   7  13
ATOM     13  C   UNL A   1      33.494  26.595  24.699  1.00  0.00    -0.028 A 
ATOM     14  C   UNL A   1      34.290  25.687  25.442  1.00  0.00     0.009 A 
ATOM     15  C   UNL A   1      33.137  26.211  23.382  1.00  0.00     0.055 A 
ATOM     16  C   UNL A   1      34.698  24.450  24.917  1.00  0.00     0.051 A 
ATOM     17  C   UNL A   1      33.502  24.969  22.914  1.00  0.00     0.166 A 
ATOM     18  C   UNL A   1      34.254  24.106  23.663  1.00  0.00     0.165 A 
ATOM     19  O   UNL A   1      33.095  24.425  21.735  1.00  0.00    -0.454 OA
ATOM     20  O   UNL A   1      34.420  22.904  23.048  1.00  0.00    -0.454 OA
ATOM     21  C   UNL A   1      33.519  23.061  21.931  1.00  0.00     0.468 C 
ENDBRANCH   7  13
ENDBRANCH   4   7
ENDBRANCH   2   3
ENDBRANCH   1   2
BRANCH   1  22
ATOM     22  C   UNL A   1      32.351  32.498  27.070  1.00  0.00     0.118 C 
BRANCH  22  23
ATOM     23  N   UNL A   1      32.327  33.902  27.459  1.00  0.00    -0.352 N 
ATOM     24  C   UNL A   1      33.028  34.566  28.428  1.00  0.00     0.251 C 
ATOM     25  H   UNL A   1      31.706  34.463  26.939  1.00  0.00     0.163 HD
ATOM     26  O   UNL A   1      32.658  35.690  28.779  1.00  0.00    -0.269 OA
BRANCH  24  27
ATOM     27  C   UNL A   1      34.216  33.957  29.062  1.00  0.00     0.039 A 
ATOM     28  C   UNL A   1      34.037  32.909  29.970  1.00  0.00     0.014 A 
ATOM     29  C   UNL A   1      35.500  34.443  28.807  1.00  0.00     0.014 A 
ATOM     30  C   UNL A   1      35.148  32.324  30.579  1.00  0.00     0.010 A 
ATOM     31  C   UNL A   1      36.611  33.790  29.329  1.00  0.00     0.010 A 
ATOM     32  C   UNL A   1      36.445  32.740  30.240  1.00  0.00    -0.014 A 
BRANCH  32  33
ATOM     33  C   UNL A   1      37.635  32.099  30.848  1.00  0.00     0.031 A 
ATOM     34  C   UNL A   1      38.080  32.478  32.233  1.00  0.00     0.074 A 
ATOM     35  C   UNL A   1      38.337  31.201  30.131  1.00  0.00     0.049 A 
ATOM     36  N   UNL A   1      39.080  32.013  32.938  1.00  0.00    -0.248 NA
ATOM     37  C   UNL A   1      37.325  33.548  32.903  1.00  0.00     0.031 C 
ATOM     38  C   UNL A   1      38.044  30.809  28.752  1.00  0.00     0.029 A 
ATOM     39  N   UNL A   1      39.436  30.453  30.465  1.00  0.00    -0.354 N 
ATOM     40  C   UNL A   1      39.080  32.741  34.121  1.00  0.00     0.074 A 
ATOM     41  C   UNL A   1      38.026  33.724  34.012  1.00  0.00     0.031 C 
ATOM     42  C   UNL A   1      38.907  29.854  28.374  1.00  0.00     0.029 A 
ATOM     43  C   UNL A   1      39.830  29.588  29.474  1.00  0.00     0.049 A 
ATOM     44  H   UNL A   1      39.898  30.528  31.330  1.00  0.00     0.167 HD
ATOM     45  C   UNL A   1      39.866  32.582  35.213  1.00  0.00     0.037 A 
ATOM     46  C   UNL A   1      40.813  28.670  29.463  1.00  0.00     0.037 A 
ATOM     47  C   UNL A   1      40.896  31.582  35.323  1.00  0.00     0.049 A 
ATOM     48  C   UNL A   1      41.657  28.494  30.695  1.00  0.00     0.074 A 
ATOM     49  C   UNL A   1      41.700  31.283  36.407  1.00  0.00     0.029 A 
ATOM     50  N   UNL A   1      41.264  30.719  34.300  1.00  0.00    -0.354 N 
ATOM     51  N   UNL A   1      41.590  29.125  31.841  1.00  0.00    -0.248 NA
ATOM     52  C   UNL A   1      42.705  27.467  30.631  1.00  0.00     0.031 C 
ATOM     53  C   UNL A   1      42.588  30.270  36.025  1.00  0.00     0.029 A 
ATOM     54  C   UNL A   1      42.304  29.903  34.719  1.00  0.00     0.049 A 
ATOM     55  H   UNL A   1      40.849  30.690  33.408  1.00  0.00     0.167 HD
ATOM     56  C   UNL A   1      42.574  28.564  32.643  1.00  0.00     0.074 A 
ATOM     57  C   UNL A   1      43.205  27.523  31.857  1.00  0.00     0.031 C 
ATOM     58  C   UNL A   1      42.928  28.884  33.914  1.00  0.00     0.037 A 
BRANCH  45  59
ATOM     59  C   UNL A   1      39.635  33.515  36.368  1.00  0.00     0.064 A 
ATOM     60  C   UNL A   1      40.262  34.771  36.440  1.00  0.00     0.173 A 
ATOM     61  C   UNL A   1      38.780  33.152  37.419  1.00  0.00     0.173 A 
ATOM     62  F   UNL A   1      41.101  35.163  35.470  1.00  0.00    -0.203 F 
ATOM     63  C   UNL A   1      40.078  35.603  37.541  1.00  0.00     0.198 A 
ATOM     64  C   UNL A   1      38.571  34.003  38.502  1.00  0.00     0.198 A 
ATOM     65  F   UNL A   1      38.150  31.968  37.401  1.00  0.00    -0.203 F 
ATOM     66  F   UNL A   1      40.742  36.765  37.618  1.00  0.00    -0.200 F 
ATOM     67  C   UNL A   1      39.230  35.222  38.568  1.00  0.00     0.200 A 
ATOM     68  F   UNL A   1      37.742  33.637  39.489  1.00  0.00    -0.200 F 
ATOM     69  F   UNL A   1      39.055  36.023  39.629  1.00  0.00    -0.200 F 
ENDBRANCH  45  59
BRANCH  46  70
ATOM     70  C   UNL A   1      41.002  27.809  28.270  1.00  0.00     0.064 A 
ATOM     71  C   UNL A   1      41.828  28.224  27.215  1.00  0.00     0.173 A 
ATOM     72  C   UNL A   1      40.397  26.549  28.169  1.00  0.00     0.173 A 
ATOM     73  F   UNL A   1      42.417  29.428  27.260  1.00  0.00    -0.203 F 
ATOM     74  C   UNL A   1      42.032  27.414  26.100  1.00  0.00     0.198 A 
ATOM     75  C   UNL A   1      40.621  25.730  27.065  1.00  0.00     0.198 A 
ATOM     76  F   UNL A   1      39.606  26.104  29.156  1.00  0.00    -0.203 F 
ATOM     77  F   UNL A   1      42.802  27.847  25.092  1.00  0.00    -0.200 F 
ATOM     78  C   UNL A   1      41.435  26.165  26.029  1.00  0.00     0.200 A 
ATOM     79  F   UNL A   1      40.056  24.517  27.007  1.00  0.00    -0.200 F 
ATOM     80  F   UNL A   1      41.642  25.381  24.962  1.00  0.00    -0.200 F 
ENDBRANCH  46  70
BRANCH  58  81
ATOM     81  C   UNL A   1      44.043  28.087  34.525  1.00  0.00     0.064 A 
ATOM     82  C   UNL A   1      45.377  28.517  34.451  1.00  0.00     0.173 A 
ATOM     83  C   UNL A   1      43.776  26.885  35.196  1.00  0.00     0.173 A 
ATOM     84  F   UNL A   1      45.686  29.652  33.806  1.00  0.00    -0.203 F 
ATOM     85  C   UNL A   1      46.406  27.753  34.994  1.00  0.00     0.198 A 
ATOM     86  C   UNL A   1      44.804  26.140  35.766  1.00  0.00     0.198 A 
ATOM     87  F   UNL A   1      42.517  26.433  35.301  1.00  0.00    -0.203 F 
ATOM     88  F   UNL A   1      47.678  28.152  34.859  1.00  0.00    -0.200 F 
ATOM     89  C   UNL A   1      46.118  26.568  35.655  1.00  0.00     0.200 A 
ATOM     90  F   UNL A   1      44.524  25.001  36.415  1.00  0.00    -0.200 F 
ATOM     91  F   UNL A   1      47.110  25.832  36.176  1.00  0.00    -0.200 F 
ENDBRANCH  58  81
ENDBRANCH  32  33
ENDBRANCH  24  27
ENDBRANCH  22  23
ENDBRANCH   1  22
TORSDOF 11
ENDMDL
MODEL 2
REMARK VINA RESULT:     -12.6      1.961      3.129
REMARK SMILES C[C@H]1CCC[C@]1(C(=O)NCCCNC(=O)c1ccc(-c2c3nc(c(-c4c(F)c(F)c(F)c(F)c4F)c4ccc([nH]4)c(-c4c(F)c(F)c(F)c(F)c4F)c4nc(c(-c5c(F)c(F)c(F)c(F)c5F)c5ccc2[nH]5)C=C4)C=C3)cc1)c1ccc2c(c1)OCO2
REMARK SMILES IDX 11 1 10 2 9 3 7 4 8 5 6 7 1 8 2 9 3 10 4 11 5 12 79 13 80 14
REMARK SMILES IDX 84 15 81 16 83 17 82 18 85 19 87 20 86 21 12 22 13 23 14 24
REMARK SMILES IDX 15 26 16 27 17 28 78 29 18 30 77 31 19 32 20 33 21 34 71 35
REMARK SMILES IDX 22 36 76 37 70 38 72 39 23 40 75 41 69 42 68 43 24 45 56 46
REMARK SMILES IDX 36 47 55 48 37 49 40 50 54 51 73 52 38 53 39 54 53 56 74 57
REMARK SMILES IDX 41 58 25 59 26 60 34 61 27 62 28 63 32 64 35 65 29 66 30 67
REMARK SMILES IDX 33 68 31 69 57 70 58 71 66 72 59 73 60 74 64 75 67 76 61 77
REMARK SMILES IDX 62 78 65 79 63 80 42 81 43 82 51 83 44 84 45 85 49 86 52 87
REMARK SMILES IDX 46 88 47 89 50 90 48 91
REMARK H PARENT 9 6 13 25 72 44 40 55
REMARK Flexibility Score: inf
ROOT
ATOM      1  C   UNL A   1      31.761  28.431  26.822  1.00  0.00     0.042 C 
ENDROOT
BRANCH   1   2
ATOM      2  C   UNL A   1      31.110  27.411  25.901  1.00  0.00     0.117 C 
BRANCH   2   3
ATOM      3  N   UNL A   1      31.006  26.089  26.493  1.00  0.00    -0.355 N 
ATOM      4  C   UNL A   1      31.709  24.924  26.379  1.00  0.00     0.230 C 
ATOM      5  O   UNL A   1      31.407  24.103  27.251  1.00  0.00    -0.274 OA
ATOM      6  H   UNL A   1      30.254  26.015  27.125  1.00  0.00     0.163 HD
BRANCH   4   7
ATOM      7  C   UNL A   1      32.764  24.626  25.252  1.00  0.00     0.077 C 
ATOM      8  C   UNL A   1      30.694  23.934  23.778  1.00  0.00     0.009 C 
ATOM      9  C   UNL A   1      32.124  24.463  23.828  1.00  0.00     0.006 C 
ATOM     10  C   UNL A   1      32.344  25.780  23.098  1.00  0.00     0.005 C 
ATOM     11  C   UNL A   1      33.652  26.314  23.668  1.00  0.00     0.002 C 
ATOM     12  C   UNL A   1      33.726  25.844  25.125  1.00  0.00     0.022 C 
BRANCH   7  13
ATOM     13  C   UNL A   1      33.585  23.297  25.425  1.00  0.00    -0.028 A 
ATOM     14  C   UNL A   1      33.100  22.032  25.004  1.00  0.00     0.009 A 
ATOM     15  C   UNL A   1      34.957  23.379  25.766  1.00  0.00     0.055 A 
ATOM     16  C   UNL A   1      33.936  20.908  24.905  1.00  0.00     0.051 A 
ATOM     17  C   UNL A   1      35.766  22.277  25.606  1.00  0.00     0.166 A 
ATOM     18  C   UNL A   1      35.272  21.074  25.178  1.00  0.00     0.165 A 
ATOM     19  O   UNL A   1      37.118  22.268  25.751  1.00  0.00    -0.454 OA
ATOM     20  O   UNL A   1      36.255  20.150  25.001  1.00  0.00    -0.454 OA
ATOM     21  C   UNL A   1      37.423  20.981  25.176  1.00  0.00     0.468 C 
ENDBRANCH   7  13
ENDBRANCH   4   7
ENDBRANCH   2   3
ENDBRANCH   1   2
BRANCH   1  22
ATOM     22  C   UNL A   1      32.878  29.215  26.157  1.00  0.00     0.118 C 
BRANCH  22  23
ATOM     23  N   UNL A   1      32.726  30.650  26.357  1.00  0.00    -0.352 N 
ATOM     24  C   UNL A   1      33.368  31.498  27.218  1.00  0.00     0.251 C 
ATOM     25  H   UNL A   1      32.053  31.079  25.779  1.00  0.00     0.163 HD
ATOM     26  O   UNL A   1      32.898  32.621  27.424  1.00  0.00    -0.269 OA
BRANCH  24  27
ATOM     27  C   UNL A   1      34.611  31.090  27.905  1.00  0.00     0.039 A 
ATOM     28  C   UNL A   1      35.657  32.011  28.018  1.00  0.00     0.014 A 
ATOM     29  C   UNL A   1      34.772  29.792  28.395  1.00  0.00     0.014 A 
ATOM     30  C   UNL A   1      36.838  31.641  28.663  1.00  0.00     0.010 A 
ATOM     31  C   UNL A   1      35.903  29.459  29.132  1.00  0.00     0.010 A 
ATOM     32  C   UNL A   1      36.958  30.371  29.251  1.00  0.00    -0.014 A 
BRANCH  32  33
ATOM     33  C   UNL A   1      38.191  29.980  29.975  1.00  0.00     0.031 A 
ATOM     34  C   UNL A   1      38.446  30.479  31.370  1.00  0.00     0.074 A 
ATOM     35  C   UNL A   1      39.100  29.205  29.354  1.00  0.00     0.049 A 
ATOM     36  N   UNL A   1      39.453  30.228  32.168  1.00  0.00    -0.248 NA
ATOM     37  C   UNL A   1      37.457  31.411  31.932  1.00  0.00     0.031 C 
ATOM     38  C   UNL A   1      38.995  28.722  27.976  1.00  0.00     0.029 A 
ATOM     39  N   UNL A   1      40.286  28.683  29.802  1.00  0.00    -0.354 N 
ATOM     40  C   UNL A   1      39.225  30.981  33.313  1.00  0.00     0.074 A 
ATOM     41  C   UNL A   1      38.023  31.749  33.081  1.00  0.00     0.031 C 
ATOM     42  C   UNL A   1      40.045  27.931  27.708  1.00  0.00     0.029 A 
ATOM     43  C   UNL A   1      40.908  27.875  28.884  1.00  0.00     0.049 A 
ATOM     44  H   UNL A   1      40.654  28.869  30.695  1.00  0.00     0.167 HD
ATOM     45  C   UNL A   1      39.936  31.004  34.466  1.00  0.00     0.037 A 
ATOM     46  C   UNL A   1      42.040  27.154  28.988  1.00  0.00     0.037 A 
ATOM     47  C   UNL A   1      41.118  30.216  34.697  1.00  0.00     0.049 A 
ATOM     48  C   UNL A   1      42.798  27.175  30.285  1.00  0.00     0.074 A 
ATOM     49  C   UNL A   1      41.873  30.104  35.851  1.00  0.00     0.029 A 
ATOM     50  N   UNL A   1      41.718  29.403  33.745  1.00  0.00    -0.354 N 
ATOM     51  N   UNL A   1      42.526  27.820  31.393  1.00  0.00    -0.248 NA
ATOM     52  C   UNL A   1      44.017  26.358  30.346  1.00  0.00     0.031 C 
ATOM     53  C   UNL A   1      42.958  29.261  35.582  1.00  0.00     0.029 A 
ATOM     54  C   UNL A   1      42.851  28.807  34.277  1.00  0.00     0.049 A 
ATOM     55  H   UNL A   1      41.389  29.270  32.827  1.00  0.00     0.167 HD
ATOM     56  C   UNL A   1      43.527  27.476  32.291  1.00  0.00     0.074 A 
ATOM     57  C   UNL A   1      44.398  26.544  31.602  1.00  0.00     0.031 C 
ATOM     58  C   UNL A   1      43.713  27.895  33.568  1.00  0.00     0.037 A 
BRANCH  45  59
ATOM     59  C   UNL A   1      39.447  31.915  35.556  1.00  0.00     0.064 A 
ATOM     60  C   UNL A   1      39.902  33.239  35.673  1.00  0.00     0.173 A 
ATOM     61  C   UNL A   1      38.514  31.461  36.501  1.00  0.00     0.173 A 
ATOM     62  F   UNL A   1      40.805  33.721  34.806  1.00  0.00    -0.203 F 
ATOM     63  C   UNL A   1      39.478  34.055  36.719  1.00  0.00     0.198 A 
ATOM     64  C   UNL A   1      38.066  32.292  37.525  1.00  0.00     0.198 A 
ATOM     65  F   UNL A   1      38.040  30.207  36.435  1.00  0.00    -0.203 F 
ATOM     66  F   UNL A   1      39.981  35.291  36.847  1.00  0.00    -0.200 F 
ATOM     67  C   UNL A   1      38.558  33.583  37.640  1.00  0.00     0.200 A 
ATOM     68  F   UNL A   1      37.167  31.837  38.410  1.00  0.00    -0.200 F 
ATOM     69  F   UNL A   1      38.152  34.369  38.649  1.00  0.00    -0.200 F 
ENDBRANCH  45  59
BRANCH  46  70
ATOM     70  C   UNL A   1      42.478  26.305  27.852  1.00  0.00     0.064 A 
ATOM     71  C   UNL A   1      41.936  25.025  27.669  1.00  0.00     0.173 A 
ATOM     72  C   UNL A   1      43.411  26.760  26.911  1.00  0.00     0.173 A 
ATOM     73  F   UNL A   1      41.050  24.541  28.552  1.00  0.00    -0.203 F 
ATOM     74  C   UNL A   1      42.321  24.228  26.594  1.00  0.00     0.198 A 
ATOM     75  C   UNL A   1      43.777  25.972  25.822  1.00  0.00     0.198 A 
ATOM     76  F   UNL A   1      43.951  27.981  27.037  1.00  0.00    -0.203 F 
ATOM     77  F   UNL A   1      41.811  22.996  26.459  1.00  0.00    -0.200 F 
ATOM     78  C   UNL A   1      43.235  24.705  25.667  1.00  0.00     0.200 A 
ATOM     79  F   UNL A   1      44.648  26.442  24.920  1.00  0.00    -0.200 F 
ATOM     80  F   UNL A   1      43.595  23.943  24.625  1.00  0.00    -0.200 F 
ENDBRANCH  46  70
BRANCH  58  81
ATOM     81  C   UNL A   1      44.901  27.337  34.296  1.00  0.00     0.064 A 
ATOM     82  C   UNL A   1      46.143  27.991  34.281  1.00  0.00     0.173 A 
ATOM     83  C   UNL A   1      44.797  26.141  35.020  1.00  0.00     0.173 A 
ATOM     84  F   UNL A   1      46.298  29.130  33.589  1.00  0.00    -0.203 F 
ATOM     85  C   UNL A   1      47.245  27.447  34.934  1.00  0.00     0.198 A 
ATOM     86  C   UNL A   1      45.892  25.616  35.698  1.00  0.00     0.198 A 
ATOM     87  F   UNL A   1      43.630  25.480  35.071  1.00  0.00    -0.203 F 
ATOM     88  F   UNL A   1      48.436  28.057  34.855  1.00  0.00    -0.200 F 
ATOM     89  C   UNL A   1      47.118  26.263  35.645  1.00  0.00     0.200 A 
ATOM     90  F   UNL A   1      45.767  24.479  36.395  1.00  0.00    -0.200 F 
ATOM     91  F   UNL A   1      48.181  25.739  36.271  1.00  0.00    -0.200 F 
ENDBRANCH  58  81
ENDBRANCH  32  33
ENDBRANCH  24  27
ENDBRANCH  22  23
ENDBRANCH   1  22
TORSDOF 11
ENDMDL
MODEL 3
REMARK VINA RESULT:     -12.6      1.981      3.361
REMARK SMILES C[C@H]1CCC[C@]1(C(=O)NCCCNC(=O)c1ccc(-c2c3nc(c(-c4c(F)c(F)c(F)c(F)c4F)c4ccc([nH]4)c(-c4c(F)c(F)c(F)c(F)c4F)c4nc(c(-c5c(F)c(F)c(F)c(F)c5F)c5ccc2[nH]5)C=C4)C=C3)cc1)c1ccc2c(c1)OCO2
REMARK SMILES IDX 11 1 10 2 9 3 7 4 8 5 6 7 1 8 2 9 3 10 4 11 5 12 79 13 80 14
REMARK SMILES IDX 84 15 81 16 83 17 82 18 85 19 87 20 86 21 12 22 13 23 14 24
REMARK SMILES IDX 15 26 16 27 17 28 78 29 18 30 77 31 19 32 20 33 21 34 71 35
REMARK SMILES IDX 22 36 76 37 70 38 72 39 23 40 75 41 69 42 68 43 24 45 56 46
REMARK SMILES IDX 36 47 55 48 37 49 40 50 54 51 73 52 38 53 39 54 53 56 74 57
REMARK SMILES IDX 41 58 25 59 26 60 34 61 27 62 28 63 32 64 35 65 29 66 30 67
REMARK SMILES IDX 33 68 31 69 57 70 58 71 66 72 59 73 60 74 64 75 67 76 61 77
REMARK SMILES IDX 62 78 65 79 63 80 42 81 43 82 51 83 44 84 45 85 49 86 52 87
REMARK SMILES IDX 46 88 47 89 50 90 48 91
REMARK H PARENT 9 6 13 25 72 44 40 55
REMARK Flexibility Score: inf
ROOT
ATOM      1  C   UNL A   1      31.773  28.420  26.808  1.00  0.00     0.042 C 
ENDROOT
BRANCH   1   2
ATOM      2  C   UNL A   1      31.117  27.396  25.894  1.00  0.00     0.117 C 
BRANCH   2   3
ATOM      3  N   UNL A   1      31.024  26.074  26.490  1.00  0.00    -0.355 N 
ATOM      4  C   UNL A   1      31.734  24.913  26.375  1.00  0.00     0.230 C 
ATOM      5  O   UNL A   1      31.440  24.092  27.251  1.00  0.00    -0.274 OA
ATOM      6  H   UNL A   1      30.275  25.997  27.125  1.00  0.00     0.163 HD
BRANCH   4   7
ATOM      7  C   UNL A   1      32.786  24.620  25.245  1.00  0.00     0.077 C 
ATOM      8  C   UNL A   1      30.715  23.901  23.784  1.00  0.00     0.009 C 
ATOM      9  C   UNL A   1      32.140  24.444  23.824  1.00  0.00     0.006 C 
ATOM     10  C   UNL A   1      32.345  25.759  23.087  1.00  0.00     0.005 C 
ATOM     11  C   UNL A   1      33.651  26.308  23.648  1.00  0.00     0.002 C 
ATOM     12  C   UNL A   1      33.736  25.846  25.107  1.00  0.00     0.022 C 
BRANCH   7  13
ATOM     13  C   UNL A   1      33.620  23.299  25.420  1.00  0.00    -0.028 A 
ATOM     14  C   UNL A   1      33.148  22.029  25.001  1.00  0.00     0.009 A 
ATOM     15  C   UNL A   1      34.992  23.396  25.760  1.00  0.00     0.055 A 
ATOM     16  C   UNL A   1      33.995  20.913  24.904  1.00  0.00     0.051 A 
ATOM     17  C   UNL A   1      35.811  22.301  25.602  1.00  0.00     0.166 A 
ATOM     18  C   UNL A   1      35.329  21.093  25.177  1.00  0.00     0.165 A 
ATOM     19  O   UNL A   1      37.164  22.306  25.747  1.00  0.00    -0.454 OA
ATOM     20  O   UNL A   1      36.321  20.178  25.001  1.00  0.00    -0.454 OA
ATOM     21  C   UNL A   1      37.481  21.021  25.175  1.00  0.00     0.468 C 
ENDBRANCH   7  13
ENDBRANCH   4   7
ENDBRANCH   2   3
ENDBRANCH   1   2
BRANCH   1  22
ATOM     22  C   UNL A   1      32.867  29.220  26.126  1.00  0.00     0.118 C 
BRANCH  22  23
ATOM     23  N   UNL A   1      32.713  30.651  26.351  1.00  0.00    -0.352 N 
ATOM     24  C   UNL A   1      33.358  31.486  27.223  1.00  0.00     0.251 C 
ATOM     25  H   UNL A   1      32.036  31.088  25.785  1.00  0.00     0.163 HD
ATOM     26  O   UNL A   1      32.886  32.604  27.451  1.00  0.00    -0.269 OA
BRANCH  24  27
ATOM     27  C   UNL A   1      34.606  31.069  27.896  1.00  0.00     0.039 A 
ATOM     28  C   UNL A   1      35.657  31.984  28.003  1.00  0.00     0.014 A 
ATOM     29  C   UNL A   1      34.765  29.768  28.379  1.00  0.00     0.014 A 
ATOM     30  C   UNL A   1      36.842  31.606  28.635  1.00  0.00     0.010 A 
ATOM     31  C   UNL A   1      35.902  29.426  29.103  1.00  0.00     0.010 A 
ATOM     32  C   UNL A   1      36.962  30.333  29.217  1.00  0.00    -0.014 A 
BRANCH  32  33
ATOM     33  C   UNL A   1      38.200  29.933  29.927  1.00  0.00     0.031 A 
ATOM     34  C   UNL A   1      38.473  30.428  31.320  1.00  0.00     0.074 A 
ATOM     35  C   UNL A   1      39.098  29.154  29.294  1.00  0.00     0.049 A 
ATOM     36  N   UNL A   1      39.487  30.170  32.106  1.00  0.00    -0.248 NA
ATOM     37  C   UNL A   1      37.496  31.366  31.894  1.00  0.00     0.031 C 
ATOM     38  C   UNL A   1      38.976  28.674  27.917  1.00  0.00     0.029 A 
ATOM     39  N   UNL A   1      40.285  28.624  29.729  1.00  0.00    -0.354 N 
ATOM     40  C   UNL A   1      39.276  30.922  33.255  1.00  0.00     0.074 A 
ATOM     41  C   UNL A   1      38.076  31.697  33.037  1.00  0.00     0.031 C 
ATOM     42  C   UNL A   1      40.018  27.877  27.636  1.00  0.00     0.029 A 
ATOM     43  C   UNL A   1      40.893  27.813  28.803  1.00  0.00     0.049 A 
ATOM     44  H   UNL A   1      40.664  28.806  30.619  1.00  0.00     0.167 HD
ATOM     45  C   UNL A   1      39.999  30.939  34.400  1.00  0.00     0.037 A 
ATOM     46  C   UNL A   1      42.021  27.086  28.894  1.00  0.00     0.037 A 
ATOM     47  C   UNL A   1      41.178  30.142  34.618  1.00  0.00     0.049 A 
ATOM     48  C   UNL A   1      42.793  27.100  30.183  1.00  0.00     0.074 A 
ATOM     49  C   UNL A   1      41.945  30.024  35.763  1.00  0.00     0.029 A 
ATOM     50  N   UNL A   1      41.764  29.328  33.658  1.00  0.00    -0.354 N 
ATOM     51  N   UNL A   1      42.537  27.744  31.295  1.00  0.00    -0.248 NA
ATOM     52  C   UNL A   1      44.007  26.275  30.230  1.00  0.00     0.031 C 
ATOM     53  C   UNL A   1      43.021  29.174  35.482  1.00  0.00     0.029 A 
ATOM     54  C   UNL A   1      42.898  28.724  34.177  1.00  0.00     0.049 A 
ATOM     55  H   UNL A   1      41.424  29.199  32.744  1.00  0.00     0.167 HD
ATOM     56  C   UNL A   1      43.545  27.392  32.182  1.00  0.00     0.074 A 
ATOM     57  C   UNL A   1      44.403  26.456  31.482  1.00  0.00     0.031 C 
ATOM     58  C   UNL A   1      43.747  27.808  33.457  1.00  0.00     0.037 A 
BRANCH  45  59
ATOM     59  C   UNL A   1      39.527  31.850  35.498  1.00  0.00     0.064 A 
ATOM     60  C   UNL A   1      38.593  31.428  36.459  1.00  0.00     0.173 A 
ATOM     61  C   UNL A   1      40.009  33.165  35.591  1.00  0.00     0.173 A 
ATOM     62  F   UNL A   1      38.088  30.186  36.409  1.00  0.00    -0.203 F 
ATOM     63  C   UNL A   1      38.126  32.300  37.439  1.00  0.00     0.198 A 
ATOM     64  C   UNL A   1      39.566  34.023  36.595  1.00  0.00     0.198 A 
ATOM     65  F   UNL A   1      40.906  33.621  34.704  1.00  0.00    -0.203 F 
ATOM     66  F   UNL A   1      37.184  31.892  38.301  1.00  0.00    -0.200 F 
ATOM     67  C   UNL A   1      38.616  33.593  37.510  1.00  0.00     0.200 A 
ATOM     68  F   UNL A   1      40.049  35.271  36.669  1.00  0.00    -0.200 F 
ATOM     69  F   UNL A   1      38.164  34.433  38.453  1.00  0.00    -0.200 F 
ENDBRANCH  45  59
BRANCH  46  70
ATOM     70  C   UNL A   1      42.442  26.236  27.752  1.00  0.00     0.064 A 
ATOM     71  C   UNL A   1      43.430  26.678  26.862  1.00  0.00     0.173 A 
ATOM     72  C   UNL A   1      41.898  24.961  27.545  1.00  0.00     0.173 A 
ATOM     73  F   UNL A   1      43.969  27.897  27.010  1.00  0.00    -0.203 F 
ATOM     74  C   UNL A   1      43.850  25.880  25.800  1.00  0.00     0.198 A 
ATOM     75  C   UNL A   1      42.337  24.154  26.498  1.00  0.00     0.198 A 
ATOM     76  F   UNL A   1      40.957  24.489  28.376  1.00  0.00    -0.203 F 
ATOM     77  F   UNL A   1      44.775  26.338  24.945  1.00  0.00    -0.200 F 
ATOM     78  C   UNL A   1      43.310  24.615  25.623  1.00  0.00     0.200 A 
ATOM     79  F   UNL A   1      41.824  22.926  26.341  1.00  0.00    -0.200 F 
ATOM     80  F   UNL A   1      43.724  23.843  24.610  1.00  0.00    -0.200 F 
ENDBRANCH  46  70
BRANCH  58  81
ATOM     81  C   UNL A   1      44.939  27.242  34.172  1.00  0.00     0.064 A 
ATOM     82  C   UNL A   1      44.855  26.049  34.907  1.00  0.00     0.173 A 
ATOM     83  C   UNL A   1      46.180  27.894  34.117  1.00  0.00     0.173 A 
ATOM     84  F   UNL A   1      43.687  25.396  35.003  1.00  0.00    -0.203 F 
ATOM     85  C   UNL A   1      45.960  25.552  35.592  1.00  0.00     0.198 A 
ATOM     86  C   UNL A   1      47.290  27.377  34.777  1.00  0.00     0.198 A 
ATOM     87  F   UNL A   1      46.315  29.034  33.422  1.00  0.00    -0.203 F 
ATOM     88  F   UNL A   1      45.841  24.444  36.337  1.00  0.00    -0.200 F 
ATOM     89  C   UNL A   1      47.177  26.213  35.522  1.00  0.00     0.200 A 
ATOM     90  F   UNL A   1      48.469  28.009  34.700  1.00  0.00    -0.200 F 
ATOM     91  F   UNL A   1      48.239  25.734  36.184  1.00  0.00    -0.200 F 
ENDBRANCH  58  81
ENDBRANCH  32  33
ENDBRANCH  24  27
ENDBRANCH  22  23
ENDBRANCH   1  22
TORSDOF 11
ENDMDL
