MODEL 1
REMARK VINA RESULT:     -12.6      0.000      0.000
REMARK SMILES O=C(CC[C@@H]1COc2ccc(Br)cc2C1=O)NCCCNC(=O)c1ccc(-c2c3nc(c(-c4c(F)c(F)c(F)c(F)c4F)c4ccc([nH]4)c(-c4c(F)c(F)c(F)c(F)c4F)c4nc(c(-c5c(F)c(F)c(F)c(F)c5F)c5ccc2[nH]5)C=C4)C=C3)cc1
REMARK SMILES IDX 19 1 18 2 17 3 1 4 2 5 3 7 4 8 5 9 6 10 15 11 7 12 14 13
REMARK SMILES IDX 16 14 8 15 13 16 9 17 11 18 10 19 12 20 20 21 21 22 22 23
REMARK SMILES IDX 23 25 24 26 25 27 86 28 26 29 85 30 27 31 28 32 29 33 79 34
REMARK SMILES IDX 30 35 84 36 78 37 80 38 31 39 83 40 77 41 76 42 32 44 64 45
REMARK SMILES IDX 44 46 63 47 45 48 48 49 62 50 81 51 46 52 47 53 61 55 82 56
REMARK SMILES IDX 49 57 33 58 34 59 42 60 35 61 36 62 40 63 43 64 37 65 38 66
REMARK SMILES IDX 41 67 39 68 65 69 66 70 74 71 67 72 68 73 72 74 75 75 69 76
REMARK SMILES IDX 70 77 73 78 71 79 50 80 51 81 59 82 52 83 53 84 57 85 60 86
REMARK SMILES IDX 54 87 55 88 58 89 56 90
REMARK H PARENT 17 6 21 24 80 43 48 54
REMARK Flexibility Score: inf
ROOT
ATOM      1  C   UNL A   1      31.575  31.876  26.636  1.00  0.00     0.042 C 
ENDROOT
BRANCH   1   2
ATOM      2  C   UNL A   1      31.832  30.384  26.466  1.00  0.00     0.117 C 
BRANCH   2   3
ATOM      3  N   UNL A   1      32.185  30.016  25.111  1.00  0.00    -0.356 N 
ATOM      4  O   UNL A   1      30.539  28.433  24.949  1.00  0.00    -0.275 OA
ATOM      5  C   UNL A   1      31.435  29.084  24.428  1.00  0.00     0.220 C 
ATOM      6  H   UNL A   1      32.964  30.433  24.677  1.00  0.00     0.163 HD
BRANCH   5   7
ATOM      7  C   UNL A   1      31.784  28.969  22.959  1.00  0.00     0.101 C 
BRANCH   7   8
ATOM      8  C   UNL A   1      33.285  28.758  22.728  1.00  0.00     0.025 C 
BRANCH   8   9
ATOM      9  C   UNL A   1      33.827  27.308  22.755  1.00  0.00     0.099 C 
ATOM     10  C   UNL A   1      33.094  26.332  21.845  1.00  0.00     0.241 C 
ATOM     11  C   UNL A   1      33.885  26.719  24.155  1.00  0.00     0.173 C 
ATOM     12  O   UNL A   1      33.695  25.035  21.836  1.00  0.00    -0.492 OA
ATOM     13  C   UNL A   1      33.848  25.246  24.256  1.00  0.00     0.061 A 
ATOM     14  O   UNL A   1      34.055  27.393  25.164  1.00  0.00    -0.294 OA
ATOM     15  C   UNL A   1      33.753  24.486  23.089  1.00  0.00     0.130 A 
ATOM     16  C   UNL A   1      33.952  24.619  25.503  1.00  0.00     0.031 A 
ATOM     17  C   UNL A   1      33.753  23.094  23.163  1.00  0.00     0.048 A 
ATOM     18  C   UNL A   1      33.946  23.228  25.568  1.00  0.00     0.018 A 
ATOM     19  C   UNL A   1      33.840  22.463  24.406  1.00  0.00     0.019 A 
ATOM     20  Br  UNL A   1      34.098  22.366  27.244  1.00  0.00    -0.051 Br
ENDBRANCH   8   9
ENDBRANCH   7   8
ENDBRANCH   5   7
ENDBRANCH   2   3
ENDBRANCH   1   2
BRANCH   1  21
ATOM     21  C   UNL A   1      32.710  32.659  27.290  1.00  0.00     0.118 C 
BRANCH  21  22
ATOM     22  N   UNL A   1      32.370  34.030  27.636  1.00  0.00    -0.352 N 
ATOM     23  C   UNL A   1      32.977  34.890  28.529  1.00  0.00     0.251 C 
ATOM     24  H   UNL A   1      31.590  34.402  27.163  1.00  0.00     0.163 HD
ATOM     25  O   UNL A   1      32.490  35.989  28.754  1.00  0.00    -0.269 OA
BRANCH  23  26
ATOM     26  C   UNL A   1      34.194  34.470  29.266  1.00  0.00     0.039 A 
ATOM     27  C   UNL A   1      35.473  34.659  28.740  1.00  0.00     0.014 A 
ATOM     28  C   UNL A   1      34.038  33.850  30.511  1.00  0.00     0.014 A 
ATOM     29  C   UNL A   1      36.569  34.062  29.359  1.00  0.00     0.010 A 
ATOM     30  C   UNL A   1      35.151  33.319  31.171  1.00  0.00     0.010 A 
ATOM     31  C   UNL A   1      36.417  33.362  30.567  1.00  0.00    -0.014 A 
BRANCH  31  32
ATOM     32  C   UNL A   1      37.575  32.635  31.156  1.00  0.00     0.031 A 
ATOM     33  C   UNL A   1      38.055  32.966  32.546  1.00  0.00     0.074 A 
ATOM     34  C   UNL A   1      38.164  31.638  30.467  1.00  0.00     0.049 A 
ATOM     35  N   UNL A   1      39.038  32.433  33.232  1.00  0.00    -0.248 NA
ATOM     36  C   UNL A   1      37.343  34.036  33.262  1.00  0.00     0.031 C 
ATOM     37  C   UNL A   1      37.787  31.209  29.121  1.00  0.00     0.029 A 
ATOM     38  N   UNL A   1      39.190  30.794  30.812  1.00  0.00    -0.354 N 
ATOM     39  C   UNL A   1      39.067  33.110  34.444  1.00  0.00     0.074 A 
ATOM     40  C   UNL A   1      38.029  34.116  34.392  1.00  0.00     0.031 C 
ATOM     41  C   UNL A   1      38.540  30.156  28.771  1.00  0.00     0.029 A 
ATOM     42  C   UNL A   1      39.488  29.868  29.844  1.00  0.00     0.049 A 
ATOM     43  H   UNL A   1      39.668  30.849  31.671  1.00  0.00     0.167 HD
ATOM     44  C   UNL A   1      39.874  32.902  35.513  1.00  0.00     0.037 A 
ATOM     45  C   UNL A   1      40.424  28.899  29.817  1.00  0.00     0.037 A 
ATOM     46  C   UNL A   1      40.891  31.886  35.580  1.00  0.00     0.049 A 
ATOM     47  C   UNL A   1      41.339  28.721  30.997  1.00  0.00     0.074 A 
ATOM     48  C   UNL A   1      41.739  31.584  36.632  1.00  0.00     0.029 A 
ATOM     49  N   UNL A   1      41.198  31.004  34.555  1.00  0.00    -0.354 N 
ATOM     50  N   UNL A   1      41.347  29.361  32.139  1.00  0.00    -0.248 NA
ATOM     51  C   UNL A   1      42.381  27.691  30.877  1.00  0.00     0.031 C 
ATOM     52  C   UNL A   1      42.585  30.546  36.229  1.00  0.00     0.029 A 
ATOM     53  C   UNL A   1      42.235  30.172  34.942  1.00  0.00     0.049 A 
ATOM     54  H   UNL A   1      40.744  30.975  33.681  1.00  0.00     0.167 HD
ATOM     55  C   UNL A   1      42.382  28.806  32.879  1.00  0.00     0.074 A 
ATOM     56  C   UNL A   1      42.967  27.763  32.065  1.00  0.00     0.031 C 
ATOM     57  C   UNL A   1      42.810  29.137  34.122  1.00  0.00     0.037 A 
BRANCH  44  58
ATOM     58  C   UNL A   1      39.694  33.787  36.711  1.00  0.00     0.064 A 
ATOM     59  C   UNL A   1      40.285  35.057  36.779  1.00  0.00     0.173 A 
ATOM     60  C   UNL A   1      38.861  33.393  37.769  1.00  0.00     0.173 A 
ATOM     61  F   UNL A   1      41.099  35.476  35.798  1.00  0.00    -0.203 F 
ATOM     62  C   UNL A   1      40.060  35.894  37.870  1.00  0.00     0.198 A 
ATOM     63  C   UNL A   1      38.618  34.242  38.846  1.00  0.00     0.198 A 
ATOM     64  F   UNL A   1      38.264  32.191  37.749  1.00  0.00    -0.203 F 
ATOM     65  F   UNL A   1      40.661  37.091  37.928  1.00  0.00    -0.200 F 
ATOM     66  C   UNL A   1      39.220  35.490  38.897  1.00  0.00     0.200 A 
ATOM     67  F   UNL A   1      37.795  33.856  39.831  1.00  0.00    -0.200 F 
ATOM     68  F   UNL A   1      38.993  36.303  39.938  1.00  0.00    -0.200 F 
ENDBRANCH  44  58
BRANCH  45  69
ATOM     69  C   UNL A   1      40.530  28.016  28.629  1.00  0.00     0.064 A 
ATOM     70  C   UNL A   1      39.853  26.789  28.583  1.00  0.00     0.173 A 
ATOM     71  C   UNL A   1      41.287  28.388  27.509  1.00  0.00     0.173 A 
ATOM     72  F   UNL A   1      39.135  26.381  29.640  1.00  0.00    -0.203 F 
ATOM     73  C   UNL A   1      39.934  25.966  27.463  1.00  0.00     0.198 A 
ATOM     74  C   UNL A   1      41.345  27.576  26.377  1.00  0.00     0.198 A 
ATOM     75  F   UNL A   1      41.951  29.552  27.504  1.00  0.00    -0.203 F 
ATOM     76  F   UNL A   1      39.301  24.784  27.454  1.00  0.00    -0.200 F 
ATOM     77  C   UNL A   1      40.672  26.364  26.357  1.00  0.00     0.200 A 
ATOM     78  F   UNL A   1      42.047  27.972  25.307  1.00  0.00    -0.200 F 
ATOM     79  F   UNL A   1      40.736  25.578  25.273  1.00  0.00    -0.200 F 
ENDBRANCH  45  69
BRANCH  57  80
ATOM     80  C   UNL A   1      43.962  28.361  34.689  1.00  0.00     0.064 A 
ATOM     81  C   UNL A   1      43.762  27.156  35.376  1.00  0.00     0.173 A 
ATOM     82  C   UNL A   1      45.281  28.791  34.482  1.00  0.00     0.173 A 
ATOM     83  F   UNL A   1      42.518  26.712  35.611  1.00  0.00    -0.203 F 
ATOM     84  C   UNL A   1      44.842  26.414  35.847  1.00  0.00     0.198 A 
ATOM     85  C   UNL A   1      46.359  28.034  34.931  1.00  0.00     0.198 A 
ATOM     86  F   UNL A   1      45.525  29.934  33.823  1.00  0.00    -0.203 F 
ATOM     87  F   UNL A   1      44.627  25.280  36.528  1.00  0.00    -0.200 F 
ATOM     88  C   UNL A   1      46.139  26.848  35.616  1.00  0.00     0.200 A 
ATOM     89  F   UNL A   1      47.611  28.448  34.695  1.00  0.00    -0.200 F 
ATOM     90  F   UNL A   1      47.178  26.125  36.056  1.00  0.00    -0.200 F 
ENDBRANCH  57  80
ENDBRANCH  31  32
ENDBRANCH  23  26
ENDBRANCH  21  22
ENDBRANCH   1  21
TORSDOF 12
ENDMDL
MODEL 2
REMARK VINA RESULT:     -12.6      5.675      9.931
REMARK SMILES O=C(CC[C@@H]1COc2ccc(Br)cc2C1=O)NCCCNC(=O)c1ccc(-c2c3nc(c(-c4c(F)c(F)c(F)c(F)c4F)c4ccc([nH]4)c(-c4c(F)c(F)c(F)c(F)c4F)c4nc(c(-c5c(F)c(F)c(F)c(F)c5F)c5ccc2[nH]5)C=C4)C=C3)cc1
REMARK SMILES IDX 19 1 18 2 17 3 1 4 2 5 3 7 4 8 5 9 6 10 15 11 7 12 14 13
REMARK SMILES IDX 16 14 8 15 13 16 9 17 11 18 10 19 12 20 20 21 21 22 22 23
REMARK SMILES IDX 23 25 24 26 25 27 86 28 26 29 85 30 27 31 28 32 29 33 79 34
REMARK SMILES IDX 30 35 84 36 78 37 80 38 31 39 83 40 77 41 76 42 32 44 64 45
REMARK SMILES IDX 44 46 63 47 45 48 48 49 62 50 81 51 46 52 47 53 61 55 82 56
REMARK SMILES IDX 49 57 33 58 34 59 42 60 35 61 36 62 40 63 43 64 37 65 38 66
REMARK SMILES IDX 41 67 39 68 65 69 66 70 74 71 67 72 68 73 72 74 75 75 69 76
REMARK SMILES IDX 70 77 73 78 71 79 50 80 51 81 59 82 52 83 53 84 57 85 60 86
REMARK SMILES IDX 54 87 55 88 58 89 56 90
REMARK H PARENT 17 6 21 24 80 43 48 54
REMARK Flexibility Score: inf
ROOT
ATOM      1  C   UNL A   1      38.127  20.791  24.894  1.00  0.00     0.042 C 
ENDROOT
BRANCH   1   2
ATOM      2  C   UNL A   1      36.935  19.844  24.948  1.00  0.00     0.117 C 
BRANCH   2   3
ATOM      3  N   UNL A   1      35.703  20.499  25.337  1.00  0.00    -0.356 N 
ATOM      4  O   UNL A   1      34.372  18.875  24.425  1.00  0.00    -0.275 OA
ATOM      5  C   UNL A   1      34.489  19.898  25.087  1.00  0.00     0.220 C 
ATOM      6  H   UNL A   1      35.734  21.377  25.780  1.00  0.00     0.163 HD
BRANCH   5   7
ATOM      7  C   UNL A   1      33.313  20.586  25.747  1.00  0.00     0.101 C 
BRANCH   7   8
ATOM      8  C   UNL A   1      33.720  21.364  27.005  1.00  0.00     0.025 C 
BRANCH   8   9
ATOM      9  C   UNL A   1      33.233  22.826  27.144  1.00  0.00     0.099 C 
ATOM     10  C   UNL A   1      31.728  23.017  27.013  1.00  0.00     0.241 C 
ATOM     11  C   UNL A   1      33.930  23.780  26.188  1.00  0.00     0.173 C 
ATOM     12  O   UNL A   1      31.325  24.368  27.247  1.00  0.00    -0.492 OA
ATOM     13  C   UNL A   1      33.204  25.021  25.844  1.00  0.00     0.061 A 
ATOM     14  O   UNL A   1      35.075  23.614  25.783  1.00  0.00    -0.294 OA
ATOM     15  C   UNL A   1      31.939  25.244  26.392  1.00  0.00     0.130 A 
ATOM     16  C   UNL A   1      33.796  25.979  25.014  1.00  0.00     0.031 A 
ATOM     17  C   UNL A   1      31.256  26.424  26.106  1.00  0.00     0.048 A 
ATOM     18  C   UNL A   1      33.103  27.154  24.730  1.00  0.00     0.018 A 
ATOM     19  C   UNL A   1      31.835  27.377  25.266  1.00  0.00     0.019 A 
ATOM     20  Br  UNL A   1      33.894  28.465  23.621  1.00  0.00    -0.051 Br
ENDBRANCH   8   9
ENDBRANCH   7   8
ENDBRANCH   5   7
ENDBRANCH   2   3
ENDBRANCH   1   2
BRANCH   1  21
ATOM     21  C   UNL A   1      39.101  20.673  26.063  1.00  0.00     0.118 C 
BRANCH  21  22
ATOM     22  N   UNL A   1      40.043  19.570  25.949  1.00  0.00    -0.352 N 
ATOM     23  C   UNL A   1      41.414  19.563  26.107  1.00  0.00     0.251 C 
ATOM     24  H   UNL A   1      39.643  18.698  25.727  1.00  0.00     0.163 HD
ATOM     25  O   UNL A   1      42.054  18.545  25.883  1.00  0.00    -0.269 OA
BRANCH  23  26
ATOM     26  C   UNL A   1      42.131  20.801  26.496  1.00  0.00     0.039 A 
ATOM     27  C   UNL A   1      42.278  21.176  27.832  1.00  0.00     0.014 A 
ATOM     28  C   UNL A   1      42.651  21.616  25.484  1.00  0.00     0.014 A 
ATOM     29  C   UNL A   1      42.766  22.443  28.145  1.00  0.00     0.010 A 
ATOM     30  C   UNL A   1      43.212  22.856  25.805  1.00  0.00     0.010 A 
ATOM     31  C   UNL A   1      43.213  23.309  27.133  1.00  0.00    -0.014 A 
BRANCH  31  32
ATOM     32  C   UNL A   1      43.624  24.699  27.472  1.00  0.00     0.031 A 
ATOM     33  C   UNL A   1      42.589  25.729  27.845  1.00  0.00     0.074 A 
ATOM     34  C   UNL A   1      44.930  25.026  27.499  1.00  0.00     0.049 A 
ATOM     35  N   UNL A   1      42.755  26.985  28.183  1.00  0.00    -0.248 NA
ATOM     36  C   UNL A   1      41.182  25.297  27.838  1.00  0.00     0.031 C 
ATOM     37  C   UNL A   1      46.032  24.121  27.174  1.00  0.00     0.029 A 
ATOM     38  N   UNL A   1      45.553  26.203  27.833  1.00  0.00    -0.354 N 
ATOM     39  C   UNL A   1      41.481  27.490  28.412  1.00  0.00     0.074 A 
ATOM     40  C   UNL A   1      40.547  26.419  28.143  1.00  0.00     0.031 C 
ATOM     41  C   UNL A   1      47.195  24.759  27.366  1.00  0.00     0.029 A 
ATOM     42  C   UNL A   1      46.923  26.134  27.776  1.00  0.00     0.049 A 
ATOM     43  H   UNL A   1      45.064  27.018  28.087  1.00  0.00     0.167 HD
ATOM     44  C   UNL A   1      41.122  28.729  28.827  1.00  0.00     0.037 A 
ATOM     45  C   UNL A   1      47.857  27.074  28.018  1.00  0.00     0.037 A 
ATOM     46  C   UNL A   1      42.048  29.790  29.120  1.00  0.00     0.049 A 
ATOM     47  C   UNL A   1      47.429  28.456  28.430  1.00  0.00     0.074 A 
ATOM     48  C   UNL A   1      41.775  31.071  29.572  1.00  0.00     0.029 A 
ATOM     49  N   UNL A   1      43.425  29.696  28.995  1.00  0.00    -0.354 N 
ATOM     50  N   UNL A   1      46.223  28.913  28.653  1.00  0.00    -0.248 NA
ATOM     51  C   UNL A   1      48.494  29.452  28.614  1.00  0.00     0.031 C 
ATOM     52  C   UNL A   1      42.985  31.763  29.682  1.00  0.00     0.029 A 
ATOM     53  C   UNL A   1      44.014  30.902  29.341  1.00  0.00     0.049 A 
ATOM     54  H   UNL A   1      43.912  28.891  28.704  1.00  0.00     0.167 HD
ATOM     55  C   UNL A   1      46.382  30.244  29.014  1.00  0.00     0.074 A 
ATOM     56  C   UNL A   1      47.803  30.516  29.001  1.00  0.00     0.031 C 
ATOM     57  C   UNL A   1      45.431  31.159  29.324  1.00  0.00     0.037 A 
BRANCH  44  58
ATOM     58  C   UNL A   1      39.658  29.014  28.995  1.00  0.00     0.064 A 
ATOM     59  C   UNL A   1      38.851  29.373  27.905  1.00  0.00     0.173 A 
ATOM     60  C   UNL A   1      39.040  28.855  30.245  1.00  0.00     0.173 A 
ATOM     61  F   UNL A   1      39.396  29.549  26.692  1.00  0.00    -0.203 F 
ATOM     62  C   UNL A   1      37.483  29.576  28.063  1.00  0.00     0.198 A 
ATOM     63  C   UNL A   1      37.668  29.035  30.395  1.00  0.00     0.198 A 
ATOM     64  F   UNL A   1      39.766  28.505  31.318  1.00  0.00    -0.203 F 
ATOM     65  F   UNL A   1      36.737  29.950  27.014  1.00  0.00    -0.200 F 
ATOM     66  C   UNL A   1      36.890  29.398  29.305  1.00  0.00     0.200 A 
ATOM     67  F   UNL A   1      37.094  28.848  31.592  1.00  0.00    -0.200 F 
ATOM     68  F   UNL A   1      35.570  29.578  29.452  1.00  0.00    -0.200 F 
ENDBRANCH  44  58
BRANCH  45  69
ATOM     69  C   UNL A   1      49.295  26.728  27.887  1.00  0.00     0.064 A 
ATOM     70  C   UNL A   1      50.063  26.409  29.014  1.00  0.00     0.173 A 
ATOM     71  C   UNL A   1      49.924  26.686  26.634  1.00  0.00     0.173 A 
ATOM     72  F   UNL A   1      49.512  26.458  30.236  1.00  0.00    -0.203 F 
ATOM     73  C   UNL A   1      51.408  26.065  28.894  1.00  0.00     0.198 A 
ATOM     74  C   UNL A   1      51.261  26.316  26.511  1.00  0.00     0.198 A 
ATOM     75  F   UNL A   1      49.230  26.983  25.525  1.00  0.00    -0.203 F 
ATOM     76  F   UNL A   1      52.128  25.791  29.991  1.00  0.00    -0.200 F 
ATOM     77  C   UNL A   1      52.003  26.010  27.642  1.00  0.00     0.200 A 
ATOM     78  F   UNL A   1      51.828  26.250  25.299  1.00  0.00    -0.200 F 
ATOM     79  F   UNL A   1      53.293  25.663  27.526  1.00  0.00    -0.200 F 
ENDBRANCH  45  69
BRANCH  57  80
ATOM     80  C   UNL A   1      45.889  32.541  29.686  1.00  0.00     0.064 A 
ATOM     81  C   UNL A   1      46.234  32.874  31.003  1.00  0.00     0.173 A 
ATOM     82  C   UNL A   1      46.053  33.520  28.695  1.00  0.00     0.173 A 
ATOM     83  F   UNL A   1      46.081  31.976  31.988  1.00  0.00    -0.203 F 
ATOM     84  C   UNL A   1      46.714  34.142  31.318  1.00  0.00     0.198 A 
ATOM     85  C   UNL A   1      46.558  34.778  29.008  1.00  0.00     0.198 A 
ATOM     86  F   UNL A   1      45.744  33.248  27.418  1.00  0.00    -0.203 F 
ATOM     87  F   UNL A   1      47.009  34.448  32.588  1.00  0.00    -0.200 F 
ATOM     88  C   UNL A   1      46.885  35.089  30.319  1.00  0.00     0.200 A 
ATOM     89  F   UNL A   1      46.735  35.688  28.040  1.00  0.00    -0.200 F 
ATOM     90  F   UNL A   1      47.362  36.305  30.621  1.00  0.00    -0.200 F 
ENDBRANCH  57  80
ENDBRANCH  31  32
ENDBRANCH  23  26
ENDBRANCH  21  22
ENDBRANCH   1  21
TORSDOF 12
ENDMDL
MODEL 3
REMARK VINA RESULT:     -12.6      0.365      2.018
REMARK SMILES O=C(CC[C@@H]1COc2ccc(Br)cc2C1=O)NCCCNC(=O)c1ccc(-c2c3nc(c(-c4c(F)c(F)c(F)c(F)c4F)c4ccc([nH]4)c(-c4c(F)c(F)c(F)c(F)c4F)c4nc(c(-c5c(F)c(F)c(F)c(F)c5F)c5ccc2[nH]5)C=C4)C=C3)cc1
REMARK SMILES IDX 19 1 18 2 17 3 1 4 2 5 3 7 4 8 5 9 6 10 15 11 7 12 14 13
REMARK SMILES IDX 16 14 8 15 13 16 9 17 11 18 10 19 12 20 20 21 21 22 22 23
REMARK SMILES IDX 23 25 24 26 25 27 86 28 26 29 85 30 27 31 28 32 29 33 79 34
REMARK SMILES IDX 30 35 84 36 78 37 80 38 31 39 83 40 77 41 76 42 32 44 64 45
REMARK SMILES IDX 44 46 63 47 45 48 48 49 62 50 81 51 46 52 47 53 61 55 82 56
REMARK SMILES IDX 49 57 33 58 34 59 42 60 35 61 36 62 40 63 43 64 37 65 38 66
REMARK SMILES IDX 41 67 39 68 65 69 66 70 74 71 67 72 68 73 72 74 75 75 69 76
REMARK SMILES IDX 70 77 73 78 71 79 50 80 51 81 59 82 52 83 53 84 57 85 60 86
REMARK SMILES IDX 54 87 55 88 58 89 56 90
REMARK H PARENT 17 6 21 24 80 43 48 54
REMARK Flexibility Score: inf
ROOT
ATOM      1  C   UNL A   1      31.519  32.008  26.550  1.00  0.00     0.042 C 
ENDROOT
BRANCH   1   2
ATOM      2  C   UNL A   1      31.735  30.506  26.432  1.00  0.00     0.117 C 
BRANCH   2   3
ATOM      3  N   UNL A   1      32.054  30.079  25.085  1.00  0.00    -0.356 N 
ATOM      4  O   UNL A   1      31.019  28.050  25.320  1.00  0.00    -0.275 OA
ATOM      5  C   UNL A   1      31.592  28.869  24.614  1.00  0.00     0.220 C 
ATOM      6  H   UNL A   1      32.603  30.654  24.506  1.00  0.00     0.163 HD
BRANCH   5   7
ATOM      7  C   UNL A   1      31.810  28.663  23.129  1.00  0.00     0.101 C 
BRANCH   7   8
ATOM      8  C   UNL A   1      33.268  28.325  22.793  1.00  0.00     0.025 C 
BRANCH   8   9
ATOM      9  C   UNL A   1      33.653  26.833  22.651  1.00  0.00     0.099 C 
ATOM     10  C   UNL A   1      32.755  26.023  21.727  1.00  0.00     0.241 C 
ATOM     11  C   UNL A   1      33.755  26.113  23.986  1.00  0.00     0.173 C 
ATOM     12  O   UNL A   1      33.213  24.680  21.556  1.00  0.00    -0.492 OA
ATOM     13  C   UNL A   1      33.570  24.647  23.964  1.00  0.00     0.061 A 
ATOM     14  O   UNL A   1      34.071  26.670  25.031  1.00  0.00    -0.294 OA
ATOM     15  C   UNL A   1      33.306  24.013  22.748  1.00  0.00     0.130 A 
ATOM     16  C   UNL A   1      33.701  23.900  25.139  1.00  0.00     0.031 A 
ATOM     17  C   UNL A   1      33.165  22.627  22.704  1.00  0.00     0.048 A 
ATOM     18  C   UNL A   1      33.552  22.516  25.087  1.00  0.00     0.018 A 
ATOM     19  C   UNL A   1      33.278  21.878  23.877  1.00  0.00     0.019 A 
ATOM     20  Br  UNL A   1      33.739  21.491  26.664  1.00  0.00    -0.051 Br
ENDBRANCH   8   9
ENDBRANCH   7   8
ENDBRANCH   5   7
ENDBRANCH   2   3
ENDBRANCH   1   2
BRANCH   1  21
ATOM     21  C   UNL A   1      32.638  32.772  27.253  1.00  0.00     0.118 C 
BRANCH  21  22
ATOM     22  N   UNL A   1      32.297  34.139  27.613  1.00  0.00    -0.352 N 
ATOM     23  C   UNL A   1      32.903  34.989  28.515  1.00  0.00     0.251 C 
ATOM     24  H   UNL A   1      31.518  34.515  27.142  1.00  0.00     0.163 HD
ATOM     25  O   UNL A   1      32.415  36.086  28.751  1.00  0.00    -0.269 OA
BRANCH  23  26
ATOM     26  C   UNL A   1      34.119  34.562  29.249  1.00  0.00     0.039 A 
ATOM     27  C   UNL A   1      35.392  34.669  28.687  1.00  0.00     0.014 A 
ATOM     28  C   UNL A   1      33.968  34.021  30.531  1.00  0.00     0.014 A 
ATOM     29  C   UNL A   1      36.478  34.064  29.315  1.00  0.00     0.010 A 
ATOM     30  C   UNL A   1      35.074  33.483  31.196  1.00  0.00     0.010 A 
ATOM     31  C   UNL A   1      36.327  33.440  30.565  1.00  0.00    -0.014 A 
BRANCH  31  32
ATOM     32  C   UNL A   1      37.468  32.701  31.170  1.00  0.00     0.031 A 
ATOM     33  C   UNL A   1      37.927  33.021  32.569  1.00  0.00     0.074 A 
ATOM     34  C   UNL A   1      38.060  31.702  30.486  1.00  0.00     0.049 A 
ATOM     35  N   UNL A   1      38.893  32.477  33.269  1.00  0.00    -0.248 NA
ATOM     36  C   UNL A   1      37.210  34.093  33.278  1.00  0.00     0.031 C 
ATOM     37  C   UNL A   1      37.704  31.282  29.132  1.00  0.00     0.029 A 
ATOM     38  N   UNL A   1      39.074  30.848  30.844  1.00  0.00    -0.354 N 
ATOM     39  C   UNL A   1      38.907  33.148  34.486  1.00  0.00     0.074 A 
ATOM     40  C   UNL A   1      37.878  34.162  34.421  1.00  0.00     0.031 C 
ATOM     41  C   UNL A   1      38.453  30.225  28.789  1.00  0.00     0.029 A 
ATOM     42  C   UNL A   1      39.380  29.924  29.877  1.00  0.00     0.049 A 
ATOM     43  H   UNL A   1      39.537  30.895  31.711  1.00  0.00     0.167 HD
ATOM     44  C   UNL A   1      39.693  32.927  35.567  1.00  0.00     0.037 A 
ATOM     45  C   UNL A   1      40.309  28.948  29.861  1.00  0.00     0.037 A 
ATOM     46  C   UNL A   1      40.701  31.903  35.646  1.00  0.00     0.049 A 
ATOM     47  C   UNL A   1      41.202  28.757  31.056  1.00  0.00     0.074 A 
ATOM     48  C   UNL A   1      41.528  31.589  36.712  1.00  0.00     0.029 A 
ATOM     49  N   UNL A   1      41.018  31.024  34.622  1.00  0.00    -0.354 N 
ATOM     50  N   UNL A   1      41.195  29.391  32.202  1.00  0.00    -0.248 NA
ATOM     51  C   UNL A   1      42.237  27.718  30.949  1.00  0.00     0.031 C 
ATOM     52  C   UNL A   1      42.372  30.546  36.318  1.00  0.00     0.029 A 
ATOM     53  C   UNL A   1      42.042  30.181  35.024  1.00  0.00     0.049 A 
ATOM     54  H   UNL A   1      40.579  31.002  33.740  1.00  0.00     0.167 HD
ATOM     55  C   UNL A   1      42.213  28.824  32.957  1.00  0.00     0.074 A 
ATOM     56  C   UNL A   1      42.804  27.780  32.147  1.00  0.00     0.031 C 
ATOM     57  C   UNL A   1      42.622  29.145  34.208  1.00  0.00     0.037 A 
BRANCH  44  58
ATOM     58  C   UNL A   1      39.499  33.808  36.766  1.00  0.00     0.064 A 
ATOM     59  C   UNL A   1      38.698  33.410  37.846  1.00  0.00     0.173 A 
ATOM     60  C   UNL A   1      40.180  35.032  36.869  1.00  0.00     0.173 A 
ATOM     61  F   UNL A   1      38.018  32.255  37.792  1.00  0.00    -0.203 F 
ATOM     62  C   UNL A   1      38.575  34.211  38.979  1.00  0.00     0.198 A 
ATOM     63  C   UNL A   1      40.074  35.818  38.013  1.00  0.00     0.198 A 
ATOM     64  F   UNL A   1      40.965  35.455  35.866  1.00  0.00    -0.203 F 
ATOM     65  F   UNL A   1      37.779  33.825  39.987  1.00  0.00    -0.200 F 
ATOM     66  C   UNL A   1      39.269  35.409  39.066  1.00  0.00     0.200 A 
ATOM     67  F   UNL A   1      40.757  36.968  38.101  1.00  0.00    -0.200 F 
ATOM     68  F   UNL A   1      39.162  36.170  40.164  1.00  0.00    -0.200 F 
ENDBRANCH  44  58
BRANCH  45  69
ATOM     69  C   UNL A   1      40.428  28.069  28.671  1.00  0.00     0.064 A 
ATOM     70  C   UNL A   1      41.222  28.444  27.578  1.00  0.00     0.173 A 
ATOM     71  C   UNL A   1      39.774  26.831  28.610  1.00  0.00     0.173 A 
ATOM     72  F   UNL A   1      41.849  29.629  27.581  1.00  0.00    -0.203 F 
ATOM     73  C   UNL A   1      41.353  27.614  26.467  1.00  0.00     0.198 A 
ATOM     74  C   UNL A   1      39.927  25.988  27.511  1.00  0.00     0.198 A 
ATOM     75  F   UNL A   1      39.004  26.428  29.632  1.00  0.00    -0.203 F 
ATOM     76  F   UNL A   1      42.095  28.007  25.423  1.00  0.00    -0.200 F 
ATOM     77  C   UNL A   1      40.713  26.383  26.439  1.00  0.00     0.200 A 
ATOM     78  F   UNL A   1      39.319  24.795  27.494  1.00  0.00    -0.200 F 
ATOM     79  F   UNL A   1      40.852  25.578  25.376  1.00  0.00    -0.200 F 
ENDBRANCH  45  69
BRANCH  57  80
ATOM     80  C   UNL A   1      43.758  28.358  34.791  1.00  0.00     0.064 A 
ATOM     81  C   UNL A   1      45.085  28.792  34.668  1.00  0.00     0.173 A 
ATOM     82  C   UNL A   1      43.510  27.198  35.540  1.00  0.00     0.173 A 
ATOM     83  F   UNL A   1      45.373  29.887  33.950  1.00  0.00    -0.203 F 
ATOM     84  C   UNL A   1      46.126  28.084  35.264  1.00  0.00     0.198 A 
ATOM     85  C   UNL A   1      44.550  26.508  36.156  1.00  0.00     0.198 A 
ATOM     86  F   UNL A   1      42.256  26.746  35.693  1.00  0.00    -0.203 F 
ATOM     87  F   UNL A   1      47.390  28.500  35.108  1.00  0.00    -0.200 F 
ATOM     88  C   UNL A   1      45.857  26.949  36.014  1.00  0.00     0.200 A 
ATOM     89  F   UNL A   1      44.287  25.419  36.891  1.00  0.00    -0.200 F 
ATOM     90  F   UNL A   1      46.859  26.278  36.600  1.00  0.00    -0.200 F 
ENDBRANCH  57  80
ENDBRANCH  31  32
ENDBRANCH  23  26
ENDBRANCH  21  22
ENDBRANCH   1  21
TORSDOF 12
ENDMDL
