MODEL 1
REMARK VINA RESULT:     -12.3      0.000      0.000
REMARK SMILES CC[C@@](C)([NH2+]CC(=O)Nc1ccc(Br)cc1F)C(=O)NCCCNC(=O)c1ccc(-c2c3nc(c(-c4c(F)c(F)c(F)c(F)c4F)c4ccc([nH]4)c(-c4c(F)c(F)c(F)c(F)c4F)c4nc(c(-c5c(F)c(F)c(F)c(F)c5F)c5ccc2[nH]5)C=C4)C=C3)cc1
REMARK SMILES IDX 21 1 20 2 18 3 19 4 3 6 4 7 2 8 1 9 5 10 6 13 7 14 8 15 9 16
REMARK SMILES IDX 10 18 11 19 16 20 12 21 15 22 17 23 13 24 14 25 22 26 23 27
REMARK SMILES IDX 24 28 25 29 26 31 27 32 28 33 89 34 29 35 88 36 30 37 31 38
REMARK SMILES IDX 32 39 82 40 33 41 87 42 81 43 83 44 34 45 86 46 80 47 79 48
REMARK SMILES IDX 35 50 67 51 47 52 66 53 48 54 51 55 65 56 84 57 49 58 50 59
REMARK SMILES IDX 64 61 85 62 52 63 36 64 37 65 45 66 38 67 39 68 43 69 46 70
REMARK SMILES IDX 40 71 41 72 44 73 42 74 68 75 69 76 77 77 70 78 71 79 75 80
REMARK SMILES IDX 78 81 72 82 73 83 76 84 74 85 53 86 54 87 62 88 55 89 56 90
REMARK SMILES IDX 60 91 63 92 57 93 58 94 61 95 59 96
REMARK H PARENT 20 5 5 11 5 12 9 17 24 30 83 49 51 60
REMARK Flexibility Score: inf
ROOT
ATOM      1  C   UNL A   1      31.985  30.469  26.263  1.00  0.00     0.118 C 
ENDROOT
BRANCH   1   2
ATOM      2  N   UNL A   1      31.551  30.266  24.879  1.00  0.00    -0.351 N 
ATOM      3  C   UNL A   1      31.076  29.125  24.254  1.00  0.00     0.281 C 
ATOM      4  O   UNL A   1      29.925  29.262  23.818  1.00  0.00    -0.268 OA
ATOM      5  H   UNL A   1      31.606  31.064  24.304  1.00  0.00     0.163 HD
BRANCH   3   6
ATOM      6  C   UNL A   1      31.996  27.872  23.815  1.00  0.00     0.172 C 
ATOM      7  C   UNL A   1      33.443  27.541  24.254  1.00  0.00     0.090 C 
BRANCH   6   8
ATOM      8  C   UNL A   1      31.185  26.637  24.407  1.00  0.00     0.075 C 
ATOM      9  C   UNL A   1      31.280  26.443  25.947  1.00  0.00     0.011 C 
ENDBRANCH   6   8
BRANCH   6  10
ATOM     10  N   UNL A   1      32.037  27.832  22.345  1.00  0.00    -0.326 N 
ATOM     11  H   UNL A   1      32.989  28.076  22.068  1.00  0.00     0.347 HD
ATOM     12  H   UNL A   1      31.296  28.475  22.066  1.00  0.00     0.347 HD
BRANCH  10  13
ATOM     13  C   UNL A   1      31.692  26.576  21.639  1.00  0.00     0.363 C 
BRANCH  13  14
ATOM     14  C   UNL A   1      32.678  25.444  21.228  1.00  0.00     0.279 C 
ATOM     15  O   UNL A   1      32.993  25.406  20.022  1.00  0.00    -0.268 OA
ATOM     16  N   UNL A   1      33.427  24.593  22.006  1.00  0.00    -0.319 N 
ATOM     17  H   UNL A   1      34.221  24.288  21.509  1.00  0.00     0.170 HD
BRANCH  16  18
ATOM     18  C   UNL A   1      33.409  24.019  23.302  1.00  0.00     0.077 A 
ATOM     19  C   UNL A   1      34.620  23.996  24.007  1.00  0.00     0.030 A 
ATOM     20  C   UNL A   1      32.363  23.266  23.859  1.00  0.00     0.147 A 
ATOM     21  C   UNL A   1      34.701  23.442  25.298  1.00  0.00     0.018 A 
ATOM     22  C   UNL A   1      32.415  22.744  25.154  1.00  0.00     0.057 A 
ATOM     23  F   UNL A   1      31.276  22.939  23.159  1.00  0.00    -0.205 F 
ATOM     24  C   UNL A   1      33.580  22.864  25.886  1.00  0.00     0.021 A 
ATOM     25  Br  UNL A   1      33.650  22.205  27.654  1.00  0.00    -0.051 Br
ENDBRANCH  16  18
ENDBRANCH  13  14
ENDBRANCH  10  13
ENDBRANCH   6  10
ENDBRANCH   3   6
ENDBRANCH   1   2
BRANCH   1  26
ATOM     26  C   UNL A   1      31.584  31.809  26.876  1.00  0.00     0.042 C 
BRANCH  26  27
ATOM     27  C   UNL A   1      32.772  32.668  27.301  1.00  0.00     0.118 C 
BRANCH  27  28
ATOM     28  N   UNL A   1      32.426  34.048  27.638  1.00  0.00    -0.352 N 
ATOM     29  C   UNL A   1      32.989  34.936  28.537  1.00  0.00     0.251 C 
ATOM     30  H   UNL A   1      31.659  34.408  27.137  1.00  0.00     0.163 HD
ATOM     31  O   UNL A   1      32.476  36.027  28.707  1.00  0.00    -0.269 OA
BRANCH  29  32
ATOM     32  C   UNL A   1      34.185  34.552  29.329  1.00  0.00     0.039 A 
ATOM     33  C   UNL A   1      34.013  34.087  30.638  1.00  0.00     0.014 A 
ATOM     34  C   UNL A   1      35.468  34.634  28.792  1.00  0.00     0.014 A 
ATOM     35  C   UNL A   1      35.110  33.596  31.356  1.00  0.00     0.010 A 
ATOM     36  C   UNL A   1      36.539  34.051  29.462  1.00  0.00     0.010 A 
ATOM     37  C   UNL A   1      36.372  33.516  30.748  1.00  0.00    -0.014 A 
BRANCH  37  38
ATOM     38  C   UNL A   1      37.533  32.869  31.415  1.00  0.00     0.031 A 
ATOM     39  C   UNL A   1      38.221  31.701  30.761  1.00  0.00     0.074 A 
ATOM     40  C   UNL A   1      37.895  33.253  32.656  1.00  0.00     0.049 A 
ATOM     41  N   UNL A   1      39.136  30.898  31.244  1.00  0.00    -0.248 NA
ATOM     42  C   UNL A   1      37.793  31.367  29.393  1.00  0.00     0.031 C 
ATOM     43  C   UNL A   1      37.273  34.331  33.426  1.00  0.00     0.029 A 
ATOM     44  N   UNL A   1      38.863  32.763  33.499  1.00  0.00    -0.354 N 
ATOM     45  C   UNL A   1      39.362  29.947  30.258  1.00  0.00     0.074 A 
ATOM     46  C   UNL A   1      38.456  30.243  29.169  1.00  0.00     0.031 C 
ATOM     47  C   UNL A   1      37.886  34.436  34.615  1.00  0.00     0.029 A 
ATOM     48  C   UNL A   1      38.915  33.405  34.713  1.00  0.00     0.049 A 
ATOM     49  H   UNL A   1      39.465  32.023  33.255  1.00  0.00     0.167 HD
ATOM     50  C   UNL A   1      40.260  28.934  30.249  1.00  0.00     0.037 A 
ATOM     51  C   UNL A   1      39.693  33.180  35.788  1.00  0.00     0.037 A 
ATOM     52  C   UNL A   1      41.196  28.675  31.310  1.00  0.00     0.049 A 
ATOM     53  C   UNL A   1      40.699  32.062  35.744  1.00  0.00     0.074 A 
ATOM     54  C   UNL A   1      42.204  27.727  31.360  1.00  0.00     0.029 A 
ATOM     55  N   UNL A   1      41.243  29.373  32.508  1.00  0.00    -0.354 N 
ATOM     56  N   UNL A   1      40.947  31.209  34.781  1.00  0.00    -0.248 NA
ATOM     57  C   UNL A   1      41.536  31.877  36.939  1.00  0.00     0.031 C 
ATOM     58  C   UNL A   1      42.837  27.828  32.604  1.00  0.00     0.029 A 
ATOM     59  C   UNL A   1      42.250  28.866  33.312  1.00  0.00     0.049 A 
ATOM     60  H   UNL A   1      40.648  30.119  32.750  1.00  0.00     0.167 HD
ATOM     61  C   UNL A   1      41.976  30.401  35.241  1.00  0.00     0.074 A 
ATOM     62  C   UNL A   1      42.321  30.877  36.565  1.00  0.00     0.031 C 
ATOM     63  C   UNL A   1      42.580  29.355  34.625  1.00  0.00     0.037 A 
BRANCH  50  64
ATOM     64  C   UNL A   1      40.282  28.037  29.045  1.00  0.00     0.064 A 
ATOM     65  C   UNL A   1      39.559  26.835  29.010  1.00  0.00     0.173 A 
ATOM     66  C   UNL A   1      41.012  28.396  27.902  1.00  0.00     0.173 A 
ATOM     67  F   UNL A   1      38.855  26.440  30.082  1.00  0.00    -0.203 F 
ATOM     68  C   UNL A   1      39.594  26.009  27.891  1.00  0.00     0.198 A 
ATOM     69  C   UNL A   1      41.020  27.582  26.772  1.00  0.00     0.198 A 
ATOM     70  F   UNL A   1      41.715  29.537  27.879  1.00  0.00    -0.203 F 
ATOM     71  F   UNL A   1      38.940  24.839  27.902  1.00  0.00    -0.200 F 
ATOM     72  C   UNL A   1      40.318  26.386  26.770  1.00  0.00     0.200 A 
ATOM     73  F   UNL A   1      41.712  27.954  25.686  1.00  0.00    -0.200 F 
ATOM     74  F   UNL A   1      40.349  25.591  25.691  1.00  0.00    -0.200 F 
ENDBRANCH  50  64
BRANCH  51  75
ATOM     75  C   UNL A   1      39.568  34.043  36.991  1.00  0.00     0.064 A 
ATOM     76  C   UNL A   1      40.236  35.273  37.060  1.00  0.00     0.173 A 
ATOM     77  C   UNL A   1      38.788  33.661  38.091  1.00  0.00     0.173 A 
ATOM     78  F   UNL A   1      41.013  35.671  36.041  1.00  0.00    -0.203 F 
ATOM     79  C   UNL A   1      40.142  36.082  38.191  1.00  0.00     0.198 A 
ATOM     80  C   UNL A   1      38.672  34.483  39.211  1.00  0.00     0.198 A 
ATOM     81  F   UNL A   1      38.125  32.495  38.073  1.00  0.00    -0.203 F 
ATOM     82  F   UNL A   1      40.825  37.234  38.247  1.00  0.00    -0.200 F 
ATOM     83  C   UNL A   1      39.356  35.689  39.263  1.00  0.00     0.200 A 
ATOM     84  F   UNL A   1      37.903  34.105  40.241  1.00  0.00    -0.200 F 
ATOM     85  F   UNL A   1      39.263  36.468  40.349  1.00  0.00    -0.200 F 
ENDBRANCH  51  75
BRANCH  63  86
ATOM     86  C   UNL A   1      43.690  28.670  35.366  1.00  0.00     0.064 A 
ATOM     87  C   UNL A   1      43.432  27.631  36.271  1.00  0.00     0.173 A 
ATOM     88  C   UNL A   1      45.026  29.030  35.137  1.00  0.00     0.173 A 
ATOM     89  F   UNL A   1      42.169  27.263  36.535  1.00  0.00    -0.203 F 
ATOM     90  C   UNL A   1      44.473  26.988  36.935  1.00  0.00     0.198 A 
ATOM     91  C   UNL A   1      46.065  28.368  35.783  1.00  0.00     0.198 A 
ATOM     92  F   UNL A   1      45.323  30.015  34.276  1.00  0.00    -0.203 F 
ATOM     93  F   UNL A   1      44.203  26.024  37.827  1.00  0.00    -0.200 F 
ATOM     94  C   UNL A   1      45.788  27.351  36.684  1.00  0.00     0.200 A 
ATOM     95  F   UNL A   1      47.336  28.711  35.531  1.00  0.00    -0.200 F 
ATOM     96  F   UNL A   1      46.789  26.726  37.319  1.00  0.00    -0.200 F 
ENDBRANCH  63  86
ENDBRANCH  37  38
ENDBRANCH  29  32
ENDBRANCH  27  28
ENDBRANCH  26  27
ENDBRANCH   1  26
TORSDOF 15
ENDMDL
MODEL 2
REMARK VINA RESULT:     -12.3      0.531      2.052
REMARK SMILES CC[C@@](C)([NH2+]CC(=O)Nc1ccc(Br)cc1F)C(=O)NCCCNC(=O)c1ccc(-c2c3nc(c(-c4c(F)c(F)c(F)c(F)c4F)c4ccc([nH]4)c(-c4c(F)c(F)c(F)c(F)c4F)c4nc(c(-c5c(F)c(F)c(F)c(F)c5F)c5ccc2[nH]5)C=C4)C=C3)cc1
REMARK SMILES IDX 21 1 20 2 18 3 19 4 3 6 4 7 2 8 1 9 5 10 6 13 7 14 8 15 9 16
REMARK SMILES IDX 10 18 11 19 16 20 12 21 15 22 17 23 13 24 14 25 22 26 23 27
REMARK SMILES IDX 24 28 25 29 26 31 27 32 28 33 89 34 29 35 88 36 30 37 31 38
REMARK SMILES IDX 32 39 82 40 33 41 87 42 81 43 83 44 34 45 86 46 80 47 79 48
REMARK SMILES IDX 35 50 67 51 47 52 66 53 48 54 51 55 65 56 84 57 49 58 50 59
REMARK SMILES IDX 64 61 85 62 52 63 36 64 37 65 45 66 38 67 39 68 43 69 46 70
REMARK SMILES IDX 40 71 41 72 44 73 42 74 68 75 69 76 77 77 70 78 71 79 75 80
REMARK SMILES IDX 78 81 72 82 73 83 76 84 74 85 53 86 54 87 62 88 55 89 56 90
REMARK SMILES IDX 60 91 63 92 57 93 58 94 61 95 59 96
REMARK H PARENT 20 5 5 11 5 12 9 17 24 30 83 49 51 60
REMARK Flexibility Score: inf
ROOT
ATOM      1  C   UNL A   1      31.973  30.470  26.210  1.00  0.00     0.118 C 
ENDROOT
BRANCH   1   2
ATOM      2  N   UNL A   1      31.635  30.298  24.795  1.00  0.00    -0.351 N 
ATOM      3  C   UNL A   1      30.676  29.495  24.201  1.00  0.00     0.281 C 
ATOM      4  O   UNL A   1      29.836  30.143  23.563  1.00  0.00    -0.268 OA
ATOM      5  H   UNL A   1      32.172  30.837  24.171  1.00  0.00     0.163 HD
BRANCH   3   6
ATOM      6  C   UNL A   1      30.797  27.892  24.039  1.00  0.00     0.172 C 
ATOM      7  C   UNL A   1      30.886  26.818  25.150  1.00  0.00     0.090 C 
BRANCH   6   8
ATOM      8  C   UNL A   1      29.420  27.520  23.334  1.00  0.00     0.075 C 
ATOM      9  C   UNL A   1      28.579  26.417  24.036  1.00  0.00     0.011 C 
ENDBRANCH   6   8
BRANCH   6  10
ATOM     10  N   UNL A   1      31.943  27.610  23.161  1.00  0.00    -0.326 N 
ATOM     11  H   UNL A   1      32.660  27.170  23.739  1.00  0.00     0.347 HD
ATOM     12  H   UNL A   1      32.168  28.521  22.759  1.00  0.00     0.347 HD
BRANCH  10  13
ATOM     13  C   UNL A   1      31.757  26.744  21.973  1.00  0.00     0.363 C 
BRANCH  13  14
ATOM     14  C   UNL A   1      32.723  25.629  21.480  1.00  0.00     0.279 C 
ATOM     15  O   UNL A   1      33.008  25.650  20.265  1.00  0.00    -0.268 OA
ATOM     16  N   UNL A   1      33.486  24.735  22.194  1.00  0.00    -0.319 N 
ATOM     17  H   UNL A   1      34.266  24.451  21.662  1.00  0.00     0.170 HD
BRANCH  16  18
ATOM     18  C   UNL A   1      33.498  24.097  23.459  1.00  0.00     0.077 A 
ATOM     19  C   UNL A   1      34.093  24.791  24.520  1.00  0.00     0.030 A 
ATOM     20  C   UNL A   1      33.185  22.751  23.709  1.00  0.00     0.147 A 
ATOM     21  C   UNL A   1      34.155  24.236  25.811  1.00  0.00     0.018 A 
ATOM     22  C   UNL A   1      33.205  22.197  24.992  1.00  0.00     0.057 A 
ATOM     23  F   UNL A   1      32.914  21.892  22.725  1.00  0.00    -0.205 F 
ATOM     24  C   UNL A   1      33.662  22.957  26.051  1.00  0.00     0.021 A 
ATOM     25  Br  UNL A   1      33.652  22.238  27.797  1.00  0.00    -0.051 Br
ENDBRANCH  16  18
ENDBRANCH  13  14
ENDBRANCH  10  13
ENDBRANCH   6  10
ENDBRANCH   3   6
ENDBRANCH   1   2
BRANCH   1  26
ATOM     26  C   UNL A   1      31.557  31.809  26.816  1.00  0.00     0.042 C 
BRANCH  26  27
ATOM     27  C   UNL A   1      32.730  32.636  27.336  1.00  0.00     0.118 C 
BRANCH  27  28
ATOM     28  N   UNL A   1      32.392  34.022  27.657  1.00  0.00    -0.352 N 
ATOM     29  C   UNL A   1      32.967  34.919  28.539  1.00  0.00     0.251 C 
ATOM     30  H   UNL A   1      31.622  34.378  27.159  1.00  0.00     0.163 HD
ATOM     31  O   UNL A   1      32.460  36.015  28.699  1.00  0.00    -0.269 OA
BRANCH  29  32
ATOM     32  C   UNL A   1      34.170  34.542  29.325  1.00  0.00     0.039 A 
ATOM     33  C   UNL A   1      34.008  34.100  30.643  1.00  0.00     0.014 A 
ATOM     34  C   UNL A   1      35.447  34.607  28.773  1.00  0.00     0.014 A 
ATOM     35  C   UNL A   1      35.110  33.615  31.358  1.00  0.00     0.010 A 
ATOM     36  C   UNL A   1      36.521  34.029  29.441  1.00  0.00     0.010 A 
ATOM     37  C   UNL A   1      36.365  33.517  30.738  1.00  0.00    -0.014 A 
BRANCH  37  38
ATOM     38  C   UNL A   1      37.530  32.874  31.404  1.00  0.00     0.031 A 
ATOM     39  C   UNL A   1      38.223  31.711  30.748  1.00  0.00     0.074 A 
ATOM     40  C   UNL A   1      37.891  33.259  32.644  1.00  0.00     0.049 A 
ATOM     41  N   UNL A   1      39.141  30.911  31.229  1.00  0.00    -0.248 NA
ATOM     42  C   UNL A   1      37.795  31.376  29.379  1.00  0.00     0.031 C 
ATOM     43  C   UNL A   1      37.264  34.333  33.416  1.00  0.00     0.029 A 
ATOM     44  N   UNL A   1      38.862  32.772  33.486  1.00  0.00    -0.354 N 
ATOM     45  C   UNL A   1      39.371  29.962  30.241  1.00  0.00     0.074 A 
ATOM     46  C   UNL A   1      38.463  30.255  29.154  1.00  0.00     0.031 C 
ATOM     47  C   UNL A   1      37.878  34.439  34.605  1.00  0.00     0.029 A 
ATOM     48  C   UNL A   1      38.911  33.413  34.701  1.00  0.00     0.049 A 
ATOM     49  H   UNL A   1      39.467  32.035  33.241  1.00  0.00     0.167 HD
ATOM     50  C   UNL A   1      40.274  28.953  30.230  1.00  0.00     0.037 A 
ATOM     51  C   UNL A   1      39.691  33.189  35.775  1.00  0.00     0.037 A 
ATOM     52  C   UNL A   1      41.211  28.697  31.291  1.00  0.00     0.049 A 
ATOM     53  C   UNL A   1      40.703  32.076  35.729  1.00  0.00     0.074 A 
ATOM     54  C   UNL A   1      42.224  27.753  31.339  1.00  0.00     0.029 A 
ATOM     55  N   UNL A   1      41.256  29.394  32.489  1.00  0.00    -0.354 N 
ATOM     56  N   UNL A   1      40.953  31.226  34.765  1.00  0.00    -0.248 NA
ATOM     57  C   UNL A   1      41.541  31.894  36.923  1.00  0.00     0.031 C 
ATOM     58  C   UNL A   1      42.857  27.856  32.583  1.00  0.00     0.029 A 
ATOM     59  C   UNL A   1      42.266  28.890  33.292  1.00  0.00     0.049 A 
ATOM     60  H   UNL A   1      40.658  30.136  32.733  1.00  0.00     0.167 HD
ATOM     61  C   UNL A   1      41.987  30.422  35.224  1.00  0.00     0.074 A 
ATOM     62  C   UNL A   1      42.330  30.898  36.547  1.00  0.00     0.031 C 
ATOM     63  C   UNL A   1      42.595  29.379  34.606  1.00  0.00     0.037 A 
BRANCH  50  64
ATOM     64  C   UNL A   1      40.299  28.058  29.026  1.00  0.00     0.064 A 
ATOM     65  C   UNL A   1      41.049  28.381  27.884  1.00  0.00     0.173 A 
ATOM     66  C   UNL A   1      39.585  26.849  29.020  1.00  0.00     0.173 A 
ATOM     67  F   UNL A   1      41.738  29.530  27.833  1.00  0.00    -0.203 F 
ATOM     68  C   UNL A   1      41.056  27.546  26.771  1.00  0.00     0.198 A 
ATOM     69  C   UNL A   1      39.620  26.002  27.916  1.00  0.00     0.198 A 
ATOM     70  F   UNL A   1      38.857  26.490  30.087  1.00  0.00    -0.203 F 
ATOM     71  F   UNL A   1      41.736  27.902  25.672  1.00  0.00    -0.200 F 
ATOM     72  C   UNL A   1      40.348  26.353  26.790  1.00  0.00     0.200 A 
ATOM     73  F   UNL A   1      38.943  24.845  27.941  1.00  0.00    -0.200 F 
ATOM     74  F   UNL A   1      40.358  25.549  25.718  1.00  0.00    -0.200 F 
ENDBRANCH  50  64
BRANCH  51  75
ATOM     75  C   UNL A   1      39.563  34.051  36.979  1.00  0.00     0.064 A 
ATOM     76  C   UNL A   1      38.786  33.643  38.071  1.00  0.00     0.173 A 
ATOM     77  C   UNL A   1      40.208  35.293  37.064  1.00  0.00     0.173 A 
ATOM     78  F   UNL A   1      38.132  32.473  38.026  1.00  0.00    -0.203 F 
ATOM     79  C   UNL A   1      38.643  34.452  39.197  1.00  0.00     0.198 A 
ATOM     80  C   UNL A   1      40.086  36.091  38.202  1.00  0.00     0.198 A 
ATOM     81  F   UNL A   1      40.967  35.728  36.047  1.00  0.00    -0.203 F 
ATOM     82  F   UNL A   1      37.860  34.056  40.209  1.00  0.00    -0.200 F 
ATOM     83  C   UNL A   1      39.298  35.672  39.263  1.00  0.00     0.200 A 
ATOM     84  F   UNL A   1      40.730  37.264  38.266  1.00  0.00    -0.200 F 
ATOM     85  F   UNL A   1      39.164  36.449  40.347  1.00  0.00    -0.200 F 
ENDBRANCH  51  75
BRANCH  63  86
ATOM     86  C   UNL A   1      43.708  28.698  35.345  1.00  0.00     0.064 A 
ATOM     87  C   UNL A   1      45.045  29.078  35.165  1.00  0.00     0.173 A 
ATOM     88  C   UNL A   1      43.428  27.685  36.274  1.00  0.00     0.173 A 
ATOM     89  F   UNL A   1      45.363  30.031  34.275  1.00  0.00    -0.203 F 
ATOM     90  C   UNL A   1      46.067  28.453  35.875  1.00  0.00     0.198 A 
ATOM     91  C   UNL A   1      44.449  27.081  37.001  1.00  0.00     0.198 A 
ATOM     92  F   UNL A   1      42.164  27.291  36.485  1.00  0.00    -0.203 F 
ATOM     93  F   UNL A   1      47.342  28.802  35.658  1.00  0.00    -0.200 F 
ATOM     94  C   UNL A   1      45.767  27.461  36.797  1.00  0.00     0.200 A 
ATOM     95  F   UNL A   1      44.157  26.131  37.901  1.00  0.00    -0.200 F 
ATOM     96  F   UNL A   1      46.751  26.866  37.486  1.00  0.00    -0.200 F 
ENDBRANCH  63  86
ENDBRANCH  37  38
ENDBRANCH  29  32
ENDBRANCH  27  28
ENDBRANCH  26  27
ENDBRANCH   1  26
TORSDOF 15
ENDMDL
MODEL 3
REMARK VINA RESULT:     -12.2      5.916     11.263
REMARK SMILES CC[C@@](C)([NH2+]CC(=O)Nc1ccc(Br)cc1F)C(=O)NCCCNC(=O)c1ccc(-c2c3nc(c(-c4c(F)c(F)c(F)c(F)c4F)c4ccc([nH]4)c(-c4c(F)c(F)c(F)c(F)c4F)c4nc(c(-c5c(F)c(F)c(F)c(F)c5F)c5ccc2[nH]5)C=C4)C=C3)cc1
REMARK SMILES IDX 21 1 20 2 18 3 19 4 3 6 4 7 2 8 1 9 5 10 6 13 7 14 8 15 9 16
REMARK SMILES IDX 10 18 11 19 16 20 12 21 15 22 17 23 13 24 14 25 22 26 23 27
REMARK SMILES IDX 24 28 25 29 26 31 27 32 28 33 89 34 29 35 88 36 30 37 31 38
REMARK SMILES IDX 32 39 82 40 33 41 87 42 81 43 83 44 34 45 86 46 80 47 79 48
REMARK SMILES IDX 35 50 67 51 47 52 66 53 48 54 51 55 65 56 84 57 49 58 50 59
REMARK SMILES IDX 64 61 85 62 52 63 36 64 37 65 45 66 38 67 39 68 43 69 46 70
REMARK SMILES IDX 40 71 41 72 44 73 42 74 68 75 69 76 77 77 70 78 71 79 75 80
REMARK SMILES IDX 78 81 72 82 73 83 76 84 74 85 53 86 54 87 62 88 55 89 56 90
REMARK SMILES IDX 60 91 63 92 57 93 58 94 61 95 59 96
REMARK H PARENT 20 5 5 11 5 12 9 17 24 30 83 49 51 60
REMARK Flexibility Score: inf
ROOT
ATOM      1  C   UNL A   1      36.892  21.689  24.480  1.00  0.00     0.118 C 
ENDROOT
BRANCH   1   2
ATOM      2  N   UNL A   1      35.834  22.212  25.348  1.00  0.00    -0.351 N 
ATOM      3  C   UNL A   1      34.756  21.562  25.925  1.00  0.00     0.281 C 
ATOM      4  O   UNL A   1      34.776  21.606  27.162  1.00  0.00    -0.268 OA
ATOM      5  H   UNL A   1      35.900  23.172  25.552  1.00  0.00     0.163 HD
BRANCH   3   6
ATOM      6  C   UNL A   1      33.432  21.098  25.124  1.00  0.00     0.172 C 
ATOM      7  C   UNL A   1      32.880  21.639  23.783  1.00  0.00     0.090 C 
BRANCH   6   8
ATOM      8  C   UNL A   1      33.778  19.590  24.749  1.00  0.00     0.075 C 
ATOM      9  C   UNL A   1      32.850  18.510  25.372  1.00  0.00     0.011 C 
ENDBRANCH   6   8
BRANCH   6  10
ATOM     10  N   UNL A   1      32.291  21.173  26.050  1.00  0.00    -0.326 N 
ATOM     11  H   UNL A   1      32.668  21.422  26.965  1.00  0.00     0.347 HD
ATOM     12  H   UNL A   1      31.852  20.256  25.965  1.00  0.00     0.347 HD
BRANCH  10  13
ATOM     13  C   UNL A   1      31.184  22.116  25.768  1.00  0.00     0.363 C 
BRANCH  13  14
ATOM     14  C   UNL A   1      30.701  23.277  26.686  1.00  0.00     0.279 C 
ATOM     15  O   UNL A   1      29.948  22.953  27.625  1.00  0.00    -0.268 OA
ATOM     16  N   UNL A   1      31.125  24.582  26.764  1.00  0.00    -0.319 N 
ATOM     17  H   UNL A   1      30.946  24.946  27.661  1.00  0.00     0.170 HD
BRANCH  16  18
ATOM     18  C   UNL A   1      31.741  25.567  25.950  1.00  0.00     0.077 A 
ATOM     19  C   UNL A   1      30.900  26.363  25.164  1.00  0.00     0.030 A 
ATOM     20  C   UNL A   1      33.114  25.672  25.676  1.00  0.00     0.147 A 
ATOM     21  C   UNL A   1      31.420  27.363  24.322  1.00  0.00     0.018 A 
ATOM     22  C   UNL A   1      33.648  26.684  24.874  1.00  0.00     0.057 A 
ATOM     23  F   UNL A   1      33.995  24.768  26.110  1.00  0.00    -0.205 F 
ATOM     24  C   UNL A   1      32.796  27.552  24.221  1.00  0.00     0.021 A 
ATOM     25  Br  UNL A   1      33.503  28.952  23.170  1.00  0.00    -0.051 Br
ENDBRANCH  16  18
ENDBRANCH  13  14
ENDBRANCH  10  13
ENDBRANCH   6  10
ENDBRANCH   3   6
ENDBRANCH   1   2
BRANCH   1  26
ATOM     26  C   UNL A   1      37.590  20.433  24.997  1.00  0.00     0.042 C 
BRANCH  26  27
ATOM     27  C   UNL A   1      38.870  20.721  25.779  1.00  0.00     0.118 C 
BRANCH  27  28
ATOM     28  N   UNL A   1      39.790  19.588  25.864  1.00  0.00    -0.352 N 
ATOM     29  C   UNL A   1      41.147  19.533  26.126  1.00  0.00     0.251 C 
ATOM     30  H   UNL A   1      39.370  18.711  25.707  1.00  0.00     0.163 HD
ATOM     31  O   UNL A   1      41.728  18.465  26.068  1.00  0.00    -0.269 OA
BRANCH  29  32
ATOM     32  C   UNL A   1      41.908  20.771  26.432  1.00  0.00     0.039 A 
ATOM     33  C   UNL A   1      42.324  21.591  25.377  1.00  0.00     0.014 A 
ATOM     34  C   UNL A   1      42.202  21.137  27.744  1.00  0.00     0.014 A 
ATOM     35  C   UNL A   1      42.926  22.826  25.646  1.00  0.00     0.010 A 
ATOM     36  C   UNL A   1      42.702  22.406  28.015  1.00  0.00     0.010 A 
ATOM     37  C   UNL A   1      43.061  23.271  26.970  1.00  0.00    -0.014 A 
BRANCH  37  38
ATOM     38  C   UNL A   1      43.557  24.634  27.301  1.00  0.00     0.031 A 
ATOM     39  C   UNL A   1      42.606  25.672  27.833  1.00  0.00     0.074 A 
ATOM     40  C   UNL A   1      44.831  24.972  27.017  1.00  0.00     0.049 A 
ATOM     41  N   UNL A   1      42.797  26.952  28.026  1.00  0.00    -0.248 NA
ATOM     42  C   UNL A   1      41.244  25.214  28.151  1.00  0.00     0.031 C 
ATOM     43  C   UNL A   1      45.839  24.079  26.445  1.00  0.00     0.029 A 
ATOM     44  N   UNL A   1      45.490  26.170  27.151  1.00  0.00    -0.354 N 
ATOM     45  C   UNL A   1      41.573  27.456  28.450  1.00  0.00     0.074 A 
ATOM     46  C   UNL A   1      40.635  26.355  28.439  1.00  0.00     0.031 C 
ATOM     47  C   UNL A   1      46.992  24.750  26.297  1.00  0.00     0.029 A 
ATOM     48  C   UNL A   1      46.795  26.133  26.720  1.00  0.00     0.049 A 
ATOM     49  H   UNL A   1      45.069  26.978  27.521  1.00  0.00     0.167 HD
ATOM     50  C   UNL A   1      41.265  28.717  28.836  1.00  0.00     0.037 A 
ATOM     51  C   UNL A   1      47.724  27.106  26.661  1.00  0.00     0.037 A 
ATOM     52  C   UNL A   1      42.213  29.798  28.895  1.00  0.00     0.049 A 
ATOM     53  C   UNL A   1      47.362  28.494  27.118  1.00  0.00     0.074 A 
ATOM     54  C   UNL A   1      42.021  31.090  29.355  1.00  0.00     0.029 A 
ATOM     55  N   UNL A   1      43.536  29.709  28.489  1.00  0.00    -0.354 N 
ATOM     56  N   UNL A   1      46.220  28.942  27.577  1.00  0.00    -0.248 NA
ATOM     57  C   UNL A   1      48.423  29.510  27.051  1.00  0.00     0.031 C 
ATOM     58  C   UNL A   1      43.219  31.794  29.191  1.00  0.00     0.029 A 
ATOM     59  C   UNL A   1      44.168  30.929  28.669  1.00  0.00     0.049 A 
ATOM     60  H   UNL A   1      43.962  28.900  28.126  1.00  0.00     0.167 HD
ATOM     61  C   UNL A   1      46.426  30.283  27.870  1.00  0.00     0.074 A 
ATOM     62  C   UNL A   1      47.810  30.571  27.555  1.00  0.00     0.031 C 
ATOM     63  C   UNL A   1      45.547  31.195  28.353  1.00  0.00     0.037 A 
BRANCH  50  64
ATOM     64  C   UNL A   1      39.845  28.991  29.238  1.00  0.00     0.064 A 
ATOM     65  C   UNL A   1      38.892  29.440  28.311  1.00  0.00     0.173 A 
ATOM     66  C   UNL A   1      39.424  28.777  30.559  1.00  0.00     0.173 A 
ATOM     67  F   UNL A   1      39.246  29.673  27.038  1.00  0.00    -0.203 F 
ATOM     68  C   UNL A   1      37.580  29.699  28.699  1.00  0.00     0.198 A 
ATOM     69  C   UNL A   1      38.104  29.007  30.937  1.00  0.00     0.198 A 
ATOM     70  F   UNL A   1      40.293  28.343  31.484  1.00  0.00    -0.203 F 
ATOM     71  F   UNL A   1      36.702  30.180  27.808  1.00  0.00    -0.200 F 
ATOM     72  C   UNL A   1      37.185  29.475  30.009  1.00  0.00     0.200 A 
ATOM     73  F   UNL A   1      37.721  28.780  32.201  1.00  0.00    -0.200 F 
ATOM     74  F   UNL A   1      35.921  29.721  30.381  1.00  0.00    -0.200 F 
ENDBRANCH  50  64
BRANCH  51  75
ATOM     75  C   UNL A   1      49.092  26.800  26.169  1.00  0.00     0.064 A 
ATOM     76  C   UNL A   1      50.069  26.301  27.041  1.00  0.00     0.173 A 
ATOM     77  C   UNL A   1      49.452  27.000  24.829  1.00  0.00     0.173 A 
ATOM     78  F   UNL A   1      49.778  26.116  28.337  1.00  0.00    -0.203 F 
ATOM     79  C   UNL A   1      51.361  26.029  26.596  1.00  0.00     0.198 A 
ATOM     80  C   UNL A   1      50.737  26.702  24.378  1.00  0.00     0.198 A 
ATOM     81  F   UNL A   1      48.552  27.471  23.954  1.00  0.00    -0.203 F 
ATOM     82  F   UNL A   1      52.288  25.593  27.460  1.00  0.00    -0.200 F 
ATOM     83  C   UNL A   1      51.692  26.224  25.263  1.00  0.00     0.200 A 
ATOM     84  F   UNL A   1      51.050  26.881  23.088  1.00  0.00    -0.200 F 
ATOM     85  F   UNL A   1      52.934  25.960  24.834  1.00  0.00    -0.200 F 
ENDBRANCH  51  75
BRANCH  63  86
ATOM     86  C   UNL A   1      46.062  32.584  28.591  1.00  0.00     0.064 A 
ATOM     87  C   UNL A   1      45.974  33.575  27.604  1.00  0.00     0.173 A 
ATOM     88  C   UNL A   1      46.609  32.935  29.834  1.00  0.00     0.173 A 
ATOM     89  F   UNL A   1      45.474  33.282  26.394  1.00  0.00    -0.203 F 
ATOM     90  C   UNL A   1      46.435  34.867  27.847  1.00  0.00     0.198 A 
ATOM     91  C   UNL A   1      47.044  34.233  30.082  1.00  0.00     0.198 A 
ATOM     92  F   UNL A   1      46.709  32.023  30.812  1.00  0.00    -0.203 F 
ATOM     93  F   UNL A   1      46.381  35.789  26.876  1.00  0.00    -0.200 F 
ATOM     94  C   UNL A   1      46.962  35.196  29.087  1.00  0.00     0.200 A 
ATOM     95  F   UNL A   1      47.542  34.554  31.285  1.00  0.00    -0.200 F 
ATOM     96  F   UNL A   1      47.398  36.442  29.322  1.00  0.00    -0.200 F 
ENDBRANCH  63  86
ENDBRANCH  37  38
ENDBRANCH  29  32
ENDBRANCH  27  28
ENDBRANCH  26  27
ENDBRANCH   1  26
TORSDOF 15
ENDMDL
