MODEL 1
REMARK VINA RESULT:     -12.4      0.000      0.000
REMARK SMILES [NH3+]C[C@@H]1CC[C@H](C(=O)N[C@@H](Cc2ccccc2)C(=O)NCCCNC(=O)c2ccc(-c3c4nc(c(-c5c(F)c(F)c(F)c(F)c5F)c5ccc([nH]5)c(-c5c(F)c(F)c(F)c(F)c5F)c5nc(c(-c6c(F)c(F)c(F)c(F)c6F)c6ccc3[nH]6)C=C5)C=C4)cc2)O1
REMARK SMILES IDX 21 1 20 2 18 3 19 4 10 6 9 7 7 8 8 9 6 11 3 12 4 13 90 14
REMARK SMILES IDX 5 15 2 16 1 17 11 21 12 22 13 23 17 24 14 25 16 26 15 27
REMARK SMILES IDX 22 28 23 29 24 30 25 31 26 33 27 34 28 35 89 36 29 37 88 38
REMARK SMILES IDX 30 39 31 40 32 41 82 42 33 43 87 44 81 45 83 46 34 47 86 48
REMARK SMILES IDX 80 49 79 50 35 52 67 53 47 54 66 55 48 56 51 57 65 58 84 59
REMARK SMILES IDX 49 60 50 61 64 63 85 64 52 65 36 66 37 67 45 68 38 69 39 70
REMARK SMILES IDX 43 71 46 72 40 73 41 74 44 75 42 76 68 77 69 78 77 79 70 80
REMARK SMILES IDX 71 81 75 82 78 83 72 84 73 85 76 86 74 87 53 88 54 89 62 90
REMARK SMILES IDX 55 91 56 92 60 93 63 94 57 95 58 96 61 97 59 98
REMARK H PARENT 20 5 9 10 1 18 1 19 1 20 24 32 83 51 51 62
REMARK Flexibility Score: inf
ROOT
ATOM      1  C   UNL A   1      31.962  29.566  25.481  1.00  0.00     0.117 C 
ENDROOT
BRANCH   1   2
ATOM      2  N   UNL A   1      33.111  29.630  24.612  1.00  0.00    -0.354 N 
ATOM      3  C   UNL A   1      33.543  28.640  23.780  1.00  0.00     0.242 C 
ATOM      4  O   UNL A   1      33.978  28.994  22.679  1.00  0.00    -0.273 OA
ATOM      5  H   UNL A   1      33.632  30.467  24.619  1.00  0.00     0.163 HD
BRANCH   3   6
ATOM      6  C   UNL A   1      33.371  27.139  24.108  1.00  0.00     0.175 C 
BRANCH   6   7
ATOM      7  N   UNL A   1      33.593  26.187  23.013  1.00  0.00    -0.342 N 
ATOM      8  C   UNL A   1      32.715  25.658  22.117  1.00  0.00     0.249 C 
ATOM      9  O   UNL A   1      33.167  24.865  21.285  1.00  0.00    -0.272 OA
ATOM     10  H   UNL A   1      34.524  25.884  22.911  1.00  0.00     0.164 HD
BRANCH   8  11
ATOM     11  C   UNL A   1      31.217  25.993  22.157  1.00  0.00     0.207 C 
ATOM     12  C   UNL A   1      29.871  27.846  22.542  1.00  0.00     0.174 C 
ATOM     13  C   UNL A   1      29.887  27.082  23.856  1.00  0.00     0.041 C 
ATOM     14  O   UNL A   1      30.986  27.350  21.782  1.00  0.00    -0.359 OA
ATOM     15  C   UNL A   1      30.546  25.761  23.505  1.00  0.00     0.045 C 
BRANCH  12  16
ATOM     16  C   UNL A   1      30.006  29.369  22.700  1.00  0.00     0.291 C 
BRANCH  16  17
ATOM     17  N   UNL A   1      30.949  29.932  21.724  1.00  0.00    -0.355 N 
ATOM     18  H   UNL A   1      30.530  30.747  21.276  1.00  0.00     0.344 HD
ATOM     19  H   UNL A   1      31.166  29.229  21.017  1.00  0.00     0.344 HD
ATOM     20  H   UNL A   1      31.807  30.210  22.201  1.00  0.00     0.344 HD
ENDBRANCH  16  17
ENDBRANCH  12  16
ENDBRANCH   8  11
ENDBRANCH   6   7
BRANCH   6  21
ATOM     21  C   UNL A   1      34.052  26.708  25.423  1.00  0.00     0.070 C 
BRANCH  21  22
ATOM     22  C   UNL A   1      33.994  25.234  25.739  1.00  0.00    -0.045 A 
ATOM     23  C   UNL A   1      32.801  24.667  26.211  1.00  0.00     0.004 A 
ATOM     24  C   UNL A   1      35.140  24.430  25.645  1.00  0.00     0.004 A 
ATOM     25  C   UNL A   1      32.772  23.341  26.646  1.00  0.00     0.000 A 
ATOM     26  C   UNL A   1      35.112  23.110  26.100  1.00  0.00     0.000 A 
ATOM     27  C   UNL A   1      33.933  22.570  26.610  1.00  0.00     0.000 A 
ENDBRANCH  21  22
ENDBRANCH   6  21
ENDBRANCH   3   6
ENDBRANCH   1   2
BRANCH   1  28
ATOM     28  C   UNL A   1      31.611  30.862  26.163  1.00  0.00     0.042 C 
BRANCH  28  29
ATOM     29  C   UNL A   1      32.612  31.254  27.231  1.00  0.00     0.118 C 
BRANCH  29  30
ATOM     30  N   UNL A   1      32.845  32.698  27.316  1.00  0.00    -0.352 N 
ATOM     31  C   UNL A   1      33.885  33.413  27.857  1.00  0.00     0.251 C 
ATOM     32  H   UNL A   1      32.135  33.249  26.914  1.00  0.00     0.163 HD
ATOM     33  O   UNL A   1      33.802  34.634  27.971  1.00  0.00    -0.269 OA
BRANCH  31  34
ATOM     34  C   UNL A   1      35.088  32.707  28.339  1.00  0.00     0.039 A 
ATOM     35  C   UNL A   1      36.317  33.368  28.364  1.00  0.00     0.014 A 
ATOM     36  C   UNL A   1      34.988  31.401  28.810  1.00  0.00     0.014 A 
ATOM     37  C   UNL A   1      37.418  32.745  28.954  1.00  0.00     0.010 A 
ATOM     38  C   UNL A   1      36.026  30.857  29.545  1.00  0.00     0.010 A 
ATOM     39  C   UNL A   1      37.266  31.506  29.598  1.00  0.00    -0.014 A 
BRANCH  39  40
ATOM     40  C   UNL A   1      38.391  30.840  30.297  1.00  0.00     0.031 A 
ATOM     41  C   UNL A   1      38.676  31.172  31.739  1.00  0.00     0.074 A 
ATOM     42  C   UNL A   1      39.208  30.016  29.615  1.00  0.00     0.049 A 
ATOM     43  N   UNL A   1      39.652  30.761  32.507  1.00  0.00    -0.248 NA
ATOM     44  C   UNL A   1      37.782  32.146  32.386  1.00  0.00     0.031 C 
ATOM     45  C   UNL A   1      39.103  29.706  28.189  1.00  0.00     0.029 A 
ATOM     46  N   UNL A   1      40.299  29.295  30.031  1.00  0.00    -0.354 N 
ATOM     47  C   UNL A   1      39.505  31.454  33.701  1.00  0.00     0.074 A 
ATOM     48  C   UNL A   1      38.408  32.377  33.527  1.00  0.00     0.031 C 
ATOM     49  C   UNL A   1      40.062  28.827  27.857  1.00  0.00     0.029 A 
ATOM     50  C   UNL A   1      40.865  28.534  29.040  1.00  0.00     0.049 A 
ATOM     51  H   UNL A   1      40.643  29.321  30.953  1.00  0.00     0.167 HD
ATOM     52  C   UNL A   1      40.189  31.301  34.860  1.00  0.00     0.037 A 
ATOM     53  C   UNL A   1      41.909  27.686  29.085  1.00  0.00     0.037 A 
ATOM     54  C   UNL A   1      41.236  30.335  35.041  1.00  0.00     0.049 A 
ATOM     55  C   UNL A   1      42.603  27.463  30.401  1.00  0.00     0.074 A 
ATOM     56  C   UNL A   1      41.934  30.020  36.192  1.00  0.00     0.029 A 
ATOM     57  N   UNL A   1      41.731  29.519  34.033  1.00  0.00    -0.354 N 
ATOM     58  N   UNL A   1      42.389  28.044  31.556  1.00  0.00    -0.248 NA
ATOM     59  C   UNL A   1      43.667  26.451  30.425  1.00  0.00     0.031 C 
ATOM     60  C   UNL A   1      42.877  29.037  35.872  1.00  0.00     0.029 A 
ATOM     61  C   UNL A   1      42.736  28.708  34.532  1.00  0.00     0.049 A 
ATOM     62  H   UNL A   1      41.414  29.517  33.100  1.00  0.00     0.167 HD
ATOM     63  C   UNL A   1      43.275  27.460  32.449  1.00  0.00     0.074 A 
ATOM     64  C   UNL A   1      44.018  26.464  31.704  1.00  0.00     0.031 C 
ATOM     65  C   UNL A   1      43.460  27.724  33.766  1.00  0.00     0.037 A 
BRANCH  52  66
ATOM     66  C   UNL A   1      39.800  32.188  36.009  1.00  0.00     0.064 A 
ATOM     67  C   UNL A   1      38.710  31.884  36.842  1.00  0.00     0.173 A 
ATOM     68  C   UNL A   1      40.510  33.370  36.270  1.00  0.00     0.173 A 
ATOM     69  F   UNL A   1      37.987  30.773  36.629  1.00  0.00    -0.203 F 
ATOM     70  C   UNL A   1      38.312  32.755  37.852  1.00  0.00     0.198 A 
ATOM     71  C   UNL A   1      40.132  34.220  37.307  1.00  0.00     0.198 A 
ATOM     72  F   UNL A   1      41.563  33.708  35.512  1.00  0.00    -0.203 F 
ATOM     73  F   UNL A   1      37.218  32.481  38.577  1.00  0.00    -0.200 F 
ATOM     74  C   UNL A   1      39.024  33.920  38.086  1.00  0.00     0.200 A 
ATOM     75  F   UNL A   1      40.829  35.340  37.541  1.00  0.00    -0.200 F 
ATOM     76  F   UNL A   1      38.636  34.761  39.054  1.00  0.00    -0.200 F 
ENDBRANCH  52  66
BRANCH  53  77
ATOM     77  C   UNL A   1      42.303  26.945  27.860  1.00  0.00     0.064 A 
ATOM     78  C   UNL A   1      43.253  27.475  26.974  1.00  0.00     0.173 A 
ATOM     79  C   UNL A   1      41.783  25.675  27.576  1.00  0.00     0.173 A 
ATOM     80  F   UNL A   1      43.771  28.692  27.197  1.00  0.00    -0.203 F 
ATOM     81  C   UNL A   1      43.659  26.765  25.846  1.00  0.00     0.198 A 
ATOM     82  C   UNL A   1      42.208  24.955  26.461  1.00  0.00     0.198 A 
ATOM     83  F   UNL A   1      40.883  25.120  28.401  1.00  0.00    -0.203 F 
ATOM     84  F   UNL A   1      44.549  27.305  25.002  1.00  0.00    -0.200 F 
ATOM     85  C   UNL A   1      43.143  25.503  25.595  1.00  0.00     0.200 A 
ATOM     86  F   UNL A   1      41.721  23.729  26.232  1.00  0.00    -0.200 F 
ATOM     87  F   UNL A   1      43.546  24.814  24.519  1.00  0.00    -0.200 F 
ENDBRANCH  53  77
BRANCH  65  88
ATOM     88  C   UNL A   1      44.491  26.911  34.490  1.00  0.00     0.064 A 
ATOM     89  C   UNL A   1      45.814  27.355  34.624  1.00  0.00     0.173 A 
ATOM     90  C   UNL A   1      44.135  25.700  35.103  1.00  0.00     0.173 A 
ATOM     91  F   UNL A   1      46.203  28.501  34.043  1.00  0.00    -0.203 F 
ATOM     92  C   UNL A   1      46.750  26.604  35.327  1.00  0.00     0.198 A 
ATOM     93  C   UNL A   1      45.067  24.968  35.831  1.00  0.00     0.198 A 
ATOM     94  F   UNL A   1      42.879  25.238  35.012  1.00  0.00    -0.203 F 
ATOM     95  F   UNL A   1      48.020  27.026  35.407  1.00  0.00    -0.200 F 
ATOM     96  C   UNL A   1      46.375  25.416  35.937  1.00  0.00     0.200 A 
ATOM     97  F   UNL A   1      44.700  23.827  36.431  1.00  0.00    -0.200 F 
ATOM     98  F   UNL A   1      47.277  24.700  36.623  1.00  0.00    -0.200 F 
ENDBRANCH  65  88
ENDBRANCH  39  40
ENDBRANCH  31  34
ENDBRANCH  29  30
ENDBRANCH  28  29
ENDBRANCH   1  28
TORSDOF 16
ENDMDL
MODEL 2
REMARK VINA RESULT:     -12.4      1.459      3.426
REMARK SMILES [NH3+]C[C@@H]1CC[C@H](C(=O)N[C@@H](Cc2ccccc2)C(=O)NCCCNC(=O)c2ccc(-c3c4nc(c(-c5c(F)c(F)c(F)c(F)c5F)c5ccc([nH]5)c(-c5c(F)c(F)c(F)c(F)c5F)c5nc(c(-c6c(F)c(F)c(F)c(F)c6F)c6ccc3[nH]6)C=C5)C=C4)cc2)O1
REMARK SMILES IDX 21 1 20 2 18 3 19 4 10 6 9 7 7 8 8 9 6 11 3 12 4 13 90 14
REMARK SMILES IDX 5 15 2 16 1 17 11 21 12 22 13 23 17 24 14 25 16 26 15 27
REMARK SMILES IDX 22 28 23 29 24 30 25 31 26 33 27 34 28 35 89 36 29 37 88 38
REMARK SMILES IDX 30 39 31 40 32 41 82 42 33 43 87 44 81 45 83 46 34 47 86 48
REMARK SMILES IDX 80 49 79 50 35 52 67 53 47 54 66 55 48 56 51 57 65 58 84 59
REMARK SMILES IDX 49 60 50 61 64 63 85 64 52 65 36 66 37 67 45 68 38 69 39 70
REMARK SMILES IDX 43 71 46 72 40 73 41 74 44 75 42 76 68 77 69 78 77 79 70 80
REMARK SMILES IDX 71 81 75 82 78 83 72 84 73 85 76 86 74 87 53 88 54 89 62 90
REMARK SMILES IDX 55 91 56 92 60 93 63 94 57 95 58 96 61 97 59 98
REMARK H PARENT 20 5 9 10 1 18 1 19 1 20 24 32 83 51 51 62
REMARK Flexibility Score: inf
ROOT
ATOM      1  C   UNL A   1      31.925  27.506  26.412  1.00  0.00     0.117 C 
ENDROOT
BRANCH   1   2
ATOM      2  N   UNL A   1      30.775  26.738  26.824  1.00  0.00    -0.354 N 
ATOM      3  C   UNL A   1      30.191  25.730  26.117  1.00  0.00     0.242 C 
ATOM      4  O   UNL A   1      29.782  24.764  26.770  1.00  0.00    -0.273 OA
ATOM      5  H   UNL A   1      30.375  26.964  27.695  1.00  0.00     0.163 HD
BRANCH   3   6
ATOM      6  C   UNL A   1      30.162  25.699  24.572  1.00  0.00     0.175 C 
BRANCH   6   7
ATOM      7  N   UNL A   1      30.581  24.452  23.921  1.00  0.00    -0.342 N 
ATOM      8  C   UNL A   1      31.786  23.817  23.933  1.00  0.00     0.249 C 
ATOM      9  O   UNL A   1      31.875  22.765  23.291  1.00  0.00    -0.272 OA
ATOM     10  H   UNL A   1      29.881  24.005  23.393  1.00  0.00     0.164 HD
BRANCH   8  11
ATOM     11  C   UNL A   1      32.998  24.394  24.676  1.00  0.00     0.207 C 
ATOM     12  C   UNL A   1      35.292  24.044  24.775  1.00  0.00     0.174 C 
ATOM     13  C   UNL A   1      34.722  23.303  25.973  1.00  0.00     0.041 C 
ATOM     14  O   UNL A   1      34.184  24.279  23.890  1.00  0.00    -0.359 OA
ATOM     15  C   UNL A   1      33.276  23.761  26.034  1.00  0.00     0.045 C 
BRANCH  12  16
ATOM     16  C   UNL A   1      36.384  23.270  24.020  1.00  0.00     0.291 C 
BRANCH  16  17
ATOM     17  N   UNL A   1      37.702  23.446  24.645  1.00  0.00    -0.355 N 
ATOM     18  H   UNL A   1      38.351  23.846  23.966  1.00  0.00     0.344 HD
ATOM     19  H   UNL A   1      38.054  22.541  24.958  1.00  0.00     0.344 HD
ATOM     20  H   UNL A   1      37.618  24.074  25.445  1.00  0.00     0.344 HD
ENDBRANCH  16  17
ENDBRANCH  12  16
ENDBRANCH   8  11
ENDBRANCH   6   7
BRANCH   6  21
ATOM     21  C   UNL A   1      28.873  26.288  23.962  1.00  0.00     0.070 C 
BRANCH  21  22
ATOM     22  C   UNL A   1      29.019  27.630  23.289  1.00  0.00    -0.045 A 
ATOM     23  C   UNL A   1      30.273  28.038  22.811  1.00  0.00     0.004 A 
ATOM     24  C   UNL A   1      27.935  28.515  23.201  1.00  0.00     0.004 A 
ATOM     25  C   UNL A   1      30.455  29.332  22.319  1.00  0.00     0.000 A 
ATOM     26  C   UNL A   1      28.125  29.815  22.727  1.00  0.00     0.000 A 
ATOM     27  C   UNL A   1      29.385  30.226  22.299  1.00  0.00     0.000 A 
ENDBRANCH  21  22
ENDBRANCH   6  21
ENDBRANCH   3   6
ENDBRANCH   1   2
BRANCH   1  28
ATOM     28  C   UNL A   1      31.637  28.946  26.077  1.00  0.00     0.042 C 
BRANCH  28  29
ATOM     29  C   UNL A   1      32.892  29.791  25.989  1.00  0.00     0.118 C 
BRANCH  29  30
ATOM     30  N   UNL A   1      32.701  31.173  26.433  1.00  0.00    -0.352 N 
ATOM     31  C   UNL A   1      33.432  31.951  27.298  1.00  0.00     0.251 C 
ATOM     32  H   UNL A   1      31.916  31.621  26.043  1.00  0.00     0.163 HD
ATOM     33  O   UNL A   1      33.000  33.041  27.663  1.00  0.00    -0.269 OA
BRANCH  31  34
ATOM     34  C   UNL A   1      34.722  31.457  27.817  1.00  0.00     0.039 A 
ATOM     35  C   UNL A   1      35.782  32.346  28.004  1.00  0.00     0.014 A 
ATOM     36  C   UNL A   1      34.866  30.116  28.164  1.00  0.00     0.014 A 
ATOM     37  C   UNL A   1      36.947  31.900  28.630  1.00  0.00     0.010 A 
ATOM     38  C   UNL A   1      35.944  29.721  28.935  1.00  0.00     0.010 A 
ATOM     39  C   UNL A   1      37.015  30.597  29.149  1.00  0.00    -0.014 A 
BRANCH  39  40
ATOM     40  C   UNL A   1      38.206  30.104  29.882  1.00  0.00     0.031 A 
ATOM     41  C   UNL A   1      38.452  30.556  31.298  1.00  0.00     0.074 A 
ATOM     42  C   UNL A   1      39.109  29.333  29.248  1.00  0.00     0.049 A 
ATOM     43  N   UNL A   1      39.467  30.304  32.084  1.00  0.00    -0.248 NA
ATOM     44  C   UNL A   1      37.456  31.466  31.888  1.00  0.00     0.031 C 
ATOM     45  C   UNL A   1      39.039  28.923  27.845  1.00  0.00     0.029 A 
ATOM     46  N   UNL A   1      40.272  28.763  29.701  1.00  0.00    -0.354 N 
ATOM     47  C   UNL A   1      39.244  31.051  33.233  1.00  0.00     0.074 A 
ATOM     48  C   UNL A   1      38.053  31.835  33.008  1.00  0.00     0.031 C 
ATOM     49  C   UNL A   1      40.089  28.135  27.563  1.00  0.00     0.029 A 
ATOM     50  C   UNL A   1      40.918  28.007  28.757  1.00  0.00     0.049 A 
ATOM     51  H   UNL A   1      40.610  28.885  30.618  1.00  0.00     0.167 HD
ATOM     52  C   UNL A   1      39.940  31.047  34.395  1.00  0.00     0.037 A 
ATOM     53  C   UNL A   1      42.049  27.283  28.849  1.00  0.00     0.037 A 
ATOM     54  C   UNL A   1      41.087  30.215  34.630  1.00  0.00     0.049 A 
ATOM     55  C   UNL A   1      42.762  27.221  30.171  1.00  0.00     0.074 A 
ATOM     56  C   UNL A   1      41.814  30.052  35.794  1.00  0.00     0.029 A 
ATOM     57  N   UNL A   1      41.669  29.396  33.672  1.00  0.00    -0.354 N 
ATOM     58  N   UNL A   1      42.485  27.847  31.289  1.00  0.00    -0.248 NA
ATOM     59  C   UNL A   1      43.931  26.335  30.252  1.00  0.00     0.031 C 
ATOM     60  C   UNL A   1      42.859  29.160  35.530  1.00  0.00     0.029 A 
ATOM     61  C   UNL A   1      42.755  28.733  34.215  1.00  0.00     0.049 A 
ATOM     62  H   UNL A   1      41.354  29.300  32.744  1.00  0.00     0.167 HD
ATOM     63  C   UNL A   1      43.429  27.422  32.212  1.00  0.00     0.074 A 
ATOM     64  C   UNL A   1      44.278  26.467  31.526  1.00  0.00     0.031 C 
ATOM     65  C   UNL A   1      43.583  27.787  33.508  1.00  0.00     0.037 A 
BRANCH  52  66
ATOM     66  C   UNL A   1      39.456  31.957  35.488  1.00  0.00     0.064 A 
ATOM     67  C   UNL A   1      39.929  33.273  35.619  1.00  0.00     0.173 A 
ATOM     68  C   UNL A   1      38.524  31.504  36.433  1.00  0.00     0.173 A 
ATOM     69  F   UNL A   1      40.832  33.756  34.751  1.00  0.00    -0.203 F 
ATOM     70  C   UNL A   1      39.532  34.078  36.683  1.00  0.00     0.198 A 
ATOM     71  C   UNL A   1      38.100  32.325  37.476  1.00  0.00     0.198 A 
ATOM     72  F   UNL A   1      38.032  30.258  36.355  1.00  0.00    -0.203 F 
ATOM     73  F   UNL A   1      40.064  35.300  36.831  1.00  0.00    -0.200 F 
ATOM     74  C   UNL A   1      38.616  33.605  37.609  1.00  0.00     0.200 A 
ATOM     75  F   UNL A   1      37.204  31.871  38.363  1.00  0.00    -0.200 F 
ATOM     76  F   UNL A   1      38.240  34.378  38.637  1.00  0.00    -0.200 F 
ENDBRANCH  52  66
BRANCH  53  77
ATOM     77  C   UNL A   1      42.523  26.514  27.670  1.00  0.00     0.064 A 
ATOM     78  C   UNL A   1      43.477  27.054  26.796  1.00  0.00     0.173 A 
ATOM     79  C   UNL A   1      42.075  25.209  27.423  1.00  0.00     0.173 A 
ATOM     80  F   UNL A   1      43.926  28.303  26.984  1.00  0.00    -0.203 F 
ATOM     81  C   UNL A   1      43.957  26.319  25.713  1.00  0.00     0.198 A 
ATOM     82  C   UNL A   1      42.575  24.466  26.355  1.00  0.00     0.198 A 
ATOM     83  F   UNL A   1      41.173  24.643  28.240  1.00  0.00    -0.203 F 
ATOM     84  F   UNL A   1      44.850  26.868  24.878  1.00  0.00    -0.200 F 
ATOM     85  C   UNL A   1      43.513  25.024  25.498  1.00  0.00     0.200 A 
ATOM     86  F   UNL A   1      42.156  23.209  26.161  1.00  0.00    -0.200 F 
ATOM     87  F   UNL A   1      43.987  24.312  24.467  1.00  0.00    -0.200 F 
ENDBRANCH  53  77
BRANCH  65  88
ATOM     88  C   UNL A   1      44.697  27.139  34.276  1.00  0.00     0.064 A 
ATOM     89  C   UNL A   1      45.973  27.715  34.342  1.00  0.00     0.173 A 
ATOM     90  C   UNL A   1      44.466  25.957  34.996  1.00  0.00     0.173 A 
ATOM     91  F   UNL A   1      46.244  28.838  33.659  1.00  0.00    -0.203 F 
ATOM     92  C   UNL A   1      46.987  27.118  35.086  1.00  0.00     0.198 A 
ATOM     93  C   UNL A   1      45.474  25.381  35.762  1.00  0.00     0.198 A 
ATOM     94  F   UNL A   1      43.258  25.374  34.971  1.00  0.00    -0.203 F 
ATOM     95  F   UNL A   1      48.211  27.662  35.103  1.00  0.00    -0.200 F 
ATOM     96  C   UNL A   1      46.734  25.957  35.802  1.00  0.00     0.200 A 
ATOM     97  F   UNL A   1      45.225  24.266  36.464  1.00  0.00    -0.200 F 
ATOM     98  F   UNL A   1      47.709  25.390  36.526  1.00  0.00    -0.200 F 
ENDBRANCH  65  88
ENDBRANCH  39  40
ENDBRANCH  31  34
ENDBRANCH  29  30
ENDBRANCH  28  29
ENDBRANCH   1  28
TORSDOF 16
ENDMDL
MODEL 3
REMARK VINA RESULT:     -12.4      1.488      3.568
REMARK SMILES [NH3+]C[C@@H]1CC[C@H](C(=O)N[C@@H](Cc2ccccc2)C(=O)NCCCNC(=O)c2ccc(-c3c4nc(c(-c5c(F)c(F)c(F)c(F)c5F)c5ccc([nH]5)c(-c5c(F)c(F)c(F)c(F)c5F)c5nc(c(-c6c(F)c(F)c(F)c(F)c6F)c6ccc3[nH]6)C=C5)C=C4)cc2)O1
REMARK SMILES IDX 21 1 20 2 18 3 19 4 10 6 9 7 7 8 8 9 6 11 3 12 4 13 90 14
REMARK SMILES IDX 5 15 2 16 1 17 11 21 12 22 13 23 17 24 14 25 16 26 15 27
REMARK SMILES IDX 22 28 23 29 24 30 25 31 26 33 27 34 28 35 89 36 29 37 88 38
REMARK SMILES IDX 30 39 31 40 32 41 82 42 33 43 87 44 81 45 83 46 34 47 86 48
REMARK SMILES IDX 80 49 79 50 35 52 67 53 47 54 66 55 48 56 51 57 65 58 84 59
REMARK SMILES IDX 49 60 50 61 64 63 85 64 52 65 36 66 37 67 45 68 38 69 39 70
REMARK SMILES IDX 43 71 46 72 40 73 41 74 44 75 42 76 68 77 69 78 77 79 70 80
REMARK SMILES IDX 71 81 75 82 78 83 72 84 73 85 76 86 74 87 53 88 54 89 62 90
REMARK SMILES IDX 55 91 56 92 60 93 63 94 57 95 58 96 61 97 59 98
REMARK H PARENT 20 5 9 10 1 18 1 19 1 20 24 32 83 51 51 62
REMARK Flexibility Score: inf
ROOT
ATOM      1  C   UNL A   1      31.837  27.445  26.442  1.00  0.00     0.117 C 
ENDROOT
BRANCH   1   2
ATOM      2  N   UNL A   1      30.701  26.645  26.829  1.00  0.00    -0.354 N 
ATOM      3  C   UNL A   1      30.132  25.651  26.089  1.00  0.00     0.242 C 
ATOM      4  O   UNL A   1      29.740  24.657  26.710  1.00  0.00    -0.273 OA
ATOM      5  H   UNL A   1      30.298  26.835  27.708  1.00  0.00     0.163 HD
BRANCH   3   6
ATOM      6  C   UNL A   1      30.102  25.671  24.544  1.00  0.00     0.175 C 
BRANCH   6   7
ATOM      7  N   UNL A   1      30.452  24.425  23.853  1.00  0.00    -0.342 N 
ATOM      8  C   UNL A   1      31.657  23.806  23.712  1.00  0.00     0.249 C 
ATOM      9  O   UNL A   1      31.678  22.751  23.071  1.00  0.00    -0.272 OA
ATOM     10  H   UNL A   1      29.696  23.963  23.423  1.00  0.00     0.164 HD
BRANCH   8  11
ATOM     11  C   UNL A   1      32.947  24.408  24.287  1.00  0.00     0.207 C 
ATOM     12  C   UNL A   1      35.227  23.966  24.248  1.00  0.00     0.174 C 
ATOM     13  C   UNL A   1      34.730  23.392  25.564  1.00  0.00     0.041 C 
ATOM     14  O   UNL A   1      34.058  24.150  23.430  1.00  0.00    -0.359 OA
ATOM     15  C   UNL A   1      33.312  23.920  25.683  1.00  0.00     0.045 C 
BRANCH  12  16
ATOM     16  C   UNL A   1      36.224  23.062  23.505  1.00  0.00     0.291 C 
BRANCH  16  17
ATOM     17  N   UNL A   1      37.440  22.833  24.298  1.00  0.00    -0.355 N 
ATOM     18  H   UNL A   1      38.229  22.672  23.672  1.00  0.00     0.344 HD
ATOM     19  H   UNL A   1      37.307  22.016  24.895  1.00  0.00     0.344 HD
ATOM     20  H   UNL A   1      37.627  23.651  24.878  1.00  0.00     0.344 HD
ENDBRANCH  16  17
ENDBRANCH  12  16
ENDBRANCH   8  11
ENDBRANCH   6   7
BRANCH   6  21
ATOM     21  C   UNL A   1      28.847  26.350  23.956  1.00  0.00     0.070 C 
BRANCH  21  22
ATOM     22  C   UNL A   1      29.064  27.709  23.340  1.00  0.00    -0.045 A 
ATOM     23  C   UNL A   1      27.961  28.518  23.026  1.00  0.00     0.004 A 
ATOM     24  C   UNL A   1      30.352  28.152  23.001  1.00  0.00     0.004 A 
ATOM     25  C   UNL A   1      28.137  29.712  22.324  1.00  0.00     0.000 A 
ATOM     26  C   UNL A   1      30.522  29.336  22.281  1.00  0.00     0.000 A 
ATOM     27  C   UNL A   1      29.415  30.108  21.933  1.00  0.00     0.000 A 
ENDBRANCH  21  22
ENDBRANCH   6  21
ENDBRANCH   3   6
ENDBRANCH   1   2
BRANCH   1  28
ATOM     28  C   UNL A   1      31.804  28.869  26.931  1.00  0.00     0.042 C 
BRANCH  28  29
ATOM     29  C   UNL A   1      32.877  29.732  26.299  1.00  0.00     0.118 C 
BRANCH  29  30
ATOM     30  N   UNL A   1      32.772  31.150  26.650  1.00  0.00    -0.352 N 
ATOM     31  C   UNL A   1      33.573  31.948  27.431  1.00  0.00     0.251 C 
ATOM     32  H   UNL A   1      31.995  31.610  26.257  1.00  0.00     0.163 HD
ATOM     33  O   UNL A   1      33.209  33.082  27.732  1.00  0.00    -0.269 OA
BRANCH  31  34
ATOM     34  C   UNL A   1      34.856  31.425  27.939  1.00  0.00     0.039 A 
ATOM     35  C   UNL A   1      35.956  32.276  28.050  1.00  0.00     0.014 A 
ATOM     36  C   UNL A   1      34.954  30.098  28.349  1.00  0.00     0.014 A 
ATOM     37  C   UNL A   1      37.120  31.812  28.666  1.00  0.00     0.010 A 
ATOM     38  C   UNL A   1      36.037  29.696  29.110  1.00  0.00     0.010 A 
ATOM     39  C   UNL A   1      37.150  30.534  29.249  1.00  0.00    -0.014 A 
BRANCH  39  40
ATOM     40  C   UNL A   1      38.340  30.028  29.973  1.00  0.00     0.031 A 
ATOM     41  C   UNL A   1      38.615  30.494  31.378  1.00  0.00     0.074 A 
ATOM     42  C   UNL A   1      39.219  29.230  29.337  1.00  0.00     0.049 A 
ATOM     43  N   UNL A   1      39.635  30.232  32.154  1.00  0.00    -0.248 NA
ATOM     44  C   UNL A   1      37.645  31.431  31.969  1.00  0.00     0.031 C 
ATOM     45  C   UNL A   1      39.122  28.803  27.941  1.00  0.00     0.029 A 
ATOM     46  N   UNL A   1      40.376  28.643  29.783  1.00  0.00    -0.354 N 
ATOM     47  C   UNL A   1      39.442  30.999  33.296  1.00  0.00     0.074 A 
ATOM     48  C   UNL A   1      38.264  31.804  33.076  1.00  0.00     0.031 C 
ATOM     49  C   UNL A   1      40.152  27.989  27.656  1.00  0.00     0.029 A 
ATOM     50  C   UNL A   1      40.995  27.862  28.840  1.00  0.00     0.049 A 
ATOM     51  H   UNL A   1      40.729  28.771  30.694  1.00  0.00     0.167 HD
ATOM     52  C   UNL A   1      40.154  30.998  34.448  1.00  0.00     0.037 A 
ATOM     53  C   UNL A   1      42.112  27.116  28.928  1.00  0.00     0.037 A 
ATOM     54  C   UNL A   1      41.287  30.145  34.680  1.00  0.00     0.049 A 
ATOM     55  C   UNL A   1      42.841  27.058  30.241  1.00  0.00     0.074 A 
ATOM     56  C   UNL A   1      42.026  29.984  35.836  1.00  0.00     0.029 A 
ATOM     57  N   UNL A   1      41.839  29.302  33.726  1.00  0.00    -0.354 N 
ATOM     58  N   UNL A   1      42.593  27.705  31.354  1.00  0.00    -0.248 NA
ATOM     59  C   UNL A   1      43.994  26.150  30.319  1.00  0.00     0.031 C 
ATOM     60  C   UNL A   1      43.050  29.068  35.571  1.00  0.00     0.029 A 
ATOM     61  C   UNL A   1      42.920  28.625  34.263  1.00  0.00     0.049 A 
ATOM     62  H   UNL A   1      41.511  29.200  32.803  1.00  0.00     0.167 HD
ATOM     63  C   UNL A   1      43.540  27.273  32.270  1.00  0.00     0.074 A 
ATOM     64  C   UNL A   1      44.360  26.293  31.586  1.00  0.00     0.031 C 
ATOM     65  C   UNL A   1      43.719  27.653  33.559  1.00  0.00     0.037 A 
BRANCH  52  66
ATOM     66  C   UNL A   1      39.703  31.932  35.535  1.00  0.00     0.064 A 
ATOM     67  C   UNL A   1      38.692  31.577  36.444  1.00  0.00     0.173 A 
ATOM     68  C   UNL A   1      40.269  33.210  35.658  1.00  0.00     0.173 A 
ATOM     69  F   UNL A   1      38.105  30.372  36.364  1.00  0.00    -0.203 F 
ATOM     70  C   UNL A   1      38.228  32.482  37.394  1.00  0.00     0.198 A 
ATOM     71  C   UNL A   1      39.829  34.099  36.636  1.00  0.00     0.198 A 
ATOM     72  F   UNL A   1      41.242  33.602  34.822  1.00  0.00    -0.203 F 
ATOM     73  F   UNL A   1      37.206  32.145  38.194  1.00  0.00    -0.200 F 
ATOM     74  C   UNL A   1      38.798  33.741  37.492  1.00  0.00     0.200 A 
ATOM     75  F   UNL A   1      40.390  35.312  36.738  1.00  0.00    -0.200 F 
ATOM     76  F   UNL A   1      38.347  34.613  38.402  1.00  0.00    -0.200 F 
ENDBRANCH  52  66
BRANCH  53  77
ATOM     77  C   UNL A   1      42.554  26.321  27.754  1.00  0.00     0.064 A 
ATOM     78  C   UNL A   1      41.984  25.070  27.478  1.00  0.00     0.173 A 
ATOM     79  C   UNL A   1      43.512  26.815  26.857  1.00  0.00     0.173 A 
ATOM     80  F   UNL A   1      41.073  24.551  28.313  1.00  0.00    -0.203 F 
ATOM     81  C   UNL A   1      42.364  24.339  26.354  1.00  0.00     0.198 A 
ATOM     82  C   UNL A   1      43.872  26.094  25.720  1.00  0.00     0.198 A 
ATOM     83  F   UNL A   1      44.075  28.013  27.070  1.00  0.00    -0.203 F 
ATOM     84  F   UNL A   1      41.822  23.134  26.127  1.00  0.00    -0.200 F 
ATOM     85  C   UNL A   1      43.301  24.855  25.472  1.00  0.00     0.200 A 
ATOM     86  F   UNL A   1      44.765  26.604  24.861  1.00  0.00    -0.200 F 
ATOM     87  F   UNL A   1      43.653  24.159  24.382  1.00  0.00    -0.200 F 
ENDBRANCH  53  77
BRANCH  65  88
ATOM     88  C   UNL A   1      44.830  26.994  34.320  1.00  0.00     0.064 A 
ATOM     89  C   UNL A   1      44.634  25.786  35.006  1.00  0.00     0.173 A 
ATOM     90  C   UNL A   1      46.118  27.550  34.318  1.00  0.00     0.173 A 
ATOM     91  F   UNL A   1      43.416  25.224  35.046  1.00  0.00    -0.203 F 
ATOM     92  C   UNL A   1      45.683  25.171  35.680  1.00  0.00     0.198 A 
ATOM     93  C   UNL A   1      47.171  26.915  34.968  1.00  0.00     0.198 A 
ATOM     94  F   UNL A   1      46.358  28.699  33.668  1.00  0.00    -0.203 F 
ATOM     95  F   UNL A   1      45.465  24.039  36.364  1.00  0.00    -0.200 F 
ATOM     96  C   UNL A   1      46.952  25.730  35.654  1.00  0.00     0.200 A 
ATOM     97  F   UNL A   1      48.400  27.450  34.931  1.00  0.00    -0.200 F 
ATOM     98  F   UNL A   1      47.964  25.129  36.296  1.00  0.00    -0.200 F 
ENDBRANCH  65  88
ENDBRANCH  39  40
ENDBRANCH  31  34
ENDBRANCH  29  30
ENDBRANCH  28  29
ENDBRANCH   1  28
TORSDOF 16
ENDMDL
