MODEL 1
REMARK VINA RESULT:     -12.7      0.000      0.000
REMARK SMILES C[C@H]1CN(c2ccc([N+](=O)[O-])c(C(=O)NCCCNC(=O)c3ccc(-c4c5nc(c(-c6c(F)c(F)c(F)c(F)c6F)c6ccc([nH]6)c(-c6c(F)c(F)c(F)c(F)c6F)c6nc(c(-c7c(F)c(F)c(F)c(F)c7F)c7ccc4[nH]7)C=C6)C=C5)cc3)c2)C[C@H](C)O1
REMARK SMILES IDX 17 1 16 2 15 3 13 4 14 5 12 7 5 8 6 9 85 10 7 11 8 12 4 13
REMARK SMILES IDX 1 14 2 15 3 16 89 17 87 18 86 19 88 20 9 21 10 22 11 23
REMARK SMILES IDX 18 24 19 25 20 26 21 28 22 29 23 30 84 31 24 32 83 33 25 34
REMARK SMILES IDX 26 35 27 36 77 37 28 38 82 39 76 40 78 41 29 42 81 43 75 44
REMARK SMILES IDX 74 45 30 47 62 48 42 49 61 50 43 51 46 52 60 53 79 54 44 55
REMARK SMILES IDX 45 56 59 58 80 59 47 60 31 61 32 62 40 63 33 64 34 65 38 66
REMARK SMILES IDX 41 67 35 68 36 69 39 70 37 71 63 72 64 73 72 74 65 75 66 76
REMARK SMILES IDX 70 77 73 78 67 79 68 80 71 81 69 82 48 83 49 84 57 85 50 86
REMARK SMILES IDX 51 87 55 88 58 89 52 90 53 91 56 92 54 93
REMARK H PARENT 15 6 19 27 78 46 46 57
REMARK Flexibility Score: inf
ROOT
ATOM      1  C   UNL A   1      31.406  32.211  26.692  1.00  0.00     0.042 C 
ENDROOT
BRANCH   1   2
ATOM      2  C   UNL A   1      31.521  30.712  26.477  1.00  0.00     0.118 C 
BRANCH   2   3
ATOM      3  N   UNL A   1      32.377  30.352  25.352  1.00  0.00    -0.352 N 
ATOM      4  C   UNL A   1      32.424  29.326  24.437  1.00  0.00     0.258 C 
ATOM      5  O   UNL A   1      33.429  29.292  23.731  1.00  0.00    -0.269 OA
ATOM      6  H   UNL A   1      33.100  31.006  25.212  1.00  0.00     0.163 HD
BRANCH   4   7
ATOM      7  C   UNL A   1      31.414  28.233  24.342  1.00  0.00     0.119 A 
ATOM      8  C   UNL A   1      30.967  25.839  24.608  1.00  0.00     0.038 A 
ATOM      9  C   UNL A   1      29.959  25.944  23.645  1.00  0.00     0.033 A 
ATOM     10  C   UNL A   1      31.581  27.026  25.023  1.00  0.00     0.047 A 
ATOM     11  C   UNL A   1      29.583  27.180  23.125  1.00  0.00     0.088 A 
ATOM     12  C   UNL A   1      30.324  28.315  23.472  1.00  0.00     0.282 A 
BRANCH   8  13
ATOM     13  N   UNL A   1      31.357  24.620  25.105  1.00  0.00    -0.366 N 
ATOM     14  C   UNL A   1      32.152  21.064  24.040  1.00  0.00     0.040 C 
ATOM     15  C   UNL A   1      32.391  22.467  24.579  1.00  0.00     0.135 C 
ATOM     16  C   UNL A   1      31.118  23.333  24.440  1.00  0.00     0.148 C 
ATOM     17  O   UNL A   1      32.815  22.338  25.952  1.00  0.00    -0.372 OA
ATOM     18  C   UNL A   1      32.995  23.603  26.621  1.00  0.00     0.135 C 
ATOM     19  C   UNL A   1      31.729  24.474  26.522  1.00  0.00     0.148 C 
ATOM     20  C   UNL A   1      34.228  24.349  26.115  1.00  0.00     0.040 C 
ENDBRANCH   8  13
BRANCH  12  21
ATOM     21  N   UNL A   1      29.809  29.590  23.008  1.00  0.00     0.063 N 
ATOM     22  O   UNL A   1      29.690  29.732  21.783  1.00  0.00    -0.258 OA
ATOM     23  O   UNL A   1      29.383  30.369  23.873  1.00  0.00    -0.258 OA
ENDBRANCH  12  21
ENDBRANCH   4   7
ENDBRANCH   2   3
ENDBRANCH   1   2
BRANCH   1  24
ATOM     24  C   UNL A   1      32.690  32.872  27.160  1.00  0.00     0.118 C 
BRANCH  24  25
ATOM     25  N   UNL A   1      32.477  34.236  27.627  1.00  0.00    -0.352 N 
ATOM     26  C   UNL A   1      33.018  34.916  28.691  1.00  0.00     0.251 C 
ATOM     27  H   UNL A   1      31.840  34.758  27.089  1.00  0.00     0.163 HD
ATOM     28  O   UNL A   1      32.524  35.983  29.041  1.00  0.00    -0.269 OA
BRANCH  26  29
ATOM     29  C   UNL A   1      34.175  34.366  29.430  1.00  0.00     0.039 A 
ATOM     30  C   UNL A   1      33.952  33.646  30.607  1.00  0.00     0.014 A 
ATOM     31  C   UNL A   1      35.480  34.581  28.987  1.00  0.00     0.014 A 
ATOM     32  C   UNL A   1      35.032  33.085  31.294  1.00  0.00     0.010 A 
ATOM     33  C   UNL A   1      36.542  33.928  29.602  1.00  0.00     0.010 A 
ATOM     34  C   UNL A   1      36.332  33.186  30.772  1.00  0.00    -0.014 A 
BRANCH  34  35
ATOM     35  C   UNL A   1      37.494  32.547  31.442  1.00  0.00     0.031 A 
ATOM     36  C   UNL A   1      38.207  31.400  30.778  1.00  0.00     0.074 A 
ATOM     37  C   UNL A   1      37.854  32.946  32.677  1.00  0.00     0.049 A 
ATOM     38  N   UNL A   1      39.179  30.651  31.236  1.00  0.00    -0.248 NA
ATOM     39  C   UNL A   1      37.743  31.020  29.434  1.00  0.00     0.031 C 
ATOM     40  C   UNL A   1      37.203  34.007  33.448  1.00  0.00     0.029 A 
ATOM     41  N   UNL A   1      38.847  32.495  33.509  1.00  0.00    -0.354 N 
ATOM     42  C   UNL A   1      39.421  29.704  30.251  1.00  0.00     0.074 A 
ATOM     43  C   UNL A   1      38.459  29.931  29.197  1.00  0.00     0.031 C 
ATOM     44  C   UNL A   1      37.832  34.144  34.626  1.00  0.00     0.029 A 
ATOM     45  C   UNL A   1      38.899  33.154  34.713  1.00  0.00     0.049 A 
ATOM     46  H   UNL A   1      39.466  31.769  33.266  1.00  0.00     0.167 HD
ATOM     47  C   UNL A   1      40.380  28.747  30.215  1.00  0.00     0.037 A 
ATOM     48  C   UNL A   1      39.712  32.973  35.772  1.00  0.00     0.037 A 
ATOM     49  C   UNL A   1      41.358  28.550  31.251  1.00  0.00     0.049 A 
ATOM     50  C   UNL A   1      40.774  31.909  35.704  1.00  0.00     0.074 A 
ATOM     51  C   UNL A   1      42.415  27.657  31.281  1.00  0.00     0.029 A 
ATOM     52  N   UNL A   1      41.395  29.256  32.444  1.00  0.00    -0.354 N 
ATOM     53  N   UNL A   1      41.043  31.068  34.735  1.00  0.00    -0.248 NA
ATOM     54  C   UNL A   1      41.651  31.774  36.874  1.00  0.00     0.031 C 
ATOM     55  C   UNL A   1      43.060  27.787  32.515  1.00  0.00     0.029 A 
ATOM     56  C   UNL A   1      42.444  28.803  33.229  1.00  0.00     0.049 A 
ATOM     57  H   UNL A   1      40.770  29.974  32.697  1.00  0.00     0.167 HD
ATOM     58  C   UNL A   1      42.135  30.326  35.163  1.00  0.00     0.074 A 
ATOM     59  C   UNL A   1      42.489  30.829  36.475  1.00  0.00     0.031 C 
ATOM     60  C   UNL A   1      42.787  29.321  34.529  1.00  0.00     0.037 A 
BRANCH  47  61
ATOM     61  C   UNL A   1      40.419  27.844  29.014  1.00  0.00     0.064 A 
ATOM     62  C   UNL A   1      41.217  28.135  27.896  1.00  0.00     0.173 A 
ATOM     63  C   UNL A   1      39.676  26.654  28.995  1.00  0.00     0.173 A 
ATOM     64  F   UNL A   1      41.939  29.265  27.857  1.00  0.00    -0.203 F 
ATOM     65  C   UNL A   1      41.245  27.285  26.793  1.00  0.00     0.198 A 
ATOM     66  C   UNL A   1      39.733  25.789  27.905  1.00  0.00     0.198 A 
ATOM     67  F   UNL A   1      38.900  26.324  30.038  1.00  0.00    -0.203 F 
ATOM     68  F   UNL A   1      41.972  27.612  25.716  1.00  0.00    -0.200 F 
ATOM     69  C   UNL A   1      40.509  26.110  26.802  1.00  0.00     0.200 A 
ATOM     70  F   UNL A   1      39.033  24.647  27.920  1.00  0.00    -0.200 F 
ATOM     71  F   UNL A   1      40.544  25.289  25.743  1.00  0.00    -0.200 F 
ENDBRANCH  47  61
BRANCH  48  72
ATOM     72  C   UNL A   1      39.571  33.837  36.973  1.00  0.00     0.064 A 
ATOM     73  C   UNL A   1      38.751  33.453  38.044  1.00  0.00     0.173 A 
ATOM     74  C   UNL A   1      40.248  35.060  37.078  1.00  0.00     0.173 A 
ATOM     75  F   UNL A   1      38.068  32.300  37.984  1.00  0.00    -0.203 F 
ATOM     76  C   UNL A   1      38.597  34.269  39.162  1.00  0.00     0.198 A 
ATOM     77  C   UNL A   1      40.117  35.861  38.211  1.00  0.00     0.198 A 
ATOM     78  F   UNL A   1      41.051  35.472  36.085  1.00  0.00    -0.203 F 
ATOM     79  F   UNL A   1      37.770  33.899  40.150  1.00  0.00    -0.200 F 
ATOM     80  C   UNL A   1      39.285  35.470  39.248  1.00  0.00     0.200 A 
ATOM     81  F   UNL A   1      40.798  37.012  38.298  1.00  0.00    -0.200 F 
ATOM     82  F   UNL A   1      39.141  36.251  40.327  1.00  0.00    -0.200 F 
ENDBRANCH  48  72
BRANCH  60  83
ATOM     83  C   UNL A   1      43.975  28.722  35.226  1.00  0.00     0.064 A 
ATOM     84  C   UNL A   1      45.265  29.253  35.076  1.00  0.00     0.173 A 
ATOM     85  C   UNL A   1      43.811  27.628  36.088  1.00  0.00     0.173 A 
ATOM     86  F   UNL A   1      45.477  30.291  34.252  1.00  0.00    -0.203 F 
ATOM     87  C   UNL A   1      46.350  28.691  35.741  1.00  0.00     0.198 A 
ATOM     88  C   UNL A   1      44.893  27.090  36.779  1.00  0.00     0.198 A 
ATOM     89  F   UNL A   1      42.596  27.088  36.273  1.00  0.00    -0.203 F 
ATOM     90  F   UNL A   1      47.582  29.181  35.542  1.00  0.00    -0.200 F 
ATOM     91  C   UNL A   1      46.163  27.616  36.598  1.00  0.00     0.200 A 
ATOM     92  F   UNL A   1      44.706  26.062  37.617  1.00  0.00    -0.200 F 
ATOM     93  F   UNL A   1      47.208  27.082  37.244  1.00  0.00    -0.200 F 
ENDBRANCH  60  83
ENDBRANCH  34  35
ENDBRANCH  26  29
ENDBRANCH  24  25
ENDBRANCH   1  24
TORSDOF 12
ENDMDL
MODEL 2
REMARK VINA RESULT:     -12.7      5.671     11.358
REMARK SMILES C[C@H]1CN(c2ccc([N+](=O)[O-])c(C(=O)NCCCNC(=O)c3ccc(-c4c5nc(c(-c6c(F)c(F)c(F)c(F)c6F)c6ccc([nH]6)c(-c6c(F)c(F)c(F)c(F)c6F)c6nc(c(-c7c(F)c(F)c(F)c(F)c7F)c7ccc4[nH]7)C=C6)C=C5)cc3)c2)C[C@H](C)O1
REMARK SMILES IDX 17 1 16 2 15 3 13 4 14 5 12 7 5 8 6 9 85 10 7 11 8 12 4 13
REMARK SMILES IDX 1 14 2 15 3 16 89 17 87 18 86 19 88 20 9 21 10 22 11 23
REMARK SMILES IDX 18 24 19 25 20 26 21 28 22 29 23 30 84 31 24 32 83 33 25 34
REMARK SMILES IDX 26 35 27 36 77 37 28 38 82 39 76 40 78 41 29 42 81 43 75 44
REMARK SMILES IDX 74 45 30 47 62 48 42 49 61 50 43 51 46 52 60 53 79 54 44 55
REMARK SMILES IDX 45 56 59 58 80 59 47 60 31 61 32 62 40 63 33 64 34 65 38 66
REMARK SMILES IDX 41 67 35 68 36 69 39 70 37 71 63 72 64 73 72 74 65 75 66 76
REMARK SMILES IDX 70 77 73 78 67 79 68 80 71 81 69 82 48 83 49 84 57 85 50 86
REMARK SMILES IDX 51 87 55 88 58 89 52 90 53 91 56 92 54 93
REMARK H PARENT 15 6 19 27 78 46 46 57
REMARK Flexibility Score: inf
ROOT
ATOM      1  C   UNL A   1      38.131  19.602  24.997  1.00  0.00     0.042 C 
ENDROOT
BRANCH   1   2
ATOM      2  C   UNL A   1      37.098  20.682  24.725  1.00  0.00     0.118 C 
BRANCH   2   3
ATOM      3  N   UNL A   1      36.198  20.918  25.848  1.00  0.00    -0.352 N 
ATOM      4  C   UNL A   1      34.905  21.365  25.999  1.00  0.00     0.258 C 
ATOM      5  O   UNL A   1      34.555  21.590  27.154  1.00  0.00    -0.269 OA
ATOM      6  H   UNL A   1      36.618  20.702  26.713  1.00  0.00     0.163 HD
BRANCH   4   7
ATOM      7  C   UNL A   1      33.987  21.687  24.870  1.00  0.00     0.119 A 
ATOM      8  C   UNL A   1      32.846  23.448  23.607  1.00  0.00     0.038 A 
ATOM      9  C   UNL A   1      31.839  22.533  23.282  1.00  0.00     0.033 A 
ATOM     10  C   UNL A   1      33.963  22.956  24.289  1.00  0.00     0.047 A 
ATOM     11  C   UNL A   1      31.951  21.188  23.624  1.00  0.00     0.088 A 
ATOM     12  C   UNL A   1      33.021  20.778  24.428  1.00  0.00     0.282 A 
BRANCH   8  13
ATOM     13  N   UNL A   1      32.729  24.780  23.291  1.00  0.00    -0.366 N 
ATOM     14  C   UNL A   1      30.155  27.520  22.764  1.00  0.00     0.040 C 
ATOM     15  C   UNL A   1      31.302  26.762  23.417  1.00  0.00     0.135 C 
ATOM     16  C   UNL A   1      31.526  25.400  22.722  1.00  0.00     0.148 C 
ATOM     17  O   UNL A   1      32.472  27.605  23.354  1.00  0.00    -0.372 OA
ATOM     18  C   UNL A   1      33.665  26.974  23.861  1.00  0.00     0.135 C 
ATOM     19  C   UNL A   1      33.926  25.627  23.164  1.00  0.00     0.148 C 
ATOM     20  C   UNL A   1      33.629  26.819  25.381  1.00  0.00     0.040 C 
ENDBRANCH   8  13
BRANCH  12  21
ATOM     21  N   UNL A   1      33.159  19.350  24.642  1.00  0.00     0.063 N 
ATOM     22  O   UNL A   1      32.158  18.748  25.055  1.00  0.00    -0.258 OA
ATOM     23  O   UNL A   1      34.210  18.824  24.247  1.00  0.00    -0.258 OA
ENDBRANCH  12  21
ENDBRANCH   4   7
ENDBRANCH   2   3
ENDBRANCH   1   2
BRANCH   1  24
ATOM     24  C   UNL A   1      39.194  19.999  26.005  1.00  0.00     0.118 C 
BRANCH  24  25
ATOM     25  N   UNL A   1      40.290  19.040  26.066  1.00  0.00    -0.352 N 
ATOM     26  C   UNL A   1      41.650  19.233  26.120  1.00  0.00     0.251 C 
ATOM     27  H   UNL A   1      40.010  18.097  26.070  1.00  0.00     0.163 HD
ATOM     28  O   UNL A   1      42.402  18.284  25.930  1.00  0.00    -0.269 OA
BRANCH  26  29
ATOM     29  C   UNL A   1      42.212  20.575  26.386  1.00  0.00     0.039 A 
ATOM     30  C   UNL A   1      42.549  21.398  25.307  1.00  0.00     0.014 A 
ATOM     31  C   UNL A   1      42.441  21.014  27.690  1.00  0.00     0.014 A 
ATOM     32  C   UNL A   1      43.043  22.684  25.543  1.00  0.00     0.010 A 
ATOM     33  C   UNL A   1      42.821  22.330  27.925  1.00  0.00     0.010 A 
ATOM     34  C   UNL A   1      43.142  23.175  26.854  1.00  0.00    -0.014 A 
BRANCH  34  35
ATOM     35  C   UNL A   1      43.603  24.559  27.137  1.00  0.00     0.031 A 
ATOM     36  C   UNL A   1      42.631  25.583  27.658  1.00  0.00     0.074 A 
ATOM     37  C   UNL A   1      44.870  24.912  26.849  1.00  0.00     0.049 A 
ATOM     38  N   UNL A   1      42.812  26.861  27.879  1.00  0.00    -0.248 NA
ATOM     39  C   UNL A   1      41.262  25.117  27.935  1.00  0.00     0.031 C 
ATOM     40  C   UNL A   1      45.890  24.025  26.286  1.00  0.00     0.029 A 
ATOM     41  N   UNL A   1      45.515  26.116  26.977  1.00  0.00    -0.354 N 
ATOM     42  C   UNL A   1      41.580  27.350  28.294  1.00  0.00     0.074 A 
ATOM     43  C   UNL A   1      40.645  26.249  28.237  1.00  0.00     0.031 C 
ATOM     44  C   UNL A   1      47.037  24.707  26.144  1.00  0.00     0.029 A 
ATOM     45  C   UNL A   1      46.825  26.087  26.564  1.00  0.00     0.049 A 
ATOM     46  H   UNL A   1      45.081  26.925  27.334  1.00  0.00     0.167 HD
ATOM     47  C   UNL A   1      41.263  28.599  28.712  1.00  0.00     0.037 A 
ATOM     48  C   UNL A   1      47.746  27.068  26.520  1.00  0.00     0.037 A 
ATOM     49  C   UNL A   1      42.207  29.681  28.800  1.00  0.00     0.049 A 
ATOM     50  C   UNL A   1      47.372  28.445  26.998  1.00  0.00     0.074 A 
ATOM     51  C   UNL A   1      42.007  30.964  29.277  1.00  0.00     0.029 A 
ATOM     52  N   UNL A   1      43.532  29.605  28.397  1.00  0.00    -0.354 N 
ATOM     53  N   UNL A   1      46.224  28.877  27.459  1.00  0.00    -0.248 NA
ATOM     54  C   UNL A   1      48.424  29.469  26.955  1.00  0.00     0.031 C 
ATOM     55  C   UNL A   1      43.196  31.680  29.114  1.00  0.00     0.029 A 
ATOM     56  C   UNL A   1      44.156  30.827  28.593  1.00  0.00     0.049 A 
ATOM     57  H   UNL A   1      43.967  28.802  28.028  1.00  0.00     0.167 HD
ATOM     58  C   UNL A   1      46.421  30.211  27.790  1.00  0.00     0.074 A 
ATOM     59  C   UNL A   1      47.807  30.512  27.491  1.00  0.00     0.031 C 
ATOM     60  C   UNL A   1      45.538  31.106  28.297  1.00  0.00     0.037 A 
BRANCH  47  61
ATOM     61  C   UNL A   1      39.837  28.860  29.110  1.00  0.00     0.064 A 
ATOM     62  C   UNL A   1      39.403  28.719  30.437  1.00  0.00     0.173 A 
ATOM     63  C   UNL A   1      38.901  29.292  28.158  1.00  0.00     0.173 A 
ATOM     64  F   UNL A   1      40.253  28.298  31.385  1.00  0.00    -0.203 F 
ATOM     65  C   UNL A   1      38.079  28.969  30.789  1.00  0.00     0.198 A 
ATOM     66  C   UNL A   1      37.587  29.574  28.520  1.00  0.00     0.198 A 
ATOM     67  F   UNL A   1      39.263  29.448  26.876  1.00  0.00    -0.203 F 
ATOM     68  F   UNL A   1      37.676  28.775  32.053  1.00  0.00    -0.200 F 
ATOM     69  C   UNL A   1      37.175  29.404  29.833  1.00  0.00     0.200 A 
ATOM     70  F   UNL A   1      36.718  30.009  27.597  1.00  0.00    -0.200 F 
ATOM     71  F   UNL A   1      35.903  29.653  30.175  1.00  0.00    -0.200 F 
ENDBRANCH  47  61
BRANCH  48  72
ATOM     72  C   UNL A   1      49.119  26.775  26.032  1.00  0.00     0.064 A 
ATOM     73  C   UNL A   1      50.099  26.271  26.900  1.00  0.00     0.173 A 
ATOM     74  C   UNL A   1      49.483  26.989  24.695  1.00  0.00     0.173 A 
ATOM     75  F   UNL A   1      49.806  26.066  28.193  1.00  0.00    -0.203 F 
ATOM     76  C   UNL A   1      51.394  26.015  26.454  1.00  0.00     0.198 A 
ATOM     77  C   UNL A   1      50.770  26.703  24.244  1.00  0.00     0.198 A 
ATOM     78  F   UNL A   1      48.582  27.462  23.821  1.00  0.00    -0.203 F 
ATOM     79  F   UNL A   1      52.323  25.579  27.316  1.00  0.00    -0.200 F 
ATOM     80  C   UNL A   1      51.727  26.226  25.125  1.00  0.00     0.200 A 
ATOM     81  F   UNL A   1      51.082  26.891  22.954  1.00  0.00    -0.200 F 
ATOM     82  F   UNL A   1      52.971  25.973  24.696  1.00  0.00    -0.200 F 
ENDBRANCH  48  72
BRANCH  60  83
ATOM     83  C   UNL A   1      46.051  32.485  28.597  1.00  0.00     0.064 A 
ATOM     84  C   UNL A   1      46.579  32.820  29.853  1.00  0.00     0.173 A 
ATOM     85  C   UNL A   1      46.050  33.472  27.600  1.00  0.00     0.173 A 
ATOM     86  F   UNL A   1      46.590  31.916  30.844  1.00  0.00    -0.203 F 
ATOM     87  C   UNL A   1      47.060  34.101  30.107  1.00  0.00     0.198 A 
ATOM     88  C   UNL A   1      46.563  34.742  27.847  1.00  0.00     0.198 A 
ATOM     89  F   UNL A   1      45.563  33.201  26.380  1.00  0.00    -0.203 F 
ATOM     90  F   UNL A   1      47.512  34.414  31.330  1.00  0.00    -0.200 F 
ATOM     91  C   UNL A   1      47.060  35.058  29.103  1.00  0.00     0.200 A 
ATOM     92  F   UNL A   1      46.576  35.659  26.871  1.00  0.00    -0.200 F 
ATOM     93  F   UNL A   1      47.532  36.288  29.347  1.00  0.00    -0.200 F 
ENDBRANCH  60  83
ENDBRANCH  34  35
ENDBRANCH  26  29
ENDBRANCH  24  25
ENDBRANCH   1  24
TORSDOF 12
ENDMDL
MODEL 3
REMARK VINA RESULT:     -12.6      5.607     11.245
REMARK SMILES C[C@H]1CN(c2ccc([N+](=O)[O-])c(C(=O)NCCCNC(=O)c3ccc(-c4c5nc(c(-c6c(F)c(F)c(F)c(F)c6F)c6ccc([nH]6)c(-c6c(F)c(F)c(F)c(F)c6F)c6nc(c(-c7c(F)c(F)c(F)c(F)c7F)c7ccc4[nH]7)C=C6)C=C5)cc3)c2)C[C@H](C)O1
REMARK SMILES IDX 17 1 16 2 15 3 13 4 14 5 12 7 5 8 6 9 85 10 7 11 8 12 4 13
REMARK SMILES IDX 1 14 2 15 3 16 89 17 87 18 86 19 88 20 9 21 10 22 11 23
REMARK SMILES IDX 18 24 19 25 20 26 21 28 22 29 23 30 84 31 24 32 83 33 25 34
REMARK SMILES IDX 26 35 27 36 77 37 28 38 82 39 76 40 78 41 29 42 81 43 75 44
REMARK SMILES IDX 74 45 30 47 62 48 42 49 61 50 43 51 46 52 60 53 79 54 44 55
REMARK SMILES IDX 45 56 59 58 80 59 47 60 31 61 32 62 40 63 33 64 34 65 38 66
REMARK SMILES IDX 41 67 35 68 36 69 39 70 37 71 63 72 64 73 72 74 65 75 66 76
REMARK SMILES IDX 70 77 73 78 67 79 68 80 71 81 69 82 48 83 49 84 57 85 50 86
REMARK SMILES IDX 51 87 55 88 58 89 52 90 53 91 56 92 54 93
REMARK H PARENT 15 6 19 27 78 46 46 57
REMARK Flexibility Score: inf
ROOT
ATOM      1  C   UNL A   1      38.075  19.743  25.001  1.00  0.00     0.042 C 
ENDROOT
BRANCH   1   2
ATOM      2  C   UNL A   1      37.039  20.825  24.749  1.00  0.00     0.118 C 
BRANCH   2   3
ATOM      3  N   UNL A   1      36.082  20.975  25.839  1.00  0.00    -0.352 N 
ATOM      4  C   UNL A   1      34.767  21.365  25.951  1.00  0.00     0.258 C 
ATOM      5  O   UNL A   1      34.359  21.524  27.099  1.00  0.00    -0.269 OA
ATOM      6  H   UNL A   1      36.473  20.737  26.712  1.00  0.00     0.163 HD
BRANCH   4   7
ATOM      7  C   UNL A   1      33.886  21.701  24.797  1.00  0.00     0.119 A 
ATOM      8  C   UNL A   1      32.765  23.477  23.536  1.00  0.00     0.038 A 
ATOM      9  C   UNL A   1      31.785  22.555  23.153  1.00  0.00     0.033 A 
ATOM     10  C   UNL A   1      33.864  22.984  24.247  1.00  0.00     0.047 A 
ATOM     11  C   UNL A   1      31.905  21.204  23.466  1.00  0.00     0.088 A 
ATOM     12  C   UNL A   1      32.952  20.790  24.298  1.00  0.00     0.282 A 
BRANCH   8  13
ATOM     13  N   UNL A   1      32.639  24.814  23.249  1.00  0.00    -0.366 N 
ATOM     14  C   UNL A   1      30.055  27.573  22.897  1.00  0.00     0.040 C 
ATOM     15  C   UNL A   1      31.230  26.800  23.479  1.00  0.00     0.135 C 
ATOM     16  C   UNL A   1      31.412  25.448  22.751  1.00  0.00     0.148 C 
ATOM     17  O   UNL A   1      32.399  27.639  23.372  1.00  0.00    -0.372 OA
ATOM     18  C   UNL A   1      33.613  26.994  23.808  1.00  0.00     0.135 C 
ATOM     19  C   UNL A   1      33.832  25.658  23.076  1.00  0.00     0.148 C 
ATOM     20  C   UNL A   1      33.653  26.814  25.325  1.00  0.00     0.040 C 
ENDBRANCH   8  13
BRANCH  12  21
ATOM     21  N   UNL A   1      33.104  19.359  24.482  1.00  0.00     0.063 N 
ATOM     22  O   UNL A   1      34.224  18.881  24.251  1.00  0.00    -0.258 OA
ATOM     23  O   UNL A   1      32.153  18.758  25.004  1.00  0.00    -0.258 OA
ENDBRANCH  12  21
ENDBRANCH   4   7
ENDBRANCH   2   3
ENDBRANCH   1   2
BRANCH   1  24
ATOM     24  C   UNL A   1      39.138  20.125  26.014  1.00  0.00     0.118 C 
BRANCH  24  25
ATOM     25  N   UNL A   1      40.230  19.161  26.067  1.00  0.00    -0.352 N 
ATOM     26  C   UNL A   1      41.590  19.348  26.126  1.00  0.00     0.251 C 
ATOM     27  H   UNL A   1      39.946  18.219  26.061  1.00  0.00     0.163 HD
ATOM     28  O   UNL A   1      42.339  18.397  25.928  1.00  0.00    -0.269 OA
BRANCH  26  29
ATOM     29  C   UNL A   1      42.159  20.684  26.407  1.00  0.00     0.039 A 
ATOM     30  C   UNL A   1      42.464  21.532  25.338  1.00  0.00     0.014 A 
ATOM     31  C   UNL A   1      42.423  21.094  27.713  1.00  0.00     0.014 A 
ATOM     32  C   UNL A   1      42.963  22.813  25.589  1.00  0.00     0.010 A 
ATOM     33  C   UNL A   1      42.807  22.405  27.968  1.00  0.00     0.010 A 
ATOM     34  C   UNL A   1      43.098  23.275  26.908  1.00  0.00    -0.014 A 
BRANCH  34  35
ATOM     35  C   UNL A   1      43.564  24.653  27.209  1.00  0.00     0.031 A 
ATOM     36  C   UNL A   1      42.600  25.669  27.760  1.00  0.00     0.074 A 
ATOM     37  C   UNL A   1      44.829  25.008  26.913  1.00  0.00     0.049 A 
ATOM     38  N   UNL A   1      42.786  26.943  28.001  1.00  0.00    -0.248 NA
ATOM     39  C   UNL A   1      41.234  25.201  28.044  1.00  0.00     0.031 C 
ATOM     40  C   UNL A   1      45.840  24.129  26.322  1.00  0.00     0.029 A 
ATOM     41  N   UNL A   1      45.477  26.209  27.055  1.00  0.00    -0.354 N 
ATOM     42  C   UNL A   1      41.560  27.426  28.438  1.00  0.00     0.074 A 
ATOM     43  C   UNL A   1      40.623  26.328  28.374  1.00  0.00     0.031 C 
ATOM     44  C   UNL A   1      46.987  24.812  26.179  1.00  0.00     0.029 A 
ATOM     45  C   UNL A   1      46.782  26.186  26.625  1.00  0.00     0.049 A 
ATOM     46  H   UNL A   1      45.049  27.013  27.430  1.00  0.00     0.167 HD
ATOM     47  C   UNL A   1      41.251  28.668  28.882  1.00  0.00     0.037 A 
ATOM     48  C   UNL A   1      47.705  27.165  26.587  1.00  0.00     0.037 A 
ATOM     49  C   UNL A   1      42.198  29.747  28.977  1.00  0.00     0.049 A 
ATOM     50  C   UNL A   1      47.339  28.534  27.093  1.00  0.00     0.074 A 
ATOM     51  C   UNL A   1      42.005  31.022  29.479  1.00  0.00     0.029 A 
ATOM     52  N   UNL A   1      43.518  29.676  28.558  1.00  0.00    -0.354 N 
ATOM     53  N   UNL A   1      46.197  28.961  27.576  1.00  0.00    -0.248 NA
ATOM     54  C   UNL A   1      48.393  29.557  27.057  1.00  0.00     0.031 C 
ATOM     55  C   UNL A   1      43.194  31.739  29.314  1.00  0.00     0.029 A 
ATOM     56  C   UNL A   1      44.147  30.894  28.767  1.00  0.00     0.049 A 
ATOM     57  H   UNL A   1      43.947  28.879  28.169  1.00  0.00     0.167 HD
ATOM     58  C   UNL A   1      46.401  30.288  27.927  1.00  0.00     0.074 A 
ATOM     59  C   UNL A   1      47.783  30.591  27.617  1.00  0.00     0.031 C 
ATOM     60  C   UNL A   1      45.525  31.175  28.460  1.00  0.00     0.037 A 
BRANCH  47  61
ATOM     61  C   UNL A   1      39.830  28.925  29.301  1.00  0.00     0.064 A 
ATOM     62  C   UNL A   1      38.868  29.405  28.399  1.00  0.00     0.173 A 
ATOM     63  C   UNL A   1      39.417  28.653  30.615  1.00  0.00     0.173 A 
ATOM     64  F   UNL A   1      39.212  29.692  27.135  1.00  0.00    -0.203 F 
ATOM     65  C   UNL A   1      37.555  29.634  28.804  1.00  0.00     0.198 A 
ATOM     66  C   UNL A   1      38.096  28.851  31.007  1.00  0.00     0.198 A 
ATOM     67  F   UNL A   1      40.294  28.189  31.517  1.00  0.00    -0.203 F 
ATOM     68  F   UNL A   1      36.669  30.145  27.938  1.00  0.00    -0.200 F 
ATOM     69  C   UNL A   1      37.169  29.349  30.105  1.00  0.00     0.200 A 
ATOM     70  F   UNL A   1      37.720  28.561  32.260  1.00  0.00    -0.200 F 
ATOM     71  F   UNL A   1      35.903  29.561  30.490  1.00  0.00    -0.200 F 
ENDBRANCH  47  61
BRANCH  48  72
ATOM     72  C   UNL A   1      49.072  26.878  26.078  1.00  0.00     0.064 A 
ATOM     73  C   UNL A   1      49.401  27.103  24.734  1.00  0.00     0.173 A 
ATOM     74  C   UNL A   1      50.075  26.375  26.919  1.00  0.00     0.173 A 
ATOM     75  F   UNL A   1      48.471  27.566  23.885  1.00  0.00    -0.203 F 
ATOM     76  C   UNL A   1      50.674  26.815  24.245  1.00  0.00     0.198 A 
ATOM     77  C   UNL A   1      51.357  26.117  26.436  1.00  0.00     0.198 A 
ATOM     78  F   UNL A   1      49.816  26.151  28.215  1.00  0.00    -0.203 F 
ATOM     79  F   UNL A   1      50.946  26.995  22.946  1.00  0.00    -0.200 F 
ATOM     80  C   UNL A   1      51.653  26.328  25.098  1.00  0.00     0.200 A 
ATOM     81  F   UNL A   1      52.305  25.664  27.267  1.00  0.00    -0.200 F 
ATOM     82  F   UNL A   1      52.878  26.057  24.629  1.00  0.00    -0.200 F 
ENDBRANCH  48  72
BRANCH  60  83
ATOM     83  C   UNL A   1      46.044  32.548  28.778  1.00  0.00     0.064 A 
ATOM     84  C   UNL A   1      45.959  33.603  27.857  1.00  0.00     0.173 A 
ATOM     85  C   UNL A   1      46.596  32.820  30.039  1.00  0.00     0.173 A 
ATOM     86  F   UNL A   1      45.452  33.390  26.632  1.00  0.00    -0.203 F 
ATOM     87  C   UNL A   1      46.434  34.871  28.177  1.00  0.00     0.198 A 
ATOM     88  C   UNL A   1      47.039  34.099  30.368  1.00  0.00     0.198 A 
ATOM     89  F   UNL A   1      46.693  31.849  30.960  1.00  0.00    -0.203 F 
ATOM     90  F   UNL A   1      46.391  35.851  27.262  1.00  0.00    -0.200 F 
ATOM     91  C   UNL A   1      46.966  35.120  29.434  1.00  0.00     0.200 A 
ATOM     92  F   UNL A   1      47.537  34.340  31.588  1.00  0.00    -0.200 F 
ATOM     93  F   UNL A   1      47.414  36.344  29.742  1.00  0.00    -0.200 F 
ENDBRANCH  60  83
ENDBRANCH  34  35
ENDBRANCH  26  29
ENDBRANCH  24  25
ENDBRANCH   1  24
TORSDOF 12
ENDMDL
