MODEL 1
REMARK VINA RESULT:     -12.2      0.000      0.000
REMARK SMILES [NH3+]C1(CC(=O)N[C@@H]2CCCC[C@H]2C(=O)NCCCNC(=O)c2ccc(-c3c4nc(c(-c5c(F)c(F)c(F)c(F)c5F)c5ccc([nH]5)c(-c5c(F)c(F)c(F)c(F)c5F)c5nc(c(-c6c(F)c(F)c(F)c(F)c6F)c6ccc3[nH]6)C=C5)C=C4)cc2)CCC1
REMARK SMILES IDX 16 1 15 2 13 3 14 4 12 6 7 7 8 8 9 9 11 10 10 11 6 12 4 13
REMARK SMILES IDX 5 14 3 16 2 17 85 18 87 19 86 20 1 21 17 25 18 26 19 27
REMARK SMILES IDX 20 28 21 30 22 31 23 32 84 33 24 34 83 35 25 36 26 37 27 38
REMARK SMILES IDX 77 39 28 40 82 41 76 42 78 43 29 44 81 45 75 46 74 47 30 49
REMARK SMILES IDX 62 50 42 51 61 52 43 53 46 54 60 55 79 56 44 57 45 58 59 60
REMARK SMILES IDX 80 61 47 62 31 63 32 64 40 65 33 66 34 67 38 68 41 69 35 70
REMARK SMILES IDX 36 71 39 72 37 73 63 74 64 75 72 76 65 77 66 78 70 79 73 80
REMARK SMILES IDX 67 81 68 82 71 83 69 84 48 85 49 86 57 87 50 88 51 89 55 90
REMARK SMILES IDX 58 91 52 92 53 93 56 94 54 95
REMARK H PARENT 15 5 6 15 1 22 1 23 1 24 19 29 78 48 46 59
REMARK Flexibility Score: inf
ROOT
ATOM      1  C   UNL A   1      31.740  30.834  26.289  1.00  0.00     0.117 C 
ENDROOT
BRANCH   1   2
ATOM      2  N   UNL A   1      33.014  30.321  26.737  1.00  0.00    -0.356 N 
ATOM      3  C   UNL A   1      33.499  29.071  26.847  1.00  0.00     0.225 C 
ATOM      4  O   UNL A   1      34.517  28.961  27.534  1.00  0.00    -0.275 OA
ATOM      5  H   UNL A   1      33.650  31.020  27.014  1.00  0.00     0.163 HD
BRANCH   3   6
ATOM      6  C   UNL A   1      32.928  27.906  26.054  1.00  0.00     0.101 C 
ATOM      7  C   UNL A   1      33.899  27.104  25.171  1.00  0.00     0.094 C 
ATOM      8  C   UNL A   1      33.366  25.697  24.818  1.00  0.00     0.026 C 
ATOM      9  C   UNL A   1      32.704  24.975  25.977  1.00  0.00     0.002 C 
ATOM     10  C   UNL A   1      32.032  27.115  27.029  1.00  0.00     0.015 C 
ATOM     11  C   UNL A   1      31.534  25.794  26.484  1.00  0.00     0.001 C 
BRANCH   7  12
ATOM     12  N   UNL A   1      34.327  27.699  23.875  1.00  0.00    -0.352 N 
ATOM     13  C   UNL A   1      33.687  28.277  22.814  1.00  0.00     0.226 C 
ATOM     14  O   UNL A   1      34.177  28.081  21.698  1.00  0.00    -0.275 OA
ATOM     15  H   UNL A   1      35.304  27.668  23.753  1.00  0.00     0.163 HD
BRANCH  13  16
ATOM     16  C   UNL A   1      32.596  29.296  23.011  1.00  0.00     0.168 C 
BRANCH  16  17
ATOM     17  C   UNL A   1      31.161  28.986  22.588  1.00  0.00     0.103 C 
ATOM     18  C   UNL A   1      30.172  28.989  23.800  1.00  0.00     0.069 C 
ATOM     19  C   UNL A   1      30.558  27.593  22.209  1.00  0.00     0.069 C 
ATOM     20  C   UNL A   1      30.038  27.461  23.655  1.00  0.00     0.013 C 
BRANCH  17  21
ATOM     21  N   UNL A   1      30.638  29.928  21.588  1.00  0.00    -0.352 N 
ATOM     22  H   UNL A   1      29.889  29.481  21.058  1.00  0.00     0.344 HD
ATOM     23  H   UNL A   1      31.389  30.201  20.953  1.00  0.00     0.344 HD
ATOM     24  H   UNL A   1      30.273  30.756  22.057  1.00  0.00     0.344 HD
ENDBRANCH  17  21
ENDBRANCH  16  17
ENDBRANCH  13  16
ENDBRANCH   7  12
ENDBRANCH   3   6
ENDBRANCH   1   2
BRANCH   1  25
ATOM     25  C   UNL A   1      31.463  32.194  26.915  1.00  0.00     0.042 C 
BRANCH  25  26
ATOM     26  C   UNL A   1      32.713  32.860  27.486  1.00  0.00     0.118 C 
BRANCH  26  27
ATOM     27  N   UNL A   1      32.536  34.297  27.692  1.00  0.00    -0.352 N 
ATOM     28  C   UNL A   1      33.068  35.118  28.654  1.00  0.00     0.251 C 
ATOM     29  H   UNL A   1      31.947  34.743  27.042  1.00  0.00     0.163 HD
ATOM     30  O   UNL A   1      32.612  36.230  28.856  1.00  0.00    -0.269 OA
BRANCH  28  31
ATOM     31  C   UNL A   1      34.194  34.609  29.449  1.00  0.00     0.039 A 
ATOM     32  C   UNL A   1      33.947  33.979  30.668  1.00  0.00     0.014 A 
ATOM     33  C   UNL A   1      35.489  34.717  28.941  1.00  0.00     0.014 A 
ATOM     34  C   UNL A   1      35.009  33.393  31.352  1.00  0.00     0.010 A 
ATOM     35  C   UNL A   1      36.516  34.028  29.556  1.00  0.00     0.010 A 
ATOM     36  C   UNL A   1      36.292  33.381  30.779  1.00  0.00    -0.014 A 
BRANCH  36  37
ATOM     37  C   UNL A   1      37.444  32.747  31.458  1.00  0.00     0.031 A 
ATOM     38  C   UNL A   1      38.135  31.592  30.790  1.00  0.00     0.074 A 
ATOM     39  C   UNL A   1      37.801  33.148  32.691  1.00  0.00     0.049 A 
ATOM     40  N   UNL A   1      39.071  30.805  31.254  1.00  0.00    -0.248 NA
ATOM     41  C   UNL A   1      37.681  31.244  29.432  1.00  0.00     0.031 C 
ATOM     42  C   UNL A   1      37.165  34.225  33.451  1.00  0.00     0.029 A 
ATOM     43  N   UNL A   1      38.781  32.683  33.530  1.00  0.00    -0.354 N 
ATOM     44  C   UNL A   1      39.292  29.862  30.259  1.00  0.00     0.074 A 
ATOM     45  C   UNL A   1      38.345  30.124  29.201  1.00  0.00     0.031 C 
ATOM     46  C   UNL A   1      37.789  34.357  34.633  1.00  0.00     0.029 A 
ATOM     47  C   UNL A   1      38.836  33.345  34.732  1.00  0.00     0.049 A 
ATOM     48  H   UNL A   1      39.388  31.945  33.292  1.00  0.00     0.167 HD
ATOM     49  C   UNL A   1      40.227  28.885  30.220  1.00  0.00     0.037 A 
ATOM     50  C   UNL A   1      39.639  33.145  35.793  1.00  0.00     0.037 A 
ATOM     51  C   UNL A   1      41.187  28.660  31.263  1.00  0.00     0.049 A 
ATOM     52  C   UNL A   1      40.670  32.049  35.724  1.00  0.00     0.074 A 
ATOM     53  C   UNL A   1      42.217  27.738  31.305  1.00  0.00     0.029 A 
ATOM     54  N   UNL A   1      41.236  29.373  32.453  1.00  0.00    -0.354 N 
ATOM     55  N   UNL A   1      40.917  31.203  34.753  1.00  0.00    -0.248 NA
ATOM     56  C   UNL A   1      41.539  31.885  36.897  1.00  0.00     0.031 C 
ATOM     57  C   UNL A   1      42.858  27.859  32.542  1.00  0.00     0.029 A 
ATOM     58  C   UNL A   1      42.268  28.898  33.245  1.00  0.00     0.049 A 
ATOM     59  H   UNL A   1      40.626  30.107  32.699  1.00  0.00     0.167 HD
ATOM     60  C   UNL A   1      41.991  30.434  35.179  1.00  0.00     0.074 A 
ATOM     61  C   UNL A   1      42.354  30.921  36.494  1.00  0.00     0.031 C 
ATOM     62  C   UNL A   1      42.623  29.417  34.542  1.00  0.00     0.037 A 
BRANCH  49  63
ATOM     63  C   UNL A   1      40.254  28.000  29.006  1.00  0.00     0.064 A 
ATOM     64  C   UNL A   1      40.978  28.349  27.855  1.00  0.00     0.173 A 
ATOM     65  C   UNL A   1      39.563  26.779  29.000  1.00  0.00     0.173 A 
ATOM     66  F   UNL A   1      41.643  29.512  27.801  1.00  0.00    -0.203 F 
ATOM     67  C   UNL A   1      40.979  27.526  26.731  1.00  0.00     0.198 A 
ATOM     68  C   UNL A   1      39.597  25.943  27.888  1.00  0.00     0.198 A 
ATOM     69  F   UNL A   1      38.858  26.395  30.074  1.00  0.00    -0.203 F 
ATOM     70  F   UNL A   1      41.626  27.912  25.622  1.00  0.00    -0.200 F 
ATOM     71  C   UNL A   1      40.296  26.321  26.752  1.00  0.00     0.200 A 
ATOM     72  F   UNL A   1      38.948  24.770  27.914  1.00  0.00    -0.200 F 
ATOM     73  F   UNL A   1      40.304  25.527  25.671  1.00  0.00    -0.200 F 
ENDBRANCH  49  63
BRANCH  50  74
ATOM     74  C   UNL A   1      39.523  34.014  36.993  1.00  0.00     0.064 A 
ATOM     75  C   UNL A   1      38.762  33.611  38.100  1.00  0.00     0.173 A 
ATOM     76  C   UNL A   1      40.160  35.261  37.061  1.00  0.00     0.173 A 
ATOM     77  F   UNL A   1      38.122  32.432  38.078  1.00  0.00    -0.203 F 
ATOM     78  C   UNL A   1      38.619  34.434  39.215  1.00  0.00     0.198 A 
ATOM     79  C   UNL A   1      40.042  36.071  38.190  1.00  0.00     0.198 A 
ATOM     80  F   UNL A   1      40.911  35.690  36.035  1.00  0.00    -0.203 F 
ATOM     81  F   UNL A   1      37.843  34.045  40.236  1.00  0.00    -0.200 F 
ATOM     82  C   UNL A   1      39.263  35.661  39.261  1.00  0.00     0.200 A 
ATOM     83  F   UNL A   1      40.682  37.247  38.239  1.00  0.00    -0.200 F 
ATOM     84  F   UNL A   1      39.127  36.451  40.335  1.00  0.00    -0.200 F 
ENDBRANCH  50  74
BRANCH  62  85
ATOM     85  C   UNL A   1      43.808  28.802  35.227  1.00  0.00     0.064 A 
ATOM     86  C   UNL A   1      43.677  27.704  36.088  1.00  0.00     0.173 A 
ATOM     87  C   UNL A   1      45.099  29.286  34.967  1.00  0.00     0.173 A 
ATOM     88  F   UNL A   1      42.463  27.214  36.379  1.00  0.00    -0.203 F 
ATOM     89  C   UNL A   1      44.796  27.127  36.683  1.00  0.00     0.198 A 
ATOM     90  C   UNL A   1      46.217  28.685  35.536  1.00  0.00     0.198 A 
ATOM     91  F   UNL A   1      45.278  30.329  34.142  1.00  0.00    -0.203 F 
ATOM     92  F   UNL A   1      44.644  26.109  37.540  1.00  0.00    -0.200 F 
ATOM     93  C   UNL A   1      46.064  27.611  36.399  1.00  0.00     0.200 A 
ATOM     94  F   UNL A   1      47.442  29.142  35.245  1.00  0.00    -0.200 F 
ATOM     95  F   UNL A   1      47.140  27.044  36.962  1.00  0.00    -0.200 F 
ENDBRANCH  62  85
ENDBRANCH  36  37
ENDBRANCH  28  31
ENDBRANCH  26  27
ENDBRANCH  25  26
ENDBRANCH   1  25
TORSDOF 14
ENDMDL
MODEL 2
REMARK VINA RESULT:     -12.1      0.591      7.520
REMARK SMILES [NH3+]C1(CC(=O)N[C@@H]2CCCC[C@H]2C(=O)NCCCNC(=O)c2ccc(-c3c4nc(c(-c5c(F)c(F)c(F)c(F)c5F)c5ccc([nH]5)c(-c5c(F)c(F)c(F)c(F)c5F)c5nc(c(-c6c(F)c(F)c(F)c(F)c6F)c6ccc3[nH]6)C=C5)C=C4)cc2)CCC1
REMARK SMILES IDX 16 1 15 2 13 3 14 4 12 6 7 7 8 8 9 9 11 10 10 11 6 12 4 13
REMARK SMILES IDX 5 14 3 16 2 17 85 18 87 19 86 20 1 21 17 25 18 26 19 27
REMARK SMILES IDX 20 28 21 30 22 31 23 32 84 33 24 34 83 35 25 36 26 37 27 38
REMARK SMILES IDX 77 39 28 40 82 41 76 42 78 43 29 44 81 45 75 46 74 47 30 49
REMARK SMILES IDX 62 50 42 51 61 52 43 53 46 54 60 55 79 56 44 57 45 58 59 60
REMARK SMILES IDX 80 61 47 62 31 63 32 64 40 65 33 66 34 67 38 68 41 69 35 70
REMARK SMILES IDX 36 71 39 72 37 73 63 74 64 75 72 76 65 77 66 78 70 79 73 80
REMARK SMILES IDX 67 81 68 82 71 83 69 84 48 85 49 86 57 87 50 88 51 89 55 90
REMARK SMILES IDX 58 91 52 92 53 93 56 94 54 95
REMARK H PARENT 15 5 6 15 1 22 1 23 1 24 19 29 78 48 46 59
REMARK Flexibility Score: inf
ROOT
ATOM      1  C   UNL A   1      31.569  30.876  26.479  1.00  0.00     0.117 C 
ENDROOT
BRANCH   1   2
ATOM      2  N   UNL A   1      32.885  30.391  26.824  1.00  0.00    -0.356 N 
ATOM      3  C   UNL A   1      33.413  29.155  26.865  1.00  0.00     0.225 C 
ATOM      4  O   UNL A   1      34.478  29.058  27.479  1.00  0.00    -0.275 OA
ATOM      5  H   UNL A   1      33.518  31.103  27.079  1.00  0.00     0.163 HD
BRANCH   3   6
ATOM      6  C   UNL A   1      32.824  27.994  26.079  1.00  0.00     0.101 C 
ATOM      7  C   UNL A   1      33.788  27.144  25.236  1.00  0.00     0.094 C 
ATOM      8  C   UNL A   1      33.218  25.749  24.894  1.00  0.00     0.026 C 
ATOM      9  C   UNL A   1      32.504  25.071  26.050  1.00  0.00     0.002 C 
ATOM     10  C   UNL A   1      31.878  27.252  27.045  1.00  0.00     0.015 C 
ATOM     11  C   UNL A   1      31.349  25.938  26.511  1.00  0.00     0.001 C 
BRANCH   7  12
ATOM     12  N   UNL A   1      34.269  27.701  23.941  1.00  0.00    -0.352 N 
ATOM     13  C   UNL A   1      33.675  28.275  22.852  1.00  0.00     0.226 C 
ATOM     14  O   UNL A   1      34.189  28.043  21.753  1.00  0.00    -0.275 OA
ATOM     15  H   UNL A   1      35.247  27.640  23.846  1.00  0.00     0.163 HD
BRANCH  13  16
ATOM     16  C   UNL A   1      32.608  29.328  22.998  1.00  0.00     0.168 C 
BRANCH  16  17
ATOM     17  C   UNL A   1      31.170  29.041  22.570  1.00  0.00     0.103 C 
ATOM     18  C   UNL A   1      30.171  29.101  23.772  1.00  0.00     0.069 C 
ATOM     19  C   UNL A   1      30.538  27.651  22.225  1.00  0.00     0.069 C 
ATOM     20  C   UNL A   1      30.002  27.572  23.669  1.00  0.00     0.013 C 
BRANCH  17  21
ATOM     21  N   UNL A   1      30.679  29.966  21.539  1.00  0.00    -0.352 N 
ATOM     22  H   UNL A   1      29.851  30.451  21.884  1.00  0.00     0.344 HD
ATOM     23  H   UNL A   1      30.440  29.440  20.697  1.00  0.00     0.344 HD
ATOM     24  H   UNL A   1      31.405  30.647  21.319  1.00  0.00     0.344 HD
ENDBRANCH  17  21
ENDBRANCH  16  17
ENDBRANCH  13  16
ENDBRANCH   7  12
ENDBRANCH   3   6
ENDBRANCH   1   2
BRANCH   1  25
ATOM     25  C   UNL A   1      31.456  32.367  26.771  1.00  0.00     0.042 C 
BRANCH  25  26
ATOM     26  C   UNL A   1      32.762  32.985  27.263  1.00  0.00     0.118 C 
BRANCH  26  27
ATOM     27  N   UNL A   1      32.598  34.373  27.690  1.00  0.00    -0.352 N 
ATOM     28  C   UNL A   1      33.122  35.025  28.778  1.00  0.00     0.251 C 
ATOM     29  H   UNL A   1      32.026  34.924  27.109  1.00  0.00     0.163 HD
ATOM     30  O   UNL A   1      32.674  36.098  29.144  1.00  0.00    -0.269 OA
BRANCH  28  31
ATOM     31  C   UNL A   1      34.228  34.382  29.501  1.00  0.00     0.039 A 
ATOM     32  C   UNL A   1      33.949  33.539  30.575  1.00  0.00     0.014 A 
ATOM     33  C   UNL A   1      35.537  34.586  29.063  1.00  0.00     0.014 A 
ATOM     34  C   UNL A   1      34.995  32.839  31.173  1.00  0.00     0.010 A 
ATOM     35  C   UNL A   1      36.550  33.798  29.573  1.00  0.00     0.010 A 
ATOM     36  C   UNL A   1      36.294  32.937  30.648  1.00  0.00    -0.014 A 
BRANCH  36  37
ATOM     37  C   UNL A   1      37.431  32.192  31.235  1.00  0.00     0.031 A 
ATOM     38  C   UNL A   1      37.923  32.574  32.602  1.00  0.00     0.074 A 
ATOM     39  C   UNL A   1      38.062  31.251  30.510  1.00  0.00     0.049 A 
ATOM     40  N   UNL A   1      38.977  32.155  33.251  1.00  0.00    -0.248 NA
ATOM     41  C   UNL A   1      37.149  33.603  33.320  1.00  0.00     0.031 C 
ATOM     42  C   UNL A   1      37.700  30.838  29.153  1.00  0.00     0.029 A 
ATOM     43  N   UNL A   1      39.156  30.481  30.810  1.00  0.00    -0.354 N 
ATOM     44  C   UNL A   1      39.003  32.885  34.431  1.00  0.00     0.074 A 
ATOM     45  C   UNL A   1      37.909  33.826  34.379  1.00  0.00     0.031 C 
ATOM     46  C   UNL A   1      38.539  29.870  28.749  1.00  0.00     0.029 A 
ATOM     47  C   UNL A   1      39.524  29.628  29.799  1.00  0.00     0.049 A 
ATOM     48  H   UNL A   1      39.631  30.534  31.671  1.00  0.00     0.167 HD
ATOM     49  C   UNL A   1      39.848  32.757  35.481  1.00  0.00     0.037 A 
ATOM     50  C   UNL A   1      40.548  28.758  29.730  1.00  0.00     0.037 A 
ATOM     51  C   UNL A   1      40.909  31.791  35.535  1.00  0.00     0.049 A 
ATOM     52  C   UNL A   1      41.475  28.637  30.911  1.00  0.00     0.074 A 
ATOM     53  C   UNL A   1      41.789  31.532  36.570  1.00  0.00     0.029 A 
ATOM     54  N   UNL A   1      41.231  30.919  34.504  1.00  0.00    -0.354 N 
ATOM     55  N   UNL A   1      41.455  29.285  32.051  1.00  0.00    -0.248 NA
ATOM     56  C   UNL A   1      42.563  27.657  30.799  1.00  0.00     0.031 C 
ATOM     57  C   UNL A   1      42.675  30.537  36.147  1.00  0.00     0.029 A 
ATOM     58  C   UNL A   1      42.309  30.133  34.872  1.00  0.00     0.049 A 
ATOM     59  H   UNL A   1      40.763  30.868  33.639  1.00  0.00     0.167 HD
ATOM     60  C   UNL A   1      42.498  28.767  32.805  1.00  0.00     0.074 A 
ATOM     61  C   UNL A   1      43.126  27.743  31.995  1.00  0.00     0.031 C 
ATOM     62  C   UNL A   1      42.901  29.104  34.055  1.00  0.00     0.037 A 
BRANCH  49  63
ATOM     63  C   UNL A   1      39.645  33.678  36.650  1.00  0.00     0.064 A 
ATOM     64  C   UNL A   1      38.853  33.312  37.750  1.00  0.00     0.173 A 
ATOM     65  C   UNL A   1      40.264  34.937  36.680  1.00  0.00     0.173 A 
ATOM     66  F   UNL A   1      38.225  32.127  37.765  1.00  0.00    -0.203 F 
ATOM     67  C   UNL A   1      38.661  34.184  38.818  1.00  0.00     0.198 A 
ATOM     68  C   UNL A   1      40.099  35.791  37.766  1.00  0.00     0.198 A 
ATOM     69  F   UNL A   1      41.034  35.338  35.657  1.00  0.00    -0.203 F 
ATOM     70  F   UNL A   1      37.850  33.835  39.827  1.00  0.00    -0.200 F 
ATOM     71  C   UNL A   1      39.290  35.419  38.829  1.00  0.00     0.200 A 
ATOM     72  F   UNL A   1      40.720  36.979  37.783  1.00  0.00    -0.200 F 
ATOM     73  F   UNL A   1      39.109  36.255  39.862  1.00  0.00    -0.200 F 
ENDBRANCH  49  63
BRANCH  50  74
ATOM     74  C   UNL A   1      40.735  27.917  28.519  1.00  0.00     0.064 A 
ATOM     75  C   UNL A   1      41.509  28.371  27.441  1.00  0.00     0.173 A 
ATOM     76  C   UNL A   1      40.146  26.649  28.408  1.00  0.00     0.173 A 
ATOM     77  F   UNL A   1      42.082  29.583  27.494  1.00  0.00    -0.203 F 
ATOM     78  C   UNL A   1      41.661  27.605  26.289  1.00  0.00     0.198 A 
ATOM     79  C   UNL A   1      40.324  25.869  27.267  1.00  0.00     0.198 A 
ATOM     80  F   UNL A   1      39.406  26.160  29.415  1.00  0.00    -0.203 F 
ATOM     81  F   UNL A   1      42.362  28.087  25.253  1.00  0.00    -0.200 F 
ATOM     82  C   UNL A   1      41.072  26.352  26.204  1.00  0.00     0.200 A 
ATOM     83  F   UNL A   1      39.770  24.651  27.197  1.00  0.00    -0.200 F 
ATOM     84  F   UNL A   1      41.221  25.613  25.096  1.00  0.00    -0.200 F 
ENDBRANCH  50  74
BRANCH  62  85
ATOM     85  C   UNL A   1      44.035  28.322  34.650  1.00  0.00     0.064 A 
ATOM     86  C   UNL A   1      43.824  27.122  35.344  1.00  0.00     0.173 A 
ATOM     87  C   UNL A   1      45.358  28.755  34.469  1.00  0.00     0.173 A 
ATOM     88  F   UNL A   1      42.578  26.675  35.555  1.00  0.00    -0.203 F 
ATOM     89  C   UNL A   1      44.896  26.395  35.854  1.00  0.00     0.198 A 
ATOM     90  C   UNL A   1      46.428  28.008  34.950  1.00  0.00     0.198 A 
ATOM     91  F   UNL A   1      45.614  29.892  33.804  1.00  0.00    -0.203 F 
ATOM     92  F   UNL A   1      44.669  25.276  36.554  1.00  0.00    -0.200 F 
ATOM     93  C   UNL A   1      46.196  26.833  35.649  1.00  0.00     0.200 A 
ATOM     94  F   UNL A   1      47.684  28.423  34.734  1.00  0.00    -0.200 F 
ATOM     95  F   UNL A   1      47.226  26.124  36.129  1.00  0.00    -0.200 F 
ENDBRANCH  62  85
ENDBRANCH  36  37
ENDBRANCH  28  31
ENDBRANCH  26  27
ENDBRANCH  25  26
ENDBRANCH   1  25
TORSDOF 14
ENDMDL
MODEL 3
REMARK VINA RESULT:     -12.1      3.199      5.067
REMARK SMILES [NH3+]C1(CC(=O)N[C@@H]2CCCC[C@H]2C(=O)NCCCNC(=O)c2ccc(-c3c4nc(c(-c5c(F)c(F)c(F)c(F)c5F)c5ccc([nH]5)c(-c5c(F)c(F)c(F)c(F)c5F)c5nc(c(-c6c(F)c(F)c(F)c(F)c6F)c6ccc3[nH]6)C=C5)C=C4)cc2)CCC1
REMARK SMILES IDX 16 1 15 2 13 3 14 4 12 6 7 7 8 8 9 9 11 10 10 11 6 12 4 13
REMARK SMILES IDX 5 14 3 16 2 17 85 18 87 19 86 20 1 21 17 25 18 26 19 27
REMARK SMILES IDX 20 28 21 30 22 31 23 32 84 33 24 34 83 35 25 36 26 37 27 38
REMARK SMILES IDX 77 39 28 40 82 41 76 42 78 43 29 44 81 45 75 46 74 47 30 49
REMARK SMILES IDX 62 50 42 51 61 52 43 53 46 54 60 55 79 56 44 57 45 58 59 60
REMARK SMILES IDX 80 61 47 62 31 63 32 64 40 65 33 66 34 67 38 68 41 69 35 70
REMARK SMILES IDX 36 71 39 72 37 73 63 74 64 75 72 76 65 77 66 78 70 79 73 80
REMARK SMILES IDX 67 81 68 82 71 83 69 84 48 85 49 86 57 87 50 88 51 89 55 90
REMARK SMILES IDX 58 91 52 92 53 93 56 94 54 95
REMARK H PARENT 15 5 6 15 1 22 1 23 1 24 19 29 78 48 46 59
REMARK Flexibility Score: inf
ROOT
ATOM      1  C   UNL A   1      33.701  26.285  25.692  1.00  0.00     0.117 C 
ENDROOT
BRANCH   1   2
ATOM      2  N   UNL A   1      33.704  25.545  24.452  1.00  0.00    -0.356 N 
ATOM      3  C   UNL A   1      34.437  24.502  24.022  1.00  0.00     0.225 C 
ATOM      4  O   UNL A   1      34.391  24.294  22.807  1.00  0.00    -0.275 OA
ATOM      5  H   UNL A   1      33.043  25.865  23.796  1.00  0.00     0.163 HD
BRANCH   3   6
ATOM      6  C   UNL A   1      35.142  23.555  24.979  1.00  0.00     0.101 C 
ATOM      7  C   UNL A   1      34.814  22.056  24.867  1.00  0.00     0.094 C 
ATOM      8  C   UNL A   1      35.899  21.155  25.498  1.00  0.00     0.026 C 
ATOM      9  C   UNL A   1      37.321  21.593  25.197  1.00  0.00     0.002 C 
ATOM     10  C   UNL A   1      36.630  23.962  24.975  1.00  0.00     0.015 C 
ATOM     11  C   UNL A   1      37.539  23.001  25.711  1.00  0.00     0.001 C 
BRANCH   7  12
ATOM     12  N   UNL A   1      33.524  21.574  25.432  1.00  0.00    -0.352 N 
ATOM     13  C   UNL A   1      32.454  20.874  24.947  1.00  0.00     0.226 C 
ATOM     14  O   UNL A   1      31.344  21.177  25.398  1.00  0.00    -0.275 OA
ATOM     15  H   UNL A   1      33.415  21.817  26.380  1.00  0.00     0.163 HD
BRANCH  13  16
ATOM     16  C   UNL A   1      32.634  19.642  24.102  1.00  0.00     0.168 C 
BRANCH  16  17
ATOM     17  C   UNL A   1      33.037  18.314  24.741  1.00  0.00     0.103 C 
ATOM     18  C   UNL A   1      34.533  17.952  24.462  1.00  0.00     0.069 C 
ATOM     19  C   UNL A   1      32.685  16.872  24.246  1.00  0.00     0.069 C 
ATOM     20  C   UNL A   1      34.054  16.815  23.539  1.00  0.00     0.013 C 
BRANCH  17  21
ATOM     21  N   UNL A   1      32.839  18.291  26.197  1.00  0.00    -0.352 N 
ATOM     22  H   UNL A   1      33.100  19.195  26.590  1.00  0.00     0.344 HD
ATOM     23  H   UNL A   1      33.420  17.560  26.608  1.00  0.00     0.344 HD
ATOM     24  H   UNL A   1      31.858  18.100  26.404  1.00  0.00     0.344 HD
ENDBRANCH  17  21
ENDBRANCH  16  17
ENDBRANCH  13  16
ENDBRANCH   7  12
ENDBRANCH   3   6
ENDBRANCH   1   2
BRANCH   1  25
ATOM     25  C   UNL A   1      32.880  27.560  25.551  1.00  0.00     0.042 C 
BRANCH  25  26
ATOM     26  C   UNL A   1      33.731  28.795  25.264  1.00  0.00     0.118 C 
BRANCH  26  27
ATOM     27  N   UNL A   1      33.105  30.028  25.740  1.00  0.00    -0.352 N 
ATOM     28  C   UNL A   1      33.412  30.805  26.828  1.00  0.00     0.251 C 
ATOM     29  H   UNL A   1      32.350  30.350  25.196  1.00  0.00     0.163 HD
ATOM     30  O   UNL A   1      32.630  31.643  27.243  1.00  0.00    -0.269 OA
BRANCH  28  31
ATOM     31  C   UNL A   1      34.704  30.583  27.492  1.00  0.00     0.039 A 
ATOM     32  C   UNL A   1      35.632  31.621  27.555  1.00  0.00     0.014 A 
ATOM     33  C   UNL A   1      34.956  29.350  28.095  1.00  0.00     0.014 A 
ATOM     34  C   UNL A   1      36.799  31.438  28.293  1.00  0.00     0.010 A 
ATOM     35  C   UNL A   1      36.050  29.216  28.927  1.00  0.00     0.010 A 
ATOM     36  C   UNL A   1      36.994  30.248  29.014  1.00  0.00    -0.014 A 
BRANCH  36  37
ATOM     37  C   UNL A   1      38.207  30.020  29.831  1.00  0.00     0.031 A 
ATOM     38  C   UNL A   1      39.287  29.124  29.296  1.00  0.00     0.074 A 
ATOM     39  C   UNL A   1      38.289  30.539  31.069  1.00  0.00     0.049 A 
ATOM     40  N   UNL A   1      40.364  28.678  29.887  1.00  0.00    -0.248 NA
ATOM     41  C   UNL A   1      39.109  28.622  27.921  1.00  0.00     0.031 C 
ATOM     42  C   UNL A   1      37.275  31.381  31.707  1.00  0.00     0.029 A 
ATOM     43  N   UNL A   1      39.269  30.421  32.021  1.00  0.00    -0.354 N 
ATOM     44  C   UNL A   1      40.970  27.830  28.970  1.00  0.00     0.074 A 
ATOM     45  C   UNL A   1      40.107  27.760  27.815  1.00  0.00     0.031 C 
ATOM     46  C   UNL A   1      37.698  31.726  32.934  1.00  0.00     0.029 A 
ATOM     47  C   UNL A   1      38.989  31.093  33.186  1.00  0.00     0.049 A 
ATOM     48  H   UNL A   1      40.095  29.905  31.882  1.00  0.00     0.167 HD
ATOM     49  C   UNL A   1      42.159  27.192  29.072  1.00  0.00     0.037 A 
ATOM     50  C   UNL A   1      39.697  31.177  34.327  1.00  0.00     0.037 A 
ATOM     51  C   UNL A   1      43.025  27.301  30.213  1.00  0.00     0.049 A 
ATOM     52  C   UNL A   1      41.016  30.456  34.416  1.00  0.00     0.074 A 
ATOM     53  C   UNL A   1      44.278  26.747  30.402  1.00  0.00     0.029 A 
ATOM     54  N   UNL A   1      42.724  28.019  31.362  1.00  0.00    -0.354 N 
ATOM     55  N   UNL A   1      41.614  29.708  33.520  1.00  0.00    -0.248 NA
ATOM     56  C   UNL A   1      41.763  30.597  35.672  1.00  0.00     0.031 C 
ATOM     57  C   UNL A   1      44.714  27.089  31.685  1.00  0.00     0.029 A 
ATOM     58  C   UNL A   1      43.761  27.907  32.272  1.00  0.00     0.049 A 
ATOM     59  H   UNL A   1      41.896  28.532  31.508  1.00  0.00     0.167 HD
ATOM     60  C   UNL A   1      42.820  29.322  34.086  1.00  0.00     0.074 A 
ATOM     61  C   UNL A   1      42.873  29.927  35.401  1.00  0.00     0.031 C 
ATOM     62  C   UNL A   1      43.799  28.540  33.567  1.00  0.00     0.037 A 
BRANCH  49  63
ATOM     63  C   UNL A   1      42.587  26.335  27.916  1.00  0.00     0.064 A 
ATOM     64  C   UNL A   1      42.128  25.016  27.766  1.00  0.00     0.173 A 
ATOM     65  C   UNL A   1      43.453  26.842  26.936  1.00  0.00     0.173 A 
ATOM     66  F   UNL A   1      41.312  24.476  28.683  1.00  0.00    -0.203 F 
ATOM     67  C   UNL A   1      42.548  24.228  26.698  1.00  0.00     0.198 A 
ATOM     68  C   UNL A   1      43.841  26.062  25.850  1.00  0.00     0.198 A 
ATOM     69  F   UNL A   1      43.920  28.096  27.027  1.00  0.00    -0.203 F 
ATOM     70  F   UNL A   1      42.145  22.952  26.611  1.00  0.00    -0.200 F 
ATOM     71  C   UNL A   1      43.397  24.753  25.737  1.00  0.00     0.200 A 
ATOM     72  F   UNL A   1      44.650  26.576  24.913  1.00  0.00    -0.200 F 
ATOM     73  F   UNL A   1      43.794  23.995  24.705  1.00  0.00    -0.200 F 
ENDBRANCH  49  63
BRANCH  50  74
ATOM     74  C   UNL A   1      39.191  31.992  35.463  1.00  0.00     0.064 A 
ATOM     75  C   UNL A   1      39.493  33.358  35.556  1.00  0.00     0.173 A 
ATOM     76  C   UNL A   1      38.403  31.430  36.477  1.00  0.00     0.173 A 
ATOM     77  F   UNL A   1      40.256  33.940  34.618  1.00  0.00    -0.203 F 
ATOM     78  C   UNL A   1      39.054  34.123  36.634  1.00  0.00     0.198 A 
ATOM     79  C   UNL A   1      37.936  32.202  37.540  1.00  0.00     0.198 A 
ATOM     80  F   UNL A   1      38.073  30.130  36.430  1.00  0.00    -0.203 F 
ATOM     81  F   UNL A   1      39.402  35.413  36.725  1.00  0.00    -0.200 F 
ATOM     82  C   UNL A   1      38.271  33.545  37.623  1.00  0.00     0.200 A 
ATOM     83  F   UNL A   1      37.165  31.645  38.482  1.00  0.00    -0.200 F 
ATOM     84  F   UNL A   1      37.846  34.281  38.659  1.00  0.00    -0.200 F 
ENDBRANCH  50  74
BRANCH  62  85
ATOM     85  C   UNL A   1      45.035  28.340  34.393  1.00  0.00     0.064 A 
ATOM     86  C   UNL A   1      46.119  29.227  34.330  1.00  0.00     0.173 A 
ATOM     87  C   UNL A   1      45.107  27.275  35.304  1.00  0.00     0.173 A 
ATOM     88  F   UNL A   1      46.104  30.252  33.465  1.00  0.00    -0.203 F 
ATOM     89  C   UNL A   1      47.240  29.041  35.134  1.00  0.00     0.198 A 
ATOM     90  C   UNL A   1      46.214  27.113  36.130  1.00  0.00     0.198 A 
ATOM     91  F   UNL A   1      44.092  26.404  35.409  1.00  0.00    -0.203 F 
ATOM     92  F   UNL A   1      48.284  29.874  35.024  1.00  0.00    -0.200 F 
ATOM     93  C   UNL A   1      47.283  27.992  36.040  1.00  0.00     0.200 A 
ATOM     94  F   UNL A   1      46.245  26.109  37.017  1.00  0.00    -0.200 F 
ATOM     95  F   UNL A   1      48.358  27.824  36.822  1.00  0.00    -0.200 F 
ENDBRANCH  62  85
ENDBRANCH  36  37
ENDBRANCH  28  31
ENDBRANCH  26  27
ENDBRANCH  25  26
ENDBRANCH   1  25
TORSDOF 14
ENDMDL
