MODEL 1
REMARK VINA RESULT:     -11.8      0.000      0.000
REMARK SMILES C[C@@H]1CC[C@H]([N@@H+](CC(=O)NCCCNC(=O)c2ccc(-c3c4nc(c(-c5c(F)c(F)c(F)c(F)c5F)c5ccc([nH]5)c(-c5c(F)c(F)c(F)c(F)c5F)c5nc(c(-c6c(F)c(F)c(F)c(F)c6F)c6ccc3[nH]6)C=C5)C=C4)cc2)CC(F)(F)F)C[C@@H]1C
REMARK SMILES IDX 11 1 10 2 8 3 9 4 7 6 6 7 5 9 1 10 2 11 3 12 86 13 4 14
REMARK SMILES IDX 85 15 87 16 80 17 81 18 82 19 83 20 84 21 12 22 13 23 14 24
REMARK SMILES IDX 15 25 16 27 17 28 18 29 79 30 19 31 78 32 20 33 21 34 22 35
REMARK SMILES IDX 72 36 23 37 77 38 71 39 73 40 24 41 76 42 70 43 69 44 25 46
REMARK SMILES IDX 57 47 37 48 56 49 38 50 41 51 55 52 74 53 39 54 40 55 54 57
REMARK SMILES IDX 75 58 42 59 26 60 27 61 35 62 28 63 29 64 33 65 36 66 30 67
REMARK SMILES IDX 31 68 34 69 32 70 58 71 59 72 67 73 60 74 61 75 65 76 68 77
REMARK SMILES IDX 62 78 63 79 66 80 64 81 43 82 44 83 52 84 45 85 46 86 50 87
REMARK SMILES IDX 53 88 47 89 48 90 51 91 49 92
REMARK H PARENT 10 5 6 8 14 26 73 45 41 56
REMARK Flexibility Score: inf
ROOT
ATOM      1  C   UNL A   1      31.310  30.628  25.326  1.00  0.00     0.118 C 
ENDROOT
BRANCH   1   2
ATOM      2  N   UNL A   1      32.210  29.483  25.246  1.00  0.00    -0.351 N 
ATOM      3  C   UNL A   1      32.922  28.942  24.204  1.00  0.00     0.275 C 
ATOM      4  O   UNL A   1      33.898  28.254  24.514  1.00  0.00    -0.269 OA
ATOM      5  H   UNL A   1      32.330  29.009  26.101  1.00  0.00     0.163 HD
BRANCH   3   6
ATOM      6  C   UNL A   1      32.494  29.090  22.724  1.00  0.00     0.364 C 
BRANCH   6   7
ATOM      7  N   UNL A   1      31.500  28.082  22.244  1.00  0.00    -0.317 N 
ATOM      8  H   UNL A   1      31.680  27.980  21.245  1.00  0.00     0.349 HD
BRANCH   7   9
ATOM      9  C   UNL A   1      30.129  28.573  22.284  1.00  0.00     0.184 C 
ATOM     10  C   UNL A   1      27.282  30.954  23.670  1.00  0.00     0.008 C 
ATOM     11  C   UNL A   1      27.503  29.903  22.584  1.00  0.00    -0.011 C 
ATOM     12  C   UNL A   1      27.796  28.500  23.191  1.00  0.00     0.010 C 
ATOM     13  C   UNL A   1      28.567  30.316  21.548  1.00  0.00    -0.006 C 
ATOM     14  C   UNL A   1      29.282  28.214  23.514  1.00  0.00     0.065 C 
ATOM     15  C   UNL A   1      29.973  30.078  22.060  1.00  0.00     0.068 C 
ATOM     16  C   UNL A   1      28.448  31.704  20.936  1.00  0.00     0.008 C 
ENDBRANCH   7   9
BRANCH   7  17
ATOM     17  C   UNL A   1      31.744  26.671  22.634  1.00  0.00     0.379 C 
BRANCH  17  18
ATOM     18  C   UNL A   1      32.716  25.683  21.938  1.00  0.00     0.438 C 
ATOM     19  F   UNL A   1      32.419  24.389  22.177  1.00  0.00    -0.165 F 
ATOM     20  F   UNL A   1      32.627  25.847  20.590  1.00  0.00    -0.165 F 
ATOM     21  F   UNL A   1      34.002  25.900  22.269  1.00  0.00    -0.165 F 
ENDBRANCH  17  18
ENDBRANCH   7  17
ENDBRANCH   6   7
ENDBRANCH   3   6
ENDBRANCH   1   2
BRANCH   1  22
ATOM     22  C   UNL A   1      31.367  31.486  26.606  1.00  0.00     0.042 C 
BRANCH  22  23
ATOM     23  C   UNL A   1      32.493  32.521  26.770  1.00  0.00     0.118 C 
BRANCH  23  24
ATOM     24  N   UNL A   1      32.171  33.759  27.443  1.00  0.00    -0.352 N 
ATOM     25  C   UNL A   1      32.974  34.429  28.343  1.00  0.00     0.251 C 
ATOM     26  H   UNL A   1      31.297  34.163  27.239  1.00  0.00     0.163 HD
ATOM     27  O   UNL A   1      32.647  35.554  28.739  1.00  0.00    -0.269 OA
BRANCH  25  28
ATOM     28  C   UNL A   1      34.214  33.816  28.890  1.00  0.00     0.039 A 
ATOM     29  C   UNL A   1      34.098  32.727  29.757  1.00  0.00     0.014 A 
ATOM     30  C   UNL A   1      35.478  34.365  28.661  1.00  0.00     0.014 A 
ATOM     31  C   UNL A   1      35.239  32.176  30.366  1.00  0.00     0.010 A 
ATOM     32  C   UNL A   1      36.627  33.784  29.240  1.00  0.00     0.010 A 
ATOM     33  C   UNL A   1      36.527  32.684  30.110  1.00  0.00    -0.014 A 
BRANCH  33  34
ATOM     34  C   UNL A   1      37.728  32.051  30.754  1.00  0.00     0.031 A 
ATOM     35  C   UNL A   1      38.174  32.411  32.153  1.00  0.00     0.074 A 
ATOM     36  C   UNL A   1      38.440  31.114  30.090  1.00  0.00     0.049 A 
ATOM     37  N   UNL A   1      39.134  31.885  32.881  1.00  0.00    -0.248 NA
ATOM     38  C   UNL A   1      37.464  33.511  32.817  1.00  0.00     0.031 C 
ATOM     39  C   UNL A   1      38.186  30.679  28.718  1.00  0.00     0.029 A 
ATOM     40  N   UNL A   1      39.520  30.351  30.484  1.00  0.00    -0.354 N 
ATOM     41  C   UNL A   1      39.141  32.586  34.082  1.00  0.00     0.074 A 
ATOM     42  C   UNL A   1      38.120  33.607  33.966  1.00  0.00     0.031 C 
ATOM     43  C   UNL A   1      39.059  29.710  28.395  1.00  0.00     0.029 A 
ATOM     44  C   UNL A   1      39.952  29.465  29.526  1.00  0.00     0.049 A 
ATOM     45  H   UNL A   1      39.941  30.435  31.370  1.00  0.00     0.167 HD
ATOM     46  C   UNL A   1      39.903  32.390  35.188  1.00  0.00     0.037 A 
ATOM     47  C   UNL A   1      40.943  28.550  29.547  1.00  0.00     0.037 A 
ATOM     48  C   UNL A   1      40.910  31.369  35.340  1.00  0.00     0.049 A 
ATOM     49  C   UNL A   1      41.777  28.351  30.785  1.00  0.00     0.074 A 
ATOM     50  C   UNL A   1      41.663  31.060  36.462  1.00  0.00     0.029 A 
ATOM     51  N   UNL A   1      41.318  30.499  34.342  1.00  0.00    -0.354 N 
ATOM     52  N   UNL A   1      41.697  28.954  31.943  1.00  0.00    -0.248 NA
ATOM     53  C   UNL A   1      42.837  27.330  30.717  1.00  0.00     0.031 C 
ATOM     54  C   UNL A   1      42.560  30.038  36.129  1.00  0.00     0.029 A 
ATOM     55  C   UNL A   1      42.332  29.676  34.814  1.00  0.00     0.049 A 
ATOM     56  H   UNL A   1      40.945  30.469  33.432  1.00  0.00     0.167 HD
ATOM     57  C   UNL A   1      42.670  28.372  32.747  1.00  0.00     0.074 A 
ATOM     58  C   UNL A   1      43.323  27.357  31.950  1.00  0.00     0.031 C 
ATOM     59  C   UNL A   1      42.988  28.660  34.032  1.00  0.00     0.037 A 
BRANCH  46  60
ATOM     60  C   UNL A   1      39.674  33.302  36.361  1.00  0.00     0.064 A 
ATOM     61  C   UNL A   1      38.772  32.969  37.383  1.00  0.00     0.173 A 
ATOM     62  C   UNL A   1      40.418  34.484  36.504  1.00  0.00     0.173 A 
ATOM     63  F   UNL A   1      38.040  31.848  37.297  1.00  0.00    -0.203 F 
ATOM     64  C   UNL A   1      38.602  33.799  38.489  1.00  0.00     0.198 A 
ATOM     65  C   UNL A   1      40.266  35.298  37.624  1.00  0.00     0.198 A 
ATOM     66  F   UNL A   1      41.309  34.840  35.566  1.00  0.00    -0.203 F 
ATOM     67  F   UNL A   1      37.708  33.478  39.433  1.00  0.00    -0.200 F 
ATOM     68  C   UNL A   1      39.353  34.958  38.612  1.00  0.00     0.200 A 
ATOM     69  F   UNL A   1      41.007  36.407  37.751  1.00  0.00    -0.200 F 
ATOM     70  F   UNL A   1      39.197  35.749  39.683  1.00  0.00    -0.200 F 
ENDBRANCH  46  60
BRANCH  47  71
ATOM     71  C   UNL A   1      41.192  27.711  28.345  1.00  0.00     0.064 A 
ATOM     72  C   UNL A   1      42.094  28.123  27.353  1.00  0.00     0.173 A 
ATOM     73  C   UNL A   1      40.527  26.491  28.158  1.00  0.00     0.173 A 
ATOM     74  F   UNL A   1      42.731  29.297  27.473  1.00  0.00    -0.203 F 
ATOM     75  C   UNL A   1      42.309  27.353  26.212  1.00  0.00     0.198 A 
ATOM     76  C   UNL A   1      40.763  25.710  27.030  1.00  0.00     0.198 A 
ATOM     77  F   UNL A   1      39.654  26.056  29.078  1.00  0.00    -0.203 F 
ATOM     78  F   UNL A   1      43.144  27.790  25.259  1.00  0.00    -0.200 F 
ATOM     79  C   UNL A   1      41.649  26.144  26.055  1.00  0.00     0.200 A 
ATOM     80  F   UNL A   1      40.131  24.536  26.887  1.00  0.00    -0.200 F 
ATOM     81  F   UNL A   1      41.861  25.400  24.962  1.00  0.00    -0.200 F 
ENDBRANCH  47  71
BRANCH  59  82
ATOM     82  C   UNL A   1      44.076  27.851  34.682  1.00  0.00     0.064 A 
ATOM     83  C   UNL A   1      43.803  26.642  35.339  1.00  0.00     0.173 A 
ATOM     84  C   UNL A   1      45.414  28.270  34.615  1.00  0.00     0.173 A 
ATOM     85  F   UNL A   1      42.539  26.202  35.446  1.00  0.00    -0.203 F 
ATOM     86  C   UNL A   1      44.824  25.896  35.924  1.00  0.00     0.198 A 
ATOM     87  C   UNL A   1      46.436  27.509  35.178  1.00  0.00     0.198 A 
ATOM     88  F   UNL A   1      45.732  29.416  33.994  1.00  0.00    -0.203 F 
ATOM     89  F   UNL A   1      44.534  24.765  36.584  1.00  0.00    -0.200 F 
ATOM     90  C   UNL A   1      46.140  26.326  35.837  1.00  0.00     0.200 A 
ATOM     91  F   UNL A   1      47.707  27.922  35.084  1.00  0.00    -0.200 F 
ATOM     92  F   UNL A   1      47.122  25.604  36.396  1.00  0.00    -0.200 F 
ENDBRANCH  59  82
ENDBRANCH  33  34
ENDBRANCH  25  28
ENDBRANCH  23  24
ENDBRANCH  22  23
ENDBRANCH   1  22
TORSDOF 14
ENDMDL
MODEL 2
REMARK VINA RESULT:     -11.7      2.321      4.014
REMARK SMILES C[C@@H]1CC[C@H]([N@@H+](CC(=O)NCCCNC(=O)c2ccc(-c3c4nc(c(-c5c(F)c(F)c(F)c(F)c5F)c5ccc([nH]5)c(-c5c(F)c(F)c(F)c(F)c5F)c5nc(c(-c6c(F)c(F)c(F)c(F)c6F)c6ccc3[nH]6)C=C5)C=C4)cc2)CC(F)(F)F)C[C@@H]1C
REMARK SMILES IDX 11 1 10 2 8 3 9 4 7 6 6 7 5 9 1 10 2 11 3 12 86 13 4 14
REMARK SMILES IDX 85 15 87 16 80 17 81 18 82 19 83 20 84 21 12 22 13 23 14 24
REMARK SMILES IDX 15 25 16 27 17 28 18 29 79 30 19 31 78 32 20 33 21 34 22 35
REMARK SMILES IDX 72 36 23 37 77 38 71 39 73 40 24 41 76 42 70 43 69 44 25 46
REMARK SMILES IDX 57 47 37 48 56 49 38 50 41 51 55 52 74 53 39 54 40 55 54 57
REMARK SMILES IDX 75 58 42 59 26 60 27 61 35 62 28 63 29 64 33 65 36 66 30 67
REMARK SMILES IDX 31 68 34 69 32 70 58 71 59 72 67 73 60 74 61 75 65 76 68 77
REMARK SMILES IDX 62 78 63 79 66 80 64 81 43 82 44 83 52 84 45 85 46 86 50 87
REMARK SMILES IDX 53 88 47 89 48 90 51 91 49 92
REMARK H PARENT 10 5 6 8 14 26 73 45 41 56
REMARK Flexibility Score: inf
ROOT
ATOM      1  C   UNL A   1      32.593  28.405  22.878  1.00  0.00     0.118 C 
ENDROOT
BRANCH   1   2
ATOM      2  N   UNL A   1      33.191  27.368  22.044  1.00  0.00    -0.351 N 
ATOM      3  C   UNL A   1      32.700  26.182  21.555  1.00  0.00     0.275 C 
ATOM      4  O   UNL A   1      33.273  25.728  20.561  1.00  0.00    -0.269 OA
ATOM      5  H   UNL A   1      34.122  27.554  21.783  1.00  0.00     0.163 HD
BRANCH   3   6
ATOM      6  C   UNL A   1      31.563  25.392  22.245  1.00  0.00     0.364 C 
BRANCH   6   7
ATOM      7  N   UNL A   1      31.851  24.948  23.643  1.00  0.00    -0.317 N 
ATOM      8  H   UNL A   1      32.276  25.756  24.099  1.00  0.00     0.349 HD
BRANCH   7   9
ATOM      9  C   UNL A   1      32.900  23.939  23.714  1.00  0.00     0.184 C 
ATOM     10  C   UNL A   1      35.258  21.447  25.695  1.00  0.00     0.008 C 
ATOM     11  C   UNL A   1      34.894  21.824  24.259  1.00  0.00    -0.011 C 
ATOM     12  C   UNL A   1      35.307  23.286  23.925  1.00  0.00     0.010 C 
ATOM     13  C   UNL A   1      33.417  21.550  23.916  1.00  0.00    -0.006 C 
ATOM     14  C   UNL A   1      34.261  24.369  24.280  1.00  0.00     0.065 C 
ATOM     15  C   UNL A   1      32.507  22.647  24.431  1.00  0.00     0.068 C 
ATOM     16  C   UNL A   1      32.857  20.179  24.271  1.00  0.00     0.008 C 
ENDBRANCH   7   9
BRANCH   7  17
ATOM     17  C   UNL A   1      30.683  24.802  24.547  1.00  0.00     0.379 C 
BRANCH  17  18
ATOM     18  C   UNL A   1      29.896  25.955  25.222  1.00  0.00     0.438 C 
ATOM     19  F   UNL A   1      28.744  26.254  24.588  1.00  0.00    -0.165 F 
ATOM     20  F   UNL A   1      29.547  25.578  26.481  1.00  0.00    -0.165 F 
ATOM     21  F   UNL A   1      30.627  27.079  25.344  1.00  0.00    -0.165 F 
ENDBRANCH  17  18
ENDBRANCH   7  17
ENDBRANCH   6   7
ENDBRANCH   3   6
ENDBRANCH   1   2
BRANCH   1  22
ATOM     22  C   UNL A   1      33.524  29.157  23.850  1.00  0.00     0.042 C 
BRANCH  22  23
ATOM     23  C   UNL A   1      33.227  29.119  25.359  1.00  0.00     0.118 C 
BRANCH  23  24
ATOM     24  N   UNL A   1      32.563  30.263  25.940  1.00  0.00    -0.352 N 
ATOM     25  C   UNL A   1      33.099  31.135  26.864  1.00  0.00     0.251 C 
ATOM     26  H   UNL A   1      31.640  30.438  25.646  1.00  0.00     0.163 HD
ATOM     27  O   UNL A   1      32.481  32.159  27.176  1.00  0.00    -0.269 OA
BRANCH  25  28
ATOM     28  C   UNL A   1      34.396  30.856  27.539  1.00  0.00     0.039 A 
ATOM     29  C   UNL A   1      34.595  29.600  28.119  1.00  0.00     0.014 A 
ATOM     30  C   UNL A   1      35.370  31.842  27.715  1.00  0.00     0.014 A 
ATOM     31  C   UNL A   1      35.769  29.327  28.842  1.00  0.00     0.010 A 
ATOM     32  C   UNL A   1      36.566  31.553  28.406  1.00  0.00     0.010 A 
ATOM     33  C   UNL A   1      36.783  30.292  28.989  1.00  0.00    -0.014 A 
BRANCH  33  34
ATOM     34  C   UNL A   1      38.039  29.955  29.743  1.00  0.00     0.031 A 
ATOM     35  C   UNL A   1      38.297  30.464  31.143  1.00  0.00     0.074 A 
ATOM     36  C   UNL A   1      38.976  29.161  29.181  1.00  0.00     0.049 A 
ATOM     37  N   UNL A   1      39.289  30.185  31.960  1.00  0.00    -0.248 NA
ATOM     38  C   UNL A   1      37.327  31.418  31.695  1.00  0.00     0.031 C 
ATOM     39  C   UNL A   1      38.919  28.621  27.824  1.00  0.00     0.029 A 
ATOM     40  N   UNL A   1      40.158  28.661  29.687  1.00  0.00    -0.354 N 
ATOM     41  C   UNL A   1      39.063  30.924  33.115  1.00  0.00     0.074 A 
ATOM     42  C   UNL A   1      37.863  31.702  32.875  1.00  0.00     0.031 C 
ATOM     43  C   UNL A   1      39.995  27.844  27.614  1.00  0.00     0.029 A 
ATOM     44  C   UNL A   1      40.834  27.844  28.811  1.00  0.00     0.049 A 
ATOM     45  H   UNL A   1      40.487  28.871  30.590  1.00  0.00     0.167 HD
ATOM     46  C   UNL A   1      39.765  30.943  34.276  1.00  0.00     0.037 A 
ATOM     47  C   UNL A   1      41.988  27.160  28.947  1.00  0.00     0.037 A 
ATOM     48  C   UNL A   1      40.948  30.165  34.550  1.00  0.00     0.049 A 
ATOM     49  C   UNL A   1      42.753  27.197  30.245  1.00  0.00     0.074 A 
ATOM     50  C   UNL A   1      41.665  30.073  35.734  1.00  0.00     0.029 A 
ATOM     51  N   UNL A   1      41.600  29.357  33.633  1.00  0.00    -0.354 N 
ATOM     52  N   UNL A   1      42.465  27.821  31.358  1.00  0.00    -0.248 NA
ATOM     53  C   UNL A   1      44.003  26.420  30.304  1.00  0.00     0.031 C 
ATOM     54  C   UNL A   1      42.776  29.249  35.518  1.00  0.00     0.029 A 
ATOM     55  C   UNL A   1      42.724  28.789  34.215  1.00  0.00     0.049 A 
ATOM     56  H   UNL A   1      41.309  29.209  32.705  1.00  0.00     0.167 HD
ATOM     57  C   UNL A   1      43.476  27.494  32.254  1.00  0.00     0.074 A 
ATOM     58  C   UNL A   1      44.382  26.604  31.561  1.00  0.00     0.031 C 
ATOM     59  C   UNL A   1      43.632  27.899  33.538  1.00  0.00     0.037 A 
BRANCH  46  60
ATOM     60  C   UNL A   1      39.267  31.839  35.377  1.00  0.00     0.064 A 
ATOM     61  C   UNL A   1      38.434  31.353  36.395  1.00  0.00     0.173 A 
ATOM     62  C   UNL A   1      39.687  33.176  35.456  1.00  0.00     0.173 A 
ATOM     63  F   UNL A   1      38.008  30.081  36.369  1.00  0.00    -0.203 F 
ATOM     64  C   UNL A   1      38.016  32.178  37.437  1.00  0.00     0.198 A 
ATOM     65  C   UNL A   1      39.290  33.992  36.513  1.00  0.00     0.198 A 
ATOM     66  F   UNL A   1      40.500  33.686  34.519  1.00  0.00    -0.203 F 
ATOM     67  F   UNL A   1      37.190  31.702  38.377  1.00  0.00    -0.200 F 
ATOM     68  C   UNL A   1      38.450  33.495  37.497  1.00  0.00     0.200 A 
ATOM     69  F   UNL A   1      39.725  35.257  36.582  1.00  0.00    -0.200 F 
ATOM     70  F   UNL A   1      38.056  34.285  38.506  1.00  0.00    -0.200 F 
ENDBRANCH  46  60
BRANCH  47  71
ATOM     71  C   UNL A   1      42.494  26.340  27.815  1.00  0.00     0.064 A 
ATOM     72  C   UNL A   1      43.437  26.856  26.915  1.00  0.00     0.173 A 
ATOM     73  C   UNL A   1      42.035  25.032  27.603  1.00  0.00     0.173 A 
ATOM     74  F   UNL A   1      43.882  28.113  27.060  1.00  0.00    -0.203 F 
ATOM     75  C   UNL A   1      43.891  26.100  25.837  1.00  0.00     0.198 A 
ATOM     76  C   UNL A   1      42.510  24.267  26.540  1.00  0.00     0.198 A 
ATOM     77  F   UNL A   1      41.131  24.494  28.436  1.00  0.00    -0.203 F 
ATOM     78  F   UNL A   1      44.761  26.632  24.968  1.00  0.00    -0.200 F 
ATOM     79  C   UNL A   1      43.434  24.804  25.654  1.00  0.00     0.200 A 
ATOM     80  F   UNL A   1      42.074  23.012  26.373  1.00  0.00    -0.200 F 
ATOM     81  F   UNL A   1      43.875  24.075  24.622  1.00  0.00    -0.200 F 
ENDBRANCH  47  71
BRANCH  59  82
ATOM     82  C   UNL A   1      44.813  27.368  34.300  1.00  0.00     0.064 A 
ATOM     83  C   UNL A   1      46.033  28.060  34.347  1.00  0.00     0.173 A 
ATOM     84  C   UNL A   1      44.715  26.169  35.024  1.00  0.00     0.173 A 
ATOM     85  F   UNL A   1      46.187  29.203  33.661  1.00  0.00    -0.203 F 
ATOM     86  C   UNL A   1      47.115  27.561  35.070  1.00  0.00     0.198 A 
ATOM     87  C   UNL A   1      45.790  25.685  35.766  1.00  0.00     0.198 A 
ATOM     88  F   UNL A   1      43.571  25.468  35.017  1.00  0.00    -0.203 F 
ATOM     89  F   UNL A   1      48.283  28.218  35.065  1.00  0.00    -0.200 F 
ATOM     90  C   UNL A   1      46.991  26.379  35.784  1.00  0.00     0.200 A 
ATOM     91  F   UNL A   1      45.664  24.548  36.464  1.00  0.00    -0.200 F 
ATOM     92  F   UNL A   1      48.031  25.903  36.484  1.00  0.00    -0.200 F 
ENDBRANCH  59  82
ENDBRANCH  33  34
ENDBRANCH  25  28
ENDBRANCH  23  24
ENDBRANCH  22  23
ENDBRANCH   1  22
TORSDOF 14
ENDMDL
MODEL 3
REMARK VINA RESULT:     -11.7      2.386      4.263
REMARK SMILES C[C@@H]1CC[C@H]([N@@H+](CC(=O)NCCCNC(=O)c2ccc(-c3c4nc(c(-c5c(F)c(F)c(F)c(F)c5F)c5ccc([nH]5)c(-c5c(F)c(F)c(F)c(F)c5F)c5nc(c(-c6c(F)c(F)c(F)c(F)c6F)c6ccc3[nH]6)C=C5)C=C4)cc2)CC(F)(F)F)C[C@@H]1C
REMARK SMILES IDX 11 1 10 2 8 3 9 4 7 6 6 7 5 9 1 10 2 11 3 12 86 13 4 14
REMARK SMILES IDX 85 15 87 16 80 17 81 18 82 19 83 20 84 21 12 22 13 23 14 24
REMARK SMILES IDX 15 25 16 27 17 28 18 29 79 30 19 31 78 32 20 33 21 34 22 35
REMARK SMILES IDX 72 36 23 37 77 38 71 39 73 40 24 41 76 42 70 43 69 44 25 46
REMARK SMILES IDX 57 47 37 48 56 49 38 50 41 51 55 52 74 53 39 54 40 55 54 57
REMARK SMILES IDX 75 58 42 59 26 60 27 61 35 62 28 63 29 64 33 65 36 66 30 67
REMARK SMILES IDX 31 68 34 69 32 70 58 71 59 72 67 73 60 74 61 75 65 76 68 77
REMARK SMILES IDX 62 78 63 79 66 80 64 81 43 82 44 83 52 84 45 85 46 86 50 87
REMARK SMILES IDX 53 88 47 89 48 90 51 91 49 92
REMARK H PARENT 10 5 6 8 14 26 73 45 41 56
REMARK Flexibility Score: inf
ROOT
ATOM      1  C   UNL A   1      32.555  28.392  22.842  1.00  0.00     0.118 C 
ENDROOT
BRANCH   1   2
ATOM      2  N   UNL A   1      33.173  27.357  22.021  1.00  0.00    -0.351 N 
ATOM      3  C   UNL A   1      32.759  26.098  21.660  1.00  0.00     0.275 C 
ATOM      4  O   UNL A   1      33.279  25.627  20.644  1.00  0.00    -0.269 OA
ATOM      5  H   UNL A   1      34.052  27.608  21.657  1.00  0.00     0.163 HD
BRANCH   3   6
ATOM      6  C   UNL A   1      31.775  25.258  22.508  1.00  0.00     0.364 C 
BRANCH   6   7
ATOM      7  N   UNL A   1      32.244  24.929  23.889  1.00  0.00    -0.317 N 
ATOM      8  H   UNL A   1      32.716  25.770  24.221  1.00  0.00     0.349 HD
BRANCH   7   9
ATOM      9  C   UNL A   1      33.302  23.928  23.906  1.00  0.00     0.184 C 
ATOM     10  C   UNL A   1      35.876  21.557  25.764  1.00  0.00     0.008 C 
ATOM     11  C   UNL A   1      35.361  21.851  24.356  1.00  0.00    -0.011 C 
ATOM     12  C   UNL A   1      35.724  23.294  23.899  1.00  0.00     0.010 C 
ATOM     13  C   UNL A   1      33.858  21.555  24.186  1.00  0.00    -0.006 C 
ATOM     14  C   UNL A   1      34.712  24.392  24.301  1.00  0.00     0.065 C 
ATOM     15  C   UNL A   1      32.997  22.677  24.731  1.00  0.00     0.068 C 
ATOM     16  C   UNL A   1      33.350  20.205  24.672  1.00  0.00     0.008 C 
ENDBRANCH   7   9
BRANCH   7  17
ATOM     17  C   UNL A   1      31.201  24.857  24.943  1.00  0.00     0.379 C 
BRANCH  17  18
ATOM     18  C   UNL A   1      30.386  26.048  25.509  1.00  0.00     0.438 C 
ATOM     19  F   UNL A   1      29.898  26.861  24.549  1.00  0.00    -0.165 F 
ATOM     20  F   UNL A   1      29.305  25.569  26.182  1.00  0.00    -0.165 F 
ATOM     21  F   UNL A   1      31.089  26.788  26.385  1.00  0.00    -0.165 F 
ENDBRANCH  17  18
ENDBRANCH   7  17
ENDBRANCH   6   7
ENDBRANCH   3   6
ENDBRANCH   1   2
BRANCH   1  22
ATOM     22  C   UNL A   1      33.478  29.202  23.774  1.00  0.00     0.042 C 
BRANCH  22  23
ATOM     23  C   UNL A   1      33.247  29.151  25.294  1.00  0.00     0.118 C 
BRANCH  23  24
ATOM     24  N   UNL A   1      32.582  30.277  25.908  1.00  0.00    -0.352 N 
ATOM     25  C   UNL A   1      33.123  31.129  26.849  1.00  0.00     0.251 C 
ATOM     26  H   UNL A   1      31.656  30.454  25.628  1.00  0.00     0.163 HD
ATOM     27  O   UNL A   1      32.503  32.142  27.191  1.00  0.00    -0.269 OA
BRANCH  25  28
ATOM     28  C   UNL A   1      34.428  30.840  27.505  1.00  0.00     0.039 A 
ATOM     29  C   UNL A   1      34.609  29.600  28.122  1.00  0.00     0.014 A 
ATOM     30  C   UNL A   1      35.428  31.807  27.627  1.00  0.00     0.014 A 
ATOM     31  C   UNL A   1      35.792  29.321  28.829  1.00  0.00     0.010 A 
ATOM     32  C   UNL A   1      36.632  31.511  28.301  1.00  0.00     0.010 A 
ATOM     33  C   UNL A   1      36.832  30.265  28.921  1.00  0.00    -0.014 A 
BRANCH  33  34
ATOM     34  C   UNL A   1      38.096  29.923  29.659  1.00  0.00     0.031 A 
ATOM     35  C   UNL A   1      38.379  30.439  31.052  1.00  0.00     0.074 A 
ATOM     36  C   UNL A   1      39.018  29.116  29.089  1.00  0.00     0.049 A 
ATOM     37  N   UNL A   1      39.380  30.157  31.856  1.00  0.00    -0.248 NA
ATOM     38  C   UNL A   1      37.426  31.406  31.611  1.00  0.00     0.031 C 
ATOM     39  C   UNL A   1      38.936  28.568  27.737  1.00  0.00     0.029 A 
ATOM     40  N   UNL A   1      40.202  28.609  29.581  1.00  0.00    -0.354 N 
ATOM     41  C   UNL A   1      39.178  30.906  33.009  1.00  0.00     0.074 A 
ATOM     42  C   UNL A   1      37.982  31.693  32.781  1.00  0.00     0.031 C 
ATOM     43  C   UNL A   1      40.001  27.780  27.517  1.00  0.00     0.029 A 
ATOM     44  C   UNL A   1      40.857  27.780  28.702  1.00  0.00     0.049 A 
ATOM     45  H   UNL A   1      40.547  28.823  30.477  1.00  0.00     0.167 HD
ATOM     46  C   UNL A   1      39.897  30.927  34.159  1.00  0.00     0.037 A 
ATOM     47  C   UNL A   1      42.008  27.087  28.825  1.00  0.00     0.037 A 
ATOM     48  C   UNL A   1      41.078  30.141  34.422  1.00  0.00     0.049 A 
ATOM     49  C   UNL A   1      42.792  27.126  30.111  1.00  0.00     0.074 A 
ATOM     50  C   UNL A   1      41.811  30.050  35.595  1.00  0.00     0.029 A 
ATOM     51  N   UNL A   1      41.708  29.320  33.500  1.00  0.00    -0.354 N 
ATOM     52  N   UNL A   1      42.526  27.760  31.224  1.00  0.00    -0.248 NA
ATOM     53  C   UNL A   1      44.036  26.338  30.157  1.00  0.00     0.031 C 
ATOM     54  C   UNL A   1      42.911  29.215  35.369  1.00  0.00     0.029 A 
ATOM     55  C   UNL A   1      42.836  28.745  34.070  1.00  0.00     0.049 A 
ATOM     56  H   UNL A   1      41.402  29.168  32.578  1.00  0.00     0.167 HD
ATOM     57  C   UNL A   1      43.547  27.430  32.107  1.00  0.00     0.074 A 
ATOM     58  C   UNL A   1      44.435  26.527  31.407  1.00  0.00     0.031 C 
ATOM     59  C   UNL A   1      43.726  27.843  33.385  1.00  0.00     0.037 A 
BRANCH  46  60
ATOM     60  C   UNL A   1      39.424  31.835  35.261  1.00  0.00     0.064 A 
ATOM     61  C   UNL A   1      39.777  33.192  35.293  1.00  0.00     0.173 A 
ATOM     62  C   UNL A   1      38.548  31.362  36.250  1.00  0.00     0.173 A 
ATOM     63  F   UNL A   1      40.608  33.695  34.368  1.00  0.00    -0.203 F 
ATOM     64  C   UNL A   1      39.295  34.036  36.291  1.00  0.00     0.198 A 
ATOM     65  C   UNL A   1      38.045  32.214  37.231  1.00  0.00     0.198 A 
ATOM     66  F   UNL A   1      38.161  30.077  36.254  1.00  0.00    -0.203 F 
ATOM     67  F   UNL A   1      39.677  35.319  36.323  1.00  0.00    -0.200 F 
ATOM     68  C   UNL A   1      38.425  33.547  37.255  1.00  0.00     0.200 A 
ATOM     69  F   UNL A   1      37.189  31.746  38.150  1.00  0.00    -0.200 F 
ATOM     70  F   UNL A   1      37.953  34.364  38.208  1.00  0.00    -0.200 F 
ENDBRANCH  46  60
BRANCH  47  71
ATOM     71  C   UNL A   1      42.489  26.254  27.691  1.00  0.00     0.064 A 
ATOM     72  C   UNL A   1      42.009  24.950  27.500  1.00  0.00     0.173 A 
ATOM     73  C   UNL A   1      43.444  26.739  26.787  1.00  0.00     0.173 A 
ATOM     74  F   UNL A   1      41.118  24.433  28.357  1.00  0.00    -0.203 F 
ATOM     75  C   UNL A   1      42.479  24.157  26.455  1.00  0.00     0.198 A 
ATOM     76  C   UNL A   1      43.893  25.955  25.727  1.00  0.00     0.198 A 
ATOM     77  F   UNL A   1      43.934  27.979  26.930  1.00  0.00    -0.203 F 
ATOM     78  F   UNL A   1      42.036  22.900  26.320  1.00  0.00    -0.200 F 
ATOM     79  C   UNL A   1      43.415  24.663  25.565  1.00  0.00     0.200 A 
ATOM     80  F   UNL A   1      44.789  26.451  24.863  1.00  0.00    -0.200 F 
ATOM     81  F   UNL A   1      43.862  23.903  24.557  1.00  0.00    -0.200 F 
ENDBRANCH  47  71
BRANCH  59  82
ATOM     82  C   UNL A   1      44.914  27.306  34.134  1.00  0.00     0.064 A 
ATOM     83  C   UNL A   1      44.849  26.104  34.854  1.00  0.00     0.173 A 
ATOM     84  C   UNL A   1      46.144  27.983  34.102  1.00  0.00     0.173 A 
ATOM     85  F   UNL A   1      43.695  25.424  34.931  1.00  0.00    -0.203 F 
ATOM     86  C   UNL A   1      45.963  25.611  35.532  1.00  0.00     0.198 A 
ATOM     87  C   UNL A   1      47.262  27.475  34.759  1.00  0.00     0.198 A 
ATOM     88  F   UNL A   1      46.263  29.135  33.425  1.00  0.00    -0.203 F 
ATOM     89  F   UNL A   1      45.865  24.483  36.248  1.00  0.00    -0.200 F 
ATOM     90  C   UNL A   1      47.170  26.293  35.478  1.00  0.00     0.200 A 
ATOM     91  F   UNL A   1      48.429  28.130  34.697  1.00  0.00    -0.200 F 
ATOM     92  F   UNL A   1      48.242  25.816  36.126  1.00  0.00    -0.200 F 
ENDBRANCH  59  82
ENDBRANCH  33  34
ENDBRANCH  25  28
ENDBRANCH  23  24
ENDBRANCH  22  23
ENDBRANCH   1  22
TORSDOF 14
ENDMDL
