MODEL 1
REMARK VINA RESULT:     -12.7      0.000      0.000
REMARK SMILES Cc1ccc(S(=O)(=O)Nc2cnc(N(C)C)c(C(=O)NCCCNC(=O)c3ccc(-c4c5nc(c(-c6c(F)c(F)c(F)c(F)c6F)c6ccc([nH]6)c(-c6c(F)c(F)c(F)c(F)c6F)c6nc(c(-c7c(F)c(F)c(F)c(F)c7F)c7ccc4[nH]7)C=C6)C=C5)cc3)c2)c(C)c1
REMARK SMILES IDX 21 1 20 2 18 3 19 4 17 6 10 7 11 8 90 9 12 10 13 11 9 12
REMARK SMILES IDX 6 14 7 15 8 16 5 17 1 18 2 19 3 20 93 21 4 22 91 23 92 24
REMARK SMILES IDX 14 25 15 26 16 27 22 28 23 29 24 30 25 31 26 33 27 34 28 35
REMARK SMILES IDX 89 36 29 37 88 38 30 39 31 40 32 41 82 42 33 43 87 44 81 45
REMARK SMILES IDX 83 46 34 47 86 48 80 49 79 50 35 52 67 53 47 54 66 55 48 56
REMARK SMILES IDX 51 57 65 58 84 59 49 60 50 61 64 63 85 64 52 65 36 66 37 67
REMARK SMILES IDX 45 68 38 69 39 70 43 71 46 72 40 73 41 74 44 75 42 76 68 77
REMARK SMILES IDX 69 78 77 79 70 80 71 81 75 82 78 83 72 84 73 85 76 86 74 87
REMARK SMILES IDX 53 88 54 89 62 90 55 91 56 92 60 93 63 94 57 95 58 96 61 97
REMARK SMILES IDX 59 98
REMARK H PARENT 20 5 9 13 24 32 83 51 51 62
REMARK Flexibility Score: inf
ROOT
ATOM      1  C   UNL A   1      31.753  30.438  26.511  1.00  0.00     0.118 C 
ENDROOT
BRANCH   1   2
ATOM      2  N   UNL A   1      32.401  30.307  25.216  1.00  0.00    -0.352 N 
ATOM      3  C   UNL A   1      32.360  29.317  24.260  1.00  0.00     0.255 C 
ATOM      4  O   UNL A   1      33.289  29.285  23.457  1.00  0.00    -0.269 OA
ATOM      5  H   UNL A   1      32.976  31.069  24.978  1.00  0.00     0.163 HD
BRANCH   3   6
ATOM      6  C   UNL A   1      31.253  28.331  24.170  1.00  0.00     0.084 A 
ATOM      7  C   UNL A   1      30.441  26.121  24.754  1.00  0.00     0.068 A 
ATOM      8  C   UNL A   1      29.338  26.400  23.975  1.00  0.00     0.140 A 
ATOM      9  C   UNL A   1      31.466  27.051  24.727  1.00  0.00     0.046 A 
ATOM     10  N   UNL A   1      29.134  27.584  23.371  1.00  0.00    -0.236 NA
ATOM     11  C   UNL A   1      30.030  28.602  23.512  1.00  0.00     0.141 A 
BRANCH   7  12
ATOM     12  N   UNL A   1      30.410  24.964  25.578  1.00  0.00    -0.278 N 
ATOM     13  H   UNL A   1      30.065  25.066  26.494  1.00  0.00     0.180 HD
BRANCH  12  14
ATOM     14  S   UNL A   1      30.917  23.439  25.105  1.00  0.00     0.262 S 
ATOM     15  O   UNL A   1      30.663  23.331  23.669  1.00  0.00    -0.201 OA
ATOM     16  O   UNL A   1      30.303  22.529  26.048  1.00  0.00    -0.201 OA
BRANCH  14  17
ATOM     17  C   UNL A   1      32.691  23.282  25.308  1.00  0.00     0.090 A 
ATOM     18  C   UNL A   1      36.957  23.432  24.696  1.00  0.00     0.044 C 
ATOM     19  C   UNL A   1      35.486  23.349  24.980  1.00  0.00    -0.051 A 
ATOM     20  C   UNL A   1      34.835  24.358  25.691  1.00  0.00     0.005 A 
ATOM     21  C   UNL A   1      34.751  22.234  24.567  1.00  0.00     0.008 A 
ATOM     22  C   UNL A   1      33.449  24.314  25.873  1.00  0.00     0.023 A 
ATOM     23  C   UNL A   1      33.351  22.181  24.722  1.00  0.00    -0.030 A 
ATOM     24  C   UNL A   1      32.669  20.906  24.301  1.00  0.00     0.046 C 
ENDBRANCH  14  17
ENDBRANCH  12  14
ENDBRANCH   7  12
BRANCH  11  25
ATOM     25  N   UNL A   1      29.550  29.816  23.058  1.00  0.00    -0.362 N 
ATOM     26  C   UNL A   1      29.739  30.127  21.640  1.00  0.00     0.145 C 
ATOM     27  C   UNL A   1      29.123  30.927  23.891  1.00  0.00     0.145 C 
ENDBRANCH  11  25
ENDBRANCH   3   6
ENDBRANCH   1   2
BRANCH   1  28
ATOM     28  C   UNL A   1      31.480  31.913  26.818  1.00  0.00     0.042 C 
BRANCH  28  29
ATOM     29  C   UNL A   1      32.749  32.755  26.882  1.00  0.00     0.118 C 
BRANCH  29  30
ATOM     30  N   UNL A   1      32.517  34.048  27.503  1.00  0.00    -0.352 N 
ATOM     31  C   UNL A   1      33.086  34.583  28.630  1.00  0.00     0.251 C 
ATOM     32  H   UNL A   1      31.855  34.621  27.050  1.00  0.00     0.163 HD
ATOM     33  O   UNL A   1      32.628  35.614  29.113  1.00  0.00    -0.269 OA
BRANCH  31  34
ATOM     34  C   UNL A   1      34.242  33.922  29.274  1.00  0.00     0.039 A 
ATOM     35  C   UNL A   1      35.531  34.319  28.903  1.00  0.00     0.014 A 
ATOM     36  C   UNL A   1      34.068  32.885  30.195  1.00  0.00     0.014 A 
ATOM     37  C   UNL A   1      36.644  33.697  29.476  1.00  0.00     0.010 A 
ATOM     38  C   UNL A   1      35.177  32.303  30.808  1.00  0.00     0.010 A 
ATOM     39  C   UNL A   1      36.474  32.692  30.441  1.00  0.00    -0.014 A 
BRANCH  39  40
ATOM     40  C   UNL A   1      37.646  32.010  31.044  1.00  0.00     0.031 A 
ATOM     41  C   UNL A   1      38.098  32.378  32.429  1.00  0.00     0.074 A 
ATOM     42  C   UNL A   1      38.330  31.097  30.329  1.00  0.00     0.049 A 
ATOM     43  N   UNL A   1      39.126  31.938  33.110  1.00  0.00    -0.248 NA
ATOM     44  C   UNL A   1      37.305  33.397  33.132  1.00  0.00     0.031 C 
ATOM     45  C   UNL A   1      38.020  30.691  28.959  1.00  0.00     0.029 A 
ATOM     46  N   UNL A   1      39.434  30.351  30.658  1.00  0.00    -0.354 N 
ATOM     47  C   UNL A   1      39.118  32.643  34.306  1.00  0.00     0.074 A 
ATOM     48  C   UNL A   1      38.005  33.566  34.245  1.00  0.00     0.031 C 
ATOM     49  C   UNL A   1      38.901  29.755  28.569  1.00  0.00     0.029 A 
ATOM     50  C   UNL A   1      39.850  29.514  29.652  1.00  0.00     0.049 A 
ATOM     51  H   UNL A   1      39.886  30.412  31.530  1.00  0.00     0.167 HD
ATOM     52  C   UNL A   1      39.950  32.519  35.367  1.00  0.00     0.037 A 
ATOM     53  C   UNL A   1      40.879  28.647  29.613  1.00  0.00     0.037 A 
ATOM     54  C   UNL A   1      41.029  31.570  35.445  1.00  0.00     0.049 A 
ATOM     55  C   UNL A   1      41.757  28.490  30.824  1.00  0.00     0.074 A 
ATOM     56  C   UNL A   1      41.890  31.323  36.501  1.00  0.00     0.029 A 
ATOM     57  N   UNL A   1      41.389  30.703  34.423  1.00  0.00    -0.354 N 
ATOM     58  N   UNL A   1      41.704  29.122  31.971  1.00  0.00    -0.248 NA
ATOM     59  C   UNL A   1      42.832  27.492  30.737  1.00  0.00     0.031 C 
ATOM     60  C   UNL A   1      42.785  30.322  36.109  1.00  0.00     0.029 A 
ATOM     61  C   UNL A   1      42.462  29.924  34.822  1.00  0.00     0.049 A 
ATOM     62  H   UNL A   1      40.946  30.650  33.546  1.00  0.00     0.167 HD
ATOM     63  C   UNL A   1      42.719  28.585  32.749  1.00  0.00     0.074 A 
ATOM     64  C   UNL A   1      43.365  27.565  31.949  1.00  0.00     0.031 C 
ATOM     65  C   UNL A   1      43.083  28.908  34.014  1.00  0.00     0.037 A 
BRANCH  52  66
ATOM     66  C   UNL A   1      39.720  33.432  36.534  1.00  0.00     0.064 A 
ATOM     67  C   UNL A   1      38.854  33.082  37.580  1.00  0.00     0.173 A 
ATOM     68  C   UNL A   1      40.392  34.660  36.620  1.00  0.00     0.173 A 
ATOM     69  F   UNL A   1      38.177  31.924  37.536  1.00  0.00    -0.203 F 
ATOM     70  C   UNL A   1      38.646  33.942  38.655  1.00  0.00     0.198 A 
ATOM     71  C   UNL A   1      40.201  35.507  37.709  1.00  0.00     0.198 A 
ATOM     72  F   UNL A   1      41.235  35.040  35.648  1.00  0.00    -0.203 F 
ATOM     73  F   UNL A   1      37.776  33.607  39.619  1.00  0.00    -0.200 F 
ATOM     74  C   UNL A   1      39.322  35.150  38.722  1.00  0.00     0.200 A 
ATOM     75  F   UNL A   1      40.863  36.670  37.778  1.00  0.00    -0.200 F 
ATOM     76  F   UNL A   1      39.123  35.975  39.758  1.00  0.00    -0.200 F 
ENDBRANCH  52  66
BRANCH  53  77
ATOM     77  C   UNL A   1      41.105  27.827  28.398  1.00  0.00     0.064 A 
ATOM     78  C   UNL A   1      41.987  28.258  27.398  1.00  0.00     0.173 A 
ATOM     79  C   UNL A   1      40.456  26.598  28.215  1.00  0.00     0.173 A 
ATOM     80  F   UNL A   1      42.614  29.437  27.522  1.00  0.00    -0.203 F 
ATOM     81  C   UNL A   1      42.201  27.496  26.252  1.00  0.00     0.198 A 
ATOM     82  C   UNL A   1      40.687  25.826  27.078  1.00  0.00     0.198 A 
ATOM     83  F   UNL A   1      39.606  26.142  29.146  1.00  0.00    -0.203 F 
ATOM     84  F   UNL A   1      43.023  27.947  25.295  1.00  0.00    -0.200 F 
ATOM     85  C   UNL A   1      41.556  26.279  26.095  1.00  0.00     0.200 A 
ATOM     86  F   UNL A   1      40.069  24.646  26.933  1.00  0.00    -0.200 F 
ATOM     87  F   UNL A   1      41.766  25.545  24.993  1.00  0.00    -0.200 F 
ENDBRANCH  53  77
BRANCH  65  88
ATOM     88  C   UNL A   1      44.213  28.131  34.618  1.00  0.00     0.064 A 
ATOM     89  C   UNL A   1      45.539  28.573  34.520  1.00  0.00     0.173 A 
ATOM     90  C   UNL A   1      43.960  26.951  35.334  1.00  0.00     0.173 A 
ATOM     91  F   UNL A   1      45.830  29.688  33.833  1.00  0.00    -0.203 F 
ATOM     92  C   UNL A   1      46.578  27.851  35.103  1.00  0.00     0.198 A 
ATOM     93  C   UNL A   1      44.997  26.243  35.933  1.00  0.00     0.198 A 
ATOM     94  F   UNL A   1      42.706  26.492  35.458  1.00  0.00    -0.203 F 
ATOM     95  F   UNL A   1      47.843  28.270  34.966  1.00  0.00    -0.200 F 
ATOM     96  C   UNL A   1      46.305  26.690  35.812  1.00  0.00     0.200 A 
ATOM     97  F   UNL A   1      44.733  25.126  36.625  1.00  0.00    -0.200 F 
ATOM     98  F   UNL A   1      47.304  25.997  36.374  1.00  0.00    -0.200 F 
ENDBRANCH  65  88
ENDBRANCH  39  40
ENDBRANCH  31  34
ENDBRANCH  29  30
ENDBRANCH  28  29
ENDBRANCH   1  28
TORSDOF 14
ENDMDL
MODEL 2
REMARK VINA RESULT:     -12.7      0.569      7.244
REMARK SMILES Cc1ccc(S(=O)(=O)Nc2cnc(N(C)C)c(C(=O)NCCCNC(=O)c3ccc(-c4c5nc(c(-c6c(F)c(F)c(F)c(F)c6F)c6ccc([nH]6)c(-c6c(F)c(F)c(F)c(F)c6F)c6nc(c(-c7c(F)c(F)c(F)c(F)c7F)c7ccc4[nH]7)C=C6)C=C5)cc3)c2)c(C)c1
REMARK SMILES IDX 21 1 20 2 18 3 19 4 17 6 10 7 11 8 90 9 12 10 13 11 9 12
REMARK SMILES IDX 6 14 7 15 8 16 5 17 1 18 2 19 3 20 93 21 4 22 91 23 92 24
REMARK SMILES IDX 14 25 15 26 16 27 22 28 23 29 24 30 25 31 26 33 27 34 28 35
REMARK SMILES IDX 89 36 29 37 88 38 30 39 31 40 32 41 82 42 33 43 87 44 81 45
REMARK SMILES IDX 83 46 34 47 86 48 80 49 79 50 35 52 67 53 47 54 66 55 48 56
REMARK SMILES IDX 51 57 65 58 84 59 49 60 50 61 64 63 85 64 52 65 36 66 37 67
REMARK SMILES IDX 45 68 38 69 39 70 43 71 46 72 40 73 41 74 44 75 42 76 68 77
REMARK SMILES IDX 69 78 77 79 70 80 71 81 75 82 78 83 72 84 73 85 76 86 74 87
REMARK SMILES IDX 53 88 54 89 62 90 55 91 56 92 60 93 63 94 57 95 58 96 61 97
REMARK SMILES IDX 59 98
REMARK H PARENT 20 5 9 13 24 32 83 51 51 62
REMARK Flexibility Score: inf
ROOT
ATOM      1  C   UNL A   1      31.588  30.534  26.503  1.00  0.00     0.118 C 
ENDROOT
BRANCH   1   2
ATOM      2  N   UNL A   1      32.299  30.364  25.247  1.00  0.00    -0.352 N 
ATOM      3  C   UNL A   1      32.311  29.342  24.324  1.00  0.00     0.255 C 
ATOM      4  O   UNL A   1      33.278  29.289  23.568  1.00  0.00    -0.269 OA
ATOM      5  H   UNL A   1      32.881  31.122  25.011  1.00  0.00     0.163 HD
BRANCH   3   6
ATOM      6  C   UNL A   1      31.215  28.346  24.214  1.00  0.00     0.084 A 
ATOM      7  C   UNL A   1      30.408  26.133  24.794  1.00  0.00     0.068 A 
ATOM      8  C   UNL A   1      29.323  26.395  23.987  1.00  0.00     0.140 A 
ATOM      9  C   UNL A   1      31.425  27.072  24.787  1.00  0.00     0.046 A 
ATOM     10  N   UNL A   1      29.123  27.573  23.368  1.00  0.00    -0.236 NA
ATOM     11  C   UNL A   1      30.007  28.600  23.524  1.00  0.00     0.141 A 
BRANCH   7  12
ATOM     12  N   UNL A   1      30.366  24.982  25.627  1.00  0.00    -0.278 N 
ATOM     13  H   UNL A   1      30.001  25.088  26.534  1.00  0.00     0.180 HD
BRANCH  12  14
ATOM     14  S   UNL A   1      30.895  23.457  25.177  1.00  0.00     0.262 S 
ATOM     15  O   UNL A   1      30.654  23.328  23.741  1.00  0.00    -0.201 OA
ATOM     16  O   UNL A   1      30.282  22.552  26.126  1.00  0.00    -0.201 OA
BRANCH  14  17
ATOM     17  C   UNL A   1      32.669  23.322  25.398  1.00  0.00     0.090 A 
ATOM     18  C   UNL A   1      36.937  23.481  24.807  1.00  0.00     0.044 C 
ATOM     19  C   UNL A   1      35.465  23.398  25.085  1.00  0.00    -0.051 A 
ATOM     20  C   UNL A   1      34.801  24.429  25.751  1.00  0.00     0.005 A 
ATOM     21  C   UNL A   1      34.741  22.262  24.712  1.00  0.00     0.008 A 
ATOM     22  C   UNL A   1      33.414  24.382  25.926  1.00  0.00     0.023 A 
ATOM     23  C   UNL A   1      33.340  22.203  24.860  1.00  0.00    -0.030 A 
ATOM     24  C   UNL A   1      32.671  20.908  24.486  1.00  0.00     0.046 C 
ENDBRANCH  14  17
ENDBRANCH  12  14
ENDBRANCH   7  12
BRANCH  11  25
ATOM     25  N   UNL A   1      29.527  29.807  23.049  1.00  0.00    -0.362 N 
ATOM     26  C   UNL A   1      29.730  30.098  21.628  1.00  0.00     0.145 C 
ATOM     27  C   UNL A   1      29.089  30.927  23.861  1.00  0.00     0.145 C 
ENDBRANCH  11  25
ENDBRANCH   3   6
ENDBRANCH   1   2
BRANCH   1  28
ATOM     28  C   UNL A   1      31.402  32.023  26.808  1.00  0.00     0.042 C 
BRANCH  28  29
ATOM     29  C   UNL A   1      32.716  32.744  27.086  1.00  0.00     0.118 C 
BRANCH  29  30
ATOM     30  N   UNL A   1      32.504  34.097  27.573  1.00  0.00    -0.352 N 
ATOM     31  C   UNL A   1      33.073  34.731  28.647  1.00  0.00     0.251 C 
ATOM     32  H   UNL A   1      31.859  34.635  27.057  1.00  0.00     0.163 HD
ATOM     33  O   UNL A   1      32.631  35.814  29.020  1.00  0.00    -0.269 OA
BRANCH  31  34
ATOM     34  C   UNL A   1      34.209  34.114  29.368  1.00  0.00     0.039 A 
ATOM     35  C   UNL A   1      35.509  34.412  28.946  1.00  0.00     0.014 A 
ATOM     36  C   UNL A   1      34.004  33.211  30.415  1.00  0.00     0.014 A 
ATOM     37  C   UNL A   1      36.602  33.827  29.591  1.00  0.00     0.010 A 
ATOM     38  C   UNL A   1      35.095  32.671  31.094  1.00  0.00     0.010 A 
ATOM     39  C   UNL A   1      36.403  32.961  30.677  1.00  0.00    -0.014 A 
BRANCH  39  40
ATOM     40  C   UNL A   1      37.554  32.318  31.359  1.00  0.00     0.031 A 
ATOM     41  C   UNL A   1      38.286  31.189  30.692  1.00  0.00     0.074 A 
ATOM     42  C   UNL A   1      37.908  32.719  32.595  1.00  0.00     0.049 A 
ATOM     43  N   UNL A   1      39.279  30.464  31.142  1.00  0.00    -0.248 NA
ATOM     44  C   UNL A   1      37.823  30.803  29.351  1.00  0.00     0.031 C 
ATOM     45  C   UNL A   1      37.245  33.770  33.365  1.00  0.00     0.029 A 
ATOM     46  N   UNL A   1      38.911  32.280  33.421  1.00  0.00    -0.354 N 
ATOM     47  C   UNL A   1      39.540  29.524  30.154  1.00  0.00     0.074 A 
ATOM     48  C   UNL A   1      38.579  29.745  29.095  1.00  0.00     0.031 C 
ATOM     49  C   UNL A   1      37.870  33.909  34.545  1.00  0.00     0.029 A 
ATOM     50  C   UNL A   1      38.961  32.942  34.622  1.00  0.00     0.049 A 
ATOM     51  H   UNL A   1      39.535  31.559  33.176  1.00  0.00     0.167 HD
ATOM     52  C   UNL A   1      40.506  28.575  30.124  1.00  0.00     0.037 A 
ATOM     53  C   UNL A   1      39.799  32.788  35.666  1.00  0.00     0.037 A 
ATOM     54  C   UNL A   1      41.489  28.384  31.157  1.00  0.00     0.049 A 
ATOM     55  C   UNL A   1      40.895  31.762  35.585  1.00  0.00     0.074 A 
ATOM     56  C   UNL A   1      42.547  27.492  31.190  1.00  0.00     0.029 A 
ATOM     57  N   UNL A   1      41.538  29.109  32.339  1.00  0.00    -0.354 N 
ATOM     58  N   UNL A   1      41.168  30.917  34.621  1.00  0.00    -0.248 NA
ATOM     59  C   UNL A   1      41.807  31.676  36.734  1.00  0.00     0.031 C 
ATOM     60  C   UNL A   1      43.223  27.662  32.404  1.00  0.00     0.029 A 
ATOM     61  C   UNL A   1      42.604  28.681  33.111  1.00  0.00     0.049 A 
ATOM     62  H   UNL A   1      40.908  29.822  32.590  1.00  0.00     0.167 HD
ATOM     63  C   UNL A   1      42.291  30.217  35.034  1.00  0.00     0.074 A 
ATOM     64  C   UNL A   1      42.660  30.743  36.332  1.00  0.00     0.031 C 
ATOM     65  C   UNL A   1      42.959  29.225  34.395  1.00  0.00     0.037 A 
BRANCH  52  66
ATOM     66  C   UNL A   1      40.547  27.672  28.927  1.00  0.00     0.064 A 
ATOM     67  C   UNL A   1      41.404  27.925  27.846  1.00  0.00     0.173 A 
ATOM     68  C   UNL A   1      39.737  26.528  28.871  1.00  0.00     0.173 A 
ATOM     69  F   UNL A   1      42.187  29.014  27.847  1.00  0.00    -0.203 F 
ATOM     70  C   UNL A   1      41.429  27.080  26.739  1.00  0.00     0.198 A 
ATOM     71  C   UNL A   1      39.782  25.672  27.773  1.00  0.00     0.198 A 
ATOM     72  F   UNL A   1      38.903  26.238  29.881  1.00  0.00    -0.203 F 
ATOM     73  F   UNL A   1      42.221  27.369  25.697  1.00  0.00    -0.200 F 
ATOM     74  C   UNL A   1      40.622  25.953  26.706  1.00  0.00     0.200 A 
ATOM     75  F   UNL A   1      39.010  24.576  27.746  1.00  0.00    -0.200 F 
ATOM     76  F   UNL A   1      40.649  25.140  25.641  1.00  0.00    -0.200 F 
ENDBRANCH  52  66
BRANCH  53  77
ATOM     77  C   UNL A   1      39.658  33.659  36.858  1.00  0.00     0.064 A 
ATOM     78  C   UNL A   1      38.832  33.282  37.926  1.00  0.00     0.173 A 
ATOM     79  C   UNL A   1      40.348  34.874  36.960  1.00  0.00     0.173 A 
ATOM     80  F   UNL A   1      38.137  32.137  37.862  1.00  0.00    -0.203 F 
ATOM     81  C   UNL A   1      38.690  34.096  39.047  1.00  0.00     0.198 A 
ATOM     82  C   UNL A   1      40.222  35.678  38.092  1.00  0.00     0.198 A 
ATOM     83  F   UNL A   1      41.153  35.276  35.966  1.00  0.00    -0.203 F 
ATOM     84  F   UNL A   1      37.868  33.729  40.038  1.00  0.00    -0.200 F 
ATOM     85  C   UNL A   1      39.390  35.291  39.132  1.00  0.00     0.200 A 
ATOM     86  F   UNL A   1      40.906  36.828  38.175  1.00  0.00    -0.200 F 
ATOM     87  F   UNL A   1      39.256  36.072  40.213  1.00  0.00    -0.200 F 
ENDBRANCH  53  77
BRANCH  65  88
ATOM     88  C   UNL A   1      44.170  28.667  35.078  1.00  0.00     0.064 A 
ATOM     89  C   UNL A   1      45.439  29.233  34.894  1.00  0.00     0.173 A 
ATOM     90  C   UNL A   1      44.052  27.578  35.955  1.00  0.00     0.173 A 
ATOM     91  F   UNL A   1      45.602  30.265  34.053  1.00  0.00    -0.203 F 
ATOM     92  C   UNL A   1      46.553  28.715  35.550  1.00  0.00     0.198 A 
ATOM     93  C   UNL A   1      45.163  27.077  36.626  1.00  0.00     0.198 A 
ATOM     94  F   UNL A   1      42.857  27.007  36.166  1.00  0.00    -0.203 F 
ATOM     95  F   UNL A   1      47.764  29.246  35.332  1.00  0.00    -0.200 F 
ATOM     96  C   UNL A   1      46.414  27.642  36.418  1.00  0.00     0.200 A 
ATOM     97  F   UNL A   1      45.027  26.046  37.470  1.00  0.00    -0.200 F 
ATOM     98  F   UNL A   1      47.485  27.147  37.051  1.00  0.00    -0.200 F 
ENDBRANCH  65  88
ENDBRANCH  39  40
ENDBRANCH  31  34
ENDBRANCH  29  30
ENDBRANCH  28  29
ENDBRANCH   1  28
TORSDOF 14
ENDMDL
MODEL 3
REMARK VINA RESULT:     -12.6      0.835      7.281
REMARK SMILES Cc1ccc(S(=O)(=O)Nc2cnc(N(C)C)c(C(=O)NCCCNC(=O)c3ccc(-c4c5nc(c(-c6c(F)c(F)c(F)c(F)c6F)c6ccc([nH]6)c(-c6c(F)c(F)c(F)c(F)c6F)c6nc(c(-c7c(F)c(F)c(F)c(F)c7F)c7ccc4[nH]7)C=C6)C=C5)cc3)c2)c(C)c1
REMARK SMILES IDX 21 1 20 2 18 3 19 4 17 6 10 7 11 8 90 9 12 10 13 11 9 12
REMARK SMILES IDX 6 14 7 15 8 16 5 17 1 18 2 19 3 20 93 21 4 22 91 23 92 24
REMARK SMILES IDX 14 25 15 26 16 27 22 28 23 29 24 30 25 31 26 33 27 34 28 35
REMARK SMILES IDX 89 36 29 37 88 38 30 39 31 40 32 41 82 42 33 43 87 44 81 45
REMARK SMILES IDX 83 46 34 47 86 48 80 49 79 50 35 52 67 53 47 54 66 55 48 56
REMARK SMILES IDX 51 57 65 58 84 59 49 60 50 61 64 63 85 64 52 65 36 66 37 67
REMARK SMILES IDX 45 68 38 69 39 70 43 71 46 72 40 73 41 74 44 75 42 76 68 77
REMARK SMILES IDX 69 78 77 79 70 80 71 81 75 82 78 83 72 84 73 85 76 86 74 87
REMARK SMILES IDX 53 88 54 89 62 90 55 91 56 92 60 93 63 94 57 95 58 96 61 97
REMARK SMILES IDX 59 98
REMARK H PARENT 20 5 9 13 24 32 83 51 51 62
REMARK Flexibility Score: inf
ROOT
ATOM      1  C   UNL A   1      31.425  30.678  26.273  1.00  0.00     0.118 C 
ENDROOT
BRANCH   1   2
ATOM      2  N   UNL A   1      32.149  30.393  25.045  1.00  0.00    -0.352 N 
ATOM      3  C   UNL A   1      32.355  29.226  24.345  1.00  0.00     0.255 C 
ATOM      4  O   UNL A   1      33.310  29.204  23.573  1.00  0.00    -0.269 OA
ATOM      5  H   UNL A   1      32.571  31.183  24.637  1.00  0.00     0.163 HD
BRANCH   3   6
ATOM      6  C   UNL A   1      31.473  28.038  24.485  1.00  0.00     0.084 A 
ATOM      7  C   UNL A   1      31.087  25.905  25.574  1.00  0.00     0.068 A 
ATOM      8  C   UNL A   1      29.997  25.760  24.743  1.00  0.00     0.140 A 
ATOM      9  C   UNL A   1      31.906  26.996  25.334  1.00  0.00     0.046 A 
ATOM     10  N   UNL A   1      29.596  26.702  23.872  1.00  0.00    -0.236 NA
ATOM     11  C   UNL A   1      30.261  27.888  23.772  1.00  0.00     0.141 A 
BRANCH   7  12
ATOM     12  N   UNL A   1      31.240  24.991  26.651  1.00  0.00    -0.278 N 
ATOM     13  H   UNL A   1      31.133  25.340  27.565  1.00  0.00     0.180 HD
BRANCH  12  14
ATOM     14  S   UNL A   1      31.591  23.362  26.480  1.00  0.00     0.262 S 
ATOM     15  O   UNL A   1      30.682  22.834  25.463  1.00  0.00    -0.201 OA
ATOM     16  O   UNL A   1      31.598  22.835  27.828  1.00  0.00    -0.201 OA
BRANCH  14  17
ATOM     17  C   UNL A   1      33.247  23.146  25.827  1.00  0.00     0.090 A 
ATOM     18  C   UNL A   1      36.675  22.958  23.219  1.00  0.00     0.044 C 
ATOM     19  C   UNL A   1      35.529  23.005  24.186  1.00  0.00    -0.051 A 
ATOM     20  C   UNL A   1      35.267  24.155  24.933  1.00  0.00     0.005 A 
ATOM     21  C   UNL A   1      34.728  21.877  24.383  1.00  0.00     0.008 A 
ATOM     22  C   UNL A   1      34.144  24.218  25.764  1.00  0.00     0.023 A 
ATOM     23  C   UNL A   1      33.580  21.927  25.200  1.00  0.00    -0.030 A 
ATOM     24  C   UNL A   1      32.826  20.638  25.393  1.00  0.00     0.046 C 
ENDBRANCH  14  17
ENDBRANCH  12  14
ENDBRANCH   7  12
BRANCH  11  25
ATOM     25  N   UNL A   1      29.575  28.837  23.037  1.00  0.00    -0.362 N 
ATOM     26  C   UNL A   1      28.112  28.814  23.107  1.00  0.00     0.145 C 
ATOM     27  C   UNL A   1      30.137  29.676  21.994  1.00  0.00     0.145 C 
ENDBRANCH  11  25
ENDBRANCH   3   6
ENDBRANCH   1   2
BRANCH   1  28
ATOM     28  C   UNL A   1      31.373  32.189  26.518  1.00  0.00     0.042 C 
BRANCH  28  29
ATOM     29  C   UNL A   1      32.606  32.719  27.241  1.00  0.00     0.118 C 
BRANCH  29  30
ATOM     30  N   UNL A   1      32.457  34.112  27.625  1.00  0.00    -0.352 N 
ATOM     31  C   UNL A   1      33.083  34.806  28.628  1.00  0.00     0.251 C 
ATOM     32  H   UNL A   1      31.813  34.631  27.090  1.00  0.00     0.163 HD
ATOM     33  O   UNL A   1      32.691  35.931  28.927  1.00  0.00    -0.269 OA
BRANCH  31  34
ATOM     34  C   UNL A   1      34.221  34.208  29.360  1.00  0.00     0.039 A 
ATOM     35  C   UNL A   1      35.518  34.452  28.895  1.00  0.00     0.014 A 
ATOM     36  C   UNL A   1      34.020  33.370  30.461  1.00  0.00     0.014 A 
ATOM     37  C   UNL A   1      36.612  33.881  29.550  1.00  0.00     0.010 A 
ATOM     38  C   UNL A   1      35.115  32.845  31.147  1.00  0.00     0.010 A 
ATOM     39  C   UNL A   1      36.418  33.082  30.688  1.00  0.00    -0.014 A 
BRANCH  39  40
ATOM     40  C   UNL A   1      37.570  32.454  31.382  1.00  0.00     0.031 A 
ATOM     41  C   UNL A   1      38.329  31.340  30.719  1.00  0.00     0.074 A 
ATOM     42  C   UNL A   1      37.902  32.854  32.624  1.00  0.00     0.049 A 
ATOM     43  N   UNL A   1      39.328  30.628  31.179  1.00  0.00    -0.248 NA
ATOM     44  C   UNL A   1      37.890  30.954  29.370  1.00  0.00     0.031 C 
ATOM     45  C   UNL A   1      37.212  33.891  33.391  1.00  0.00     0.029 A 
ATOM     46  N   UNL A   1      38.901  32.427  33.461  1.00  0.00    -0.354 N 
ATOM     47  C   UNL A   1      39.616  29.698  30.190  1.00  0.00     0.074 A 
ATOM     48  C   UNL A   1      38.666  29.909  29.119  1.00  0.00     0.031 C 
ATOM     49  C   UNL A   1      37.819  34.033  34.580  1.00  0.00     0.029 A 
ATOM     50  C   UNL A   1      38.925  33.084  34.667  1.00  0.00     0.049 A 
ATOM     51  H   UNL A   1      39.539  31.717  33.221  1.00  0.00     0.167 HD
ATOM     52  C   UNL A   1      40.597  28.764  30.167  1.00  0.00     0.037 A 
ATOM     53  C   UNL A   1      39.751  32.937  35.720  1.00  0.00     0.037 A 
ATOM     54  C   UNL A   1      41.569  28.584  31.212  1.00  0.00     0.049 A 
ATOM     55  C   UNL A   1      40.864  31.929  35.649  1.00  0.00     0.074 A 
ATOM     56  C   UNL A   1      42.641  27.709  31.255  1.00  0.00     0.029 A 
ATOM     57  N   UNL A   1      41.591  29.303  32.398  1.00  0.00    -0.354 N 
ATOM     58  N   UNL A   1      41.162  31.094  34.684  1.00  0.00    -0.248 NA
ATOM     59  C   UNL A   1      41.762  31.851  36.810  1.00  0.00     0.031 C 
ATOM     60  C   UNL A   1      43.298  27.883  32.479  1.00  0.00     0.029 A 
ATOM     61  C   UNL A   1      42.654  28.888  33.182  1.00  0.00     0.049 A 
ATOM     62  H   UNL A   1      40.947  30.005  32.645  1.00  0.00     0.167 HD
ATOM     63  C   UNL A   1      42.292  30.409  35.109  1.00  0.00     0.074 A 
ATOM     64  C   UNL A   1      42.634  30.934  36.415  1.00  0.00     0.031 C 
ATOM     65  C   UNL A   1      42.983  29.431  34.474  1.00  0.00     0.037 A 
BRANCH  52  66
ATOM     66  C   UNL A   1      40.668  27.869  28.967  1.00  0.00     0.064 A 
ATOM     67  C   UNL A   1      41.533  28.142  27.897  1.00  0.00     0.173 A 
ATOM     68  C   UNL A   1      39.880  26.710  28.895  1.00  0.00     0.173 A 
ATOM     69  F   UNL A   1      42.296  29.246  27.913  1.00  0.00    -0.203 F 
ATOM     70  C   UNL A   1      41.586  27.304  26.786  1.00  0.00     0.198 A 
ATOM     71  C   UNL A   1      39.954  25.861  27.794  1.00  0.00     0.198 A 
ATOM     72  F   UNL A   1      39.040  26.401  29.894  1.00  0.00    -0.203 F 
ATOM     73  F   UNL A   1      42.385  27.612  25.755  1.00  0.00    -0.200 F 
ATOM     74  C   UNL A   1      40.801  26.163  26.738  1.00  0.00     0.200 A 
ATOM     75  F   UNL A   1      39.202  24.752  27.752  1.00  0.00    -0.200 F 
ATOM     76  F   UNL A   1      40.854  25.356  25.669  1.00  0.00    -0.200 F 
ENDBRANCH  52  66
BRANCH  53  77
ATOM     77  C   UNL A   1      39.580  33.799  36.915  1.00  0.00     0.064 A 
ATOM     78  C   UNL A   1      40.163  35.072  36.968  1.00  0.00     0.173 A 
ATOM     79  C   UNL A   1      38.826  33.377  38.019  1.00  0.00     0.173 A 
ATOM     80  F   UNL A   1      40.909  35.509  35.942  1.00  0.00    -0.203 F 
ATOM     81  C   UNL A   1      40.011  35.886  38.088  1.00  0.00     0.198 A 
ATOM     82  C   UNL A   1      38.657  34.200  39.130  1.00  0.00     0.198 A 
ATOM     83  F   UNL A   1      38.246  32.168  38.013  1.00  0.00    -0.203 F 
ATOM     84  F   UNL A   1      40.608  37.085  38.127  1.00  0.00    -0.200 F 
ATOM     85  C   UNL A   1      39.254  35.453  39.166  1.00  0.00     0.200 A 
ATOM     86  F   UNL A   1      37.918  33.782  40.166  1.00  0.00    -0.200 F 
ATOM     87  F   UNL A   1      39.105  36.238  40.241  1.00  0.00    -0.200 F 
ENDBRANCH  53  77
BRANCH  65  88
ATOM     88  C   UNL A   1      44.194  28.889  35.170  1.00  0.00     0.064 A 
ATOM     89  C   UNL A   1      44.112  27.777  36.021  1.00  0.00     0.173 A 
ATOM     90  C   UNL A   1      45.454  29.465  34.955  1.00  0.00     0.173 A 
ATOM     91  F   UNL A   1      42.925  27.203  36.269  1.00  0.00    -0.203 F 
ATOM     92  C   UNL A   1      45.248  27.272  36.647  1.00  0.00     0.198 A 
ATOM     93  C   UNL A   1      46.591  28.945  35.565  1.00  0.00     0.198 A 
ATOM     94  F   UNL A   1      45.582  30.527  34.146  1.00  0.00    -0.203 F 
ATOM     95  F   UNL A   1      45.143  26.233  37.486  1.00  0.00    -0.200 F 
ATOM     96  C   UNL A   1      46.487  27.853  36.416  1.00  0.00     0.200 A 
ATOM     97  F   UNL A   1      47.788  29.501  35.335  1.00  0.00    -0.200 F 
ATOM     98  F   UNL A   1      47.580  27.365  37.016  1.00  0.00    -0.200 F 
ENDBRANCH  65  88
ENDBRANCH  39  40
ENDBRANCH  31  34
ENDBRANCH  29  30
ENDBRANCH  28  29
ENDBRANCH   1  28
TORSDOF 14
ENDMDL
