MODEL 1
REMARK VINA RESULT:     -13.9      0.000      0.000
REMARK SMILES Cc1cc(-c2cncc(C(=O)NCCCNC(=O)c3ccc(-c4c5nc(c(-c6c(F)c(F)c(F)c(F)c6F)c6ccc([nH]6)c(-c6c(F)c(F)c(F)c(F)c6F)c6nc(c(-c7c(F)c(F)c(F)c(F)c7F)c7ccc4[nH]7)C=C6)C=C5)cc3)c2)ccc1F
REMARK SMILES IDX 14 1 13 2 12 3 10 4 11 5 9 7 5 8 6 9 82 10 7 11 8 12 4 13
REMARK SMILES IDX 1 14 2 15 3 16 85 17 84 18 86 19 83 20 15 21 16 22 17 23
REMARK SMILES IDX 18 25 19 26 20 27 81 28 21 29 80 30 22 31 23 32 24 33 74 34
REMARK SMILES IDX 25 35 79 36 73 37 75 38 26 39 78 40 72 41 71 42 27 44 59 45
REMARK SMILES IDX 39 46 58 47 40 48 43 49 57 50 76 51 41 52 42 53 56 55 77 56
REMARK SMILES IDX 44 57 28 58 29 59 37 60 30 61 31 62 35 63 38 64 32 65 33 66
REMARK SMILES IDX 36 67 34 68 60 69 61 70 69 71 62 72 63 73 67 74 70 75 64 76
REMARK SMILES IDX 65 77 68 78 66 79 45 80 46 81 54 82 47 83 48 84 52 85 55 86
REMARK SMILES IDX 49 87 50 88 53 89 51 90
REMARK H PARENT 12 6 16 24 75 43 43 54
REMARK Flexibility Score: inf
ROOT
ATOM      1  C   UNL A   1      32.892  28.494  27.242  1.00  0.00     0.042 C 
ENDROOT
BRANCH   1   2
ATOM      2  C   UNL A   1      31.923  27.774  26.293  1.00  0.00     0.118 C 
BRANCH   2   3
ATOM      3  N   UNL A   1      31.473  26.521  26.876  1.00  0.00    -0.352 N 
ATOM      4  C   UNL A   1      31.777  25.219  26.551  1.00  0.00     0.252 C 
ATOM      5  O   UNL A   1      31.267  24.320  27.217  1.00  0.00    -0.269 OA
ATOM      6  H   UNL A   1      30.846  26.620  27.628  1.00  0.00     0.163 HD
BRANCH   4   7
ATOM      7  C   UNL A   1      32.728  24.873  25.465  1.00  0.00     0.058 A 
ATOM      8  C   UNL A   1      34.809  23.915  24.613  1.00  0.00     0.001 A 
ATOM      9  C   UNL A   1      34.306  24.109  23.338  1.00  0.00     0.119 A 
ATOM     10  C   UNL A   1      34.009  24.369  25.659  1.00  0.00     0.025 A 
ATOM     11  N   UNL A   1      33.098  24.676  23.081  1.00  0.00    -0.263 NA
ATOM     12  C   UNL A   1      32.333  25.034  24.149  1.00  0.00     0.124 A 
BRANCH   8  13
ATOM     13  C   UNL A   1      36.069  23.240  24.943  1.00  0.00    -0.016 A 
ATOM     14  C   UNL A   1      37.574  19.724  24.627  1.00  0.00     0.047 C 
ATOM     15  C   UNL A   1      37.385  21.165  24.995  1.00  0.00    -0.015 A 
ATOM     16  C   UNL A   1      36.250  21.882  24.593  1.00  0.00     0.015 A 
ATOM     17  C   UNL A   1      38.350  21.827  25.752  1.00  0.00     0.126 A 
ATOM     18  C   UNL A   1      38.193  23.163  26.114  1.00  0.00     0.040 A 
ATOM     19  F   UNL A   1      39.448  21.170  26.152  1.00  0.00    -0.207 F 
ATOM     20  C   UNL A   1      37.055  23.868  25.714  1.00  0.00     0.012 A 
ENDBRANCH   8  13
ENDBRANCH   4   7
ENDBRANCH   2   3
ENDBRANCH   1   2
BRANCH   1  21
ATOM     21  C   UNL A   1      33.939  29.214  26.454  1.00  0.00     0.118 C 
BRANCH  21  22
ATOM     22  N   UNL A   1      34.141  30.561  26.958  1.00  0.00    -0.352 N 
ATOM     23  C   UNL A   1      34.978  30.972  27.970  1.00  0.00     0.251 C 
ATOM     24  H   UNL A   1      33.613  31.268  26.522  1.00  0.00     0.163 HD
ATOM     25  O   UNL A   1      34.774  32.028  28.541  1.00  0.00    -0.269 OA
BRANCH  23  26
ATOM     26  C   UNL A   1      36.154  30.146  28.306  1.00  0.00     0.039 A 
ATOM     27  C   UNL A   1      36.279  29.563  29.573  1.00  0.00     0.014 A 
ATOM     28  C   UNL A   1      37.208  30.078  27.402  1.00  0.00     0.014 A 
ATOM     29  C   UNL A   1      37.493  28.988  29.940  1.00  0.00     0.010 A 
ATOM     30  C   UNL A   1      38.317  29.358  27.679  1.00  0.00     0.010 A 
ATOM     31  C   UNL A   1      38.506  28.943  28.988  1.00  0.00    -0.014 A 
BRANCH  31  32
ATOM     32  C   UNL A   1      39.867  28.511  29.186  1.00  0.00     0.031 A 
ATOM     33  C   UNL A   1      40.212  27.147  28.809  1.00  0.00     0.074 A 
ATOM     34  C   UNL A   1      40.756  29.518  29.344  1.00  0.00     0.049 A 
ATOM     35  N   UNL A   1      41.296  26.564  29.157  1.00  0.00    -0.248 NA
ATOM     36  C   UNL A   1      39.335  26.320  27.985  1.00  0.00     0.031 C 
ATOM     37  C   UNL A   1      42.190  29.556  29.119  1.00  0.00     0.029 A 
ATOM     38  N   UNL A   1      40.467  30.799  29.847  1.00  0.00    -0.354 N 
ATOM     39  C   UNL A   1      41.422  25.452  28.357  1.00  0.00     0.074 A 
ATOM     40  C   UNL A   1      40.125  25.269  27.747  1.00  0.00     0.031 C 
ATOM     41  C   UNL A   1      42.696  30.607  29.796  1.00  0.00     0.029 A 
ATOM     42  C   UNL A   1      41.610  31.182  30.579  1.00  0.00     0.049 A 
ATOM     43  H   UNL A   1      39.642  31.319  29.716  1.00  0.00     0.167 HD
ATOM     44  C   UNL A   1      42.670  24.934  28.181  1.00  0.00     0.037 A 
ATOM     45  C   UNL A   1      41.501  31.174  31.945  1.00  0.00     0.037 A 
ATOM     46  C   UNL A   1      43.651  25.727  28.930  1.00  0.00     0.049 A 
ATOM     47  C   UNL A   1      42.251  30.019  32.575  1.00  0.00     0.074 A 
ATOM     48  C   UNL A   1      44.479  26.789  28.599  1.00  0.00     0.029 A 
ATOM     49  N   UNL A   1      43.560  25.740  30.308  1.00  0.00    -0.354 N 
ATOM     50  N   UNL A   1      42.820  29.064  31.890  1.00  0.00    -0.248 NA
ATOM     51  C   UNL A   1      42.386  29.822  34.014  1.00  0.00     0.031 C 
ATOM     52  C   UNL A   1      44.813  27.480  29.806  1.00  0.00     0.029 A 
ATOM     53  C   UNL A   1      44.198  26.833  30.864  1.00  0.00     0.049 A 
ATOM     54  H   UNL A   1      43.095  25.050  30.834  1.00  0.00     0.167 HD
ATOM     55  C   UNL A   1      43.383  28.158  32.734  1.00  0.00     0.074 A 
ATOM     56  C   UNL A   1      43.066  28.663  34.061  1.00  0.00     0.031 C 
ATOM     57  C   UNL A   1      44.063  27.059  32.296  1.00  0.00     0.037 A 
BRANCH  44  58
ATOM     58  C   UNL A   1      43.044  23.887  27.163  1.00  0.00     0.064 A 
ATOM     59  C   UNL A   1      42.643  22.548  27.352  1.00  0.00     0.173 A 
ATOM     60  C   UNL A   1      43.779  24.124  25.985  1.00  0.00     0.173 A 
ATOM     61  F   UNL A   1      41.881  22.186  28.392  1.00  0.00    -0.203 F 
ATOM     62  C   UNL A   1      43.003  21.524  26.473  1.00  0.00     0.198 A 
ATOM     63  C   UNL A   1      44.182  23.091  25.131  1.00  0.00     0.198 A 
ATOM     64  F   UNL A   1      44.077  25.362  25.579  1.00  0.00    -0.203 F 
ATOM     65  F   UNL A   1      42.578  20.275  26.703  1.00  0.00    -0.200 F 
ATOM     66  C   UNL A   1      43.794  21.790  25.375  1.00  0.00     0.200 A 
ATOM     67  F   UNL A   1      44.937  23.372  24.059  1.00  0.00    -0.200 F 
ATOM     68  F   UNL A   1      44.153  20.806  24.542  1.00  0.00    -0.200 F 
ENDBRANCH  44  58
BRANCH  45  69
ATOM     69  C   UNL A   1      40.151  31.696  32.362  1.00  0.00     0.064 A 
ATOM     70  C   UNL A   1      39.273  30.746  32.932  1.00  0.00     0.173 A 
ATOM     71  C   UNL A   1      39.983  33.035  32.742  1.00  0.00     0.173 A 
ATOM     72  F   UNL A   1      39.361  29.455  32.572  1.00  0.00    -0.203 F 
ATOM     73  C   UNL A   1      38.469  31.076  34.021  1.00  0.00     0.198 A 
ATOM     74  C   UNL A   1      39.126  33.370  33.796  1.00  0.00     0.198 A 
ATOM     75  F   UNL A   1      40.747  33.996  32.204  1.00  0.00    -0.203 F 
ATOM     76  F   UNL A   1      37.828  30.108  34.694  1.00  0.00    -0.200 F 
ATOM     77  C   UNL A   1      38.432  32.380  34.480  1.00  0.00     0.200 A 
ATOM     78  F   UNL A   1      39.049  34.642  34.214  1.00  0.00    -0.200 F 
ATOM     79  F   UNL A   1      37.767  32.670  35.607  1.00  0.00    -0.200 F 
ENDBRANCH  45  69
BRANCH  57  80
ATOM     80  C   UNL A   1      44.679  26.090  33.251  1.00  0.00     0.064 A 
ATOM     81  C   UNL A   1      46.063  25.875  33.281  1.00  0.00     0.173 A 
ATOM     82  C   UNL A   1      43.893  25.279  34.094  1.00  0.00     0.173 A 
ATOM     83  F   UNL A   1      46.880  26.560  32.468  1.00  0.00    -0.203 F 
ATOM     84  C   UNL A   1      46.632  24.949  34.151  1.00  0.00     0.198 A 
ATOM     85  C   UNL A   1      44.457  24.303  34.905  1.00  0.00     0.198 A 
ATOM     86  F   UNL A   1      42.564  25.432  34.178  1.00  0.00    -0.203 F 
ATOM     87  F   UNL A   1      47.965  24.829  34.212  1.00  0.00    -0.200 F 
ATOM     88  C   UNL A   1      45.829  24.153  34.952  1.00  0.00     0.200 A 
ATOM     89  F   UNL A   1      43.664  23.519  35.649  1.00  0.00    -0.200 F 
ATOM     90  F   UNL A   1      46.377  23.253  35.777  1.00  0.00    -0.200 F 
ENDBRANCH  57  80
ENDBRANCH  31  32
ENDBRANCH  23  26
ENDBRANCH  21  22
ENDBRANCH   1  21
TORSDOF 11
ENDMDL
MODEL 2
REMARK VINA RESULT:     -13.6      2.846      6.407
REMARK SMILES Cc1cc(-c2cncc(C(=O)NCCCNC(=O)c3ccc(-c4c5nc(c(-c6c(F)c(F)c(F)c(F)c6F)c6ccc([nH]6)c(-c6c(F)c(F)c(F)c(F)c6F)c6nc(c(-c7c(F)c(F)c(F)c(F)c7F)c7ccc4[nH]7)C=C6)C=C5)cc3)c2)ccc1F
REMARK SMILES IDX 14 1 13 2 12 3 10 4 11 5 9 7 5 8 6 9 82 10 7 11 8 12 4 13
REMARK SMILES IDX 1 14 2 15 3 16 85 17 84 18 86 19 83 20 15 21 16 22 17 23
REMARK SMILES IDX 18 25 19 26 20 27 81 28 21 29 80 30 22 31 23 32 24 33 74 34
REMARK SMILES IDX 25 35 79 36 73 37 75 38 26 39 78 40 72 41 71 42 27 44 59 45
REMARK SMILES IDX 39 46 58 47 40 48 43 49 57 50 76 51 41 52 42 53 56 55 77 56
REMARK SMILES IDX 44 57 28 58 29 59 37 60 30 61 31 62 35 63 38 64 32 65 33 66
REMARK SMILES IDX 36 67 34 68 60 69 61 70 69 71 62 72 63 73 67 74 70 75 64 76
REMARK SMILES IDX 65 77 68 78 66 79 45 80 46 81 54 82 47 83 48 84 52 85 55 86
REMARK SMILES IDX 49 87 50 88 53 89 51 90
REMARK H PARENT 12 6 16 24 75 43 43 54
REMARK Flexibility Score: inf
ROOT
ATOM      1  C   UNL A   1      35.187  33.171  28.132  1.00  0.00     0.042 C 
ENDROOT
BRANCH   1   2
ATOM      2  C   UNL A   1      33.695  33.524  28.205  1.00  0.00     0.118 C 
BRANCH   2   3
ATOM      3  N   UNL A   1      33.496  34.950  28.006  1.00  0.00    -0.352 N 
ATOM      4  C   UNL A   1      33.366  35.974  28.916  1.00  0.00     0.252 C 
ATOM      5  O   UNL A   1      33.218  37.117  28.487  1.00  0.00    -0.269 OA
ATOM      6  H   UNL A   1      33.446  35.230  27.064  1.00  0.00     0.163 HD
BRANCH   4   7
ATOM      7  C   UNL A   1      33.446  35.749  30.381  1.00  0.00     0.058 A 
ATOM      8  C   UNL A   1      34.507  34.860  32.395  1.00  0.00     0.001 A 
ATOM      9  C   UNL A   1      33.580  35.579  33.129  1.00  0.00     0.119 A 
ATOM     10  C   UNL A   1      34.369  34.923  31.010  1.00  0.00     0.025 A 
ATOM     11  N   UNL A   1      32.599  36.337  32.572  1.00  0.00    -0.263 NA
ATOM     12  C   UNL A   1      32.561  36.413  31.212  1.00  0.00     0.124 A 
BRANCH   8  13
ATOM     13  C   UNL A   1      35.628  34.092  32.948  1.00  0.00    -0.016 A 
ATOM     14  C   UNL A   1      39.363  34.627  33.651  1.00  0.00     0.047 C 
ATOM     15  C   UNL A   1      38.020  33.978  33.502  1.00  0.00    -0.015 A 
ATOM     16  C   UNL A   1      36.894  34.705  33.094  1.00  0.00     0.015 A 
ATOM     17  C   UNL A   1      37.865  32.619  33.773  1.00  0.00     0.126 A 
ATOM     18  C   UNL A   1      36.630  31.990  33.633  1.00  0.00     0.040 A 
ATOM     19  F   UNL A   1      38.922  31.893  34.166  1.00  0.00    -0.207 F 
ATOM     20  C   UNL A   1      35.514  32.723  33.219  1.00  0.00     0.012 A 
ENDBRANCH   8  13
ENDBRANCH   4   7
ENDBRANCH   2   3
ENDBRANCH   1   2
BRANCH   1  21
ATOM     21  C   UNL A   1      35.486  32.021  29.040  1.00  0.00     0.118 C 
BRANCH  21  22
ATOM     22  N   UNL A   1      34.858  30.801  28.565  1.00  0.00    -0.352 N 
ATOM     23  C   UNL A   1      35.448  29.736  27.926  1.00  0.00     0.251 C 
ATOM     24  H   UNL A   1      33.888  30.728  28.718  1.00  0.00     0.163 HD
ATOM     25  O   UNL A   1      34.775  28.977  27.252  1.00  0.00    -0.269 OA
BRANCH  23  26
ATOM     26  C   UNL A   1      36.891  29.495  28.120  1.00  0.00     0.039 A 
ATOM     27  C   UNL A   1      37.821  29.905  27.156  1.00  0.00     0.014 A 
ATOM     28  C   UNL A   1      37.304  28.722  29.200  1.00  0.00     0.014 A 
ATOM     29  C   UNL A   1      39.138  29.466  27.252  1.00  0.00     0.010 A 
ATOM     30  C   UNL A   1      38.613  28.452  29.402  1.00  0.00     0.010 A 
ATOM     31  C   UNL A   1      39.491  28.702  28.360  1.00  0.00    -0.014 A 
BRANCH  31  32
ATOM     32  C   UNL A   1      40.752  28.046  28.598  1.00  0.00     0.031 A 
ATOM     33  C   UNL A   1      40.810  26.599  28.441  1.00  0.00     0.074 A 
ATOM     34  C   UNL A   1      41.824  28.870  28.572  1.00  0.00     0.049 A 
ATOM     35  N   UNL A   1      41.779  25.875  28.857  1.00  0.00    -0.248 NA
ATOM     36  C   UNL A   1      39.749  25.843  27.780  1.00  0.00     0.031 C 
ATOM     37  C   UNL A   1      43.226  28.588  28.314  1.00  0.00     0.029 A 
ATOM     38  N   UNL A   1      41.813  30.245  28.865  1.00  0.00    -0.354 N 
ATOM     39  C   UNL A   1      41.648  24.649  28.245  1.00  0.00     0.074 A 
ATOM     40  C   UNL A   1      40.310  24.633  27.700  1.00  0.00     0.031 C 
ATOM     41  C   UNL A   1      43.958  29.612  28.801  1.00  0.00     0.029 A 
ATOM     42  C   UNL A   1      43.045  30.504  29.502  1.00  0.00     0.049 A 
ATOM     43  H   UNL A   1      41.097  30.891  28.668  1.00  0.00     0.167 HD
ATOM     44  C   UNL A   1      42.763  23.875  28.130  1.00  0.00     0.037 A 
ATOM     45  C   UNL A   1      43.007  30.730  30.853  1.00  0.00     0.037 A 
ATOM     46  C   UNL A   1      43.915  24.565  28.721  1.00  0.00     0.049 A 
ATOM     47  C   UNL A   1      43.553  29.562  31.647  1.00  0.00     0.074 A 
ATOM     48  C   UNL A   1      44.912  25.378  28.204  1.00  0.00     0.029 A 
ATOM     49  N   UNL A   1      43.900  24.809  30.080  1.00  0.00    -0.354 N 
ATOM     50  N   UNL A   1      43.893  28.419  31.115  1.00  0.00    -0.248 NA
ATOM     51  C   UNL A   1      43.722  29.569  33.096  1.00  0.00     0.031 C 
ATOM     52  C   UNL A   1      45.435  26.169  29.276  1.00  0.00     0.029 A 
ATOM     53  C   UNL A   1      44.763  25.828  30.438  1.00  0.00     0.049 A 
ATOM     54  H   UNL A   1      43.339  24.315  30.720  1.00  0.00     0.167 HD
ATOM     55  C   UNL A   1      44.314  27.562  32.084  1.00  0.00     0.074 A 
ATOM     56  C   UNL A   1      44.170  28.320  33.317  1.00  0.00     0.031 C 
ATOM     57  C   UNL A   1      44.748  26.296  31.817  1.00  0.00     0.037 A 
BRANCH  44  58
ATOM     58  C   UNL A   1      42.876  22.629  27.289  1.00  0.00     0.064 A 
ATOM     59  C   UNL A   1      42.101  21.493  27.605  1.00  0.00     0.173 A 
ATOM     60  C   UNL A   1      43.709  22.481  26.163  1.00  0.00     0.173 A 
ATOM     61  F   UNL A   1      41.213  21.510  28.608  1.00  0.00    -0.203 F 
ATOM     62  C   UNL A   1      42.200  20.294  26.897  1.00  0.00     0.198 A 
ATOM     63  C   UNL A   1      43.846  21.265  25.485  1.00  0.00     0.198 A 
ATOM     64  F   UNL A   1      44.370  23.517  25.636  1.00  0.00    -0.203 F 
ATOM     65  F   UNL A   1      41.424  19.257  27.240  1.00  0.00    -0.200 F 
ATOM     66  C   UNL A   1      43.091  20.171  25.852  1.00  0.00     0.200 A 
ATOM     67  F   UNL A   1      44.706  21.169  24.460  1.00  0.00    -0.200 F 
ATOM     68  F   UNL A   1      43.199  19.015  25.184  1.00  0.00    -0.200 F 
ENDBRANCH  44  58
BRANCH  45  69
ATOM     69  C   UNL A   1      41.805  31.567  31.207  1.00  0.00     0.064 A 
ATOM     70  C   UNL A   1      41.857  32.920  30.801  1.00  0.00     0.173 A 
ATOM     71  C   UNL A   1      40.536  30.985  31.339  1.00  0.00     0.173 A 
ATOM     72  F   UNL A   1      43.045  33.541  30.699  1.00  0.00    -0.203 F 
ATOM     73  C   UNL A   1      40.730  33.561  30.292  1.00  0.00     0.198 A 
ATOM     74  C   UNL A   1      39.398  31.658  30.884  1.00  0.00     0.198 A 
ATOM     75  F   UNL A   1      40.409  29.721  31.767  1.00  0.00    -0.203 F 
ATOM     76  F   UNL A   1      40.854  34.756  29.696  1.00  0.00    -0.200 F 
ATOM     77  C   UNL A   1      39.509  32.910  30.293  1.00  0.00     0.200 A 
ATOM     78  F   UNL A   1      38.203  31.051  30.927  1.00  0.00    -0.200 F 
ATOM     79  F   UNL A   1      38.456  33.471  29.682  1.00  0.00    -0.200 F 
ENDBRANCH  45  69
BRANCH  57  80
ATOM     80  C   UNL A   1      45.216  25.386  32.903  1.00  0.00     0.064 A 
ATOM     81  C   UNL A   1      46.576  25.103  33.084  1.00  0.00     0.173 A 
ATOM     82  C   UNL A   1      44.310  24.693  33.731  1.00  0.00     0.173 A 
ATOM     83  F   UNL A   1      47.503  25.671  32.298  1.00  0.00    -0.203 F 
ATOM     84  C   UNL A   1      47.007  24.229  34.078  1.00  0.00     0.198 A 
ATOM     85  C   UNL A   1      44.738  23.765  34.672  1.00  0.00     0.198 A 
ATOM     86  F   UNL A   1      42.990  24.921  33.674  1.00  0.00    -0.203 F 
ATOM     87  F   UNL A   1      48.320  24.047  34.277  1.00  0.00    -0.200 F 
ATOM     88  C   UNL A   1      46.089  23.550  34.863  1.00  0.00     0.200 A 
ATOM     89  F   UNL A   1      43.835  23.093  35.399  1.00  0.00    -0.200 F 
ATOM     90  F   UNL A   1      46.505  22.699  35.808  1.00  0.00    -0.200 F 
ENDBRANCH  57  80
ENDBRANCH  31  32
ENDBRANCH  23  26
ENDBRANCH  21  22
ENDBRANCH   1  21
TORSDOF 11
ENDMDL
MODEL 3
REMARK VINA RESULT:     -13.5      0.800      1.417
REMARK SMILES Cc1cc(-c2cncc(C(=O)NCCCNC(=O)c3ccc(-c4c5nc(c(-c6c(F)c(F)c(F)c(F)c6F)c6ccc([nH]6)c(-c6c(F)c(F)c(F)c(F)c6F)c6nc(c(-c7c(F)c(F)c(F)c(F)c7F)c7ccc4[nH]7)C=C6)C=C5)cc3)c2)ccc1F
REMARK SMILES IDX 14 1 13 2 12 3 10 4 11 5 9 7 5 8 6 9 82 10 7 11 8 12 4 13
REMARK SMILES IDX 1 14 2 15 3 16 85 17 84 18 86 19 83 20 15 21 16 22 17 23
REMARK SMILES IDX 18 25 19 26 20 27 81 28 21 29 80 30 22 31 23 32 24 33 74 34
REMARK SMILES IDX 25 35 79 36 73 37 75 38 26 39 78 40 72 41 71 42 27 44 59 45
REMARK SMILES IDX 39 46 58 47 40 48 43 49 57 50 76 51 41 52 42 53 56 55 77 56
REMARK SMILES IDX 44 57 28 58 29 59 37 60 30 61 31 62 35 63 38 64 32 65 33 66
REMARK SMILES IDX 36 67 34 68 60 69 61 70 69 71 62 72 63 73 67 74 70 75 64 76
REMARK SMILES IDX 65 77 68 78 66 79 45 80 46 81 54 82 47 83 48 84 52 85 55 86
REMARK SMILES IDX 49 87 50 88 53 89 51 90
REMARK H PARENT 12 6 16 24 75 43 43 54
REMARK Flexibility Score: inf
ROOT
ATOM      1  C   UNL A   1      32.184  28.701  27.262  1.00  0.00     0.042 C 
ENDROOT
BRANCH   1   2
ATOM      2  C   UNL A   1      31.788  27.663  26.203  1.00  0.00     0.118 C 
BRANCH   2   3
ATOM      3  N   UNL A   1      31.388  26.415  26.833  1.00  0.00    -0.352 N 
ATOM      4  C   UNL A   1      31.734  25.115  26.548  1.00  0.00     0.252 C 
ATOM      5  O   UNL A   1      31.265  24.221  27.251  1.00  0.00    -0.269 OA
ATOM      6  H   UNL A   1      30.768  26.518  27.591  1.00  0.00     0.163 HD
BRANCH   4   7
ATOM      7  C   UNL A   1      32.683  24.765  25.461  1.00  0.00     0.058 A 
ATOM      8  C   UNL A   1      34.778  23.836  24.612  1.00  0.00     0.001 A 
ATOM      9  C   UNL A   1      34.259  23.988  23.338  1.00  0.00     0.119 A 
ATOM     10  C   UNL A   1      33.977  24.297  25.654  1.00  0.00     0.025 A 
ATOM     11  N   UNL A   1      33.036  24.520  23.079  1.00  0.00    -0.263 NA
ATOM     12  C   UNL A   1      32.272  24.886  24.145  1.00  0.00     0.124 A 
BRANCH   8  13
ATOM     13  C   UNL A   1      36.056  23.200  24.946  1.00  0.00    -0.016 A 
ATOM     14  C   UNL A   1      37.669  19.731  24.628  1.00  0.00     0.047 C 
ATOM     15  C   UNL A   1      37.435  21.165  24.998  1.00  0.00    -0.015 A 
ATOM     16  C   UNL A   1      36.281  21.848  24.593  1.00  0.00     0.015 A 
ATOM     17  C   UNL A   1      38.377  21.855  25.760  1.00  0.00     0.126 A 
ATOM     18  C   UNL A   1      38.178  23.184  26.124  1.00  0.00     0.040 A 
ATOM     19  F   UNL A   1      39.492  21.231  26.164  1.00  0.00    -0.207 F 
ATOM     20  C   UNL A   1      37.020  23.855  25.721  1.00  0.00     0.012 A 
ENDBRANCH   8  13
ENDBRANCH   4   7
ENDBRANCH   2   3
ENDBRANCH   1   2
BRANCH   1  21
ATOM     21  C   UNL A   1      33.645  29.003  27.161  1.00  0.00     0.118 C 
BRANCH  21  22
ATOM     22  N   UNL A   1      33.920  30.387  27.503  1.00  0.00    -0.352 N 
ATOM     23  C   UNL A   1      34.895  30.878  28.339  1.00  0.00     0.251 C 
ATOM     24  H   UNL A   1      33.333  31.058  27.084  1.00  0.00     0.163 HD
ATOM     25  O   UNL A   1      34.778  31.985  28.832  1.00  0.00    -0.269 OA
BRANCH  23  26
ATOM     26  C   UNL A   1      36.108  30.071  28.576  1.00  0.00     0.039 A 
ATOM     27  C   UNL A   1      36.291  29.396  29.789  1.00  0.00     0.014 A 
ATOM     28  C   UNL A   1      37.135  30.110  27.640  1.00  0.00     0.014 A 
ATOM     29  C   UNL A   1      37.534  28.836  30.075  1.00  0.00     0.010 A 
ATOM     30  C   UNL A   1      38.275  29.410  27.828  1.00  0.00     0.010 A 
ATOM     31  C   UNL A   1      38.518  28.901  29.094  1.00  0.00    -0.014 A 
BRANCH  31  32
ATOM     32  C   UNL A   1      39.898  28.503  29.218  1.00  0.00     0.031 A 
ATOM     33  C   UNL A   1      40.249  27.136  28.856  1.00  0.00     0.074 A 
ATOM     34  C   UNL A   1      40.772  29.532  29.295  1.00  0.00     0.049 A 
ATOM     35  N   UNL A   1      41.366  26.586  29.151  1.00  0.00    -0.248 NA
ATOM     36  C   UNL A   1      39.342  26.270  28.109  1.00  0.00     0.031 C 
ATOM     37  C   UNL A   1      42.188  29.593  28.981  1.00  0.00     0.029 A 
ATOM     38  N   UNL A   1      40.486  30.820  29.782  1.00  0.00    -0.354 N 
ATOM     39  C   UNL A   1      41.467  25.456  28.373  1.00  0.00     0.074 A 
ATOM     40  C   UNL A   1      40.140  25.229  27.850  1.00  0.00     0.031 C 
ATOM     41  C   UNL A   1      42.711  30.673  29.598  1.00  0.00     0.029 A 
ATOM     42  C   UNL A   1      41.663  31.246  30.432  1.00  0.00     0.049 A 
ATOM     43  H   UNL A   1      39.642  31.319  29.689  1.00  0.00     0.167 HD
ATOM     44  C   UNL A   1      42.713  24.959  28.134  1.00  0.00     0.037 A 
ATOM     45  C   UNL A   1      41.637  31.273  31.802  1.00  0.00     0.037 A 
ATOM     46  C   UNL A   1      43.720  25.793  28.801  1.00  0.00     0.049 A 
ATOM     47  C   UNL A   1      42.451  30.151  32.413  1.00  0.00     0.074 A 
ATOM     48  C   UNL A   1      44.502  26.862  28.392  1.00  0.00     0.029 A 
ATOM     49  N   UNL A   1      43.714  25.840  30.181  1.00  0.00    -0.354 N 
ATOM     50  N   UNL A   1      42.998  29.190  31.720  1.00  0.00    -0.248 NA
ATOM     51  C   UNL A   1      42.677  29.996  33.847  1.00  0.00     0.031 C 
ATOM     52  C   UNL A   1      44.894  27.592  29.558  1.00  0.00     0.029 A 
ATOM     53  C   UNL A   1      44.360  26.961  30.668  1.00  0.00     0.049 A 
ATOM     54  H   UNL A   1      43.298  25.155  30.752  1.00  0.00     0.167 HD
ATOM     55  C   UNL A   1      43.631  28.318  32.550  1.00  0.00     0.074 A 
ATOM     56  C   UNL A   1      43.385  28.853  33.881  1.00  0.00     0.031 C 
ATOM     57  C   UNL A   1      44.308  27.223  32.100  1.00  0.00     0.037 A 
BRANCH  44  58
ATOM     58  C   UNL A   1      43.048  23.893  27.122  1.00  0.00     0.064 A 
ATOM     59  C   UNL A   1      42.693  22.551  27.372  1.00  0.00     0.173 A 
ATOM     60  C   UNL A   1      43.700  24.114  25.893  1.00  0.00     0.173 A 
ATOM     61  F   UNL A   1      42.008  22.200  28.468  1.00  0.00    -0.203 F 
ATOM     62  C   UNL A   1      43.022  21.512  26.499  1.00  0.00     0.198 A 
ATOM     63  C   UNL A   1      44.073  23.067  25.043  1.00  0.00     0.198 A 
ATOM     64  F   UNL A   1      43.941  25.347  25.437  1.00  0.00    -0.203 F 
ATOM     65  F   UNL A   1      42.643  20.259  26.789  1.00  0.00    -0.200 F 
ATOM     66  C   UNL A   1      43.734  21.765  25.346  1.00  0.00     0.200 A 
ATOM     67  F   UNL A   1      44.751  23.335  23.917  1.00  0.00    -0.200 F 
ATOM     68  F   UNL A   1      44.064  20.766  24.518  1.00  0.00    -0.200 F 
ENDBRANCH  44  58
BRANCH  45  69
ATOM     69  C   UNL A   1      40.304  31.778  32.288  1.00  0.00     0.064 A 
ATOM     70  C   UNL A   1      39.889  33.022  31.759  1.00  0.00     0.173 A 
ATOM     71  C   UNL A   1      39.302  30.887  32.696  1.00  0.00     0.173 A 
ATOM     72  F   UNL A   1      40.807  33.931  31.391  1.00  0.00    -0.203 F 
ATOM     73  C   UNL A   1      38.560  33.242  31.405  1.00  0.00     0.198 A 
ATOM     74  C   UNL A   1      37.961  31.143  32.393  1.00  0.00     0.198 A 
ATOM     75  F   UNL A   1      39.623  29.710  33.252  1.00  0.00    -0.203 F 
ATOM     76  F   UNL A   1      38.231  34.330  30.691  1.00  0.00    -0.200 F 
ATOM     77  C   UNL A   1      37.604  32.281  31.682  1.00  0.00     0.200 A 
ATOM     78  F   UNL A   1      37.023  30.236  32.703  1.00  0.00    -0.200 F 
ATOM     79  F   UNL A   1      36.355  32.433  31.221  1.00  0.00    -0.200 F 
ENDBRANCH  45  69
BRANCH  57  80
ATOM     80  C   UNL A   1      45.003  26.293  33.039  1.00  0.00     0.064 A 
ATOM     81  C   UNL A   1      46.398  26.168  33.042  1.00  0.00     0.173 A 
ATOM     82  C   UNL A   1      44.287  25.431  33.893  1.00  0.00     0.173 A 
ATOM     83  F   UNL A   1      47.154  26.906  32.216  1.00  0.00    -0.203 F 
ATOM     84  C   UNL A   1      47.041  25.277  33.898  1.00  0.00     0.198 A 
ATOM     85  C   UNL A   1      44.927  24.491  34.690  1.00  0.00     0.198 A 
ATOM     86  F   UNL A   1      42.952  25.498  34.003  1.00  0.00    -0.203 F 
ATOM     87  F   UNL A   1      48.380  25.243  33.934  1.00  0.00    -0.200 F 
ATOM     88  C   UNL A   1      46.307  24.430  34.711  1.00  0.00     0.200 A 
ATOM     89  F   UNL A   1      44.200  23.657  35.446  1.00  0.00    -0.200 F 
ATOM     90  F   UNL A   1      46.927  23.564  35.522  1.00  0.00    -0.200 F 
ENDBRANCH  57  80
ENDBRANCH  31  32
ENDBRANCH  23  26
ENDBRANCH  21  22
ENDBRANCH   1  21
TORSDOF 11
ENDMDL
