MODEL 1
REMARK VINA RESULT:     -11.9      0.000      0.000
REMARK SMILES CNC(=O)c1ccc(N(CCC(=O)NCCCNC(=O)c2ccc(-c3c4nc(c(-c5c(F)c(F)c(F)c(F)c5F)c5ccc([nH]5)c(-c5c(F)c(F)c(F)c(F)c5F)c5nc(c(-c6c(F)c(F)c(F)c(F)c6F)c6ccc3[nH]6)C=C5)C=C4)cc2)C2CC2)nn1
REMARK SMILES IDX 15 1 14 2 12 3 13 4 11 6 10 7 9 8 8 9 5 10 6 11 88 12 7 13
REMARK SMILES IDX 87 14 3 15 1 16 2 17 4 19 84 20 85 21 86 22 16 23 17 24
REMARK SMILES IDX 18 25 19 26 20 28 21 29 22 30 83 31 23 32 82 33 24 34 25 35
REMARK SMILES IDX 26 36 76 37 27 38 81 39 75 40 77 41 28 42 80 43 74 44 73 45
REMARK SMILES IDX 29 47 61 48 41 49 60 50 42 51 45 52 59 53 78 54 43 55 44 56
REMARK SMILES IDX 58 58 79 59 46 60 30 61 31 62 39 63 32 64 33 65 37 66 40 67
REMARK SMILES IDX 34 68 35 69 38 70 36 71 62 72 63 73 71 74 64 75 65 76 69 77
REMARK SMILES IDX 72 78 66 79 67 80 70 81 68 82 47 83 48 84 56 85 49 86 50 87
REMARK SMILES IDX 54 88 57 89 51 90 52 91 55 92 53 93
REMARK H PARENT 14 5 2 18 18 27 77 46 45 57
REMARK Flexibility Score: inf
ROOT
ATOM      1  C   UNL A   1      32.474  26.789  26.486  1.00  0.00     0.117 C 
ENDROOT
BRANCH   1   2
ATOM      2  N   UNL A   1      31.426  25.859  26.870  1.00  0.00    -0.356 N 
ATOM      3  C   UNL A   1      31.140  24.597  26.433  1.00  0.00     0.221 C 
ATOM      4  O   UNL A   1      30.168  24.025  26.933  1.00  0.00    -0.275 OA
ATOM      5  H   UNL A   1      30.816  26.197  27.565  1.00  0.00     0.163 HD
BRANCH   3   6
ATOM      6  C   UNL A   1      31.968  23.920  25.368  1.00  0.00     0.121 C 
BRANCH   6   7
ATOM      7  C   UNL A   1      32.653  22.669  25.913  1.00  0.00     0.128 C 
BRANCH   7   8
ATOM      8  N   UNL A   1      33.722  22.167  25.022  1.00  0.00    -0.352 N 
BRANCH   8   9
ATOM      9  C   UNL A   1      33.636  20.796  24.687  1.00  0.00     0.151 A 
ATOM     10  C   UNL A   1      33.628  18.131  23.904  1.00  0.00     0.150 A 
ATOM     11  C   UNL A   1      32.529  18.912  23.611  1.00  0.00     0.040 A 
ATOM     12  N   UNL A   1      34.692  18.637  24.548  1.00  0.00    -0.143 NA
ATOM     13  C   UNL A   1      32.529  20.249  24.039  1.00  0.00     0.051 A 
ATOM     14  N   UNL A   1      34.694  19.980  24.905  1.00  0.00    -0.132 NA
BRANCH  10  15
ATOM     15  C   UNL A   1      33.629  16.670  23.661  1.00  0.00     0.271 C 
ATOM     16  C   UNL A   1      32.323  16.076  25.768  1.00  0.00     0.143 C 
ATOM     17  N   UNL A   1      33.094  15.798  24.580  1.00  0.00    -0.354 N 
ATOM     18  H   UNL A   1      33.260  14.844  24.401  1.00  0.00     0.163 HD
ATOM     19  O   UNL A   1      34.151  16.222  22.643  1.00  0.00    -0.267 OA
ENDBRANCH  10  15
ENDBRANCH   8   9
BRANCH   8  20
ATOM     20  C   UNL A   1      34.436  23.212  24.262  1.00  0.00     0.084 C 
ATOM     21  C   UNL A   1      35.799  23.651  24.765  1.00  0.00     0.027 C 
ATOM     22  C   UNL A   1      35.652  23.097  23.388  1.00  0.00     0.027 C 
ENDBRANCH   8  20
ENDBRANCH   7   8
ENDBRANCH   6   7
ENDBRANCH   3   6
ENDBRANCH   1   2
BRANCH   1  23
ATOM     23  C   UNL A   1      31.972  28.012  25.719  1.00  0.00     0.042 C 
BRANCH  23  24
ATOM     24  C   UNL A   1      32.948  29.166  25.501  1.00  0.00     0.118 C 
BRANCH  24  25
ATOM     25  N   UNL A   1      32.456  30.443  25.973  1.00  0.00    -0.352 N 
ATOM     26  C   UNL A   1      32.985  31.294  26.915  1.00  0.00     0.251 C 
ATOM     27  H   UNL A   1      31.617  30.748  25.557  1.00  0.00     0.163 HD
ATOM     28  O   UNL A   1      32.353  32.297  27.235  1.00  0.00    -0.269 OA
BRANCH  26  29
ATOM     29  C   UNL A   1      34.284  31.018  27.587  1.00  0.00     0.039 A 
ATOM     30  C   UNL A   1      34.452  29.767  28.192  1.00  0.00     0.014 A 
ATOM     31  C   UNL A   1      35.293  31.978  27.712  1.00  0.00     0.014 A 
ATOM     32  C   UNL A   1      35.627  29.470  28.892  1.00  0.00     0.010 A 
ATOM     33  C   UNL A   1      36.490  31.663  28.377  1.00  0.00     0.010 A 
ATOM     34  C   UNL A   1      36.667  30.408  28.986  1.00  0.00    -0.014 A 
BRANCH  34  35
ATOM     35  C   UNL A   1      37.916  30.069  29.731  1.00  0.00     0.031 A 
ATOM     36  C   UNL A   1      38.136  30.564  31.141  1.00  0.00     0.074 A 
ATOM     37  C   UNL A   1      38.862  29.302  29.150  1.00  0.00     0.049 A 
ATOM     38  N   UNL A   1      39.141  30.337  31.952  1.00  0.00    -0.248 NA
ATOM     39  C   UNL A   1      37.099  31.437  31.709  1.00  0.00     0.031 C 
ATOM     40  C   UNL A   1      38.799  28.780  27.785  1.00  0.00     0.029 A 
ATOM     41  N   UNL A   1      40.061  28.828  29.628  1.00  0.00    -0.354 N 
ATOM     42  C   UNL A   1      38.864  31.046  33.114  1.00  0.00     0.074 A 
ATOM     43  C   UNL A   1      37.614  31.741  32.893  1.00  0.00     0.031 C 
ATOM     44  C   UNL A   1      39.897  28.044  27.542  1.00  0.00     0.029 A 
ATOM     45  C   UNL A   1      40.760  28.067  28.721  1.00  0.00     0.049 A 
ATOM     46  H   UNL A   1      40.389  29.015  30.538  1.00  0.00     0.167 HD
ATOM     47  C   UNL A   1      39.577  31.100  34.267  1.00  0.00     0.037 A 
ATOM     48  C   UNL A   1      41.961  27.461  28.820  1.00  0.00     0.037 A 
ATOM     49  C   UNL A   1      40.804  30.385  34.506  1.00  0.00     0.049 A 
ATOM     50  C   UNL A   1      42.732  27.547  30.113  1.00  0.00     0.074 A 
ATOM     51  C   UNL A   1      41.547  30.316  35.673  1.00  0.00     0.029 A 
ATOM     52  N   UNL A   1      41.476  29.624  33.562  1.00  0.00    -0.354 N 
ATOM     53  N   UNL A   1      42.405  28.140  31.235  1.00  0.00    -0.248 NA
ATOM     54  C   UNL A   1      44.037  26.870  30.156  1.00  0.00     0.031 C 
ATOM     55  C   UNL A   1      42.701  29.569  35.417  1.00  0.00     0.029 A 
ATOM     56  C   UNL A   1      42.644  29.116  34.110  1.00  0.00     0.049 A 
ATOM     57  H   UNL A   1      41.169  29.468  32.639  1.00  0.00     0.167 HD
ATOM     58  C   UNL A   1      43.441  27.877  32.123  1.00  0.00     0.074 A 
ATOM     59  C   UNL A   1      44.399  27.056  31.417  1.00  0.00     0.031 C 
ATOM     60  C   UNL A   1      43.586  28.284  33.408  1.00  0.00     0.037 A 
BRANCH  47  61
ATOM     61  C   UNL A   1      39.062  31.972  35.380  1.00  0.00     0.064 A 
ATOM     62  C   UNL A   1      38.333  31.444  36.455  1.00  0.00     0.173 A 
ATOM     63  C   UNL A   1      39.390  33.336  35.416  1.00  0.00     0.173 A 
ATOM     64  F   UNL A   1      37.990  30.147  36.468  1.00  0.00    -0.203 F 
ATOM     65  C   UNL A   1      37.936  32.254  37.517  1.00  0.00     0.198 A 
ATOM     66  C   UNL A   1      39.018  34.135  36.494  1.00  0.00     0.198 A 
ATOM     67  F   UNL A   1      40.097  33.889  34.420  1.00  0.00    -0.203 F 
ATOM     68  F   UNL A   1      37.212  31.735  38.518  1.00  0.00    -0.200 F 
ATOM     69  C   UNL A   1      38.287  33.595  37.540  1.00  0.00     0.200 A 
ATOM     70  F   UNL A   1      39.375  35.428  36.524  1.00  0.00    -0.200 F 
ATOM     71  F   UNL A   1      37.923  34.368  38.574  1.00  0.00    -0.200 F 
ENDBRANCH  47  61
BRANCH  48  72
ATOM     72  C   UNL A   1      42.530  26.717  27.661  1.00  0.00     0.064 A 
ATOM     73  C   UNL A   1      42.276  25.350  27.476  1.00  0.00     0.173 A 
ATOM     74  C   UNL A   1      43.390  27.346  26.746  1.00  0.00     0.173 A 
ATOM     75  F   UNL A   1      41.479  24.696  28.334  1.00  0.00    -0.203 F 
ATOM     76  C   UNL A   1      42.890  24.633  26.450  1.00  0.00     0.198 A 
ATOM     77  C   UNL A   1      43.974  26.636  25.699  1.00  0.00     0.198 A 
ATOM     78  F   UNL A   1      43.666  28.652  26.872  1.00  0.00    -0.203 F 
ATOM     79  F   UNL A   1      42.685  23.313  26.343  1.00  0.00    -0.200 F 
ATOM     80  C   UNL A   1      43.736  25.277  25.561  1.00  0.00     0.200 A 
ATOM     81  F   UNL A   1      44.778  27.267  24.833  1.00  0.00    -0.200 F 
ATOM     82  F   UNL A   1      44.332  24.586  24.580  1.00  0.00    -0.200 F 
ENDBRANCH  48  72
BRANCH  60  83
ATOM     83  C   UNL A   1      44.801  27.811  34.155  1.00  0.00     0.064 A 
ATOM     84  C   UNL A   1      44.817  26.591  34.848  1.00  0.00     0.173 A 
ATOM     85  C   UNL A   1      45.982  28.572  34.144  1.00  0.00     0.173 A 
ATOM     86  F   UNL A   1      43.713  25.831  34.902  1.00  0.00    -0.203 F 
ATOM     87  C   UNL A   1      45.957  26.166  35.527  1.00  0.00     0.198 A 
ATOM     88  C   UNL A   1      47.130  28.126  34.794  1.00  0.00     0.198 A 
ATOM     89  F   UNL A   1      46.026  29.742  33.491  1.00  0.00    -0.203 F 
ATOM     90  F   UNL A   1      45.931  25.023  36.227  1.00  0.00    -0.200 F 
ATOM     91  C   UNL A   1      47.115  26.930  35.492  1.00  0.00     0.200 A 
ATOM     92  F   UNL A   1      48.252  28.857  34.744  1.00  0.00    -0.200 F 
ATOM     93  F   UNL A   1      48.213  26.514  36.138  1.00  0.00    -0.200 F 
ENDBRANCH  60  83
ENDBRANCH  34  35
ENDBRANCH  26  29
ENDBRANCH  24  25
ENDBRANCH  23  24
ENDBRANCH   1  23
TORSDOF 15
ENDMDL
MODEL 2
REMARK VINA RESULT:     -11.7      4.519      9.843
REMARK SMILES CNC(=O)c1ccc(N(CCC(=O)NCCCNC(=O)c2ccc(-c3c4nc(c(-c5c(F)c(F)c(F)c(F)c5F)c5ccc([nH]5)c(-c5c(F)c(F)c(F)c(F)c5F)c5nc(c(-c6c(F)c(F)c(F)c(F)c6F)c6ccc3[nH]6)C=C5)C=C4)cc2)C2CC2)nn1
REMARK SMILES IDX 15 1 14 2 12 3 13 4 11 6 10 7 9 8 8 9 5 10 6 11 88 12 7 13
REMARK SMILES IDX 87 14 3 15 1 16 2 17 4 19 84 20 85 21 86 22 16 23 17 24
REMARK SMILES IDX 18 25 19 26 20 28 21 29 22 30 83 31 23 32 82 33 24 34 25 35
REMARK SMILES IDX 26 36 76 37 27 38 81 39 75 40 77 41 28 42 80 43 74 44 73 45
REMARK SMILES IDX 29 47 61 48 41 49 60 50 42 51 45 52 59 53 78 54 43 55 44 56
REMARK SMILES IDX 58 58 79 59 46 60 30 61 31 62 39 63 32 64 33 65 37 66 40 67
REMARK SMILES IDX 34 68 35 69 38 70 36 71 62 72 63 73 71 74 64 75 65 76 69 77
REMARK SMILES IDX 72 78 66 79 67 80 70 81 68 82 47 83 48 84 56 85 49 86 50 87
REMARK SMILES IDX 54 88 57 89 51 90 52 91 55 92 53 93
REMARK H PARENT 14 5 2 18 18 27 77 46 45 57
REMARK Flexibility Score: inf
ROOT
ATOM      1  C   UNL A   1      37.937  22.221  25.901  1.00  0.00     0.117 C 
ENDROOT
BRANCH   1   2
ATOM      2  N   UNL A   1      37.655  22.352  24.481  1.00  0.00    -0.356 N 
ATOM      3  C   UNL A   1      36.662  23.016  23.821  1.00  0.00     0.221 C 
ATOM      4  O   UNL A   1      36.653  22.954  22.589  1.00  0.00    -0.275 OA
ATOM      5  H   UNL A   1      38.289  21.880  23.895  1.00  0.00     0.163 HD
BRANCH   3   6
ATOM      6  C   UNL A   1      35.598  23.792  24.560  1.00  0.00     0.121 C 
BRANCH   6   7
ATOM      7  C   UNL A   1      34.199  23.335  24.155  1.00  0.00     0.128 C 
BRANCH   7   8
ATOM      8  N   UNL A   1      33.589  22.417  25.143  1.00  0.00    -0.352 N 
BRANCH   8   9
ATOM      9  C   UNL A   1      33.537  21.059  24.754  1.00  0.00     0.151 A 
ATOM     10  C   UNL A   1      33.605  18.424  23.879  1.00  0.00     0.150 A 
ATOM     11  C   UNL A   1      32.528  19.211  23.529  1.00  0.00     0.040 A 
ATOM     12  N   UNL A   1      34.613  18.910  24.621  1.00  0.00    -0.143 NA
ATOM     13  C   UNL A   1      32.487  20.532  24.003  1.00  0.00     0.051 A 
ATOM     14  N   UNL A   1      34.580  20.239  25.024  1.00  0.00    -0.132 NA
BRANCH  10  15
ATOM     15  C   UNL A   1      33.634  16.972  23.584  1.00  0.00     0.271 C 
ATOM     16  C   UNL A   1      32.529  16.264  25.769  1.00  0.00     0.143 C 
ATOM     17  N   UNL A   1      33.207  16.053  24.513  1.00  0.00    -0.354 N 
ATOM     18  H   UNL A   1      33.388  15.112  24.288  1.00  0.00     0.163 HD
ATOM     19  O   UNL A   1      34.084  16.577  22.512  1.00  0.00    -0.267 OA
ENDBRANCH  10  15
ENDBRANCH   8   9
BRANCH   8  20
ATOM     20  C   UNL A   1      33.542  22.937  26.524  1.00  0.00     0.084 C 
ATOM     21  C   UNL A   1      32.195  22.985  27.220  1.00  0.00     0.027 C 
ATOM     22  C   UNL A   1      33.316  22.202  27.815  1.00  0.00     0.027 C 
ENDBRANCH   8  20
ENDBRANCH   7   8
ENDBRANCH   6   7
ENDBRANCH   3   6
ENDBRANCH   1   2
BRANCH   1  23
ATOM     23  C   UNL A   1      39.136  21.326  26.218  1.00  0.00     0.042 C 
BRANCH  23  24
ATOM     24  C   UNL A   1      39.326  20.067  25.376  1.00  0.00     0.118 C 
BRANCH  24  25
ATOM     25  N   UNL A   1      40.386  19.202  25.851  1.00  0.00    -0.352 N 
ATOM     26  C   UNL A   1      41.622  19.526  26.358  1.00  0.00     0.251 C 
ATOM     27  H   UNL A   1      40.192  18.238  25.803  1.00  0.00     0.163 HD
ATOM     28  O   UNL A   1      42.414  18.625  26.621  1.00  0.00    -0.269 OA
BRANCH  26  29
ATOM     29  C   UNL A   1      42.046  20.938  26.563  1.00  0.00     0.039 A 
ATOM     30  C   UNL A   1      42.141  21.405  27.879  1.00  0.00     0.014 A 
ATOM     31  C   UNL A   1      42.263  21.827  25.506  1.00  0.00     0.014 A 
ATOM     32  C   UNL A   1      42.475  22.740  28.136  1.00  0.00     0.010 A 
ATOM     33  C   UNL A   1      42.642  23.155  25.765  1.00  0.00     0.010 A 
ATOM     34  C   UNL A   1      42.741  23.631  27.084  1.00  0.00    -0.014 A 
BRANCH  34  35
ATOM     35  C   UNL A   1      43.103  25.050  27.379  1.00  0.00     0.031 A 
ATOM     36  C   UNL A   1      44.473  25.586  27.040  1.00  0.00     0.074 A 
ATOM     37  C   UNL A   1      42.197  25.873  27.947  1.00  0.00     0.049 A 
ATOM     38  N   UNL A   1      44.948  26.799  27.190  1.00  0.00    -0.248 NA
ATOM     39  C   UNL A   1      45.438  24.635  26.469  1.00  0.00     0.031 C 
ATOM     40  C   UNL A   1      40.847  25.484  28.357  1.00  0.00     0.029 A 
ATOM     41  N   UNL A   1      42.271  27.206  28.280  1.00  0.00    -0.354 N 
ATOM     42  C   UNL A   1      46.265  26.754  26.747  1.00  0.00     0.074 A 
ATOM     43  C   UNL A   1      46.526  25.385  26.354  1.00  0.00     0.031 C 
ATOM     44  C   UNL A   1      40.216  26.555  28.867  1.00  0.00     0.029 A 
ATOM     45  C   UNL A   1      41.122  27.700  28.852  1.00  0.00     0.049 A 
ATOM     46  H   UNL A   1      43.072  27.756  28.122  1.00  0.00     0.167 HD
ATOM     47  C   UNL A   1      47.168  27.762  26.658  1.00  0.00     0.037 A 
ATOM     48  C   UNL A   1      40.831  28.931  29.320  1.00  0.00     0.037 A 
ATOM     49  C   UNL A   1      46.903  29.132  27.015  1.00  0.00     0.049 A 
ATOM     50  C   UNL A   1      41.860  30.028  29.213  1.00  0.00     0.074 A 
ATOM     51  C   UNL A   1      47.732  30.233  26.877  1.00  0.00     0.029 A 
ATOM     52  N   UNL A   1      45.727  29.590  27.589  1.00  0.00    -0.354 N 
ATOM     53  N   UNL A   1      43.065  29.988  28.698  1.00  0.00    -0.248 NA
ATOM     54  C   UNL A   1      41.484  31.347  29.745  1.00  0.00     0.031 C 
ATOM     55  C   UNL A   1      47.085  31.343  27.428  1.00  0.00     0.029 A 
ATOM     56  C   UNL A   1      45.826  30.949  27.846  1.00  0.00     0.049 A 
ATOM     57  H   UNL A   1      44.939  29.033  27.783  1.00  0.00     0.167 HD
ATOM     58  C   UNL A   1      43.572  31.276  28.812  1.00  0.00     0.074 A 
ATOM     59  C   UNL A   1      42.540  32.082  29.426  1.00  0.00     0.031 C 
ATOM     60  C   UNL A   1      44.788  31.749  28.442  1.00  0.00     0.037 A 
BRANCH  47  61
ATOM     61  C   UNL A   1      48.549  27.436  26.160  1.00  0.00     0.064 A 
ATOM     62  C   UNL A   1      48.865  27.453  24.794  1.00  0.00     0.173 A 
ATOM     63  C   UNL A   1      49.590  27.200  27.072  1.00  0.00     0.173 A 
ATOM     64  F   UNL A   1      47.907  27.670  23.881  1.00  0.00    -0.203 F 
ATOM     65  C   UNL A   1      50.170  27.230  24.359  1.00  0.00     0.198 A 
ATOM     66  C   UNL A   1      50.898  27.007  26.634  1.00  0.00     0.198 A 
ATOM     67  F   UNL A   1      49.345  27.186  28.390  1.00  0.00    -0.203 F 
ATOM     68  F   UNL A   1      50.444  27.220  23.047  1.00  0.00    -0.200 F 
ATOM     69  C   UNL A   1      51.186  27.018  25.279  1.00  0.00     0.200 A 
ATOM     70  F   UNL A   1      51.882  26.821  27.526  1.00  0.00    -0.200 F 
ATOM     71  F   UNL A   1      52.444  26.824  24.858  1.00  0.00    -0.200 F 
ENDBRANCH  47  61
BRANCH  48  72
ATOM     72  C   UNL A   1      39.507  29.209  29.943  1.00  0.00     0.064 A 
ATOM     73  C   UNL A   1      38.454  29.764  29.201  1.00  0.00     0.173 A 
ATOM     74  C   UNL A   1      39.286  28.980  31.311  1.00  0.00     0.173 A 
ATOM     75  F   UNL A   1      38.618  30.024  27.896  1.00  0.00    -0.203 F 
ATOM     76  C   UNL A   1      37.250  30.118  29.810  1.00  0.00     0.198 A 
ATOM     77  C   UNL A   1      38.069  29.300  31.910  1.00  0.00     0.198 A 
ATOM     78  F   UNL A   1      40.257  28.447  32.068  1.00  0.00    -0.203 F 
ATOM     79  F   UNL A   1      36.289  30.714  29.090  1.00  0.00    -0.200 F 
ATOM     80  C   UNL A   1      37.057  29.882  31.162  1.00  0.00     0.200 A 
ATOM     81  F   UNL A   1      37.883  29.055  33.213  1.00  0.00    -0.200 F 
ATOM     82  F   UNL A   1      35.903  30.229  31.748  1.00  0.00    -0.200 F 
ENDBRANCH  48  72
BRANCH  60  83
ATOM     83  C   UNL A   1      45.057  33.214  28.646  1.00  0.00     0.064 A 
ATOM     84  C   UNL A   1      45.707  33.696  29.792  1.00  0.00     0.173 A 
ATOM     85  C   UNL A   1      44.695  34.145  27.659  1.00  0.00     0.173 A 
ATOM     86  F   UNL A   1      46.063  32.851  30.771  1.00  0.00    -0.203 F 
ATOM     87  C   UNL A   1      45.955  35.057  29.958  1.00  0.00     0.198 A 
ATOM     88  C   UNL A   1      44.976  35.501  27.812  1.00  0.00     0.198 A 
ATOM     89  F   UNL A   1      44.078  33.740  26.539  1.00  0.00    -0.203 F 
ATOM     90  F   UNL A   1      46.528  35.499  31.086  1.00  0.00    -0.200 F 
ATOM     91  C   UNL A   1      45.597  35.956  28.964  1.00  0.00     0.200 A 
ATOM     92  F   UNL A   1      44.645  36.365  26.843  1.00  0.00    -0.200 F 
ATOM     93  F   UNL A   1      45.845  37.264  29.121  1.00  0.00    -0.200 F 
ENDBRANCH  60  83
ENDBRANCH  34  35
ENDBRANCH  26  29
ENDBRANCH  24  25
ENDBRANCH  23  24
ENDBRANCH   1  23
TORSDOF 15
ENDMDL
MODEL 3
REMARK VINA RESULT:     -11.7      4.735      7.941
REMARK SMILES CNC(=O)c1ccc(N(CCC(=O)NCCCNC(=O)c2ccc(-c3c4nc(c(-c5c(F)c(F)c(F)c(F)c5F)c5ccc([nH]5)c(-c5c(F)c(F)c(F)c(F)c5F)c5nc(c(-c6c(F)c(F)c(F)c(F)c6F)c6ccc3[nH]6)C=C5)C=C4)cc2)C2CC2)nn1
REMARK SMILES IDX 15 1 14 2 12 3 13 4 11 6 10 7 9 8 8 9 5 10 6 11 88 12 7 13
REMARK SMILES IDX 87 14 3 15 1 16 2 17 4 19 84 20 85 21 86 22 16 23 17 24
REMARK SMILES IDX 18 25 19 26 20 28 21 29 22 30 83 31 23 32 82 33 24 34 25 35
REMARK SMILES IDX 26 36 76 37 27 38 81 39 75 40 77 41 28 42 80 43 74 44 73 45
REMARK SMILES IDX 29 47 61 48 41 49 60 50 42 51 45 52 59 53 78 54 43 55 44 56
REMARK SMILES IDX 58 58 79 59 46 60 30 61 31 62 39 63 32 64 33 65 37 66 40 67
REMARK SMILES IDX 34 68 35 69 38 70 36 71 62 72 63 73 71 74 64 75 65 76 69 77
REMARK SMILES IDX 72 78 66 79 67 80 70 81 68 82 47 83 48 84 56 85 49 86 50 87
REMARK SMILES IDX 54 88 57 89 51 90 52 91 55 92 53 93
REMARK H PARENT 14 5 2 18 18 27 77 46 45 57
REMARK Flexibility Score: inf
ROOT
ATOM      1  C   UNL A   1      38.145  22.144  25.960  1.00  0.00     0.117 C 
ENDROOT
BRANCH   1   2
ATOM      2  N   UNL A   1      37.814  22.260  24.549  1.00  0.00    -0.356 N 
ATOM      3  C   UNL A   1      36.789  22.901  23.915  1.00  0.00     0.221 C 
ATOM      4  O   UNL A   1      36.742  22.829  22.685  1.00  0.00    -0.275 OA
ATOM      5  H   UNL A   1      38.438  21.795  23.945  1.00  0.00     0.163 HD
BRANCH   3   6
ATOM      6  C   UNL A   1      35.736  23.664  24.683  1.00  0.00     0.121 C 
BRANCH   6   7
ATOM      7  C   UNL A   1      34.331  23.265  24.238  1.00  0.00     0.128 C 
BRANCH   7   8
ATOM      8  N   UNL A   1      33.659  22.365  25.202  1.00  0.00    -0.352 N 
BRANCH   8   9
ATOM      9  C   UNL A   1      33.576  21.011  24.806  1.00  0.00     0.151 A 
ATOM     10  C   UNL A   1      33.575  18.382  23.906  1.00  0.00     0.150 A 
ATOM     11  C   UNL A   1      32.479  19.176  23.637  1.00  0.00     0.040 A 
ATOM     12  N   UNL A   1      34.632  18.859  24.582  1.00  0.00    -0.143 NA
ATOM     13  C   UNL A   1      32.475  20.493  24.124  1.00  0.00     0.051 A 
ATOM     14  N   UNL A   1      34.632  20.184  24.997  1.00  0.00    -0.132 NA
BRANCH  10  15
ATOM     15  C   UNL A   1      33.578  16.933  23.598  1.00  0.00     0.271 C 
ATOM     16  C   UNL A   1      32.384  16.233  25.738  1.00  0.00     0.143 C 
ATOM     17  N   UNL A   1      33.098  16.016  24.503  1.00  0.00    -0.354 N 
ATOM     18  H   UNL A   1      33.264  15.073  24.274  1.00  0.00     0.163 HD
ATOM     19  O   UNL A   1      34.053  16.537  22.537  1.00  0.00    -0.267 OA
ENDBRANCH  10  15
ENDBRANCH   8   9
BRANCH   8  20
ATOM     20  C   UNL A   1      33.584  22.882  26.583  1.00  0.00     0.084 C 
ATOM     21  C   UNL A   1      32.217  23.235  27.136  1.00  0.00     0.027 C 
ATOM     22  C   UNL A   1      33.062  22.218  27.825  1.00  0.00     0.027 C 
ENDBRANCH   8  20
ENDBRANCH   7   8
ENDBRANCH   6   7
ENDBRANCH   3   6
ENDBRANCH   1   2
BRANCH   1  23
ATOM     23  C   UNL A   1      39.265  21.148  26.258  1.00  0.00     0.042 C 
BRANCH  23  24
ATOM     24  C   UNL A   1      39.315  19.865  25.431  1.00  0.00     0.118 C 
BRANCH  24  25
ATOM     25  N   UNL A   1      40.346  18.940  25.852  1.00  0.00    -0.352 N 
ATOM     26  C   UNL A   1      41.626  19.189  26.286  1.00  0.00     0.251 C 
ATOM     27  H   UNL A   1      40.090  17.989  25.824  1.00  0.00     0.163 HD
ATOM     28  O   UNL A   1      42.375  18.243  26.512  1.00  0.00    -0.269 OA
BRANCH  26  29
ATOM     29  C   UNL A   1      42.147  20.573  26.455  1.00  0.00     0.039 A 
ATOM     30  C   UNL A   1      42.169  21.108  27.749  1.00  0.00     0.014 A 
ATOM     31  C   UNL A   1      42.524  21.379  25.376  1.00  0.00     0.014 A 
ATOM     32  C   UNL A   1      42.589  22.425  27.965  1.00  0.00     0.010 A 
ATOM     33  C   UNL A   1      42.988  22.687  25.599  1.00  0.00     0.010 A 
ATOM     34  C   UNL A   1      43.015  23.230  26.896  1.00  0.00    -0.014 A 
BRANCH  34  35
ATOM     35  C   UNL A   1      43.467  24.631  27.148  1.00  0.00     0.031 A 
ATOM     36  C   UNL A   1      42.496  25.684  27.625  1.00  0.00     0.074 A 
ATOM     37  C   UNL A   1      44.760  24.967  26.959  1.00  0.00     0.049 A 
ATOM     38  N   UNL A   1      42.719  26.940  27.930  1.00  0.00    -0.248 NA
ATOM     39  C   UNL A   1      41.090  25.279  27.765  1.00  0.00     0.031 C 
ATOM     40  C   UNL A   1      45.802  24.063  26.473  1.00  0.00     0.029 A 
ATOM     41  N   UNL A   1      45.422  26.158  27.153  1.00  0.00    -0.354 N 
ATOM     42  C   UNL A   1      41.486  27.474  28.284  1.00  0.00     0.074 A 
ATOM     43  C   UNL A   1      40.510  26.417  28.123  1.00  0.00     0.031 C 
ATOM     44  C   UNL A   1      46.972  24.723  26.424  1.00  0.00     0.029 A 
ATOM     45  C   UNL A   1      46.761  26.106  26.843  1.00  0.00     0.049 A 
ATOM     46  H   UNL A   1      44.978  26.972  27.483  1.00  0.00     0.167 HD
ATOM     47  C   UNL A   1      41.195  28.725  28.720  1.00  0.00     0.037 A 
ATOM     48  C   UNL A   1      47.711  27.062  26.884  1.00  0.00     0.037 A 
ATOM     49  C   UNL A   1      42.166  29.771  28.916  1.00  0.00     0.049 A 
ATOM     50  C   UNL A   1      47.353  28.445  27.367  1.00  0.00     0.074 A 
ATOM     51  C   UNL A   1      41.971  31.041  29.434  1.00  0.00     0.029 A 
ATOM     52  N   UNL A   1      43.510  29.677  28.592  1.00  0.00    -0.354 N 
ATOM     53  N   UNL A   1      46.201  28.902  27.793  1.00  0.00    -0.248 NA
ATOM     54  C   UNL A   1      48.432  29.444  27.384  1.00  0.00     0.031 C 
ATOM     55  C   UNL A   1      43.182  31.736  29.363  1.00  0.00     0.029 A 
ATOM     56  C   UNL A   1      44.147  30.878  28.864  1.00  0.00     0.049 A 
ATOM     57  H   UNL A   1      43.948  28.875  28.225  1.00  0.00     0.167 HD
ATOM     58  C   UNL A   1      46.425  30.223  28.160  1.00  0.00     0.074 A 
ATOM     59  C   UNL A   1      47.827  30.491  27.926  1.00  0.00     0.031 C 
ATOM     60  C   UNL A   1      45.546  31.134  28.645  1.00  0.00     0.037 A 
BRANCH  47  61
ATOM     61  C   UNL A   1      39.759  29.057  29.018  1.00  0.00     0.064 A 
ATOM     62  C   UNL A   1      38.868  29.456  28.011  1.00  0.00     0.173 A 
ATOM     63  C   UNL A   1      39.247  28.878  30.313  1.00  0.00     0.173 A 
ATOM     64  F   UNL A   1      39.306  29.646  26.757  1.00  0.00    -0.203 F 
ATOM     65  C   UNL A   1      37.522  29.679  28.293  1.00  0.00     0.198 A 
ATOM     66  C   UNL A   1      37.895  29.072  30.584  1.00  0.00     0.198 A 
ATOM     67  F   UNL A   1      40.053  28.485  31.310  1.00  0.00    -0.203 F 
ATOM     68  F   UNL A   1      36.695  30.090  27.321  1.00  0.00    -0.200 F 
ATOM     69  C   UNL A   1      37.035  29.477  29.575  1.00  0.00     0.200 A 
ATOM     70  F   UNL A   1      37.423  28.858  31.821  1.00  0.00    -0.200 F 
ATOM     71  F   UNL A   1      35.735  29.672  29.839  1.00  0.00    -0.200 F 
ENDBRANCH  47  61
BRANCH  48  72
ATOM     72  C   UNL A   1      49.105  26.761  26.451  1.00  0.00     0.064 A 
ATOM     73  C   UNL A   1      50.068  26.299  27.360  1.00  0.00     0.173 A 
ATOM     74  C   UNL A   1      49.518  26.987  25.128  1.00  0.00     0.173 A 
ATOM     75  F   UNL A   1      49.731  26.088  28.641  1.00  0.00    -0.203 F 
ATOM     76  C   UNL A   1      51.395  26.115  26.976  1.00  0.00     0.198 A 
ATOM     77  C   UNL A   1      50.838  26.768  24.737  1.00  0.00     0.198 A 
ATOM     78  F   UNL A   1      48.639  27.425  24.215  1.00  0.00    -0.203 F 
ATOM     79  F   UNL A   1      52.308  25.744  27.884  1.00  0.00    -0.200 F 
ATOM     80  C   UNL A   1      51.778  26.347  25.664  1.00  0.00     0.200 A 
ATOM     81  F   UNL A   1      51.198  26.978  23.464  1.00  0.00    -0.200 F 
ATOM     82  F   UNL A   1      53.056  26.178  25.296  1.00  0.00    -0.200 F 
ENDBRANCH  48  72
BRANCH  60  83
ATOM     83  C   UNL A   1      46.078  32.494  29.002  1.00  0.00     0.064 A 
ATOM     84  C   UNL A   1      46.083  33.553  28.081  1.00  0.00     0.173 A 
ATOM     85  C   UNL A   1      46.554  32.751  30.298  1.00  0.00     0.173 A 
ATOM     86  F   UNL A   1      45.652  33.358  26.826  1.00  0.00    -0.203 F 
ATOM     87  C   UNL A   1      46.573  34.808  28.435  1.00  0.00     0.198 A 
ATOM     88  C   UNL A   1      47.009  34.018  30.658  1.00  0.00     0.198 A 
ATOM     89  F   UNL A   1      46.565  31.778  31.220  1.00  0.00    -0.203 F 
ATOM     90  F   UNL A   1      46.617  35.789  27.523  1.00  0.00    -0.200 F 
ATOM     91  C   UNL A   1      47.027  35.042  29.725  1.00  0.00     0.200 A 
ATOM     92  F   UNL A   1      47.431  34.244  31.909  1.00  0.00    -0.200 F 
ATOM     93  F   UNL A   1      47.488  36.253  30.065  1.00  0.00    -0.200 F 
ENDBRANCH  60  83
ENDBRANCH  34  35
ENDBRANCH  26  29
ENDBRANCH  24  25
ENDBRANCH  23  24
ENDBRANCH   1  23
TORSDOF 15
ENDMDL
