MODEL 1
REMARK VINA RESULT:     -12.4      0.000      0.000
REMARK SMILES O=C(NCCCNC(=O)c1sccc1Oc1ccc(NS(=O)(=O)Cc2ccccc2)cc1)c1ccc(-c2c3nc(c(-c4c(F)c(F)c(F)c(F)c4F)c4ccc([nH]4)c(-c4c(F)c(F)c(F)c(F)c4F)c4nc(c(-c5c(F)c(F)c(F)c(F)c5F)c5ccc2[nH]5)C=C4)C=C3)cc1
REMARK SMILES IDX 7 1 8 2 9 3 6 5 5 6 4 7 3 8 1 9 2 10 33 12 34 13 95 14 35 15
REMARK SMILES IDX 94 16 36 17 37 18 38 19 88 20 39 21 93 22 87 23 89 24 40 25
REMARK SMILES IDX 92 26 86 27 85 28 41 30 73 31 53 32 72 33 54 34 57 35 71 36
REMARK SMILES IDX 90 37 55 38 56 39 70 41 91 42 58 43 42 44 43 45 51 46 44 47
REMARK SMILES IDX 45 48 49 49 52 50 46 51 47 52 50 53 48 54 74 55 75 56 83 57
REMARK SMILES IDX 76 58 77 59 81 60 84 61 78 62 79 63 82 64 80 65 59 66 60 67
REMARK SMILES IDX 68 68 61 69 62 70 66 71 69 72 63 73 64 74 67 75 65 76 10 77
REMARK SMILES IDX 11 78 14 79 12 80 13 81 15 82 16 83 17 84 32 85 18 86 31 87
REMARK SMILES IDX 19 88 20 89 21 91 22 92 23 93 24 94 25 95 26 96 30 97 27 98
REMARK SMILES IDX 29 99 28 100
REMARK H PARENT 7 4 3 11 89 29 57 40 20 90
REMARK Flexibility Score: inf
ROOT
ATOM      1  N   UNL A   1      32.013  29.285  27.329  1.00  0.00    -0.351 N 
ATOM      2  C   UNL A   1      31.590  28.288  26.482  1.00  0.00     0.265 C 
ATOM      3  O   UNL A   1      31.072  27.291  26.984  1.00  0.00    -0.268 OA
ATOM      4  H   UNL A   1      31.749  29.186  28.273  1.00  0.00     0.163 HD
ENDROOT
BRANCH   1   5
ATOM      5  C   UNL A   1      32.799  30.463  27.014  1.00  0.00     0.118 C 
BRANCH   5   6
ATOM      6  C   UNL A   1      32.038  31.769  27.150  1.00  0.00     0.042 C 
BRANCH   6   7
ATOM      7  C   UNL A   1      32.891  33.021  26.995  1.00  0.00     0.118 C 
BRANCH   7   8
ATOM      8  N   UNL A   1      32.447  34.174  27.770  1.00  0.00    -0.352 N 
ATOM      9  O   UNL A   1      32.528  35.836  29.303  1.00  0.00    -0.269 OA
ATOM     10  C   UNL A   1      33.032  34.822  28.832  1.00  0.00     0.251 C 
ATOM     11  H   UNL A   1      31.584  34.553  27.484  1.00  0.00     0.163 HD
BRANCH  10  12
ATOM     12  C   UNL A   1      34.242  34.285  29.469  1.00  0.00     0.039 A 
ATOM     13  C   UNL A   1      35.500  34.604  28.971  1.00  0.00     0.014 A 
ATOM     14  C   UNL A   1      34.113  33.482  30.610  1.00  0.00     0.014 A 
ATOM     15  C   UNL A   1      36.614  33.968  29.486  1.00  0.00     0.010 A 
ATOM     16  C   UNL A   1      35.251  32.942  31.211  1.00  0.00     0.010 A 
ATOM     17  C   UNL A   1      36.504  33.155  30.628  1.00  0.00    -0.014 A 
BRANCH  17  18
ATOM     18  C   UNL A   1      37.766  32.653  31.215  1.00  0.00     0.031 A 
ATOM     19  C   UNL A   1      38.161  33.001  32.613  1.00  0.00     0.074 A 
ATOM     20  C   UNL A   1      38.452  31.749  30.489  1.00  0.00     0.049 A 
ATOM     21  N   UNL A   1      39.058  32.431  33.375  1.00  0.00    -0.248 NA
ATOM     22  C   UNL A   1      37.471  34.137  33.241  1.00  0.00     0.031 C 
ATOM     23  C   UNL A   1      38.140  31.387  29.102  1.00  0.00     0.029 A 
ATOM     24  N   UNL A   1      39.477  30.910  30.830  1.00  0.00    -0.354 N 
ATOM     25  C   UNL A   1      39.047  33.140  34.568  1.00  0.00     0.074 A 
ATOM     26  C   UNL A   1      38.073  34.201  34.421  1.00  0.00     0.031 C 
ATOM     27  C   UNL A   1      38.874  30.324  28.751  1.00  0.00     0.029 A 
ATOM     28  C   UNL A   1      39.741  29.966  29.866  1.00  0.00     0.049 A 
ATOM     29  H   UNL A   1      39.975  30.976  31.677  1.00  0.00     0.167 HD
ATOM     30  C   UNL A   1      39.787  32.913  35.679  1.00  0.00     0.037 A 
ATOM     31  C   UNL A   1      40.568  28.905  29.897  1.00  0.00     0.037 A 
ATOM     32  C   UNL A   1      40.750  31.848  35.790  1.00  0.00     0.049 A 
ATOM     33  C   UNL A   1      41.339  28.651  31.159  1.00  0.00     0.074 A 
ATOM     34  C   UNL A   1      41.562  31.518  36.861  1.00  0.00     0.029 A 
ATOM     35  N   UNL A   1      41.030  30.935  34.779  1.00  0.00    -0.354 N 
ATOM     36  N   UNL A   1      41.290  29.296  32.300  1.00  0.00    -0.248 NA
ATOM     37  C   UNL A   1      42.279  27.525  31.140  1.00  0.00     0.031 C 
ATOM     38  C   UNL A   1      42.360  30.432  36.483  1.00  0.00     0.029 A 
ATOM     39  C   UNL A   1      42.014  30.053  35.195  1.00  0.00     0.049 A 
ATOM     40  H   UNL A   1      40.593  30.919  33.898  1.00  0.00     0.167 HD
ATOM     41  C   UNL A   1      42.188  28.657  33.139  1.00  0.00     0.074 A 
ATOM     42  C   UNL A   1      42.739  27.547  32.384  1.00  0.00     0.031 C 
ATOM     43  C   UNL A   1      42.537  28.962  34.412  1.00  0.00     0.037 A 
BRANCH  30  44
ATOM     44  C   UNL A   1      39.605  33.852  36.836  1.00  0.00     0.064 A 
ATOM     45  C   UNL A   1      38.782  33.533  37.927  1.00  0.00     0.173 A 
ATOM     46  C   UNL A   1      40.270  35.089  36.860  1.00  0.00     0.173 A 
ATOM     47  F   UNL A   1      38.110  32.371  37.947  1.00  0.00    -0.203 F 
ATOM     48  C   UNL A   1      38.609  34.426  38.983  1.00  0.00     0.198 A 
ATOM     49  C   UNL A   1      40.115  35.968  37.929  1.00  0.00     0.198 A 
ATOM     50  F   UNL A   1      41.070  35.445  35.844  1.00  0.00    -0.203 F 
ATOM     51  F   UNL A   1      37.778  34.120  39.988  1.00  0.00    -0.200 F 
ATOM     52  C   UNL A   1      39.278  35.641  38.984  1.00  0.00     0.200 A 
ATOM     53  F   UNL A   1      40.767  37.139  37.931  1.00  0.00    -0.200 F 
ATOM     54  F   UNL A   1      39.108  36.500  39.999  1.00  0.00    -0.200 F 
ENDBRANCH  30  44
BRANCH  31  55
ATOM     55  C   UNL A   1      40.662  28.003  28.720  1.00  0.00     0.064 A 
ATOM     56  C   UNL A   1      39.883  26.840  28.632  1.00  0.00     0.173 A 
ATOM     57  C   UNL A   1      41.505  28.302  27.639  1.00  0.00     0.173 A 
ATOM     58  F   UNL A   1      39.066  26.503  29.641  1.00  0.00    -0.203 F 
ATOM     59  C   UNL A   1      39.955  26.007  27.517  1.00  0.00     0.198 A 
ATOM     60  C   UNL A   1      41.553  27.487  26.512  1.00  0.00     0.198 A 
ATOM     61  F   UNL A   1      42.264  29.408  27.667  1.00  0.00    -0.203 F 
ATOM     62  F   UNL A   1      39.226  24.884  27.474  1.00  0.00    -0.200 F 
ATOM     63  C   UNL A   1      40.783  26.335  26.454  1.00  0.00     0.200 A 
ATOM     64  F   UNL A   1      42.338  27.821  25.479  1.00  0.00    -0.200 F 
ATOM     65  F   UNL A   1      40.842  25.541  25.377  1.00  0.00    -0.200 F 
ENDBRANCH  31  55
BRANCH  43  66
ATOM     66  C   UNL A   1      43.556  28.072  35.056  1.00  0.00     0.064 A 
ATOM     67  C   UNL A   1      44.927  28.364  34.987  1.00  0.00     0.173 A 
ATOM     68  C   UNL A   1      43.156  26.930  35.762  1.00  0.00     0.173 A 
ATOM     69  F   UNL A   1      45.356  29.437  34.307  1.00  0.00    -0.203 F 
ATOM     70  C   UNL A   1      45.864  27.523  35.578  1.00  0.00     0.198 A 
ATOM     71  C   UNL A   1      44.095  26.108  36.377  1.00  0.00     0.198 A 
ATOM     72  F   UNL A   1      41.856  26.616  35.859  1.00  0.00    -0.203 F 
ATOM     73  F   UNL A   1      47.172  27.790  35.457  1.00  0.00    -0.200 F 
ATOM     74  C   UNL A   1      45.447  26.399  36.278  1.00  0.00     0.200 A 
ATOM     75  F   UNL A   1      43.691  25.027  37.060  1.00  0.00    -0.200 F 
ATOM     76  F   UNL A   1      46.351  25.590  36.847  1.00  0.00    -0.200 F 
ENDBRANCH  43  66
ENDBRANCH  17  18
ENDBRANCH  10  12
ENDBRANCH   7   8
ENDBRANCH   6   7
ENDBRANCH   5   6
ENDBRANCH   1   5
BRANCH   2  77
ATOM     77  C   UNL A   1      31.773  28.465  25.066  1.00  0.00     0.135 A 
ATOM     78  S   UNL A   1      30.616  29.440  24.251  1.00  0.00    -0.135 S 
ATOM     79  C   UNL A   1      32.690  27.907  24.190  1.00  0.00     0.151 A 
ATOM     80  C   UNL A   1      31.344  29.143  22.736  1.00  0.00     0.069 A 
ATOM     81  C   UNL A   1      32.437  28.312  22.845  1.00  0.00     0.059 A 
BRANCH  79  82
ATOM     82  O   UNL A   1      33.689  27.025  24.488  1.00  0.00    -0.456 OA
BRANCH  82  83
ATOM     83  C   UNL A   1      33.497  25.676  24.343  1.00  0.00     0.127 A 
ATOM     84  C   UNL A   1      32.254  25.127  24.622  1.00  0.00     0.049 A 
ATOM     85  C   UNL A   1      34.541  24.866  23.895  1.00  0.00     0.049 A 
ATOM     86  C   UNL A   1      32.021  23.787  24.311  1.00  0.00     0.030 A 
ATOM     87  C   UNL A   1      34.299  23.520  23.591  1.00  0.00     0.030 A 
ATOM     88  C   UNL A   1      33.023  22.985  23.768  1.00  0.00     0.049 A 
BRANCH  88  89
ATOM     89  N   UNL A   1      32.704  21.689  23.257  1.00  0.00    -0.283 N 
ATOM     90  H   UNL A   1      32.438  21.573  22.317  1.00  0.00     0.180 HD
BRANCH  89  91
ATOM     91  S   UNL A   1      32.792  20.350  24.301  1.00  0.00     0.236 S 
ATOM     92  O   UNL A   1      34.187  20.313  24.702  1.00  0.00    -0.206 OA
ATOM     93  O   UNL A   1      31.778  20.529  25.319  1.00  0.00    -0.206 OA
BRANCH  91  94
ATOM     94  C   UNL A   1      32.479  18.890  23.241  1.00  0.00     0.195 C 
BRANCH  94  95
ATOM     95  C   UNL A   1      32.903  17.610  23.918  1.00  0.00    -0.031 A 
ATOM     96  C   UNL A   1      34.042  16.915  23.499  1.00  0.00     0.005 A 
ATOM     97  C   UNL A   1      32.166  17.098  25.000  1.00  0.00     0.005 A 
ATOM     98  C   UNL A   1      34.518  15.830  24.236  1.00  0.00     0.000 A 
ATOM     99  C   UNL A   1      32.652  16.028  25.748  1.00  0.00     0.000 A 
ATOM    100  C   UNL A   1      33.842  15.409  25.378  1.00  0.00     0.000 A 
ENDBRANCH  94  95
ENDBRANCH  91  94
ENDBRANCH  89  91
ENDBRANCH  88  89
ENDBRANCH  82  83
ENDBRANCH  79  82
ENDBRANCH   2  77
TORSDOF 16
ENDMDL
MODEL 2
REMARK VINA RESULT:     -12.2      8.087     15.498
REMARK SMILES O=C(NCCCNC(=O)c1sccc1Oc1ccc(NS(=O)(=O)Cc2ccccc2)cc1)c1ccc(-c2c3nc(c(-c4c(F)c(F)c(F)c(F)c4F)c4ccc([nH]4)c(-c4c(F)c(F)c(F)c(F)c4F)c4nc(c(-c5c(F)c(F)c(F)c(F)c5F)c5ccc2[nH]5)C=C4)C=C3)cc1
REMARK SMILES IDX 7 1 8 2 9 3 6 5 5 6 4 7 3 8 1 9 2 10 33 12 34 13 95 14 35 15
REMARK SMILES IDX 94 16 36 17 37 18 38 19 88 20 39 21 93 22 87 23 89 24 40 25
REMARK SMILES IDX 92 26 86 27 85 28 41 30 73 31 53 32 72 33 54 34 57 35 71 36
REMARK SMILES IDX 90 37 55 38 56 39 70 41 91 42 58 43 42 44 43 45 51 46 44 47
REMARK SMILES IDX 45 48 49 49 52 50 46 51 47 52 50 53 48 54 74 55 75 56 83 57
REMARK SMILES IDX 76 58 77 59 81 60 84 61 78 62 79 63 82 64 80 65 59 66 60 67
REMARK SMILES IDX 68 68 61 69 62 70 66 71 69 72 63 73 64 74 67 75 65 76 10 77
REMARK SMILES IDX 11 78 14 79 12 80 13 81 15 82 16 83 17 84 32 85 18 86 31 87
REMARK SMILES IDX 19 88 20 89 21 91 22 92 23 93 24 94 25 95 26 96 30 97 27 98
REMARK SMILES IDX 29 99 28 100
REMARK H PARENT 7 4 3 11 89 29 57 40 20 90
REMARK Flexibility Score: inf
ROOT
ATOM      1  N   UNL A   1      45.179  20.604  35.215  1.00  0.00    -0.351 N 
ATOM      2  C   UNL A   1      45.964  19.597  35.722  1.00  0.00     0.265 C 
ATOM      3  O   UNL A   1      45.721  18.445  35.362  1.00  0.00    -0.268 OA
ATOM      4  H   UNL A   1      44.560  20.344  34.493  1.00  0.00     0.163 HD
ENDROOT
BRANCH   1   5
ATOM      5  C   UNL A   1      45.141  22.002  35.604  1.00  0.00     0.118 C 
BRANCH   5   6
ATOM      6  C   UNL A   1      45.947  22.918  34.701  1.00  0.00     0.042 C 
BRANCH   6   7
ATOM      7  C   UNL A   1      47.109  23.624  35.386  1.00  0.00     0.118 C 
BRANCH   7   8
ATOM      8  N   UNL A   1      46.850  24.064  36.752  1.00  0.00    -0.352 N 
ATOM      9  O   UNL A   1      45.851  25.177  38.449  1.00  0.00    -0.269 OA
ATOM     10  C   UNL A   1      45.976  25.006  37.241  1.00  0.00     0.251 C 
ATOM     11  H   UNL A   1      47.389  23.609  37.439  1.00  0.00     0.163 HD
BRANCH  10  12
ATOM     12  C   UNL A   1      45.214  25.873  36.332  1.00  0.00     0.039 A 
ATOM     13  C   UNL A   1      43.872  25.619  36.076  1.00  0.00     0.014 A 
ATOM     14  C   UNL A   1      45.847  26.984  35.759  1.00  0.00     0.014 A 
ATOM     15  C   UNL A   1      43.217  26.349  35.104  1.00  0.00     0.010 A 
ATOM     16  C   UNL A   1      45.146  27.802  34.872  1.00  0.00     0.010 A 
ATOM     17  C   UNL A   1      43.837  27.465  34.514  1.00  0.00    -0.014 A 
BRANCH  17  18
ATOM     18  C   UNL A   1      43.006  28.292  33.612  1.00  0.00     0.031 A 
ATOM     19  C   UNL A   1      42.836  27.933  32.171  1.00  0.00     0.074 A 
ATOM     20  C   UNL A   1      42.292  29.281  34.184  1.00  0.00     0.049 A 
ATOM     21  N   UNL A   1      41.936  28.358  31.323  1.00  0.00    -0.248 NA
ATOM     22  C   UNL A   1      43.798  26.980  31.600  1.00  0.00     0.031 C 
ATOM     23  C   UNL A   1      42.434  29.707  35.580  1.00  0.00     0.029 A 
ATOM     24  N   UNL A   1      41.256  30.036  33.708  1.00  0.00    -0.354 N 
ATOM     25  C   UNL A   1      42.225  27.733  30.119  1.00  0.00     0.074 A 
ATOM     26  C   UNL A   1      43.402  26.919  30.336  1.00  0.00     0.031 C 
ATOM     27  C   UNL A   1      41.446  30.559  35.881  1.00  0.00     0.029 A 
ATOM     28  C   UNL A   1      40.638  30.776  34.689  1.00  0.00     0.049 A 
ATOM     29  H   UNL A   1      40.981  30.048  32.763  1.00  0.00     0.167 HD
ATOM     30  C   UNL A   1      41.558  27.837  28.944  1.00  0.00     0.037 A 
ATOM     31  C   UNL A   1      39.519  31.520  34.635  1.00  0.00     0.037 A 
ATOM     32  C   UNL A   1      40.390  28.661  28.763  1.00  0.00     0.049 A 
ATOM     33  C   UNL A   1      38.774  31.578  33.333  1.00  0.00     0.074 A 
ATOM     34  C   UNL A   1      39.630  28.851  27.623  1.00  0.00     0.029 A 
ATOM     35  N   UNL A   1      39.815  29.437  29.762  1.00  0.00    -0.354 N 
ATOM     36  N   UNL A   1      39.026  30.948  32.211  1.00  0.00    -0.248 NA
ATOM     37  C   UNL A   1      37.594  32.448  33.288  1.00  0.00     0.031 C 
ATOM     38  C   UNL A   1      38.620  29.772  27.922  1.00  0.00     0.029 A 
ATOM     39  C   UNL A   1      38.720  30.121  29.260  1.00  0.00     0.049 A 
ATOM     40  H   UNL A   1      40.139  29.493  30.689  1.00  0.00     0.167 HD
ATOM     41  C   UNL A   1      38.036  31.340  31.324  1.00  0.00     0.074 A 
ATOM     42  C   UNL A   1      37.158  32.234  32.054  1.00  0.00     0.031 C 
ATOM     43  C   UNL A   1      37.872  31.004  30.021  1.00  0.00     0.037 A 
BRANCH  30  44
ATOM     44  C   UNL A   1      42.098  27.073  27.771  1.00  0.00     0.064 A 
ATOM     45  C   UNL A   1      41.679  25.765  27.482  1.00  0.00     0.173 A 
ATOM     46  C   UNL A   1      43.046  27.658  26.916  1.00  0.00     0.173 A 
ATOM     47  F   UNL A   1      40.788  25.152  28.276  1.00  0.00    -0.203 F 
ATOM     48  C   UNL A   1      42.207  25.064  26.399  1.00  0.00     0.198 A 
ATOM     49  C   UNL A   1      43.553  26.963  25.821  1.00  0.00     0.198 A 
ATOM     50  F   UNL A   1      43.482  28.906  27.145  1.00  0.00    -0.203 F 
ATOM     51  F   UNL A   1      41.828  23.798  26.174  1.00  0.00    -0.200 F 
ATOM     52  C   UNL A   1      43.140  25.664  25.568  1.00  0.00     0.200 A 
ATOM     53  F   UNL A   1      44.451  27.548  25.015  1.00  0.00    -0.200 F 
ATOM     54  F   UNL A   1      43.650  24.986  24.531  1.00  0.00    -0.200 F 
ENDBRANCH  30  44
BRANCH  31  55
ATOM     55  C   UNL A   1      39.032  32.217  35.854  1.00  0.00     0.064 A 
ATOM     56  C   UNL A   1      38.218  31.561  36.789  1.00  0.00     0.173 A 
ATOM     57  C   UNL A   1      39.398  33.543  36.130  1.00  0.00     0.173 A 
ATOM     58  F   UNL A   1      37.831  30.295  36.569  1.00  0.00    -0.203 F 
ATOM     59  C   UNL A   1      37.781  32.209  37.944  1.00  0.00     0.198 A 
ATOM     60  C   UNL A   1      38.988  34.178  37.299  1.00  0.00     0.198 A 
ATOM     61  F   UNL A   1      40.184  34.213  35.274  1.00  0.00    -0.203 F 
ATOM     62  F   UNL A   1      36.976  31.570  38.803  1.00  0.00    -0.200 F 
ATOM     63  C   UNL A   1      38.173  33.514  38.202  1.00  0.00     0.200 A 
ATOM     64  F   UNL A   1      39.388  35.431  37.553  1.00  0.00    -0.200 F 
ATOM     65  F   UNL A   1      37.763  34.131  39.318  1.00  0.00    -0.200 F 
ENDBRANCH  31  55
BRANCH  43  66
ATOM     66  C   UNL A   1      36.692  31.606  29.320  1.00  0.00     0.064 A 
ATOM     67  C   UNL A   1      36.665  32.965  28.975  1.00  0.00     0.173 A 
ATOM     68  C   UNL A   1      35.589  30.813  28.977  1.00  0.00     0.173 A 
ATOM     69  F   UNL A   1      37.691  33.766  29.299  1.00  0.00    -0.203 F 
ATOM     70  C   UNL A   1      35.558  33.516  28.336  1.00  0.00     0.198 A 
ATOM     71  C   UNL A   1      34.497  31.360  28.313  1.00  0.00     0.198 A 
ATOM     72  F   UNL A   1      35.574  29.507  29.284  1.00  0.00    -0.203 F 
ATOM     73  F   UNL A   1      35.529  34.826  28.060  1.00  0.00    -0.200 F 
ATOM     74  C   UNL A   1      34.478  32.712  28.000  1.00  0.00     0.200 A 
ATOM     75  F   UNL A   1      33.457  30.582  27.981  1.00  0.00    -0.200 F 
ATOM     76  F   UNL A   1      33.413  33.243  27.384  1.00  0.00    -0.200 F 
ENDBRANCH  43  66
ENDBRANCH  17  18
ENDBRANCH  10  12
ENDBRANCH   7   8
ENDBRANCH   6   7
ENDBRANCH   5   6
ENDBRANCH   1   5
BRANCH   2  77
ATOM     77  C   UNL A   1      47.019  19.942  36.637  1.00  0.00     0.135 A 
ATOM     78  S   UNL A   1      48.574  20.215  35.959  1.00  0.00    -0.135 S 
ATOM     79  C   UNL A   1      47.037  20.012  38.020  1.00  0.00     0.151 A 
ATOM     80  C   UNL A   1      49.270  20.452  37.499  1.00  0.00     0.069 A 
ATOM     81  C   UNL A   1      48.344  20.316  38.509  1.00  0.00     0.059 A 
BRANCH  79  82
ATOM     82  O   UNL A   1      46.000  19.771  38.875  1.00  0.00    -0.456 OA
BRANCH  82  83
ATOM     83  C   UNL A   1      46.100  18.802  39.840  1.00  0.00     0.127 A 
ATOM     84  C   UNL A   1      46.126  19.167  41.178  1.00  0.00     0.049 A 
ATOM     85  C   UNL A   1      46.151  17.456  39.476  1.00  0.00     0.049 A 
ATOM     86  C   UNL A   1      46.057  18.171  42.152  1.00  0.00     0.030 A 
ATOM     87  C   UNL A   1      46.088  16.463  40.462  1.00  0.00     0.030 A 
ATOM     88  C   UNL A   1      46.006  16.823  41.807  1.00  0.00     0.049 A 
BRANCH  88  89
ATOM     89  N   UNL A   1      45.717  15.839  42.803  1.00  0.00    -0.283 N 
ATOM     90  H   UNL A   1      46.438  15.293  43.191  1.00  0.00     0.180 HD
BRANCH  89  91
ATOM     91  S   UNL A   1      44.107  15.628  43.306  1.00  0.00     0.236 S 
ATOM     92  O   UNL A   1      43.786  16.875  43.975  1.00  0.00    -0.206 OA
ATOM     93  O   UNL A   1      43.338  15.242  42.141  1.00  0.00    -0.206 OA
BRANCH  91  94
ATOM     94  C   UNL A   1      44.168  14.313  44.579  1.00  0.00     0.195 C 
BRANCH  94  95
ATOM     95  C   UNL A   1      43.283  13.145  44.216  1.00  0.00    -0.031 A 
ATOM     96  C   UNL A   1      41.930  13.332  43.912  1.00  0.00     0.005 A 
ATOM     97  C   UNL A   1      43.809  11.843  44.158  1.00  0.00     0.005 A 
ATOM     98  C   UNL A   1      41.166  12.276  43.415  1.00  0.00     0.000 A 
ATOM     99  C   UNL A   1      43.052  10.793  43.643  1.00  0.00     0.000 A 
ATOM    100  C   UNL A   1      41.736  11.016  43.250  1.00  0.00     0.000 A 
ENDBRANCH  94  95
ENDBRANCH  91  94
ENDBRANCH  89  91
ENDBRANCH  88  89
ENDBRANCH  82  83
ENDBRANCH  79  82
ENDBRANCH   2  77
TORSDOF 16
ENDMDL
MODEL 3
REMARK VINA RESULT:     -12.0      5.208      9.580
REMARK SMILES O=C(NCCCNC(=O)c1sccc1Oc1ccc(NS(=O)(=O)Cc2ccccc2)cc1)c1ccc(-c2c3nc(c(-c4c(F)c(F)c(F)c(F)c4F)c4ccc([nH]4)c(-c4c(F)c(F)c(F)c(F)c4F)c4nc(c(-c5c(F)c(F)c(F)c(F)c5F)c5ccc2[nH]5)C=C4)C=C3)cc1
REMARK SMILES IDX 7 1 8 2 9 3 6 5 5 6 4 7 3 8 1 9 2 10 33 12 34 13 95 14 35 15
REMARK SMILES IDX 94 16 36 17 37 18 38 19 88 20 39 21 93 22 87 23 89 24 40 25
REMARK SMILES IDX 92 26 86 27 85 28 41 30 73 31 53 32 72 33 54 34 57 35 71 36
REMARK SMILES IDX 90 37 55 38 56 39 70 41 91 42 58 43 42 44 43 45 51 46 44 47
REMARK SMILES IDX 45 48 49 49 52 50 46 51 47 52 50 53 48 54 74 55 75 56 83 57
REMARK SMILES IDX 76 58 77 59 81 60 84 61 78 62 79 63 82 64 80 65 59 66 60 67
REMARK SMILES IDX 68 68 61 69 62 70 66 71 69 72 63 73 64 74 67 75 65 76 10 77
REMARK SMILES IDX 11 78 14 79 12 80 13 81 15 82 16 83 17 84 32 85 18 86 31 87
REMARK SMILES IDX 19 88 20 89 21 91 22 92 23 93 24 94 25 95 26 96 30 97 27 98
REMARK SMILES IDX 29 99 28 100
REMARK H PARENT 7 4 3 11 89 29 57 40 20 90
REMARK Flexibility Score: inf
ROOT
ATOM      1  N   UNL A   1      33.029  35.632  28.419  1.00  0.00    -0.351 N 
ATOM      2  C   UNL A   1      33.282  36.421  29.515  1.00  0.00     0.265 C 
ATOM      3  O   UNL A   1      33.517  37.614  29.321  1.00  0.00    -0.268 OA
ATOM      4  H   UNL A   1      32.922  36.109  27.563  1.00  0.00     0.163 HD
ENDROOT
BRANCH   1   5
ATOM      5  C   UNL A   1      32.900  34.188  28.356  1.00  0.00     0.118 C 
BRANCH   5   6
ATOM      6  C   UNL A   1      34.172  33.470  27.946  1.00  0.00     0.042 C 
BRANCH   6   7
ATOM      7  C   UNL A   1      34.488  32.221  28.758  1.00  0.00     0.118 C 
BRANCH   7   8
ATOM      8  N   UNL A   1      34.021  30.968  28.177  1.00  0.00    -0.352 N 
ATOM      9  O   UNL A   1      34.070  28.797  27.540  1.00  0.00    -0.269 OA
ATOM     10  C   UNL A   1      34.670  29.771  27.984  1.00  0.00     0.251 C 
ATOM     11  H   UNL A   1      33.085  30.981  27.872  1.00  0.00     0.163 HD
BRANCH  10  12
ATOM     12  C   UNL A   1      36.110  29.642  28.246  1.00  0.00     0.039 A 
ATOM     13  C   UNL A   1      37.036  29.963  27.261  1.00  0.00     0.014 A 
ATOM     14  C   UNL A   1      36.538  29.230  29.515  1.00  0.00     0.014 A 
ATOM     15  C   UNL A   1      38.373  29.689  27.472  1.00  0.00     0.010 A 
ATOM     16  C   UNL A   1      37.901  29.076  29.771  1.00  0.00     0.010 A 
ATOM     17  C   UNL A   1      38.822  29.271  28.738  1.00  0.00    -0.014 A 
BRANCH  17  18
ATOM     18  C   UNL A   1      40.285  29.166  28.927  1.00  0.00     0.031 A 
ATOM     19  C   UNL A   1      41.017  30.097  29.837  1.00  0.00     0.074 A 
ATOM     20  C   UNL A   1      40.892  28.101  28.367  1.00  0.00     0.049 A 
ATOM     21  N   UNL A   1      42.217  29.974  30.342  1.00  0.00    -0.248 NA
ATOM     22  C   UNL A   1      40.322  31.330  30.233  1.00  0.00     0.031 C 
ATOM     23  C   UNL A   1      40.244  27.168  27.438  1.00  0.00     0.029 A 
ATOM     24  N   UNL A   1      42.137  27.569  28.559  1.00  0.00    -0.354 N 
ATOM     25  C   UNL A   1      42.426  31.113  31.106  1.00  0.00     0.074 A 
ATOM     26  C   UNL A   1      41.239  31.931  30.980  1.00  0.00     0.031 C 
ATOM     27  C   UNL A   1      41.052  26.120  27.235  1.00  0.00     0.029 A 
ATOM     28  C   UNL A   1      42.288  26.333  27.975  1.00  0.00     0.049 A 
ATOM     29  H   UNL A   1      42.851  28.023  29.062  1.00  0.00     0.167 HD
ATOM     30  C   UNL A   1      43.515  31.433  31.845  1.00  0.00     0.037 A 
ATOM     31  C   UNL A   1      43.304  25.455  28.060  1.00  0.00     0.037 A 
ATOM     32  C   UNL A   1      44.682  30.594  31.946  1.00  0.00     0.049 A 
ATOM     33  C   UNL A   1      44.476  25.816  28.925  1.00  0.00     0.074 A 
ATOM     34  C   UNL A   1      45.848  30.810  32.659  1.00  0.00     0.029 A 
ATOM     35  N   UNL A   1      44.826  29.370  31.305  1.00  0.00    -0.354 N 
ATOM     36  N   UNL A   1      44.648  26.872  29.682  1.00  0.00    -0.248 NA
ATOM     37  C   UNL A   1      45.594  24.866  28.946  1.00  0.00     0.031 C 
ATOM     38  C   UNL A   1      46.711  29.735  32.417  1.00  0.00     0.029 A 
ATOM     39  C   UNL A   1      46.067  28.826  31.592  1.00  0.00     0.049 A 
ATOM     40  H   UNL A   1      44.146  28.950  30.731  1.00  0.00     0.167 HD
ATOM     41  C   UNL A   1      45.890  26.718  30.276  1.00  0.00     0.074 A 
ATOM     42  C   UNL A   1      46.411  25.444  29.817  1.00  0.00     0.031 C 
ATOM     43  C   UNL A   1      46.549  27.555  31.113  1.00  0.00     0.037 A 
BRANCH  30  44
ATOM     44  C   UNL A   1      43.502  32.750  32.563  1.00  0.00     0.064 A 
ATOM     45  C   UNL A   1      43.739  33.962  31.894  1.00  0.00     0.173 A 
ATOM     46  C   UNL A   1      43.243  32.807  33.942  1.00  0.00     0.173 A 
ATOM     47  F   UNL A   1      44.009  33.964  30.579  1.00  0.00    -0.203 F 
ATOM     48  C   UNL A   1      43.743  35.174  32.581  1.00  0.00     0.198 A 
ATOM     49  C   UNL A   1      43.224  34.023  34.621  1.00  0.00     0.198 A 
ATOM     50  F   UNL A   1      43.010  31.680  34.631  1.00  0.00    -0.203 F 
ATOM     51  F   UNL A   1      44.021  36.311  31.929  1.00  0.00    -0.200 F 
ATOM     52  C   UNL A   1      43.482  35.203  33.943  1.00  0.00     0.200 A 
ATOM     53  F   UNL A   1      42.965  34.050  35.936  1.00  0.00    -0.200 F 
ATOM     54  F   UNL A   1      43.491  36.370  34.603  1.00  0.00    -0.200 F 
ENDBRANCH  30  44
BRANCH  31  55
ATOM     55  C   UNL A   1      43.221  24.154  27.345  1.00  0.00     0.064 A 
ATOM     56  C   UNL A   1      42.721  23.008  27.979  1.00  0.00     0.173 A 
ATOM     57  C   UNL A   1      43.606  24.036  26.001  1.00  0.00     0.173 A 
ATOM     58  F   UNL A   1      42.347  23.063  29.266  1.00  0.00    -0.203 F 
ATOM     59  C   UNL A   1      42.622  21.794  27.301  1.00  0.00     0.198 A 
ATOM     60  C   UNL A   1      43.477  22.832  25.315  1.00  0.00     0.198 A 
ATOM     61  F   UNL A   1      44.081  25.105  25.344  1.00  0.00    -0.203 F 
ATOM     62  F   UNL A   1      42.174  20.706  27.941  1.00  0.00    -0.200 F 
ATOM     63  C   UNL A   1      42.992  21.709  25.967  1.00  0.00     0.200 A 
ATOM     64  F   UNL A   1      43.815  22.762  24.020  1.00  0.00    -0.200 F 
ATOM     65  F   UNL A   1      42.884  20.546  25.312  1.00  0.00    -0.200 F 
ENDBRANCH  31  55
BRANCH  43  66
ATOM     66  C   UNL A   1      47.898  27.103  31.584  1.00  0.00     0.064 A 
ATOM     67  C   UNL A   1      48.038  26.269  32.703  1.00  0.00     0.173 A 
ATOM     68  C   UNL A   1      49.056  27.492  30.899  1.00  0.00     0.173 A 
ATOM     69  F   UNL A   1      46.958  25.885  33.400  1.00  0.00    -0.203 F 
ATOM     70  C   UNL A   1      49.297  25.866  33.138  1.00  0.00     0.198 A 
ATOM     71  C   UNL A   1      50.311  27.064  31.319  1.00  0.00     0.198 A 
ATOM     72  F   UNL A   1      48.970  28.285  29.820  1.00  0.00    -0.203 F 
ATOM     73  F   UNL A   1      49.413  25.112  34.240  1.00  0.00    -0.200 F 
ATOM     74  C   UNL A   1      50.431  26.259  32.442  1.00  0.00     0.200 A 
ATOM     75  F   UNL A   1      51.406  27.436  30.642  1.00  0.00    -0.200 F 
ATOM     76  F   UNL A   1      51.643  25.869  32.862  1.00  0.00    -0.200 F 
ENDBRANCH  43  66
ENDBRANCH  17  18
ENDBRANCH  10  12
ENDBRANCH   7   8
ENDBRANCH   6   7
ENDBRANCH   5   6
ENDBRANCH   1   5
BRANCH   2  77
ATOM     77  C   UNL A   1      33.258  35.814  30.819  1.00  0.00     0.135 A 
ATOM     78  S   UNL A   1      31.910  36.180  31.820  1.00  0.00    -0.135 S 
ATOM     79  C   UNL A   1      34.194  35.032  31.476  1.00  0.00     0.151 A 
ATOM     80  C   UNL A   1      32.553  35.280  33.119  1.00  0.00     0.069 A 
ATOM     81  C   UNL A   1      33.772  34.721  32.804  1.00  0.00     0.059 A 
BRANCH  79  82
ATOM     82  O   UNL A   1      35.410  34.626  31.006  1.00  0.00    -0.456 OA
BRANCH  82  83
ATOM     83  C   UNL A   1      36.089  33.603  31.616  1.00  0.00     0.127 A 
ATOM     84  C   UNL A   1      37.415  33.784  31.982  1.00  0.00     0.049 A 
ATOM     85  C   UNL A   1      35.441  32.398  31.887  1.00  0.00     0.049 A 
ATOM     86  C   UNL A   1      38.044  32.803  32.751  1.00  0.00     0.030 A 
ATOM     87  C   UNL A   1      36.084  31.417  32.654  1.00  0.00     0.030 A 
ATOM     88  C   UNL A   1      37.381  31.635  33.117  1.00  0.00     0.049 A 
BRANCH  88  89
ATOM     89  N   UNL A   1      37.963  30.752  34.079  1.00  0.00    -0.283 N 
ATOM     90  H   UNL A   1      38.206  29.832  33.830  1.00  0.00     0.180 HD
BRANCH  89  91
ATOM     91  S   UNL A   1      38.230  31.319  35.659  1.00  0.00     0.236 S 
ATOM     92  O   UNL A   1      37.193  32.318  35.849  1.00  0.00    -0.206 OA
ATOM     93  O   UNL A   1      38.256  30.165  36.534  1.00  0.00    -0.206 OA
BRANCH  91  94
ATOM     94  C   UNL A   1      39.839  32.192  35.593  1.00  0.00     0.195 C 
BRANCH  94  95
ATOM     95  C   UNL A   1      39.747  33.573  36.195  1.00  0.00    -0.031 A 
ATOM     96  C   UNL A   1      39.653  33.753  37.579  1.00  0.00     0.005 A 
ATOM     97  C   UNL A   1      39.774  34.712  35.372  1.00  0.00     0.005 A 
ATOM     98  C   UNL A   1      39.740  35.030  38.133  1.00  0.00     0.000 A 
ATOM     99  C   UNL A   1      39.882  35.986  35.925  1.00  0.00     0.000 A 
ATOM    100  C   UNL A   1      39.887  36.142  37.307  1.00  0.00     0.000 A 
ENDBRANCH  94  95
ENDBRANCH  91  94
ENDBRANCH  89  91
ENDBRANCH  88  89
ENDBRANCH  82  83
ENDBRANCH  79  82
ENDBRANCH   2  77
TORSDOF 16
ENDMDL
