MODEL 1
REMARK VINA RESULT:     -13.1      0.000      0.000
REMARK SMILES CCc1c(C)sc(NC(=O)[C@H]2CC(C)=C(C)C[C@H]2C(=O)NCCCNC(=O)c2ccc(-c3c4nc(c(-c5c(F)c(F)c(F)c(F)c5F)c5ccc([nH]5)c(-c5c(F)c(F)c(F)c(F)c5F)c5nc(c(-c6c(F)c(F)c(F)c(F)c6F)c6ccc3[nH]6)C=C5)C=C4)cc2)c1C(=O)NC1CC1
REMARK SMILES IDX 22 1 21 2 19 3 20 4 18 6 11 7 12 8 13 9 17 10 14 11 15 12
REMARK SMILES IDX 16 13 9 14 8 15 10 17 7 18 3 19 4 20 91 21 5 22 6 23 2 24
REMARK SMILES IDX 1 25 92 26 93 27 94 28 95 30 96 31 97 32 23 33 24 34 25 35
REMARK SMILES IDX 26 36 27 38 28 39 29 40 90 41 30 42 89 43 31 44 32 45 33 46
REMARK SMILES IDX 83 47 34 48 88 49 82 50 84 51 35 52 87 53 81 54 80 55 36 57
REMARK SMILES IDX 68 58 48 59 67 60 49 61 52 62 66 63 85 64 50 65 51 66 65 68
REMARK SMILES IDX 86 69 53 70 37 71 38 72 46 73 39 74 40 75 44 76 47 77 41 78
REMARK SMILES IDX 42 79 45 80 43 81 69 82 70 83 78 84 71 85 72 86 76 87 79 88
REMARK SMILES IDX 73 89 74 90 77 91 75 92 54 93 55 94 63 95 56 96 57 97 61 98
REMARK SMILES IDX 64 99 58 100 59 101 62 102 60 103
REMARK H PARENT 21 5 8 16 94 29 25 37 84 56 52 67
REMARK Flexibility Score: inf
ROOT
ATOM      1  C   UNL A   1      31.548  27.570  26.870  1.00  0.00     0.117 C 
ENDROOT
BRANCH   1   2
ATOM      2  N   UNL A   1      32.792  26.901  26.556  1.00  0.00    -0.356 N 
ATOM      3  C   UNL A   1      33.149  26.106  25.515  1.00  0.00     0.224 C 
ATOM      4  O   UNL A   1      34.318  25.710  25.495  1.00  0.00    -0.275 OA
ATOM      5  H   UNL A   1      33.509  27.049  27.216  1.00  0.00     0.163 HD
BRANCH   3   6
ATOM      6  C   UNL A   1      32.213  25.828  24.339  1.00  0.00     0.095 C 
ATOM      7  C   UNL A   1      30.957  24.924  24.569  1.00  0.00     0.095 C 
ATOM      8  C   UNL A   1      29.651  25.612  24.212  1.00  0.00     0.045 C 
ATOM      9  C   UNL A   1      29.570  26.985  23.637  1.00  0.00    -0.074 C 
ATOM     10  C   UNL A   1      32.045  27.147  23.537  1.00  0.00     0.045 C 
ATOM     11  C   UNL A   1      28.146  27.464  23.500  1.00  0.00     0.039 C 
ATOM     12  C   UNL A   1      30.662  27.721  23.392  1.00  0.00    -0.074 C 
ATOM     13  C   UNL A   1      30.566  29.186  23.058  1.00  0.00     0.039 C 
BRANCH   7  14
ATOM     14  C   UNL A   1      30.977  24.075  25.889  1.00  0.00     0.229 C 
ATOM     15  N   UNL A   1      31.534  22.833  26.109  1.00  0.00    -0.317 N 
ATOM     16  H   UNL A   1      31.420  22.498  27.027  1.00  0.00     0.170 HD
ATOM     17  O   UNL A   1      30.410  24.558  26.883  1.00  0.00    -0.274 OA
BRANCH  15  18
ATOM     18  C   UNL A   1      32.224  21.972  25.274  1.00  0.00     0.108 A 
ATOM     19  C   UNL A   1      33.430  20.159  24.484  1.00  0.00    -0.020 A 
ATOM     20  C   UNL A   1      32.525  20.401  23.456  1.00  0.00     0.008 A 
ATOM     21  C   UNL A   1      33.425  21.273  25.462  1.00  0.00     0.078 A 
ATOM     22  C   UNL A   1      32.153  19.552  22.288  1.00  0.00     0.057 C 
ATOM     23  S   UNL A   1      31.779  21.934  23.630  1.00  0.00    -0.122 S 
BRANCH  19  24
ATOM     24  C   UNL A   1      34.307  18.943  24.603  1.00  0.00     0.034 C 
ATOM     25  C   UNL A   1      33.780  17.584  25.001  1.00  0.00     0.009 C 
ENDBRANCH  19  24
BRANCH  21  26
ATOM     26  C   UNL A   1      34.290  21.557  26.633  1.00  0.00     0.254 C 
ATOM     27  O   UNL A   1      33.787  21.725  27.751  1.00  0.00    -0.269 OA
ATOM     28  N   UNL A   1      35.671  21.676  26.589  1.00  0.00    -0.349 N 
ATOM     29  H   UNL A   1      36.112  21.572  27.463  1.00  0.00     0.164 HD
BRANCH  28  30
ATOM     30  C   UNL A   1      36.570  21.924  25.509  1.00  0.00     0.082 C 
ATOM     31  C   UNL A   1      36.476  23.047  24.500  1.00  0.00     0.027 C 
ATOM     32  C   UNL A   1      37.468  23.150  25.591  1.00  0.00     0.027 C 
ENDBRANCH  28  30
ENDBRANCH  21  26
ENDBRANCH  15  18
ENDBRANCH   7  14
ENDBRANCH   3   6
ENDBRANCH   1   2
BRANCH   1  33
ATOM     33  C   UNL A   1      31.779  29.031  27.201  1.00  0.00     0.042 C 
BRANCH  33  34
ATOM     34  C   UNL A   1      32.584  29.800  26.165  1.00  0.00     0.118 C 
BRANCH  34  35
ATOM     35  N   UNL A   1      32.574  31.230  26.418  1.00  0.00    -0.352 N 
ATOM     36  C   UNL A   1      33.339  32.004  27.252  1.00  0.00     0.251 C 
ATOM     37  H   UNL A   1      31.903  31.730  25.900  1.00  0.00     0.163 HD
ATOM     38  O   UNL A   1      32.982  33.169  27.451  1.00  0.00    -0.269 OA
BRANCH  36  39
ATOM     39  C   UNL A   1      34.549  31.493  27.953  1.00  0.00     0.039 A 
ATOM     40  C   UNL A   1      35.557  32.409  28.277  1.00  0.00     0.014 A 
ATOM     41  C   UNL A   1      34.762  30.142  28.244  1.00  0.00     0.014 A 
ATOM     42  C   UNL A   1      36.719  31.987  28.938  1.00  0.00     0.010 A 
ATOM     43  C   UNL A   1      35.879  29.735  28.987  1.00  0.00     0.010 A 
ATOM     44  C   UNL A   1      36.872  30.654  29.344  1.00  0.00    -0.014 A 
BRANCH  44  45
ATOM     45  C   UNL A   1      38.103  30.220  30.064  1.00  0.00     0.031 A 
ATOM     46  C   UNL A   1      38.309  30.618  31.485  1.00  0.00     0.074 A 
ATOM     47  C   UNL A   1      39.052  29.483  29.454  1.00  0.00     0.049 A 
ATOM     48  N   UNL A   1      39.302  30.319  32.277  1.00  0.00    -0.248 NA
ATOM     49  C   UNL A   1      37.314  31.530  32.065  1.00  0.00     0.031 C 
ATOM     50  C   UNL A   1      39.063  29.211  28.035  1.00  0.00     0.029 A 
ATOM     51  N   UNL A   1      40.164  28.818  29.907  1.00  0.00    -0.354 N 
ATOM     52  C   UNL A   1      39.080  31.040  33.436  1.00  0.00     0.074 A 
ATOM     53  C   UNL A   1      37.872  31.813  33.233  1.00  0.00     0.031 C 
ATOM     54  C   UNL A   1      40.000  28.302  27.741  1.00  0.00     0.029 A 
ATOM     55  C   UNL A   1      40.766  28.031  28.943  1.00  0.00     0.049 A 
ATOM     56  H   UNL A   1      40.501  28.894  30.829  1.00  0.00     0.167 HD
ATOM     57  C   UNL A   1      39.830  31.052  34.562  1.00  0.00     0.037 A 
ATOM     58  C   UNL A   1      41.832  27.210  29.010  1.00  0.00     0.037 A 
ATOM     59  C   UNL A   1      41.034  30.283  34.736  1.00  0.00     0.049 A 
ATOM     60  C   UNL A   1      42.601  27.186  30.299  1.00  0.00     0.074 A 
ATOM     61  C   UNL A   1      41.847  30.200  35.851  1.00  0.00     0.029 A 
ATOM     62  N   UNL A   1      41.606  29.472  33.763  1.00  0.00    -0.354 N 
ATOM     63  N   UNL A   1      42.348  27.826  31.414  1.00  0.00    -0.248 NA
ATOM     64  C   UNL A   1      43.826  26.376  30.330  1.00  0.00     0.031 C 
ATOM     65  C   UNL A   1      42.931  29.373  35.542  1.00  0.00     0.029 A 
ATOM     66  C   UNL A   1      42.767  28.890  34.253  1.00  0.00     0.049 A 
ATOM     67  H   UNL A   1      41.242  29.330  32.860  1.00  0.00     0.167 HD
ATOM     68  C   UNL A   1      43.381  27.508  32.278  1.00  0.00     0.074 A 
ATOM     69  C   UNL A   1      44.241  26.578  31.572  1.00  0.00     0.031 C 
ATOM     70  C   UNL A   1      43.607  27.965  33.533  1.00  0.00     0.037 A 
BRANCH  57  71
ATOM     71  C   UNL A   1      39.364  31.950  35.667  1.00  0.00     0.064 A 
ATOM     72  C   UNL A   1      39.856  33.256  35.810  1.00  0.00     0.173 A 
ATOM     73  C   UNL A   1      38.431  31.492  36.608  1.00  0.00     0.173 A 
ATOM     74  F   UNL A   1      40.771  33.733  34.950  1.00  0.00    -0.203 F 
ATOM     75  C   UNL A   1      39.460  34.058  36.877  1.00  0.00     0.198 A 
ATOM     76  C   UNL A   1      38.009  32.310  37.653  1.00  0.00     0.198 A 
ATOM     77  F   UNL A   1      37.934  30.250  36.520  1.00  0.00    -0.203 F 
ATOM     78  F   UNL A   1      39.997  35.276  37.032  1.00  0.00    -0.200 F 
ATOM     79  C   UNL A   1      38.533  33.586  37.793  1.00  0.00     0.200 A 
ATOM     80  F   UNL A   1      37.106  31.857  38.533  1.00  0.00    -0.200 F 
ATOM     81  F   UNL A   1      38.151  34.359  38.819  1.00  0.00    -0.200 F 
ENDBRANCH  57  71
BRANCH  58  82
ATOM     82  C   UNL A   1      42.248  26.377  27.843  1.00  0.00     0.064 A 
ATOM     83  C   UNL A   1      43.242  26.825  26.959  1.00  0.00     0.173 A 
ATOM     84  C   UNL A   1      41.675  25.124  27.576  1.00  0.00     0.173 A 
ATOM     85  F   UNL A   1      43.814  28.025  27.147  1.00  0.00    -0.203 F 
ATOM     86  C   UNL A   1      43.631  26.066  25.855  1.00  0.00     0.198 A 
ATOM     87  C   UNL A   1      42.096  24.345  26.498  1.00  0.00     0.198 A 
ATOM     88  F   UNL A   1      40.717  24.637  28.380  1.00  0.00    -0.203 F 
ATOM     89  F   UNL A   1      44.548  26.546  25.003  1.00  0.00    -0.200 F 
ATOM     90  C   UNL A   1      43.067  24.821  25.632  1.00  0.00     0.200 A 
ATOM     91  F   UNL A   1      41.564  23.130  26.305  1.00  0.00    -0.200 F 
ATOM     92  F   UNL A   1      43.453  24.083  24.582  1.00  0.00    -0.200 F 
ENDBRANCH  58  82
BRANCH  70  93
ATOM     93  C   UNL A   1      44.818  27.426  34.233  1.00  0.00     0.064 A 
ATOM     94  C   UNL A   1      44.771  26.244  34.987  1.00  0.00     0.173 A 
ATOM     95  C   UNL A   1      46.045  28.097  34.134  1.00  0.00     0.173 A 
ATOM     96  F   UNL A   1      43.615  25.579  35.130  1.00  0.00    -0.203 F 
ATOM     97  C   UNL A   1      45.905  25.769  35.640  1.00  0.00     0.198 A 
ATOM     98  C   UNL A   1      47.184  27.602  34.761  1.00  0.00     0.198 A 
ATOM     99  F   UNL A   1      46.139  29.233  33.425  1.00  0.00    -0.203 F 
ATOM    100  F   UNL A   1      45.825  24.671  36.404  1.00  0.00    -0.200 F 
ATOM    101  C   UNL A   1      47.110  26.445  35.521  1.00  0.00     0.200 A 
ATOM    102  F   UNL A   1      48.350  28.249  34.634  1.00  0.00    -0.200 F 
ATOM    103  F   UNL A   1      48.202  25.984  36.148  1.00  0.00    -0.200 F 
ENDBRANCH  70  93
ENDBRANCH  44  45
ENDBRANCH  36  39
ENDBRANCH  34  35
ENDBRANCH  33  34
ENDBRANCH   1  33
TORSDOF 15
ENDMDL
MODEL 2
REMARK VINA RESULT:     -12.3      1.876      7.480
REMARK SMILES CCc1c(C)sc(NC(=O)[C@H]2CC(C)=C(C)C[C@H]2C(=O)NCCCNC(=O)c2ccc(-c3c4nc(c(-c5c(F)c(F)c(F)c(F)c5F)c5ccc([nH]5)c(-c5c(F)c(F)c(F)c(F)c5F)c5nc(c(-c6c(F)c(F)c(F)c(F)c6F)c6ccc3[nH]6)C=C5)C=C4)cc2)c1C(=O)NC1CC1
REMARK SMILES IDX 22 1 21 2 19 3 20 4 18 6 11 7 12 8 13 9 17 10 14 11 15 12
REMARK SMILES IDX 16 13 9 14 8 15 10 17 7 18 3 19 4 20 91 21 5 22 6 23 2 24
REMARK SMILES IDX 1 25 92 26 93 27 94 28 95 30 96 31 97 32 23 33 24 34 25 35
REMARK SMILES IDX 26 36 27 38 28 39 29 40 90 41 30 42 89 43 31 44 32 45 33 46
REMARK SMILES IDX 83 47 34 48 88 49 82 50 84 51 35 52 87 53 81 54 80 55 36 57
REMARK SMILES IDX 68 58 48 59 67 60 49 61 52 62 66 63 85 64 50 65 51 66 65 68
REMARK SMILES IDX 86 69 53 70 37 71 38 72 46 73 39 74 40 75 44 76 47 77 41 78
REMARK SMILES IDX 42 79 45 80 43 81 69 82 70 83 78 84 71 85 72 86 76 87 79 88
REMARK SMILES IDX 73 89 74 90 77 91 75 92 54 93 55 94 63 95 56 96 57 97 61 98
REMARK SMILES IDX 64 99 58 100 59 101 62 102 60 103
REMARK H PARENT 21 5 8 16 94 29 25 37 84 56 52 67
REMARK Flexibility Score: inf
ROOT
ATOM      1  C   UNL A   1      33.709  30.796  27.509  1.00  0.00     0.117 C 
ENDROOT
BRANCH   1   2
ATOM      2  N   UNL A   1      32.611  29.860  27.626  1.00  0.00    -0.356 N 
ATOM      3  C   UNL A   1      31.934  29.147  26.690  1.00  0.00     0.224 C 
ATOM      4  O   UNL A   1      31.058  28.381  27.104  1.00  0.00    -0.275 OA
ATOM      5  H   UNL A   1      32.299  29.715  28.549  1.00  0.00     0.163 HD
BRANCH   3   6
ATOM      6  C   UNL A   1      32.321  29.159  25.212  1.00  0.00     0.095 C 
ATOM      7  C   UNL A   1      33.310  28.070  24.679  1.00  0.00     0.095 C 
ATOM      8  C   UNL A   1      32.736  27.244  23.541  1.00  0.00     0.045 C 
ATOM      9  C   UNL A   1      31.392  27.486  22.941  1.00  0.00    -0.074 C 
ATOM     10  C   UNL A   1      31.046  29.475  24.385  1.00  0.00     0.045 C 
ATOM     11  C   UNL A   1      31.028  26.439  21.917  1.00  0.00     0.039 C 
ATOM     12  C   UNL A   1      30.583  28.462  23.373  1.00  0.00    -0.074 C 
ATOM     13  C   UNL A   1      29.142  28.537  22.946  1.00  0.00     0.039 C 
BRANCH   7  14
ATOM     14  C   UNL A   1      34.112  27.297  25.785  1.00  0.00     0.229 C 
ATOM     15  N   UNL A   1      34.007  25.974  26.163  1.00  0.00    -0.317 N 
ATOM     16  H   UNL A   1      34.621  25.714  26.886  1.00  0.00     0.170 HD
ATOM     17  O   UNL A   1      34.953  27.943  26.432  1.00  0.00    -0.274 OA
BRANCH  15  18
ATOM     18  C   UNL A   1      33.197  24.949  25.710  1.00  0.00     0.108 A 
ATOM     19  C   UNL A   1      32.454  22.870  25.008  1.00  0.00    -0.020 A 
ATOM     20  C   UNL A   1      31.406  23.322  25.804  1.00  0.00     0.008 A 
ATOM     21  C   UNL A   1      33.417  23.964  24.736  1.00  0.00     0.078 A 
ATOM     22  C   UNL A   1      30.243  22.578  26.368  1.00  0.00     0.057 C 
ATOM     23  S   UNL A   1      31.546  24.999  26.126  1.00  0.00    -0.122 S 
BRANCH  19  24
ATOM     24  C   UNL A   1      32.606  21.470  24.481  1.00  0.00     0.034 C 
ATOM     25  C   UNL A   1      32.153  21.057  23.100  1.00  0.00     0.009 C 
ENDBRANCH  19  24
BRANCH  21  26
ATOM     26  C   UNL A   1      34.600  24.034  23.844  1.00  0.00     0.254 C 
ATOM     27  O   UNL A   1      34.471  24.390  22.667  1.00  0.00    -0.269 OA
ATOM     28  N   UNL A   1      35.895  23.704  24.217  1.00  0.00    -0.349 N 
ATOM     29  H   UNL A   1      36.590  24.074  23.626  1.00  0.00     0.164 HD
BRANCH  28  30
ATOM     30  C   UNL A   1      36.404  22.925  25.299  1.00  0.00     0.082 C 
ATOM     31  C   UNL A   1      36.141  21.458  25.552  1.00  0.00     0.027 C 
ATOM     32  C   UNL A   1      37.446  21.861  24.988  1.00  0.00     0.027 C 
ENDBRANCH  28  30
ENDBRANCH  21  26
ENDBRANCH  15  18
ENDBRANCH   7  14
ENDBRANCH   3   6
ENDBRANCH   1   2
BRANCH   1  33
ATOM     33  C   UNL A   1      33.272  32.071  26.817  1.00  0.00     0.042 C 
BRANCH  33  34
ATOM     34  C   UNL A   1      32.000  32.694  27.370  1.00  0.00     0.118 C 
BRANCH  34  35
ATOM     35  N   UNL A   1      32.153  34.114  27.626  1.00  0.00    -0.352 N 
ATOM     36  C   UNL A   1      33.018  34.796  28.443  1.00  0.00     0.251 C 
ATOM     37  H   UNL A   1      31.529  34.687  27.125  1.00  0.00     0.163 HD
ATOM     38  O   UNL A   1      32.797  35.993  28.653  1.00  0.00    -0.269 OA
BRANCH  36  39
ATOM     39  C   UNL A   1      34.181  34.151  29.114  1.00  0.00     0.039 A 
ATOM     40  C   UNL A   1      33.926  33.313  30.207  1.00  0.00     0.014 A 
ATOM     41  C   UNL A   1      35.511  34.389  28.756  1.00  0.00     0.014 A 
ATOM     42  C   UNL A   1      34.980  32.678  30.879  1.00  0.00     0.010 A 
ATOM     43  C   UNL A   1      36.557  33.682  29.366  1.00  0.00     0.010 A 
ATOM     44  C   UNL A   1      36.303  32.816  30.436  1.00  0.00    -0.014 A 
BRANCH  44  45
ATOM     45  C   UNL A   1      37.414  32.120  31.145  1.00  0.00     0.031 A 
ATOM     46  C   UNL A   1      38.211  31.081  30.432  1.00  0.00     0.074 A 
ATOM     47  C   UNL A   1      37.711  32.395  32.430  1.00  0.00     0.049 A 
ATOM     48  N   UNL A   1      39.223  30.387  30.877  1.00  0.00    -0.248 NA
ATOM     49  C   UNL A   1      37.767  30.722  29.080  1.00  0.00     0.031 C 
ATOM     50  C   UNL A   1      36.888  33.224  33.280  1.00  0.00     0.029 A 
ATOM     51  N   UNL A   1      38.754  32.047  33.251  1.00  0.00    -0.354 N 
ATOM     52  C   UNL A   1      39.512  29.476  29.878  1.00  0.00     0.074 A 
ATOM     53  C   UNL A   1      38.550  29.687  28.816  1.00  0.00     0.031 C 
ATOM     54  C   UNL A   1      37.518  33.484  34.431  1.00  0.00     0.029 A 
ATOM     55  C   UNL A   1      38.744  32.708  34.465  1.00  0.00     0.049 A 
ATOM     56  H   UNL A   1      39.443  31.389  33.001  1.00  0.00     0.167 HD
ATOM     57  C   UNL A   1      40.493  28.544  29.863  1.00  0.00     0.037 A 
ATOM     58  C   UNL A   1      39.605  32.670  35.500  1.00  0.00     0.037 A 
ATOM     59  C   UNL A   1      41.431  28.346  30.936  1.00  0.00     0.049 A 
ATOM     60  C   UNL A   1      40.730  31.680  35.423  1.00  0.00     0.074 A 
ATOM     61  C   UNL A   1      42.484  27.452  31.004  1.00  0.00     0.029 A 
ATOM     62  N   UNL A   1      41.423  29.044  32.138  1.00  0.00    -0.354 N 
ATOM     63  N   UNL A   1      41.033  30.862  34.445  1.00  0.00    -0.248 NA
ATOM     64  C   UNL A   1      41.599  31.564  36.601  1.00  0.00     0.031 C 
ATOM     65  C   UNL A   1      43.087  27.580  32.259  1.00  0.00     0.029 A 
ATOM     66  C   UNL A   1      42.451  28.595  32.956  1.00  0.00     0.049 A 
ATOM     67  H   UNL A   1      40.784  29.754  32.375  1.00  0.00     0.167 HD
ATOM     68  C   UNL A   1      42.119  30.127  34.887  1.00  0.00     0.074 A 
ATOM     69  C   UNL A   1      42.452  30.630  36.206  1.00  0.00     0.031 C 
ATOM     70  C   UNL A   1      42.765  29.112  34.265  1.00  0.00     0.037 A 
BRANCH  57  71
ATOM     71  C   UNL A   1      40.565  27.666  28.651  1.00  0.00     0.064 A 
ATOM     72  C   UNL A   1      39.863  26.453  28.579  1.00  0.00     0.173 A 
ATOM     73  C   UNL A   1      41.363  28.031  27.557  1.00  0.00     0.173 A 
ATOM     74  F   UNL A   1      39.106  26.047  29.611  1.00  0.00    -0.203 F 
ATOM     75  C   UNL A   1      39.988  25.619  27.472  1.00  0.00     0.198 A 
ATOM     76  C   UNL A   1      41.456  27.211  26.435  1.00  0.00     0.198 A 
ATOM     77  F   UNL A   1      42.059  29.177  27.578  1.00  0.00    -0.203 F 
ATOM     78  F   UNL A   1      39.363  24.433  27.456  1.00  0.00    -0.200 F 
ATOM     79  C   UNL A   1      40.778  26.001  26.400  1.00  0.00     0.200 A 
ATOM     80  F   UNL A   1      42.214  27.585  25.396  1.00  0.00    -0.200 F 
ATOM     81  F   UNL A   1      40.897  25.198  25.334  1.00  0.00    -0.200 F 
ENDBRANCH  57  71
BRANCH  58  82
ATOM     82  C   UNL A   1      39.434  33.558  36.688  1.00  0.00     0.064 A 
ATOM     83  C   UNL A   1      40.009  34.839  36.716  1.00  0.00     0.173 A 
ATOM     84  C   UNL A   1      38.702  33.163  37.819  1.00  0.00     0.173 A 
ATOM     85  F   UNL A   1      40.740  35.268  35.675  1.00  0.00    -0.203 F 
ATOM     86  C   UNL A   1      39.873  35.675  37.824  1.00  0.00     0.198 A 
ATOM     87  C   UNL A   1      38.528  34.017  38.908  1.00  0.00     0.198 A 
ATOM     88  F   UNL A   1      38.129  31.951  37.859  1.00  0.00    -0.203 F 
ATOM     89  F   UNL A   1      40.477  36.872  37.838  1.00  0.00    -0.200 F 
ATOM     90  C   UNL A   1      39.122  35.268  38.915  1.00  0.00     0.200 A 
ATOM     91  F   UNL A   1      37.778  33.626  39.948  1.00  0.00    -0.200 F 
ATOM     92  F   UNL A   1      38.975  36.077  39.973  1.00  0.00    -0.200 F 
ENDBRANCH  58  82
BRANCH  70  93
ATOM     93  C   UNL A   1      43.926  28.509  34.997  1.00  0.00     0.064 A 
ATOM     94  C   UNL A   1      43.772  27.401  35.843  1.00  0.00     0.173 A 
ATOM     95  C   UNL A   1      45.212  29.043  34.836  1.00  0.00     0.173 A 
ATOM     96  F   UNL A   1      42.556  26.870  36.047  1.00  0.00    -0.203 F 
ATOM     97  C   UNL A   1      44.861  26.866  36.524  1.00  0.00     0.198 A 
ATOM     98  C   UNL A   1      46.305  28.484  35.492  1.00  0.00     0.198 A 
ATOM     99  F   UNL A   1      45.410  30.103  34.039  1.00  0.00    -0.203 F 
ATOM    100  F   UNL A   1      44.682  25.845  37.373  1.00  0.00    -0.200 F 
ATOM    101  C   UNL A   1      46.126  27.404  36.343  1.00  0.00     0.200 A 
ATOM    102  F   UNL A   1      47.528  28.998  35.306  1.00  0.00    -0.200 F 
ATOM    103  F   UNL A   1      47.175  26.885  36.996  1.00  0.00    -0.200 F 
ENDBRANCH  70  93
ENDBRANCH  44  45
ENDBRANCH  36  39
ENDBRANCH  34  35
ENDBRANCH  33  34
ENDBRANCH   1  33
TORSDOF 15
ENDMDL
MODEL 3
REMARK VINA RESULT:     -12.0      1.761      3.164
REMARK SMILES CCc1c(C)sc(NC(=O)[C@H]2CC(C)=C(C)C[C@H]2C(=O)NCCCNC(=O)c2ccc(-c3c4nc(c(-c5c(F)c(F)c(F)c(F)c5F)c5ccc([nH]5)c(-c5c(F)c(F)c(F)c(F)c5F)c5nc(c(-c6c(F)c(F)c(F)c(F)c6F)c6ccc3[nH]6)C=C5)C=C4)cc2)c1C(=O)NC1CC1
REMARK SMILES IDX 22 1 21 2 19 3 20 4 18 6 11 7 12 8 13 9 17 10 14 11 15 12
REMARK SMILES IDX 16 13 9 14 8 15 10 17 7 18 3 19 4 20 91 21 5 22 6 23 2 24
REMARK SMILES IDX 1 25 92 26 93 27 94 28 95 30 96 31 97 32 23 33 24 34 25 35
REMARK SMILES IDX 26 36 27 38 28 39 29 40 90 41 30 42 89 43 31 44 32 45 33 46
REMARK SMILES IDX 83 47 34 48 88 49 82 50 84 51 35 52 87 53 81 54 80 55 36 57
REMARK SMILES IDX 68 58 48 59 67 60 49 61 52 62 66 63 85 64 50 65 51 66 65 68
REMARK SMILES IDX 86 69 53 70 37 71 38 72 46 73 39 74 40 75 44 76 47 77 41 78
REMARK SMILES IDX 42 79 45 80 43 81 69 82 70 83 78 84 71 85 72 86 76 87 79 88
REMARK SMILES IDX 73 89 74 90 77 91 75 92 54 93 55 94 63 95 56 96 57 97 61 98
REMARK SMILES IDX 64 99 58 100 59 101 62 102 60 103
REMARK H PARENT 21 5 8 16 94 29 25 37 84 56 52 67
REMARK Flexibility Score: inf
ROOT
ATOM      1  C   UNL A   1      33.743  30.755  27.532  1.00  0.00     0.117 C 
ENDROOT
BRANCH   1   2
ATOM      2  N   UNL A   1      32.672  29.788  27.660  1.00  0.00    -0.356 N 
ATOM      3  C   UNL A   1      31.999  29.064  26.730  1.00  0.00     0.224 C 
ATOM      4  O   UNL A   1      31.152  28.271  27.153  1.00  0.00    -0.275 OA
ATOM      5  H   UNL A   1      32.381  29.627  28.587  1.00  0.00     0.163 HD
BRANCH   3   6
ATOM      6  C   UNL A   1      32.359  29.099  25.245  1.00  0.00     0.095 C 
ATOM      7  C   UNL A   1      33.325  28.009  24.675  1.00  0.00     0.095 C 
ATOM      8  C   UNL A   1      32.721  27.211  23.533  1.00  0.00     0.045 C 
ATOM      9  C   UNL A   1      31.369  27.478  22.962  1.00  0.00    -0.074 C 
ATOM     10  C   UNL A   1      31.072  29.444  24.448  1.00  0.00     0.045 C 
ATOM     11  C   UNL A   1      30.974  26.455  21.927  1.00  0.00     0.039 C 
ATOM     12  C   UNL A   1      30.580  28.455  23.427  1.00  0.00    -0.074 C 
ATOM     13  C   UNL A   1      29.132  28.554  23.028  1.00  0.00     0.039 C 
BRANCH   7  14
ATOM     14  C   UNL A   1      34.138  27.206  25.752  1.00  0.00     0.229 C 
ATOM     15  N   UNL A   1      34.011  25.884  26.122  1.00  0.00    -0.317 N 
ATOM     16  H   UNL A   1      34.638  25.602  26.826  1.00  0.00     0.170 HD
ATOM     17  O   UNL A   1      35.014  27.825  26.379  1.00  0.00    -0.274 OA
BRANCH  15  18
ATOM     18  C   UNL A   1      33.161  24.883  25.686  1.00  0.00     0.108 A 
ATOM     19  C   UNL A   1      32.348  22.832  24.979  1.00  0.00    -0.020 A 
ATOM     20  C   UNL A   1      31.342  23.291  25.825  1.00  0.00     0.008 A 
ATOM     21  C   UNL A   1      33.321  23.911  24.687  1.00  0.00     0.078 A 
ATOM     22  C   UNL A   1      30.188  22.561  26.423  1.00  0.00     0.057 C 
ATOM     23  S   UNL A   1      31.530  24.959  26.169  1.00  0.00    -0.122 S 
BRANCH  19  24
ATOM     24  C   UNL A   1      32.449  21.440  24.423  1.00  0.00     0.034 C 
ATOM     25  C   UNL A   1      32.827  20.243  25.263  1.00  0.00     0.009 C 
ENDBRANCH  19  24
BRANCH  21  26
ATOM     26  C   UNL A   1      34.468  23.973  23.749  1.00  0.00     0.254 C 
ATOM     27  O   UNL A   1      34.278  24.203  22.549  1.00  0.00    -0.269 OA
ATOM     28  N   UNL A   1      35.794  23.770  24.103  1.00  0.00    -0.349 N 
ATOM     29  H   UNL A   1      36.443  24.126  23.453  1.00  0.00     0.164 HD
BRANCH  28  30
ATOM     30  C   UNL A   1      36.390  23.136  25.234  1.00  0.00     0.082 C 
ATOM     31  C   UNL A   1      36.053  21.767  25.780  1.00  0.00     0.027 C 
ATOM     32  C   UNL A   1      37.292  21.935  24.991  1.00  0.00     0.027 C 
ENDBRANCH  28  30
ENDBRANCH  21  26
ENDBRANCH  15  18
ENDBRANCH   7  14
ENDBRANCH   3   6
ENDBRANCH   1   2
BRANCH   1  33
ATOM     33  C   UNL A   1      33.253  32.031  26.877  1.00  0.00     0.042 C 
BRANCH  33  34
ATOM     34  C   UNL A   1      32.091  32.708  27.588  1.00  0.00     0.118 C 
BRANCH  34  35
ATOM     35  N   UNL A   1      32.341  34.119  27.820  1.00  0.00    -0.352 N 
ATOM     36  C   UNL A   1      33.260  34.754  28.616  1.00  0.00     0.251 C 
ATOM     37  H   UNL A   1      31.749  34.725  27.319  1.00  0.00     0.163 HD
ATOM     38  O   UNL A   1      33.121  35.965  28.810  1.00  0.00    -0.269 OA
BRANCH  36  39
ATOM     39  C   UNL A   1      34.387  34.044  29.281  1.00  0.00     0.039 A 
ATOM     40  C   UNL A   1      35.681  34.257  28.787  1.00  0.00     0.014 A 
ATOM     41  C   UNL A   1      34.218  33.128  30.323  1.00  0.00     0.014 A 
ATOM     42  C   UNL A   1      36.782  33.616  29.372  1.00  0.00     0.010 A 
ATOM     43  C   UNL A   1      35.326  32.561  30.969  1.00  0.00     0.010 A 
ATOM     44  C   UNL A   1      36.623  32.799  30.501  1.00  0.00    -0.014 A 
BRANCH  44  45
ATOM     45  C   UNL A   1      37.803  32.139  31.128  1.00  0.00     0.031 A 
ATOM     46  C   UNL A   1      38.168  32.459  32.537  1.00  0.00     0.074 A 
ATOM     47  C   UNL A   1      38.567  31.265  30.444  1.00  0.00     0.049 A 
ATOM     48  N   UNL A   1      39.143  31.971  33.254  1.00  0.00    -0.248 NA
ATOM     49  C   UNL A   1      37.388  33.514  33.197  1.00  0.00     0.031 C 
ATOM     50  C   UNL A   1      38.438  31.033  29.024  1.00  0.00     0.029 A 
ATOM     51  N   UNL A   1      39.573  30.405  30.810  1.00  0.00    -0.354 N 
ATOM     52  C   UNL A   1      39.127  32.690  34.436  1.00  0.00     0.074 A 
ATOM     53  C   UNL A   1      38.062  33.665  34.327  1.00  0.00     0.031 C 
ATOM     54  C   UNL A   1      39.179  29.982  28.653  1.00  0.00     0.029 A 
ATOM     55  C   UNL A   1      39.963  29.552  29.796  1.00  0.00     0.049 A 
ATOM     56  H   UNL A   1      39.977  30.398  31.707  1.00  0.00     0.167 HD
ATOM     57  C   UNL A   1      39.939  32.543  35.507  1.00  0.00     0.037 A 
ATOM     58  C   UNL A   1      40.871  28.556  29.777  1.00  0.00     0.037 A 
ATOM     59  C   UNL A   1      40.999  31.572  35.587  1.00  0.00     0.049 A 
ATOM     60  C   UNL A   1      41.707  28.365  31.009  1.00  0.00     0.074 A 
ATOM     61  C   UNL A   1      41.856  31.320  36.642  1.00  0.00     0.029 A 
ATOM     62  N   UNL A   1      41.356  30.699  34.566  1.00  0.00    -0.354 N 
ATOM     63  N   UNL A   1      41.643  29.011  32.148  1.00  0.00    -0.248 NA
ATOM     64  C   UNL A   1      42.770  27.355  30.945  1.00  0.00     0.031 C 
ATOM     65  C   UNL A   1      42.756  30.325  36.247  1.00  0.00     0.029 A 
ATOM     66  C   UNL A   1      42.426  29.911  34.967  1.00  0.00     0.049 A 
ATOM     67  H   UNL A   1      40.914  30.646  33.689  1.00  0.00     0.167 HD
ATOM     68  C   UNL A   1      42.658  28.496  32.934  1.00  0.00     0.074 A 
ATOM     69  C   UNL A   1      43.294  27.449  32.158  1.00  0.00     0.031 C 
ATOM     70  C   UNL A   1      43.043  28.873  34.177  1.00  0.00     0.037 A 
BRANCH  57  71
ATOM     71  C   UNL A   1      39.711  33.479  36.655  1.00  0.00     0.064 A 
ATOM     72  C   UNL A   1      38.844  33.153  37.708  1.00  0.00     0.173 A 
ATOM     73  C   UNL A   1      40.352  34.725  36.691  1.00  0.00     0.173 A 
ATOM     74  F   UNL A   1      38.187  31.983  37.706  1.00  0.00    -0.203 F 
ATOM     75  C   UNL A   1      38.596  34.058  38.737  1.00  0.00     0.198 A 
ATOM     76  C   UNL A   1      40.130  35.613  37.741  1.00  0.00     0.198 A 
ATOM     77  F   UNL A   1      41.186  35.088  35.706  1.00  0.00    -0.203 F 
ATOM     78  F   UNL A   1      37.710  33.753  39.695  1.00  0.00    -0.200 F 
ATOM     79  C   UNL A   1      39.243  35.283  38.755  1.00  0.00     0.200 A 
ATOM     80  F   UNL A   1      40.763  36.794  37.762  1.00  0.00    -0.200 F 
ATOM     81  F   UNL A   1      39.005  36.153  39.746  1.00  0.00    -0.200 F 
ENDBRANCH  57  71
BRANCH  58  82
ATOM     82  C   UNL A   1      41.057  27.694  28.573  1.00  0.00     0.064 A 
ATOM     83  C   UNL A   1      40.296  26.526  28.401  1.00  0.00     0.173 A 
ATOM     84  C   UNL A   1      41.989  28.002  27.569  1.00  0.00     0.173 A 
ATOM     85  F   UNL A   1      39.404  26.165  29.336  1.00  0.00    -0.203 F 
ATOM     86  C   UNL A   1      40.469  25.701  27.290  1.00  0.00     0.198 A 
ATOM     87  C   UNL A   1      42.129  27.200  26.436  1.00  0.00     0.198 A 
ATOM     88  F   UNL A   1      42.750  29.101  27.672  1.00  0.00    -0.203 F 
ATOM     89  F   UNL A   1      39.762  24.568  27.182  1.00  0.00    -0.200 F 
ATOM     90  C   UNL A   1      41.377  26.045  26.302  1.00  0.00     0.200 A 
ATOM     91  F   UNL A   1      42.990  27.554  25.471  1.00  0.00    -0.200 F 
ATOM     92  F   UNL A   1      41.532  25.262  25.225  1.00  0.00    -0.200 F 
ENDBRANCH  58  82
BRANCH  70  93
ATOM     93  C   UNL A   1      44.184  28.114  34.784  1.00  0.00     0.064 A 
ATOM     94  C   UNL A   1      45.510  28.554  34.667  1.00  0.00     0.173 A 
ATOM     95  C   UNL A   1      43.940  26.937  35.506  1.00  0.00     0.173 A 
ATOM     96  F   UNL A   1      45.796  29.662  33.966  1.00  0.00    -0.203 F 
ATOM     97  C   UNL A   1      46.556  27.826  35.226  1.00  0.00     0.198 A 
ATOM     98  C   UNL A   1      44.984  26.230  36.093  1.00  0.00     0.198 A 
ATOM     99  F   UNL A   1      42.688  26.476  35.645  1.00  0.00    -0.203 F 
ATOM    100  F   UNL A   1      47.821  28.231  35.052  1.00  0.00    -0.200 F 
ATOM    101  C   UNL A   1      46.291  26.669  35.945  1.00  0.00     0.200 A 
ATOM    102  F   UNL A   1      44.725  25.119  36.797  1.00  0.00    -0.200 F 
ATOM    103  F   UNL A   1      47.298  25.971  36.487  1.00  0.00    -0.200 F 
ENDBRANCH  70  93
ENDBRANCH  44  45
ENDBRANCH  36  39
ENDBRANCH  34  35
ENDBRANCH  33  34
ENDBRANCH   1  33
TORSDOF 15
ENDMDL
