MODEL 1
REMARK VINA RESULT:     -11.0      0.000      0.000
REMARK SMILES Cc1ccc(/C=C2/C[N@@H+](C)Cc3c2nc2ccccc2c3C(=O)NCCCNC(=O)c2ccc(-c3c4nc(c(-c5c(F)c(F)c(F)c(F)c5F)c5ccc([nH]5)c(-c5c(F)c(F)c(F)c(F)c5F)c5nc(c(-c6c(F)c(F)c(F)c(F)c6F)c6ccc3[nH]6)C=C5)C=C4)cc2)cc1
REMARK SMILES IDX 26 1 25 2 24 3 22 4 23 5 21 7 6 8 7 9 8 10 13 11 9 12 12 13
REMARK SMILES IDX 14 14 10 15 11 16 15 18 20 19 16 20 19 21 17 22 18 23 5 24
REMARK SMILES IDX 1 25 2 26 3 27 95 28 4 29 94 30 27 31 28 32 29 33 30 35
REMARK SMILES IDX 31 36 32 37 93 38 33 39 92 40 34 41 35 42 36 43 86 44 37 45
REMARK SMILES IDX 91 46 85 47 87 48 38 49 90 50 84 51 83 52 39 54 71 55 51 56
REMARK SMILES IDX 70 57 52 58 55 59 69 60 88 61 53 62 54 63 68 65 89 66 56 67
REMARK SMILES IDX 40 68 41 69 49 70 42 71 43 72 47 73 50 74 44 75 45 76 48 77
REMARK SMILES IDX 46 78 72 79 73 80 81 81 74 82 75 83 79 84 82 85 76 86 77 87
REMARK SMILES IDX 80 88 78 89 57 90 58 91 66 92 59 93 60 94 64 95 67 96 61 97
REMARK SMILES IDX 62 98 65 99 63 100
REMARK H PARENT 24 6 9 17 28 34 87 53 55 64
REMARK Flexibility Score: inf
ROOT
ATOM      1  C   UNL A   1      40.533  35.112  37.733  1.00  0.00     0.042 C 
ENDROOT
BRANCH   1   2
ATOM      2  C   UNL A   1      39.550  34.531  36.768  1.00  0.00     0.118 C 
BRANCH   2   3
ATOM      3  N   UNL A   1      38.316  33.927  37.175  1.00  0.00    -0.352 N 
ATOM      4  C   UNL A   1      37.791  32.784  36.583  1.00  0.00     0.252 C 
ATOM      5  O   UNL A   1      37.041  32.070  37.248  1.00  0.00    -0.269 OA
ATOM      6  H   UNL A   1      37.813  34.343  37.912  1.00  0.00     0.163 HD
BRANCH   4   7
ATOM      7  C   UNL A   1      38.026  32.486  35.125  1.00  0.00     0.060 A 
ATOM      8  C   UNL A   1      39.950  29.813  31.583  1.00  0.00     0.020 C 
ATOM      9  C   UNL A   1      40.117  30.514  32.724  1.00  0.00     0.033 C 
ATOM     10  C   UNL A   1      41.245  30.224  33.660  1.00  0.00     0.301 C 
ATOM     11  C   UNL A   1      39.189  31.509  33.290  1.00  0.00     0.082 A 
ATOM     12  N   UNL A   1      40.648  29.585  34.839  1.00  0.00    -0.330 N 
ATOM     13  C   UNL A   1      38.952  31.515  34.657  1.00  0.00     0.046 A 
ATOM     14  N   UNL A   1      38.603  32.353  32.419  1.00  0.00    -0.247 NA
ATOM     15  C   UNL A   1      41.717  29.180  35.765  1.00  0.00     0.333 C 
ATOM     16  C   UNL A   1      39.703  30.505  35.511  1.00  0.00     0.302 C 
ATOM     17  H   UNL A   1      40.126  28.761  34.545  1.00  0.00     0.348 HD
ATOM     18  C   UNL A   1      37.600  33.124  32.833  1.00  0.00     0.072 A 
ATOM     19  C   UNL A   1      37.244  33.251  34.186  1.00  0.00     0.013 A 
ATOM     20  C   UNL A   1      36.871  33.774  31.846  1.00  0.00     0.029 A 
ATOM     21  C   UNL A   1      36.131  34.096  34.476  1.00  0.00     0.011 A 
ATOM     22  C   UNL A   1      35.752  34.546  32.143  1.00  0.00     0.002 A 
ATOM     23  C   UNL A   1      35.381  34.713  33.466  1.00  0.00     0.001 A 
BRANCH   8  24
ATOM     24  C   UNL A   1      38.803  29.853  30.665  1.00  0.00    -0.025 A 
ATOM     25  C   UNL A   1      35.395  30.412  28.100  1.00  0.00     0.044 C 
ATOM     26  C   UNL A   1      36.602  30.126  28.937  1.00  0.00    -0.051 A 
ATOM     27  C   UNL A   1      36.471  29.426  30.136  1.00  0.00     0.004 A 
ATOM     28  C   UNL A   1      37.858  30.630  28.575  1.00  0.00     0.004 A 
ATOM     29  C   UNL A   1      37.576  29.249  30.965  1.00  0.00     0.008 A 
ATOM     30  C   UNL A   1      38.950  30.494  29.434  1.00  0.00     0.008 A 
ENDBRANCH   8  24
ENDBRANCH   4   7
ENDBRANCH   2   3
ENDBRANCH   1   2
BRANCH   1  31
ATOM     31  C   UNL A   1      41.955  35.141  37.205  1.00  0.00     0.118 C 
BRANCH  31  32
ATOM     32  N   UNL A   1      42.472  33.933  36.535  1.00  0.00    -0.352 N 
ATOM     33  C   UNL A   1      42.706  33.741  35.168  1.00  0.00     0.251 C 
ATOM     34  H   UNL A   1      42.677  33.168  37.120  1.00  0.00     0.163 HD
ATOM     35  O   UNL A   1      43.255  32.729  34.752  1.00  0.00    -0.269 OA
BRANCH  33  36
ATOM     36  C   UNL A   1      42.388  34.855  34.233  1.00  0.00     0.039 A 
ATOM     37  C   UNL A   1      41.194  34.725  33.520  1.00  0.00     0.014 A 
ATOM     38  C   UNL A   1      43.463  35.535  33.687  1.00  0.00     0.014 A 
ATOM     39  C   UNL A   1      41.226  34.871  32.137  1.00  0.00     0.010 A 
ATOM     40  C   UNL A   1      43.543  35.526  32.306  1.00  0.00     0.010 A 
ATOM     41  C   UNL A   1      42.457  35.092  31.531  1.00  0.00    -0.014 A 
BRANCH  41  42
ATOM     42  C   UNL A   1      42.715  34.841  30.116  1.00  0.00     0.031 A 
ATOM     43  C   UNL A   1      43.083  33.469  29.718  1.00  0.00     0.074 A 
ATOM     44  C   UNL A   1      42.623  35.799  29.160  1.00  0.00     0.049 A 
ATOM     45  N   UNL A   1      43.806  33.188  28.690  1.00  0.00    -0.248 NA
ATOM     46  C   UNL A   1      42.716  32.296  30.498  1.00  0.00     0.031 C 
ATOM     47  C   UNL A   1      42.656  35.596  27.710  1.00  0.00     0.029 A 
ATOM     48  N   UNL A   1      42.658  37.197  29.303  1.00  0.00    -0.354 N 
ATOM     49  C   UNL A   1      43.787  31.825  28.524  1.00  0.00     0.074 A 
ATOM     50  C   UNL A   1      43.152  31.313  29.712  1.00  0.00     0.031 C 
ATOM     51  C   UNL A   1      43.013  36.741  27.110  1.00  0.00     0.029 A 
ATOM     52  C   UNL A   1      43.324  37.698  28.149  1.00  0.00     0.049 A 
ATOM     53  H   UNL A   1      42.296  37.723  30.051  1.00  0.00     0.167 HD
ATOM     54  C   UNL A   1      44.208  31.301  27.338  1.00  0.00     0.037 A 
ATOM     55  C   UNL A   1      44.469  38.435  28.243  1.00  0.00     0.037 A 
ATOM     56  C   UNL A   1      44.700  32.353  26.442  1.00  0.00     0.049 A 
ATOM     57  C   UNL A   1      45.681  37.768  27.626  1.00  0.00     0.074 A 
ATOM     58  C   UNL A   1      44.164  33.032  25.359  1.00  0.00     0.029 A 
ATOM     59  N   UNL A   1      45.822  33.075  26.815  1.00  0.00    -0.354 N 
ATOM     60  N   UNL A   1      45.655  36.630  26.990  1.00  0.00    -0.248 NA
ATOM     61  C   UNL A   1      47.040  38.276  27.799  1.00  0.00     0.031 C 
ATOM     62  C   UNL A   1      45.006  34.143  25.064  1.00  0.00     0.029 A 
ATOM     63  C   UNL A   1      46.060  34.134  25.958  1.00  0.00     0.049 A 
ATOM     64  H   UNL A   1      46.381  32.861  27.597  1.00  0.00     0.167 HD
ATOM     65  C   UNL A   1      46.940  36.205  26.759  1.00  0.00     0.074 A 
ATOM     66  C   UNL A   1      47.770  37.268  27.296  1.00  0.00     0.031 C 
ATOM     67  C   UNL A   1      47.217  34.985  26.200  1.00  0.00     0.037 A 
BRANCH  54  68
ATOM     68  C   UNL A   1      43.938  29.878  26.899  1.00  0.00     0.064 A 
ATOM     69  C   UNL A   1      45.005  29.020  26.558  1.00  0.00     0.173 A 
ATOM     70  C   UNL A   1      42.661  29.306  26.733  1.00  0.00     0.173 A 
ATOM     71  F   UNL A   1      46.280  29.366  26.785  1.00  0.00    -0.203 F 
ATOM     72  C   UNL A   1      44.806  27.767  25.972  1.00  0.00     0.198 A 
ATOM     73  C   UNL A   1      42.457  28.083  26.087  1.00  0.00     0.198 A 
ATOM     74  F   UNL A   1      41.567  29.865  27.261  1.00  0.00    -0.203 F 
ATOM     75  F   UNL A   1      45.863  27.002  25.666  1.00  0.00    -0.200 F 
ATOM     76  C   UNL A   1      43.532  27.318  25.695  1.00  0.00     0.200 A 
ATOM     77  F   UNL A   1      41.208  27.653  25.861  1.00  0.00    -0.200 F 
ATOM     78  F   UNL A   1      43.341  26.140  25.087  1.00  0.00    -0.200 F 
ENDBRANCH  54  68
BRANCH  55  79
ATOM     79  C   UNL A   1      44.469  39.278  29.471  1.00  0.00     0.064 A 
ATOM     80  C   UNL A   1      43.638  40.417  29.449  1.00  0.00     0.173 A 
ATOM     81  C   UNL A   1      44.777  38.717  30.713  1.00  0.00     0.173 A 
ATOM     82  F   UNL A   1      43.354  41.017  28.282  1.00  0.00    -0.203 F 
ATOM     83  C   UNL A   1      42.934  40.803  30.585  1.00  0.00     0.198 A 
ATOM     84  C   UNL A   1      44.114  39.148  31.859  1.00  0.00     0.198 A 
ATOM     85  F   UNL A   1      45.583  37.649  30.798  1.00  0.00    -0.203 F 
ATOM     86  F   UNL A   1      41.971  41.730  30.492  1.00  0.00    -0.200 F 
ATOM     87  C   UNL A   1      43.139  40.133  31.779  1.00  0.00     0.200 A 
ATOM     88  F   UNL A   1      44.324  38.512  33.021  1.00  0.00    -0.200 F 
ATOM     89  F   UNL A   1      42.352  40.389  32.832  1.00  0.00    -0.200 F 
ENDBRANCH  55  79
BRANCH  67  90
ATOM     90  C   UNL A   1      48.607  34.465  25.888  1.00  0.00     0.064 A 
ATOM     91  C   UNL A   1      49.165  33.329  26.498  1.00  0.00     0.173 A 
ATOM     92  C   UNL A   1      49.481  35.155  25.011  1.00  0.00     0.173 A 
ATOM     93  F   UNL A   1      48.523  32.684  27.482  1.00  0.00    -0.203 F 
ATOM     94  C   UNL A   1      50.432  32.845  26.154  1.00  0.00     0.198 A 
ATOM     95  C   UNL A   1      50.765  34.701  24.709  1.00  0.00     0.198 A 
ATOM     96  F   UNL A   1      49.130  36.296  24.404  1.00  0.00    -0.203 F 
ATOM     97  F   UNL A   1      50.882  31.711  26.710  1.00  0.00    -0.200 F 
ATOM     98  C   UNL A   1      51.230  33.527  25.256  1.00  0.00     0.200 A 
ATOM     99  F   UNL A   1      51.540  35.412  23.877  1.00  0.00    -0.200 F 
ATOM    100  F   UNL A   1      52.445  33.067  24.933  1.00  0.00    -0.200 F 
ENDBRANCH  67  90
ENDBRANCH  41  42
ENDBRANCH  33  36
ENDBRANCH  31  32
ENDBRANCH   1  31
TORSDOF 11
ENDMDL
MODEL 2
REMARK VINA RESULT:     -10.9      7.444     11.148
REMARK SMILES Cc1ccc(/C=C2/C[N@@H+](C)Cc3c2nc2ccccc2c3C(=O)NCCCNC(=O)c2ccc(-c3c4nc(c(-c5c(F)c(F)c(F)c(F)c5F)c5ccc([nH]5)c(-c5c(F)c(F)c(F)c(F)c5F)c5nc(c(-c6c(F)c(F)c(F)c(F)c6F)c6ccc3[nH]6)C=C5)C=C4)cc2)cc1
REMARK SMILES IDX 26 1 25 2 24 3 22 4 23 5 21 7 6 8 7 9 8 10 13 11 9 12 12 13
REMARK SMILES IDX 14 14 10 15 11 16 15 18 20 19 16 20 19 21 17 22 18 23 5 24
REMARK SMILES IDX 1 25 2 26 3 27 95 28 4 29 94 30 27 31 28 32 29 33 30 35
REMARK SMILES IDX 31 36 32 37 93 38 33 39 92 40 34 41 35 42 36 43 86 44 37 45
REMARK SMILES IDX 91 46 85 47 87 48 38 49 90 50 84 51 83 52 39 54 71 55 51 56
REMARK SMILES IDX 70 57 52 58 55 59 69 60 88 61 53 62 54 63 68 65 89 66 56 67
REMARK SMILES IDX 40 68 41 69 49 70 42 71 43 72 47 73 50 74 44 75 45 76 48 77
REMARK SMILES IDX 46 78 72 79 73 80 81 81 74 82 75 83 79 84 82 85 76 86 77 87
REMARK SMILES IDX 80 88 78 89 57 90 58 91 66 92 59 93 60 94 64 95 67 96 61 97
REMARK SMILES IDX 62 98 65 99 63 100
REMARK H PARENT 24 6 9 17 28 34 87 53 55 64
REMARK Flexibility Score: inf
ROOT
ATOM      1  C   UNL A   1      44.789  25.494  38.452  1.00  0.00     0.042 C 
ENDROOT
BRANCH   1   2
ATOM      2  C   UNL A   1      45.621  24.326  38.028  1.00  0.00     0.118 C 
BRANCH   2   3
ATOM      3  N   UNL A   1      46.926  24.463  37.453  1.00  0.00    -0.352 N 
ATOM      4  C   UNL A   1      47.643  23.397  36.917  1.00  0.00     0.252 C 
ATOM      5  O   UNL A   1      48.482  23.632  36.048  1.00  0.00    -0.269 OA
ATOM      6  H   UNL A   1      47.338  25.357  37.435  1.00  0.00     0.163 HD
BRANCH   4   7
ATOM      7  C   UNL A   1      47.493  22.005  37.472  1.00  0.00     0.060 A 
ATOM      8  C   UNL A   1      48.148  18.719  40.959  1.00  0.00     0.020 C 
ATOM      9  C   UNL A   1      48.671  19.650  40.135  1.00  0.00     0.033 C 
ATOM     10  C   UNL A   1      49.929  20.380  40.480  1.00  0.00     0.301 C 
ATOM     11  C   UNL A   1      48.052  20.193  38.913  1.00  0.00     0.082 A 
ATOM     12  N   UNL A   1      49.531  21.754  40.811  1.00  0.00    -0.330 N 
ATOM     13  C   UNL A   1      48.137  21.553  38.656  1.00  0.00     0.046 A 
ATOM     14  N   UNL A   1      47.411  19.313  38.119  1.00  0.00    -0.247 NA
ATOM     15  C   UNL A   1      50.713  22.506  41.258  1.00  0.00     0.333 C 
ATOM     16  C   UNL A   1      48.908  22.414  39.643  1.00  0.00     0.302 C 
ATOM     17  H   UNL A   1      48.842  21.730  41.562  1.00  0.00     0.348 HD
ATOM     18  C   UNL A   1      46.651  19.766  37.124  1.00  0.00     0.072 A 
ATOM     19  C   UNL A   1      46.636  21.115  36.729  1.00  0.00     0.013 A 
ATOM     20  C   UNL A   1      45.818  18.840  36.510  1.00  0.00     0.029 A 
ATOM     21  C   UNL A   1      45.753  21.456  35.662  1.00  0.00     0.011 A 
ATOM     22  C   UNL A   1      44.920  19.203  35.511  1.00  0.00     0.002 A 
ATOM     23  C   UNL A   1      44.890  20.519  35.080  1.00  0.00     0.001 A 
BRANCH   8  24
ATOM     24  C   UNL A   1      46.840  18.058  40.852  1.00  0.00    -0.025 A 
ATOM     25  C   UNL A   1      43.010  16.250  40.092  1.00  0.00     0.044 C 
ATOM     26  C   UNL A   1      44.348  16.821  40.449  1.00  0.00    -0.051 A 
ATOM     27  C   UNL A   1      44.429  18.026  41.147  1.00  0.00     0.004 A 
ATOM     28  C   UNL A   1      45.527  16.203  40.013  1.00  0.00     0.004 A 
ATOM     29  C   UNL A   1      45.670  18.610  41.388  1.00  0.00     0.008 A 
ATOM     30  C   UNL A   1      46.764  16.819  40.214  1.00  0.00     0.008 A 
ENDBRANCH   8  24
ENDBRANCH   4   7
ENDBRANCH   2   3
ENDBRANCH   1   2
BRANCH   1  31
ATOM     31  C   UNL A   1      43.600  25.751  37.546  1.00  0.00     0.118 C 
BRANCH  31  32
ATOM     32  N   UNL A   1      43.106  24.636  36.716  1.00  0.00    -0.352 N 
ATOM     33  C   UNL A   1      43.281  24.444  35.341  1.00  0.00     0.251 C 
ATOM     34  H   UNL A   1      42.588  23.943  37.187  1.00  0.00     0.163 HD
ATOM     35  O   UNL A   1      42.924  23.410  34.792  1.00  0.00    -0.269 OA
BRANCH  33  36
ATOM     36  C   UNL A   1      44.031  25.476  34.573  1.00  0.00     0.039 A 
ATOM     37  C   UNL A   1      43.301  26.611  34.211  1.00  0.00     0.014 A 
ATOM     38  C   UNL A   1      45.072  25.026  33.780  1.00  0.00     0.014 A 
ATOM     39  C   UNL A   1      43.314  27.011  32.879  1.00  0.00     0.010 A 
ATOM     40  C   UNL A   1      44.969  25.313  32.430  1.00  0.00     0.010 A 
ATOM     41  C   UNL A   1      44.015  26.231  31.967  1.00  0.00    -0.014 A 
BRANCH  41  42
ATOM     42  C   UNL A   1      43.776  26.265  30.527  1.00  0.00     0.031 A 
ATOM     43  C   UNL A   1      44.101  25.053  29.749  1.00  0.00     0.074 A 
ATOM     44  C   UNL A   1      43.266  27.342  29.881  1.00  0.00     0.049 A 
ATOM     45  N   UNL A   1      44.435  25.065  28.506  1.00  0.00    -0.248 NA
ATOM     46  C   UNL A   1      44.141  23.724  30.340  1.00  0.00     0.031 C 
ATOM     47  C   UNL A   1      42.801  27.392  28.492  1.00  0.00     0.029 A 
ATOM     48  N   UNL A   1      43.223  28.684  30.296  1.00  0.00    -0.354 N 
ATOM     49  C   UNL A   1      44.481  23.764  28.071  1.00  0.00     0.074 A 
ATOM     50  C   UNL A   1      44.356  22.967  29.266  1.00  0.00     0.031 C 
ATOM     51  C   UNL A   1      42.819  28.663  28.064  1.00  0.00     0.029 A 
ATOM     52  C   UNL A   1      43.390  29.469  29.121  1.00  0.00     0.049 A 
ATOM     53  H   UNL A   1      43.104  29.014  31.215  1.00  0.00     0.167 HD
ATOM     54  C   UNL A   1      44.500  23.519  26.730  1.00  0.00     0.037 A 
ATOM     55  C   UNL A   1      44.423  30.352  28.986  1.00  0.00     0.037 A 
ATOM     56  C   UNL A   1      44.546  24.770  25.966  1.00  0.00     0.049 A 
ATOM     57  C   UNL A   1      45.392  29.997  27.877  1.00  0.00     0.074 A 
ATOM     58  C   UNL A   1      43.603  25.528  25.290  1.00  0.00     0.029 A 
ATOM     59  N   UNL A   1      45.658  25.587  26.092  1.00  0.00    -0.354 N 
ATOM     60  N   UNL A   1      45.245  28.991  27.060  1.00  0.00    -0.248 NA
ATOM     61  C   UNL A   1      46.674  30.676  27.696  1.00  0.00     0.031 C 
ATOM     62  C   UNL A   1      44.182  26.791  24.975  1.00  0.00     0.029 A 
ATOM     63  C   UNL A   1      45.481  26.798  25.449  1.00  0.00     0.049 A 
ATOM     64  H   UNL A   1      46.475  25.336  26.581  1.00  0.00     0.167 HD
ATOM     65  C   UNL A   1      46.398  28.818  26.334  1.00  0.00     0.074 A 
ATOM     66  C   UNL A   1      47.265  29.894  26.779  1.00  0.00     0.031 C 
ATOM     67  C   UNL A   1      46.567  27.769  25.471  1.00  0.00     0.037 A 
BRANCH  54  68
ATOM     68  C   UNL A   1      44.221  22.164  26.114  1.00  0.00     0.064 A 
ATOM     69  C   UNL A   1      42.952  21.565  26.252  1.00  0.00     0.173 A 
ATOM     70  C   UNL A   1      45.162  21.374  25.426  1.00  0.00     0.173 A 
ATOM     71  F   UNL A   1      41.912  22.238  26.763  1.00  0.00    -0.203 F 
ATOM     72  C   UNL A   1      42.697  20.245  25.867  1.00  0.00     0.198 A 
ATOM     73  C   UNL A   1      44.932  20.034  25.099  1.00  0.00     0.198 A 
ATOM     74  F   UNL A   1      46.309  21.886  24.968  1.00  0.00    -0.203 F 
ATOM     75  F   UNL A   1      41.470  19.732  26.031  1.00  0.00    -0.200 F 
ATOM     76  C   UNL A   1      43.700  19.465  25.333  1.00  0.00     0.200 A 
ATOM     77  F   UNL A   1      45.914  19.307  24.549  1.00  0.00    -0.200 F 
ATOM     78  F   UNL A   1      43.471  18.186  25.010  1.00  0.00    -0.200 F 
ENDBRANCH  54  68
BRANCH  55  79
ATOM     79  C   UNL A   1      44.782  30.966  30.294  1.00  0.00     0.064 A 
ATOM     80  C   UNL A   1      43.953  32.016  30.741  1.00  0.00     0.173 A 
ATOM     81  C   UNL A   1      45.479  30.228  31.254  1.00  0.00     0.173 A 
ATOM     82  F   UNL A   1      43.302  32.781  29.851  1.00  0.00    -0.203 F 
ATOM     83  C   UNL A   1      43.629  32.138  32.088  1.00  0.00     0.198 A 
ATOM     84  C   UNL A   1      45.194  30.395  32.607  1.00  0.00     0.198 A 
ATOM     85  F   UNL A   1      46.301  29.236  30.886  1.00  0.00    -0.203 F 
ATOM     86  F   UNL A   1      42.659  32.980  32.469  1.00  0.00    -0.200 F 
ATOM     87  C   UNL A   1      44.215  31.292  33.014  1.00  0.00     0.200 A 
ATOM     88  F   UNL A   1      45.776  29.589  33.507  1.00  0.00    -0.200 F 
ATOM     89  F   UNL A   1      43.790  31.293  34.284  1.00  0.00    -0.200 F 
ENDBRANCH  55  79
BRANCH  67  90
ATOM     90  C   UNL A   1      47.798  27.534  24.614  1.00  0.00     0.064 A 
ATOM     91  C   UNL A   1      47.856  27.833  23.243  1.00  0.00     0.173 A 
ATOM     92  C   UNL A   1      48.957  26.903  25.132  1.00  0.00     0.173 A 
ATOM     93  F   UNL A   1      46.773  28.263  22.580  1.00  0.00    -0.203 F 
ATOM     94  C   UNL A   1      49.021  27.651  22.489  1.00  0.00     0.198 A 
ATOM     95  C   UNL A   1      50.099  26.672  24.367  1.00  0.00     0.198 A 
ATOM     96  F   UNL A   1      49.036  26.487  26.403  1.00  0.00    -0.203 F 
ATOM     97  F   UNL A   1      49.044  28.029  21.204  1.00  0.00    -0.200 F 
ATOM     98  C   UNL A   1      50.144  27.076  23.052  1.00  0.00     0.200 A 
ATOM     99  F   UNL A   1      51.155  26.061  24.922  1.00  0.00    -0.200 F 
ATOM    100  F   UNL A   1      51.255  26.894  22.328  1.00  0.00    -0.200 F 
ENDBRANCH  67  90
ENDBRANCH  41  42
ENDBRANCH  33  36
ENDBRANCH  31  32
ENDBRANCH   1  31
TORSDOF 11
ENDMDL
MODEL 3
REMARK VINA RESULT:     -10.7      7.260     13.501
REMARK SMILES Cc1ccc(/C=C2/C[N@@H+](C)Cc3c2nc2ccccc2c3C(=O)NCCCNC(=O)c2ccc(-c3c4nc(c(-c5c(F)c(F)c(F)c(F)c5F)c5ccc([nH]5)c(-c5c(F)c(F)c(F)c(F)c5F)c5nc(c(-c6c(F)c(F)c(F)c(F)c6F)c6ccc3[nH]6)C=C5)C=C4)cc2)cc1
REMARK SMILES IDX 26 1 25 2 24 3 22 4 23 5 21 7 6 8 7 9 8 10 13 11 9 12 12 13
REMARK SMILES IDX 14 14 10 15 11 16 15 18 20 19 16 20 19 21 17 22 18 23 5 24
REMARK SMILES IDX 1 25 2 26 3 27 95 28 4 29 94 30 27 31 28 32 29 33 30 35
REMARK SMILES IDX 31 36 32 37 93 38 33 39 92 40 34 41 35 42 36 43 86 44 37 45
REMARK SMILES IDX 91 46 85 47 87 48 38 49 90 50 84 51 83 52 39 54 71 55 51 56
REMARK SMILES IDX 70 57 52 58 55 59 69 60 88 61 53 62 54 63 68 65 89 66 56 67
REMARK SMILES IDX 40 68 41 69 49 70 42 71 43 72 47 73 50 74 44 75 45 76 48 77
REMARK SMILES IDX 46 78 72 79 73 80 81 81 74 82 75 83 79 84 82 85 76 86 77 87
REMARK SMILES IDX 80 88 78 89 57 90 58 91 66 92 59 93 60 94 64 95 67 96 61 97
REMARK SMILES IDX 62 98 65 99 63 100
REMARK H PARENT 24 6 9 17 28 34 87 53 55 64
REMARK Flexibility Score: inf
ROOT
ATOM      1  C   UNL A   1      45.379  25.193  38.321  1.00  0.00     0.042 C 
ENDROOT
BRANCH   1   2
ATOM      2  C   UNL A   1      46.319  24.054  38.553  1.00  0.00     0.118 C 
BRANCH   2   3
ATOM      3  N   UNL A   1      47.656  24.025  38.039  1.00  0.00    -0.352 N 
ATOM      4  C   UNL A   1      48.209  22.919  37.402  1.00  0.00     0.252 C 
ATOM      5  O   UNL A   1      49.119  23.101  36.594  1.00  0.00    -0.269 OA
ATOM      6  H   UNL A   1      48.213  24.830  38.141  1.00  0.00     0.163 HD
BRANCH   4   7
ATOM      7  C   UNL A   1      47.798  21.521  37.781  1.00  0.00     0.060 A 
ATOM      8  C   UNL A   1      47.718  17.794  40.863  1.00  0.00     0.020 C 
ATOM      9  C   UNL A   1      48.430  18.707  40.170  1.00  0.00     0.033 C 
ATOM     10  C   UNL A   1      49.776  19.161  40.634  1.00  0.00     0.301 C 
ATOM     11  C   UNL A   1      47.970  19.486  39.008  1.00  0.00     0.082 A 
ATOM     12  N   UNL A   1      49.604  20.536  41.118  1.00  0.00    -0.330 N 
ATOM     13  C   UNL A   1      48.299  20.831  38.918  1.00  0.00     0.046 A 
ATOM     14  N   UNL A   1      47.226  18.828  38.096  1.00  0.00    -0.247 NA
ATOM     15  C   UNL A   1      50.875  21.014  41.683  1.00  0.00     0.333 C 
ATOM     16  C   UNL A   1      49.159  21.425  40.022  1.00  0.00     0.302 C 
ATOM     17  H   UNL A   1      48.887  20.549  41.842  1.00  0.00     0.348 HD
ATOM     18  C   UNL A   1      46.603  19.518  37.144  1.00  0.00     0.072 A 
ATOM     19  C   UNL A   1      46.837  20.884  36.914  1.00  0.00     0.013 A 
ATOM     20  C   UNL A   1      45.653  18.829  36.401  1.00  0.00     0.029 A 
ATOM     21  C   UNL A   1      46.076  21.495  35.873  1.00  0.00     0.011 A 
ATOM     22  C   UNL A   1      44.878  19.455  35.430  1.00  0.00     0.002 A 
ATOM     23  C   UNL A   1      45.094  20.796  35.159  1.00  0.00     0.001 A 
BRANCH   8  24
ATOM     24  C   UNL A   1      46.323  17.389  40.642  1.00  0.00    -0.025 A 
ATOM     25  C   UNL A   1      42.279  15.944  40.378  1.00  0.00     0.044 C 
ATOM     26  C   UNL A   1      43.658  16.525  40.399  1.00  0.00    -0.051 A 
ATOM     27  C   UNL A   1      44.640  16.024  39.544  1.00  0.00     0.004 A 
ATOM     28  C   UNL A   1      44.003  17.512  41.330  1.00  0.00     0.004 A 
ATOM     29  C   UNL A   1      45.949  16.491  39.635  1.00  0.00     0.008 A 
ATOM     30  C   UNL A   1      45.327  17.941  41.451  1.00  0.00     0.008 A 
ENDBRANCH   8  24
ENDBRANCH   4   7
ENDBRANCH   2   3
ENDBRANCH   1   2
BRANCH   1  31
ATOM     31  C   UNL A   1      44.239  24.855  37.379  1.00  0.00     0.118 C 
BRANCH  31  32
ATOM     32  N   UNL A   1      42.879  25.286  37.751  1.00  0.00    -0.352 N 
ATOM     33  C   UNL A   1      41.905  25.866  36.929  1.00  0.00     0.251 C 
ATOM     34  H   UNL A   1      42.624  25.149  38.693  1.00  0.00     0.163 HD
ATOM     35  O   UNL A   1      40.767  26.065  37.334  1.00  0.00    -0.269 OA
BRANCH  33  36
ATOM     36  C   UNL A   1      42.245  26.122  35.503  1.00  0.00     0.039 A 
ATOM     37  C   UNL A   1      43.465  26.764  35.277  1.00  0.00     0.014 A 
ATOM     38  C   UNL A   1      41.184  26.303  34.633  1.00  0.00     0.014 A 
ATOM     39  C   UNL A   1      43.480  27.898  34.471  1.00  0.00     0.010 A 
ATOM     40  C   UNL A   1      41.152  27.513  33.963  1.00  0.00     0.010 A 
ATOM     41  C   UNL A   1      42.269  28.362  33.970  1.00  0.00    -0.014 A 
BRANCH  41  42
ATOM     42  C   UNL A   1      42.064  29.726  33.493  1.00  0.00     0.031 A 
ATOM     43  C   UNL A   1      41.553  30.720  34.455  1.00  0.00     0.074 A 
ATOM     44  C   UNL A   1      42.329  30.118  32.222  1.00  0.00     0.049 A 
ATOM     45  N   UNL A   1      40.861  31.754  34.122  1.00  0.00    -0.248 NA
ATOM     46  C   UNL A   1      41.726  30.587  35.895  1.00  0.00     0.031 C 
ATOM     47  C   UNL A   1      42.355  31.493  31.717  1.00  0.00     0.029 A 
ATOM     48  N   UNL A   1      42.459  29.335  31.063  1.00  0.00    -0.354 N 
ATOM     49  C   UNL A   1      40.721  32.543  35.237  1.00  0.00     0.074 A 
ATOM     50  C   UNL A   1      41.218  31.740  36.326  1.00  0.00     0.031 C 
ATOM     51  C   UNL A   1      42.177  31.481  30.388  1.00  0.00     0.029 A 
ATOM     52  C   UNL A   1      41.927  30.111  29.996  1.00  0.00     0.049 A 
ATOM     53  H   UNL A   1      42.840  28.429  31.002  1.00  0.00     0.167 HD
ATOM     54  C   UNL A   1      40.307  33.832  35.083  1.00  0.00     0.037 A 
ATOM     55  C   UNL A   1      40.878  29.672  29.240  1.00  0.00     0.037 A 
ATOM     56  C   UNL A   1      40.001  34.123  33.678  1.00  0.00     0.049 A 
ATOM     57  C   UNL A   1      39.631  30.522  29.368  1.00  0.00     0.074 A 
ATOM     58  C   UNL A   1      40.679  34.763  32.652  1.00  0.00     0.029 A 
ATOM     59  N   UNL A   1      38.958  33.446  33.070  1.00  0.00    -0.354 N 
ATOM     60  N   UNL A   1      39.553  31.619  30.069  1.00  0.00    -0.248 NA
ATOM     61  C   UNL A   1      38.337  30.119  28.821  1.00  0.00     0.031 C 
ATOM     62  C   UNL A   1      39.999  34.494  31.429  1.00  0.00     0.029 A 
ATOM     63  C   UNL A   1      38.902  33.702  31.711  1.00  0.00     0.049 A 
ATOM     64  H   UNL A   1      38.332  32.853  33.545  1.00  0.00     0.167 HD
ATOM     65  C   UNL A   1      38.240  32.013  30.158  1.00  0.00     0.074 A 
ATOM     66  C   UNL A   1      37.519  31.033  29.367  1.00  0.00     0.031 C 
ATOM     67  C   UNL A   1      37.847  33.078  30.924  1.00  0.00     0.037 A 
BRANCH  54  68
ATOM     68  C   UNL A   1      40.424  34.892  36.158  1.00  0.00     0.064 A 
ATOM     69  C   UNL A   1      41.553  35.736  36.209  1.00  0.00     0.173 A 
ATOM     70  C   UNL A   1      39.499  35.100  37.200  1.00  0.00     0.173 A 
ATOM     71  F   UNL A   1      42.457  35.756  35.220  1.00  0.00    -0.203 F 
ATOM     72  C   UNL A   1      41.799  36.600  37.280  1.00  0.00     0.198 A 
ATOM     73  C   UNL A   1      39.773  35.912  38.305  1.00  0.00     0.198 A 
ATOM     74  F   UNL A   1      38.263  34.592  37.154  1.00  0.00    -0.203 F 
ATOM     75  F   UNL A   1      42.895  37.372  37.271  1.00  0.00    -0.200 F 
ATOM     76  C   UNL A   1      40.932  36.654  38.350  1.00  0.00     0.200 A 
ATOM     77  F   UNL A   1      38.896  35.973  39.317  1.00  0.00    -0.200 F 
ATOM     78  F   UNL A   1      41.192  37.443  39.401  1.00  0.00    -0.200 F 
ENDBRANCH  54  68
BRANCH  55  79
ATOM     79  C   UNL A   1      40.913  28.192  29.078  1.00  0.00     0.064 A 
ATOM     80  C   UNL A   1      40.040  27.450  29.900  1.00  0.00     0.173 A 
ATOM     81  C   UNL A   1      41.310  27.623  27.864  1.00  0.00     0.173 A 
ATOM     82  F   UNL A   1      39.670  27.938  31.095  1.00  0.00    -0.203 F 
ATOM     83  C   UNL A   1      39.385  26.327  29.407  1.00  0.00     0.198 A 
ATOM     84  C   UNL A   1      40.694  26.464  27.401  1.00  0.00     0.198 A 
ATOM     85  F   UNL A   1      42.159  28.270  27.053  1.00  0.00    -0.203 F 
ATOM     86  F   UNL A   1      38.384  25.775  30.106  1.00  0.00    -0.200 F 
ATOM     87  C   UNL A   1      39.680  25.864  28.136  1.00  0.00     0.200 A 
ATOM     88  F   UNL A   1      40.992  26.003  26.178  1.00  0.00    -0.200 F 
ATOM     89  F   UNL A   1      38.943  24.886  27.593  1.00  0.00    -0.200 F 
ENDBRANCH  55  79
BRANCH  67  90
ATOM     90  C   UNL A   1      36.424  33.588  31.043  1.00  0.00     0.064 A 
ATOM     91  C   UNL A   1      35.633  33.418  32.191  1.00  0.00     0.173 A 
ATOM     92  C   UNL A   1      35.758  34.201  29.951  1.00  0.00     0.173 A 
ATOM     93  F   UNL A   1      36.068  32.696  33.233  1.00  0.00    -0.203 F 
ATOM     94  C   UNL A   1      34.339  33.943  32.290  1.00  0.00     0.198 A 
ATOM     95  C   UNL A   1      34.450  34.676  30.032  1.00  0.00     0.198 A 
ATOM     96  F   UNL A   1      36.347  34.372  28.761  1.00  0.00    -0.203 F 
ATOM     97  F   UNL A   1      33.660  33.820  33.439  1.00  0.00    -0.200 F 
ATOM     98  C   UNL A   1      33.749  34.576  31.213  1.00  0.00     0.200 A 
ATOM     99  F   UNL A   1      33.881  35.236  28.955  1.00  0.00    -0.200 F 
ATOM    100  F   UNL A   1      32.509  35.070  31.306  1.00  0.00    -0.200 F 
ENDBRANCH  67  90
ENDBRANCH  41  42
ENDBRANCH  33  36
ENDBRANCH  31  32
ENDBRANCH   1  31
TORSDOF 11
ENDMDL
