MODEL 1
REMARK VINA RESULT:     -12.8      0.000      0.000
REMARK SMILES O=C(NCCCNC(=O)c1cccnc1-c1cccc(F)c1)c1ccc(-c2c3nc(c(-c4c(F)c(F)c(F)c(F)c4F)c4ccc([nH]4)c(-c4c(F)c(F)c(F)c(F)c4F)c4nc(c(-c5c(F)c(F)c(F)c(F)c5F)c5ccc2[nH]5)C=C4)C=C3)cc1
REMARK SMILES IDX 4 1 3 2 1 3 2 4 23 6 24 7 85 8 25 9 84 10 26 11 27 12 28 13
REMARK SMILES IDX 78 14 29 15 83 16 77 17 79 18 30 19 82 20 76 21 75 22 31 24
REMARK SMILES IDX 63 25 43 26 62 27 44 28 47 29 61 30 80 31 45 32 46 33 60 35
REMARK SMILES IDX 81 36 48 37 32 38 33 39 41 40 34 41 35 42 39 43 42 44 36 45
REMARK SMILES IDX 37 46 40 47 38 48 64 49 65 50 73 51 66 52 67 53 71 54 74 55
REMARK SMILES IDX 68 56 69 57 72 58 70 59 49 60 50 61 58 62 51 63 52 64 56 65
REMARK SMILES IDX 59 66 53 67 54 68 57 69 55 70 5 71 6 72 7 73 8 74 9 76 10 77
REMARK SMILES IDX 11 78 15 79 12 80 14 81 13 82 16 83 17 84 22 85 18 86 20 87
REMARK SMILES IDX 19 88 21 89
REMARK H PARENT 3 5 79 23 47 34 7 75
REMARK Flexibility Score: inf
ROOT
ATOM      1  C   UNL A   1      32.695  32.173  26.878  1.00  0.00     0.118 C 
ENDROOT
BRANCH   1   2
ATOM      2  N   UNL A   1      32.522  33.540  27.352  1.00  0.00    -0.352 N 
ATOM      3  O   UNL A   1      32.731  35.322  28.708  1.00  0.00    -0.269 OA
ATOM      4  C   UNL A   1      33.167  34.233  28.346  1.00  0.00     0.251 C 
ATOM      5  H   UNL A   1      31.827  34.053  26.879  1.00  0.00     0.163 HD
BRANCH   4   6
ATOM      6  C   UNL A   1      34.371  33.672  28.997  1.00  0.00     0.039 A 
ATOM      7  C   UNL A   1      34.284  32.546  29.814  1.00  0.00     0.014 A 
ATOM      8  C   UNL A   1      35.619  34.256  28.749  1.00  0.00     0.014 A 
ATOM      9  C   UNL A   1      35.401  32.105  30.510  1.00  0.00     0.010 A 
ATOM     10  C   UNL A   1      36.766  33.742  29.365  1.00  0.00     0.010 A 
ATOM     11  C   UNL A   1      36.660  32.678  30.271  1.00  0.00    -0.014 A 
BRANCH  11  12
ATOM     12  C   UNL A   1      37.856  32.076  30.914  1.00  0.00     0.031 A 
ATOM     13  C   UNL A   1      38.274  32.458  32.304  1.00  0.00     0.074 A 
ATOM     14  C   UNL A   1      38.544  31.139  30.230  1.00  0.00     0.049 A 
ATOM     15  N   UNL A   1      39.282  32.009  33.010  1.00  0.00    -0.248 NA
ATOM     16  C   UNL A   1      37.467  33.475  32.995  1.00  0.00     0.031 C 
ATOM     17  C   UNL A   1      38.231  30.696  28.868  1.00  0.00     0.029 A 
ATOM     18  N   UNL A   1      39.624  30.373  30.585  1.00  0.00    -0.354 N 
ATOM     19  C   UNL A   1      39.238  32.693  34.216  1.00  0.00     0.074 A 
ATOM     20  C   UNL A   1      38.119  33.607  34.144  1.00  0.00     0.031 C 
ATOM     21  C   UNL A   1      39.061  29.703  28.525  1.00  0.00     0.029 A 
ATOM     22  C   UNL A   1      40.012  29.489  29.608  1.00  0.00     0.049 A 
ATOM     23  H   UNL A   1      40.078  30.450  31.455  1.00  0.00     0.167 HD
ATOM     24  C   UNL A   1      40.057  32.559  35.286  1.00  0.00     0.037 A 
ATOM     25  C   UNL A   1      41.035  28.614  29.575  1.00  0.00     0.037 A 
ATOM     26  C   UNL A   1      41.155  31.629  35.358  1.00  0.00     0.049 A 
ATOM     27  C   UNL A   1      41.942  28.512  30.766  1.00  0.00     0.074 A 
ATOM     28  C   UNL A   1      42.017  31.395  36.416  1.00  0.00     0.029 A 
ATOM     29  N   UNL A   1      41.544  30.780  34.332  1.00  0.00    -0.354 N 
ATOM     30  N   UNL A   1      41.873  29.148  31.910  1.00  0.00    -0.248 NA
ATOM     31  C   UNL A   1      43.072  27.580  30.662  1.00  0.00     0.031 C 
ATOM     32  C   UNL A   1      42.956  30.443  36.014  1.00  0.00     0.029 A 
ATOM     33  C   UNL A   1      42.649  30.041  34.724  1.00  0.00     0.049 A 
ATOM     34  H   UNL A   1      41.100  30.712  33.455  1.00  0.00     0.167 HD
ATOM     35  C   UNL A   1      42.941  28.690  32.665  1.00  0.00     0.074 A 
ATOM     36  C   UNL A   1      43.630  27.702  31.860  1.00  0.00     0.031 C 
ATOM     37  C   UNL A   1      43.321  29.061  33.911  1.00  0.00     0.037 A 
BRANCH  24  38
ATOM     38  C   UNL A   1      39.815  33.428  36.485  1.00  0.00     0.064 A 
ATOM     39  C   UNL A   1      38.871  33.053  37.454  1.00  0.00     0.173 A 
ATOM     40  C   UNL A   1      40.422  34.686  36.612  1.00  0.00     0.173 A 
ATOM     41  F   UNL A   1      38.256  31.864  37.374  1.00  0.00    -0.203 F 
ATOM     42  C   UNL A   1      38.525  33.917  38.490  1.00  0.00     0.198 A 
ATOM     43  C   UNL A   1      40.090  35.538  37.663  1.00  0.00     0.198 A 
ATOM     44  F   UNL A   1      41.337  35.087  35.717  1.00  0.00    -0.203 F 
ATOM     45  F   UNL A   1      37.589  33.555  39.378  1.00  0.00    -0.200 F 
ATOM     46  C   UNL A   1      39.134  35.159  38.593  1.00  0.00     0.200 A 
ATOM     47  F   UNL A   1      40.692  36.731  37.772  1.00  0.00    -0.200 F 
ATOM     48  F   UNL A   1      38.794  35.992  39.586  1.00  0.00    -0.200 F 
ENDBRANCH  24  38
BRANCH  25  49
ATOM     49  C   UNL A   1      41.249  27.780  28.364  1.00  0.00     0.064 A 
ATOM     50  C   UNL A   1      40.619  26.535  28.219  1.00  0.00     0.173 A 
ATOM     51  C   UNL A   1      42.110  28.198  27.341  1.00  0.00     0.173 A 
ATOM     52  F   UNL A   1      39.790  26.086  29.173  1.00  0.00    -0.203 F 
ATOM     53  C   UNL A   1      40.862  25.729  27.109  1.00  0.00     0.198 A 
ATOM     54  C   UNL A   1      42.327  27.406  26.215  1.00  0.00     0.198 A 
ATOM     55  F   UNL A   1      42.721  29.389  27.425  1.00  0.00    -0.203 F 
ATOM     56  F   UNL A   1      40.280  24.526  27.018  1.00  0.00    -0.200 F 
ATOM     57  C   UNL A   1      41.711  26.168  26.105  1.00  0.00     0.200 A 
ATOM     58  F   UNL A   1      43.129  27.844  25.235  1.00  0.00    -0.200 F 
ATOM     59  F   UNL A   1      41.932  25.399  25.031  1.00  0.00    -0.200 F 
ENDBRANCH  25  49
BRANCH  37  60
ATOM     60  C   UNL A   1      44.531  28.392  34.492  1.00  0.00     0.064 A 
ATOM     61  C   UNL A   1      44.401  27.205  35.229  1.00  0.00     0.173 A 
ATOM     62  C   UNL A   1      45.806  28.963  34.380  1.00  0.00     0.173 A 
ATOM     63  F   UNL A   1      43.201  26.624  35.371  1.00  0.00    -0.203 F 
ATOM     64  C   UNL A   1      45.504  26.624  35.847  1.00  0.00     0.198 A 
ATOM     65  C   UNL A   1      46.912  28.363  34.976  1.00  0.00     0.198 A 
ATOM     66  F   UNL A   1      45.982  30.089  33.672  1.00  0.00    -0.203 F 
ATOM     67  F   UNL A   1      45.352  25.509  36.577  1.00  0.00    -0.200 F 
ATOM     68  C   UNL A   1      46.758  27.201  35.717  1.00  0.00     0.200 A 
ATOM     69  F   UNL A   1      48.127  28.907  34.828  1.00  0.00    -0.200 F 
ATOM     70  F   UNL A   1      47.822  26.634  36.305  1.00  0.00    -0.200 F 
ENDBRANCH  37  60
ENDBRANCH  11  12
ENDBRANCH   4   6
ENDBRANCH   1   2
BRANCH   1  71
ATOM     71  C   UNL A   1      31.380  31.514  26.485  1.00  0.00     0.042 C 
BRANCH  71  72
ATOM     72  C   UNL A   1      31.535  30.080  26.005  1.00  0.00     0.118 C 
BRANCH  72  73
ATOM     73  N   UNL A   1      32.093  29.995  24.663  1.00  0.00    -0.352 N 
ATOM     74  C   UNL A   1      31.748  29.181  23.612  1.00  0.00     0.253 C 
ATOM     75  H   UNL A   1      32.834  30.617  24.480  1.00  0.00     0.163 HD
ATOM     76  O   UNL A   1      32.403  29.222  22.572  1.00  0.00    -0.269 OA
BRANCH  74  77
ATOM     77  C   UNL A   1      30.585  28.287  23.731  1.00  0.00     0.066 A 
ATOM     78  C   UNL A   1      30.762  27.026  24.316  1.00  0.00     0.018 A 
ATOM     79  C   UNL A   1      29.301  28.674  23.342  1.00  0.00     0.083 A 
ATOM     80  C   UNL A   1      29.690  26.148  24.400  1.00  0.00     0.021 A 
ATOM     81  N   UNL A   1      28.245  27.814  23.428  1.00  0.00    -0.255 NA
ATOM     82  C   UNL A   1      28.463  26.580  23.934  1.00  0.00     0.112 A 
BRANCH  79  83
ATOM     83  C   UNL A   1      28.930  30.014  22.857  1.00  0.00     0.004 A 
ATOM     84  C   UNL A   1      29.007  31.163  23.664  1.00  0.00     0.010 A 
ATOM     85  C   UNL A   1      28.488  30.170  21.531  1.00  0.00     0.049 A 
ATOM     86  C   UNL A   1      28.635  32.419  23.170  1.00  0.00     0.004 A 
ATOM     87  C   UNL A   1      28.117  31.420  21.048  1.00  0.00     0.123 A 
ATOM     88  C   UNL A   1      28.184  32.546  21.857  1.00  0.00     0.039 A 
ATOM     89  F   UNL A   1      27.688  31.540  19.785  1.00  0.00    -0.207 F 
ENDBRANCH  79  83
ENDBRANCH  74  77
ENDBRANCH  72  73
ENDBRANCH  71  72
ENDBRANCH   1  71
TORSDOF 11
ENDMDL
MODEL 2
REMARK VINA RESULT:     -12.8      6.502     11.677
REMARK SMILES O=C(NCCCNC(=O)c1cccnc1-c1cccc(F)c1)c1ccc(-c2c3nc(c(-c4c(F)c(F)c(F)c(F)c4F)c4ccc([nH]4)c(-c4c(F)c(F)c(F)c(F)c4F)c4nc(c(-c5c(F)c(F)c(F)c(F)c5F)c5ccc2[nH]5)C=C4)C=C3)cc1
REMARK SMILES IDX 4 1 3 2 1 3 2 4 23 6 24 7 85 8 25 9 84 10 26 11 27 12 28 13
REMARK SMILES IDX 78 14 29 15 83 16 77 17 79 18 30 19 82 20 76 21 75 22 31 24
REMARK SMILES IDX 63 25 43 26 62 27 44 28 47 29 61 30 80 31 45 32 46 33 60 35
REMARK SMILES IDX 81 36 48 37 32 38 33 39 41 40 34 41 35 42 39 43 42 44 36 45
REMARK SMILES IDX 37 46 40 47 38 48 64 49 65 50 73 51 66 52 67 53 71 54 74 55
REMARK SMILES IDX 68 56 69 57 72 58 70 59 49 60 50 61 58 62 51 63 52 64 56 65
REMARK SMILES IDX 59 66 53 67 54 68 57 69 55 70 5 71 6 72 7 73 8 74 9 76 10 77
REMARK SMILES IDX 11 78 15 79 12 80 14 81 13 82 16 83 17 84 22 85 18 86 20 87
REMARK SMILES IDX 19 88 21 89
REMARK H PARENT 3 5 79 23 47 34 7 75
REMARK Flexibility Score: inf
ROOT
ATOM      1  C   UNL A   1      38.805  20.283  25.825  1.00  0.00     0.118 C 
ENDROOT
BRANCH   1   2
ATOM      2  N   UNL A   1      39.928  19.360  25.931  1.00  0.00    -0.352 N 
ATOM      3  O   UNL A   1      42.070  18.677  25.992  1.00  0.00    -0.269 OA
ATOM      4  C   UNL A   1      41.267  19.596  26.125  1.00  0.00     0.251 C 
ATOM      5  H   UNL A   1      39.686  18.409  25.851  1.00  0.00     0.163 HD
BRANCH   4   6
ATOM      6  C   UNL A   1      41.752  20.949  26.474  1.00  0.00     0.039 A 
ATOM      7  C   UNL A   1      41.844  21.948  25.507  1.00  0.00     0.014 A 
ATOM      8  C   UNL A   1      42.078  21.238  27.805  1.00  0.00     0.014 A 
ATOM      9  C   UNL A   1      42.412  23.174  25.826  1.00  0.00     0.010 A 
ATOM     10  C   UNL A   1      42.546  22.511  28.148  1.00  0.00     0.010 A 
ATOM     11  C   UNL A   1      42.741  23.481  27.155  1.00  0.00    -0.014 A 
BRANCH  11  12
ATOM     12  C   UNL A   1      43.197  24.855  27.483  1.00  0.00     0.031 A 
ATOM     13  C   UNL A   1      44.595  25.311  27.179  1.00  0.00     0.074 A 
ATOM     14  C   UNL A   1      42.307  25.709  28.028  1.00  0.00     0.049 A 
ATOM     15  N   UNL A   1      45.139  26.484  27.387  1.00  0.00    -0.248 NA
ATOM     16  C   UNL A   1      45.506  24.330  26.570  1.00  0.00     0.031 C 
ATOM     17  C   UNL A   1      40.923  25.371  28.372  1.00  0.00     0.029 A 
ATOM     18  N   UNL A   1      42.415  27.034  28.365  1.00  0.00    -0.354 N 
ATOM     19  C   UNL A   1      46.451  26.380  26.948  1.00  0.00     0.074 A 
ATOM     20  C   UNL A   1      46.635  25.023  26.482  1.00  0.00     0.031 C 
ATOM     21  C   UNL A   1      40.298  26.468  28.818  1.00  0.00     0.029 A 
ATOM     22  C   UNL A   1      41.253  27.568  28.864  1.00  0.00     0.049 A 
ATOM     23  H   UNL A   1      43.246  27.551  28.260  1.00  0.00     0.167 HD
ATOM     24  C   UNL A   1      47.407  27.339  26.931  1.00  0.00     0.037 A 
ATOM     25  C   UNL A   1      40.986  28.803  29.329  1.00  0.00     0.037 A 
ATOM     26  C   UNL A   1      47.208  28.694  27.375  1.00  0.00     0.049 A 
ATOM     27  C   UNL A   1      42.077  29.833  29.324  1.00  0.00     0.074 A 
ATOM     28  C   UNL A   1      48.108  29.746  27.361  1.00  0.00     0.029 A 
ATOM     29  N   UNL A   1      46.028  29.187  27.915  1.00  0.00    -0.354 N 
ATOM     30  N   UNL A   1      43.306  29.726  28.883  1.00  0.00    -0.248 NA
ATOM     31  C   UNL A   1      41.751  31.149  29.889  1.00  0.00     0.031 C 
ATOM     32  C   UNL A   1      47.491  30.859  27.936  1.00  0.00     0.029 A 
ATOM     33  C   UNL A   1      46.188  30.519  28.260  1.00  0.00     0.049 A 
ATOM     34  H   UNL A   1      45.200  28.666  28.035  1.00  0.00     0.167 HD
ATOM     35  C   UNL A   1      43.898  30.960  29.106  1.00  0.00     0.074 A 
ATOM     36  C   UNL A   1      42.886  31.809  29.700  1.00  0.00     0.031 C 
ATOM     37  C   UNL A   1      45.169  31.350  28.849  1.00  0.00     0.037 A 
BRANCH  24  38
ATOM     38  C   UNL A   1      48.770  26.979  26.416  1.00  0.00     0.064 A 
ATOM     39  C   UNL A   1      49.079  27.142  25.055  1.00  0.00     0.173 A 
ATOM     40  C   UNL A   1      49.724  26.360  27.236  1.00  0.00     0.173 A 
ATOM     41  F   UNL A   1      48.198  27.721  24.226  1.00  0.00    -0.203 F 
ATOM     42  C   UNL A   1      50.282  26.674  24.533  1.00  0.00     0.198 A 
ATOM     43  C   UNL A   1      50.936  25.915  26.714  1.00  0.00     0.198 A 
ATOM     44  F   UNL A   1      49.480  26.190  28.544  1.00  0.00    -0.203 F 
ATOM     45  F   UNL A   1      50.536  26.801  23.223  1.00  0.00    -0.200 F 
ATOM     46  C   UNL A   1      51.208  26.060  25.361  1.00  0.00     0.200 A 
ATOM     47  F   UNL A   1      51.839  25.336  27.518  1.00  0.00    -0.200 F 
ATOM     48  F   UNL A   1      52.362  25.603  24.856  1.00  0.00    -0.200 F 
ENDBRANCH  24  38
BRANCH  25  49
ATOM     49  C   UNL A   1      39.627  29.115  29.845  1.00  0.00     0.064 A 
ATOM     50  C   UNL A   1      39.272  28.831  31.173  1.00  0.00     0.173 A 
ATOM     51  C   UNL A   1      38.649  29.675  29.014  1.00  0.00     0.173 A 
ATOM     52  F   UNL A   1      40.171  28.289  32.007  1.00  0.00    -0.203 F 
ATOM     53  C   UNL A   1      37.983  29.072  31.641  1.00  0.00     0.198 A 
ATOM     54  C   UNL A   1      37.369  29.947  29.493  1.00  0.00     0.198 A 
ATOM     55  F   UNL A   1      38.945  29.982  27.743  1.00  0.00    -0.203 F 
ATOM     56  F   UNL A   1      37.660  28.751  32.901  1.00  0.00    -0.200 F 
ATOM     57  C   UNL A   1      37.034  29.636  30.803  1.00  0.00     0.200 A 
ATOM     58  F   UNL A   1      36.461  30.515  28.687  1.00  0.00    -0.200 F 
ATOM     59  F   UNL A   1      35.799  29.883  31.258  1.00  0.00    -0.200 F 
ENDBRANCH  25  49
BRANCH  37  60
ATOM     60  C   UNL A   1      45.542  32.761  29.196  1.00  0.00     0.064 A 
ATOM     61  C   UNL A   1      45.380  33.790  28.256  1.00  0.00     0.173 A 
ATOM     62  C   UNL A   1      46.125  33.080  30.430  1.00  0.00     0.173 A 
ATOM     63  F   UNL A   1      44.833  33.534  27.058  1.00  0.00    -0.203 F 
ATOM     64  C   UNL A   1      45.804  35.086  28.535  1.00  0.00     0.198 A 
ATOM     65  C   UNL A   1      46.523  34.383  30.717  1.00  0.00     0.198 A 
ATOM     66  F   UNL A   1      46.287  32.133  31.365  1.00  0.00    -0.203 F 
ATOM     67  F   UNL A   1      45.672  36.047  27.609  1.00  0.00    -0.200 F 
ATOM     68  C   UNL A   1      46.372  35.382  29.765  1.00  0.00     0.200 A 
ATOM     69  F   UNL A   1      47.047  34.673  31.915  1.00  0.00    -0.200 F 
ATOM     70  F   UNL A   1      46.771  36.632  30.037  1.00  0.00    -0.200 F 
ENDBRANCH  37  60
ENDBRANCH  11  12
ENDBRANCH   4   6
ENDBRANCH   1   2
BRANCH   1  71
ATOM     71  C   UNL A   1      37.710  19.775  24.899  1.00  0.00     0.042 C 
BRANCH  71  72
ATOM     72  C   UNL A   1      36.556  20.750  24.723  1.00  0.00     0.118 C 
BRANCH  72  73
ATOM     73  N   UNL A   1      35.672  20.786  25.880  1.00  0.00    -0.352 N 
ATOM     74  C   UNL A   1      34.305  20.905  25.944  1.00  0.00     0.253 C 
ATOM     75  H   UNL A   1      36.123  20.714  26.751  1.00  0.00     0.163 HD
ATOM     76  O   UNL A   1      33.753  20.986  27.039  1.00  0.00    -0.269 OA
BRANCH  74  77
ATOM     77  C   UNL A   1      33.513  20.910  24.703  1.00  0.00     0.066 A 
ATOM     78  C   UNL A   1      33.232  22.138  24.088  1.00  0.00     0.018 A 
ATOM     79  C   UNL A   1      33.088  19.733  24.082  1.00  0.00     0.083 A 
ATOM     80  C   UNL A   1      32.450  22.172  22.942  1.00  0.00     0.021 A 
ATOM     81  N   UNL A   1      32.323  19.766  22.952  1.00  0.00    -0.255 NA
ATOM     82  C   UNL A   1      32.011  20.970  22.423  1.00  0.00     0.112 A 
BRANCH  79  83
ATOM     83  C   UNL A   1      33.435  18.371  24.519  1.00  0.00     0.004 A 
ATOM     84  C   UNL A   1      34.656  17.755  24.191  1.00  0.00     0.010 A 
ATOM     85  C   UNL A   1      32.522  17.646  25.306  1.00  0.00     0.049 A 
ATOM     86  C   UNL A   1      34.945  16.453  24.617  1.00  0.00     0.004 A 
ATOM     87  C   UNL A   1      32.815  16.352  25.722  1.00  0.00     0.123 A 
ATOM     88  C   UNL A   1      34.018  15.748  25.382  1.00  0.00     0.039 A 
ATOM     89  F   UNL A   1      31.925  15.677  26.461  1.00  0.00    -0.207 F 
ENDBRANCH  79  83
ENDBRANCH  74  77
ENDBRANCH  72  73
ENDBRANCH  71  72
ENDBRANCH   1  71
TORSDOF 11
ENDMDL
MODEL 3
REMARK VINA RESULT:     -12.8      0.276      1.185
REMARK SMILES O=C(NCCCNC(=O)c1cccnc1-c1cccc(F)c1)c1ccc(-c2c3nc(c(-c4c(F)c(F)c(F)c(F)c4F)c4ccc([nH]4)c(-c4c(F)c(F)c(F)c(F)c4F)c4nc(c(-c5c(F)c(F)c(F)c(F)c5F)c5ccc2[nH]5)C=C4)C=C3)cc1
REMARK SMILES IDX 4 1 3 2 1 3 2 4 23 6 24 7 85 8 25 9 84 10 26 11 27 12 28 13
REMARK SMILES IDX 78 14 29 15 83 16 77 17 79 18 30 19 82 20 76 21 75 22 31 24
REMARK SMILES IDX 63 25 43 26 62 27 44 28 47 29 61 30 80 31 45 32 46 33 60 35
REMARK SMILES IDX 81 36 48 37 32 38 33 39 41 40 34 41 35 42 39 43 42 44 36 45
REMARK SMILES IDX 37 46 40 47 38 48 64 49 65 50 73 51 66 52 67 53 71 54 74 55
REMARK SMILES IDX 68 56 69 57 72 58 70 59 49 60 50 61 58 62 51 63 52 64 56 65
REMARK SMILES IDX 59 66 53 67 54 68 57 69 55 70 5 71 6 72 7 73 8 74 9 76 10 77
REMARK SMILES IDX 11 78 15 79 12 80 14 81 13 82 16 83 17 84 22 85 18 86 20 87
REMARK SMILES IDX 19 88 21 89
REMARK H PARENT 3 5 79 23 47 34 7 75
REMARK Flexibility Score: inf
ROOT
ATOM      1  C   UNL A   1      32.682  32.159  26.919  1.00  0.00     0.118 C 
ENDROOT
BRANCH   1   2
ATOM      2  N   UNL A   1      32.556  33.536  27.381  1.00  0.00    -0.352 N 
ATOM      3  O   UNL A   1      32.829  35.321  28.723  1.00  0.00    -0.269 OA
ATOM      4  C   UNL A   1      33.227  34.215  28.369  1.00  0.00     0.251 C 
ATOM      5  H   UNL A   1      31.879  34.068  26.906  1.00  0.00     0.163 HD
BRANCH   4   6
ATOM      6  C   UNL A   1      34.413  33.619  29.022  1.00  0.00     0.039 A 
ATOM      7  C   UNL A   1      34.301  32.461  29.790  1.00  0.00     0.014 A 
ATOM      8  C   UNL A   1      35.670  34.202  28.825  1.00  0.00     0.014 A 
ATOM      9  C   UNL A   1      35.400  31.983  30.492  1.00  0.00     0.010 A 
ATOM     10  C   UNL A   1      36.799  33.655  29.443  1.00  0.00     0.010 A 
ATOM     11  C   UNL A   1      36.667  32.556  30.303  1.00  0.00    -0.014 A 
BRANCH  11  12
ATOM     12  C   UNL A   1      37.845  31.919  30.946  1.00  0.00     0.031 A 
ATOM     13  C   UNL A   1      38.260  32.272  32.345  1.00  0.00     0.074 A 
ATOM     14  C   UNL A   1      38.517  30.977  30.254  1.00  0.00     0.049 A 
ATOM     15  N   UNL A   1      39.252  31.791  33.052  1.00  0.00    -0.248 NA
ATOM     16  C   UNL A   1      37.470  33.297  33.044  1.00  0.00     0.031 C 
ATOM     17  C   UNL A   1      38.205  30.560  28.885  1.00  0.00     0.029 A 
ATOM     18  N   UNL A   1      39.577  30.182  30.606  1.00  0.00    -0.354 N 
ATOM     19  C   UNL A   1      39.215  32.460  34.267  1.00  0.00     0.074 A 
ATOM     20  C   UNL A   1      38.116  33.399  34.199  1.00  0.00     0.031 C 
ATOM     21  C   UNL A   1      39.016  29.554  28.533  1.00  0.00     0.029 A 
ATOM     22  C   UNL A   1      39.954  29.303  29.621  1.00  0.00     0.049 A 
ATOM     23  H   UNL A   1      40.026  30.238  31.481  1.00  0.00     0.167 HD
ATOM     24  C   UNL A   1      40.021  32.293  35.341  1.00  0.00     0.037 A 
ATOM     25  C   UNL A   1      40.958  28.407  29.583  1.00  0.00     0.037 A 
ATOM     26  C   UNL A   1      41.098  31.338  35.408  1.00  0.00     0.049 A 
ATOM     27  C   UNL A   1      41.853  28.269  30.779  1.00  0.00     0.074 A 
ATOM     28  C   UNL A   1      41.947  31.072  36.469  1.00  0.00     0.029 A 
ATOM     29  N   UNL A   1      41.477  30.495  34.373  1.00  0.00    -0.354 N 
ATOM     30  N   UNL A   1      41.789  28.891  31.931  1.00  0.00    -0.248 NA
ATOM     31  C   UNL A   1      42.964  27.314  30.671  1.00  0.00     0.031 C 
ATOM     32  C   UNL A   1      42.868  30.104  36.060  1.00  0.00     0.029 A 
ATOM     33  C   UNL A   1      42.562  29.728  34.763  1.00  0.00     0.049 A 
ATOM     34  H   UNL A   1      41.038  30.449  33.492  1.00  0.00     0.167 HD
ATOM     35  C   UNL A   1      42.841  28.399  32.688  1.00  0.00     0.074 A 
ATOM     36  C   UNL A   1      43.514  27.407  31.874  1.00  0.00     0.031 C 
ATOM     37  C   UNL A   1      43.220  28.744  33.941  1.00  0.00     0.037 A 
BRANCH  24  38
ATOM     38  C   UNL A   1      39.790  33.151  36.550  1.00  0.00     0.064 A 
ATOM     39  C   UNL A   1      38.812  32.797  37.494  1.00  0.00     0.173 A 
ATOM     40  C   UNL A   1      40.442  34.382  36.711  1.00  0.00     0.173 A 
ATOM     41  F   UNL A   1      38.153  31.634  37.381  1.00  0.00    -0.203 F 
ATOM     42  C   UNL A   1      38.479  33.656  38.538  1.00  0.00     0.198 A 
ATOM     43  C   UNL A   1      40.123  35.228  37.770  1.00  0.00     0.198 A 
ATOM     44  F   UNL A   1      41.390  34.762  35.842  1.00  0.00    -0.203 F 
ATOM     45  F   UNL A   1      37.512  33.316  39.401  1.00  0.00    -0.200 F 
ATOM     46  C   UNL A   1      39.133  34.871  38.674  1.00  0.00     0.200 A 
ATOM     47  F   UNL A   1      40.767  36.395  37.912  1.00  0.00    -0.200 F 
ATOM     48  F   UNL A   1      38.807  35.700  39.675  1.00  0.00    -0.200 F 
ENDBRANCH  24  38
BRANCH  25  49
ATOM     49  C   UNL A   1      41.163  27.586  28.361  1.00  0.00     0.064 A 
ATOM     50  C   UNL A   1      40.498  26.362  28.190  1.00  0.00     0.173 A 
ATOM     51  C   UNL A   1      42.049  27.993  27.357  1.00  0.00     0.173 A 
ATOM     52  F   UNL A   1      39.644  25.923  29.126  1.00  0.00    -0.203 F 
ATOM     53  C   UNL A   1      40.733  25.566  27.071  1.00  0.00     0.198 A 
ATOM     54  C   UNL A   1      42.257  27.212  26.221  1.00  0.00     0.198 A 
ATOM     55  F   UNL A   1      42.694  29.164  27.466  1.00  0.00    -0.203 F 
ATOM     56  F   UNL A   1      40.116  24.382  26.954  1.00  0.00    -0.200 F 
ATOM     57  C   UNL A   1      41.606  25.994  26.084  1.00  0.00     0.200 A 
ATOM     58  F   UNL A   1      43.084  27.641  25.258  1.00  0.00    -0.200 F 
ATOM     59  F   UNL A   1      41.819  25.236  25.001  1.00  0.00    -0.200 F 
ENDBRANCH  25  49
BRANCH  37  60
ATOM     60  C   UNL A   1      44.410  28.041  34.522  1.00  0.00     0.064 A 
ATOM     61  C   UNL A   1      45.700  28.563  34.347  1.00  0.00     0.173 A 
ATOM     62  C   UNL A   1      44.280  26.814  35.188  1.00  0.00     0.173 A 
ATOM     63  F   UNL A   1      45.877  29.730  33.709  1.00  0.00    -0.203 F 
ATOM     64  C   UNL A   1      46.819  27.874  34.804  1.00  0.00     0.198 A 
ATOM     65  C   UNL A   1      45.399  26.141  35.670  1.00  0.00     0.198 A 
ATOM     66  F   UNL A   1      43.066  26.283  35.393  1.00  0.00    -0.203 F 
ATOM     67  F   UNL A   1      48.045  28.374  34.594  1.00  0.00    -0.200 F 
ATOM     68  C   UNL A   1      46.667  26.666  35.468  1.00  0.00     0.200 A 
ATOM     69  F   UNL A   1      45.250  24.987  36.335  1.00  0.00    -0.200 F 
ATOM     70  F   UNL A   1      47.745  26.008  35.918  1.00  0.00    -0.200 F 
ENDBRANCH  37  60
ENDBRANCH  11  12
ENDBRANCH   4   6
ENDBRANCH   1   2
BRANCH   1  71
ATOM     71  C   UNL A   1      31.354  31.564  26.473  1.00  0.00     0.042 C 
BRANCH  71  72
ATOM     72  C   UNL A   1      31.464  30.134  25.969  1.00  0.00     0.118 C 
BRANCH  72  73
ATOM     73  N   UNL A   1      32.015  30.055  24.623  1.00  0.00    -0.352 N 
ATOM     74  C   UNL A   1      31.652  29.258  23.565  1.00  0.00     0.253 C 
ATOM     75  H   UNL A   1      32.764  30.668  24.443  1.00  0.00     0.163 HD
ATOM     76  O   UNL A   1      32.302  29.300  22.522  1.00  0.00    -0.269 OA
BRANCH  74  77
ATOM     77  C   UNL A   1      30.476  28.381  23.681  1.00  0.00     0.066 A 
ATOM     78  C   UNL A   1      30.634  27.116  24.265  1.00  0.00     0.018 A 
ATOM     79  C   UNL A   1      29.198  28.786  23.290  1.00  0.00     0.083 A 
ATOM     80  C   UNL A   1      29.550  26.253  24.345  1.00  0.00     0.021 A 
ATOM     81  N   UNL A   1      28.130  27.941  23.373  1.00  0.00    -0.255 NA
ATOM     82  C   UNL A   1      28.330  26.703  23.877  1.00  0.00     0.112 A 
BRANCH  79  83
ATOM     83  C   UNL A   1      28.847  30.132  22.806  1.00  0.00     0.004 A 
ATOM     84  C   UNL A   1      28.929  31.277  23.619  1.00  0.00     0.010 A 
ATOM     85  C   UNL A   1      28.420  30.297  21.477  1.00  0.00     0.049 A 
ATOM     86  C   UNL A   1      28.575  32.539  23.126  1.00  0.00     0.004 A 
ATOM     87  C   UNL A   1      28.068  31.553  20.995  1.00  0.00     0.123 A 
ATOM     88  C   UNL A   1      28.139  32.675  21.809  1.00  0.00     0.039 A 
ATOM     89  F   UNL A   1      27.653  31.683  19.728  1.00  0.00    -0.207 F 
ENDBRANCH  79  83
ENDBRANCH  74  77
ENDBRANCH  72  73
ENDBRANCH  71  72
ENDBRANCH   1  71
TORSDOF 11
ENDMDL
