MODEL 1
REMARK VINA RESULT:     -12.9      0.000      0.000
REMARK SMILES Cn1cc(-c2cc(C(F)(F)F)c3c(C4CC4)nn(CC(=O)NCCCNC(=O)c4ccc(-c5c6nc(c(-c7c(F)c(F)c(F)c(F)c7F)c7ccc([nH]7)c(-c7c(F)c(F)c(F)c(F)c7F)c7nc(c(-c8c(F)c(F)c(F)c(F)c8F)c8ccc5[nH]8)C=C7)C=C6)cc4)c3n2)cn1
REMARK SMILES IDX 24 1 23 2 22 3 20 4 21 5 19 7 18 8 5 9 6 10 93 11 7 12 92 13
REMARK SMILES IDX 12 14 13 15 17 16 4 17 1 18 2 19 3 20 95 21 94 22 8 23 9 24
REMARK SMILES IDX 10 25 11 26 14 27 15 28 16 29 25 30 26 31 27 32 28 34 29 35
REMARK SMILES IDX 30 36 91 37 31 38 90 39 32 40 33 41 34 42 84 43 35 44 89 45
REMARK SMILES IDX 83 46 85 47 36 48 88 49 82 50 81 51 37 53 69 54 49 55 68 56
REMARK SMILES IDX 50 57 53 58 67 59 86 60 51 61 52 62 66 64 87 65 54 66 38 67
REMARK SMILES IDX 39 68 47 69 40 70 41 71 45 72 48 73 42 74 43 75 46 76 44 77
REMARK SMILES IDX 70 78 71 79 79 80 72 81 73 82 77 83 80 84 74 85 75 86 78 87
REMARK SMILES IDX 76 88 55 89 56 90 64 91 57 92 58 93 62 94 65 95 59 96 60 97
REMARK SMILES IDX 63 98 61 99
REMARK H PARENT 22 6 26 33 85 52 53 63
REMARK Flexibility Score: inf
ROOT
ATOM      1  C   UNL A   1      33.805  31.190  27.558  1.00  0.00     0.042 C 
ENDROOT
BRANCH   1   2
ATOM      2  C   UNL A   1      34.192  29.829  26.977  1.00  0.00     0.117 C 
BRANCH   2   3
ATOM      3  N   UNL A   1      33.908  29.714  25.557  1.00  0.00    -0.354 N 
ATOM      4  C   UNL A   1      33.039  28.841  24.963  1.00  0.00     0.241 C 
ATOM      5  O   UNL A   1      32.854  28.896  23.747  1.00  0.00    -0.273 OA
ATOM      6  H   UNL A   1      34.391  30.330  24.960  1.00  0.00     0.163 HD
BRANCH   4   7
ATOM      7  C   UNL A   1      32.282  27.898  25.842  1.00  0.00     0.246 C 
BRANCH   7   8
ATOM      8  N   UNL A   1      32.972  26.641  26.054  1.00  0.00    -0.237 N 
ATOM      9  C   UNL A   1      30.614  24.261  25.887  1.00  0.00     0.077 A 
ATOM     10  C   UNL A   1      31.336  23.087  26.085  1.00  0.00     0.043 A 
ATOM     11  N   UNL A   1      31.000  25.372  26.557  1.00  0.00    -0.228 NA
ATOM     12  C   UNL A   1      32.671  23.182  26.556  1.00  0.00     0.071 A 
ATOM     13  C   UNL A   1      32.332  25.501  26.428  1.00  0.00     0.159 A 
ATOM     14  C   UNL A   1      33.227  24.450  26.306  1.00  0.00     0.055 A 
ATOM     15  C   UNL A   1      34.343  25.061  25.672  1.00  0.00     0.076 A 
ATOM     16  N   UNL A   1      34.228  26.401  25.609  1.00  0.00    -0.175 NA
BRANCH   9  17
ATOM     17  C   UNL A   1      30.232  24.707  24.520  1.00  0.00     0.038 A 
ATOM     18  C   UNL A   1      32.257  25.851  21.809  1.00  0.00     0.173 C 
ATOM     19  N   UNL A   1      31.129  25.511  22.657  1.00  0.00    -0.275 N 
ATOM     20  C   UNL A   1      31.023  24.375  23.421  1.00  0.00     0.118 A 
ATOM     21  N   UNL A   1      30.251  26.462  23.024  1.00  0.00    -0.181 NA
ATOM     22  C   UNL A   1      29.758  26.005  24.181  1.00  0.00     0.145 A 
ENDBRANCH   9  17
BRANCH  12  23
ATOM     23  C   UNL A   1      33.276  22.158  27.475  1.00  0.00     0.417 C 
ATOM     24  F   UNL A   1      33.578  20.965  26.910  1.00  0.00    -0.166 F 
ATOM     25  F   UNL A   1      34.449  22.609  28.011  1.00  0.00    -0.166 F 
ATOM     26  F   UNL A   1      32.481  21.867  28.543  1.00  0.00    -0.166 F 
ENDBRANCH  12  23
BRANCH  15  27
ATOM     27  C   UNL A   1      35.444  24.411  24.831  1.00  0.00     0.041 C 
ATOM     28  C   UNL A   1      35.707  22.932  24.735  1.00  0.00     0.011 C 
ATOM     29  C   UNL A   1      35.026  23.613  23.602  1.00  0.00     0.011 C 
ENDBRANCH  15  27
ENDBRANCH   7   8
ENDBRANCH   4   7
ENDBRANCH   2   3
ENDBRANCH   1   2
BRANCH   1  30
ATOM     30  C   UNL A   1      35.030  31.974  27.949  1.00  0.00     0.118 C 
BRANCH  30  31
ATOM     31  N   UNL A   1      34.885  32.548  29.285  1.00  0.00    -0.352 N 
ATOM     32  C   UNL A   1      35.574  32.228  30.433  1.00  0.00     0.251 C 
ATOM     33  H   UNL A   1      34.205  33.255  29.377  1.00  0.00     0.163 HD
ATOM     34  O   UNL A   1      35.176  32.566  31.528  1.00  0.00    -0.269 OA
BRANCH  32  35
ATOM     35  C   UNL A   1      36.821  31.468  30.280  1.00  0.00     0.039 A 
ATOM     36  C   UNL A   1      38.037  32.117  30.076  1.00  0.00     0.014 A 
ATOM     37  C   UNL A   1      36.743  30.079  30.375  1.00  0.00     0.014 A 
ATOM     38  C   UNL A   1      39.180  31.339  29.984  1.00  0.00     0.010 A 
ATOM     39  C   UNL A   1      37.879  29.344  30.519  1.00  0.00     0.010 A 
ATOM     40  C   UNL A   1      39.078  29.954  30.204  1.00  0.00    -0.014 A 
BRANCH  40  41
ATOM     41  C   UNL A   1      40.238  29.097  30.164  1.00  0.00     0.031 A 
ATOM     42  C   UNL A   1      40.808  28.846  31.499  1.00  0.00     0.074 A 
ATOM     43  C   UNL A   1      40.634  28.467  29.038  1.00  0.00     0.049 A 
ATOM     44  N   UNL A   1      41.844  29.422  32.005  1.00  0.00    -0.248 NA
ATOM     45  C   UNL A   1      40.051  28.024  32.456  1.00  0.00     0.031 C 
ATOM     46  C   UNL A   1      39.933  28.378  27.748  1.00  0.00     0.029 A 
ATOM     47  N   UNL A   1      41.740  27.702  28.830  1.00  0.00    -0.354 N 
ATOM     48  C   UNL A   1      42.024  28.825  33.244  1.00  0.00     0.074 A 
ATOM     49  C   UNL A   1      40.786  28.164  33.563  1.00  0.00     0.031 C 
ATOM     50  C   UNL A   1      40.516  27.434  26.975  1.00  0.00     0.029 A 
ATOM     51  C   UNL A   1      41.733  26.999  27.631  1.00  0.00     0.049 A 
ATOM     52  H   UNL A   1      42.482  27.651  29.475  1.00  0.00     0.167 HD
ATOM     53  C   UNL A   1      43.286  28.647  33.723  1.00  0.00     0.037 A 
ATOM     54  C   UNL A   1      42.686  26.132  27.213  1.00  0.00     0.037 A 
ATOM     55  C   UNL A   1      44.242  29.364  32.918  1.00  0.00     0.049 A 
ATOM     56  C   UNL A   1      43.931  26.493  27.931  1.00  0.00     0.074 A 
ATOM     57  C   UNL A   1      44.686  30.664  32.816  1.00  0.00     0.029 A 
ATOM     58  N   UNL A   1      44.548  28.736  31.739  1.00  0.00    -0.354 N 
ATOM     59  N   UNL A   1      44.557  27.623  27.752  1.00  0.00    -0.248 NA
ATOM     60  C   UNL A   1      44.297  25.754  29.136  1.00  0.00     0.031 C 
ATOM     61  C   UNL A   1      45.173  30.822  31.482  1.00  0.00     0.029 A 
ATOM     62  C   UNL A   1      45.061  29.606  30.815  1.00  0.00     0.049 A 
ATOM     63  H   UNL A   1      44.415  27.774  31.576  1.00  0.00     0.167 HD
ATOM     64  C   UNL A   1      45.063  27.930  28.999  1.00  0.00     0.074 A 
ATOM     65  C   UNL A   1      45.028  26.684  29.754  1.00  0.00     0.031 C 
ATOM     66  C   UNL A   1      45.143  29.221  29.424  1.00  0.00     0.037 A 
BRANCH  53  67
ATOM     67  C   UNL A   1      43.715  27.484  34.576  1.00  0.00     0.064 A 
ATOM     68  C   UNL A   1      43.763  26.196  34.014  1.00  0.00     0.173 A 
ATOM     69  C   UNL A   1      43.809  27.542  35.984  1.00  0.00     0.173 A 
ATOM     70  F   UNL A   1      43.627  26.026  32.690  1.00  0.00    -0.203 F 
ATOM     71  C   UNL A   1      43.881  25.050  34.807  1.00  0.00     0.198 A 
ATOM     72  C   UNL A   1      43.984  26.403  36.766  1.00  0.00     0.198 A 
ATOM     73  F   UNL A   1      43.621  28.682  36.659  1.00  0.00    -0.203 F 
ATOM     74  F   UNL A   1      43.829  23.838  34.238  1.00  0.00    -0.200 F 
ATOM     75  C   UNL A   1      44.000  25.156  36.181  1.00  0.00     0.200 A 
ATOM     76  F   UNL A   1      44.062  26.526  38.100  1.00  0.00    -0.200 F 
ATOM     77  F   UNL A   1      44.081  24.059  36.945  1.00  0.00    -0.200 F 
ENDBRANCH  53  67
BRANCH  54  78
ATOM     78  C   UNL A   1      42.527  24.826  26.534  1.00  0.00     0.064 A 
ATOM     79  C   UNL A   1      43.238  24.553  25.354  1.00  0.00     0.173 A 
ATOM     80  C   UNL A   1      41.972  23.721  27.207  1.00  0.00     0.173 A 
ATOM     81  F   UNL A   1      43.815  25.551  24.669  1.00  0.00    -0.203 F 
ATOM     82  C   UNL A   1      43.451  23.243  24.913  1.00  0.00     0.198 A 
ATOM     83  C   UNL A   1      42.184  22.413  26.764  1.00  0.00     0.198 A 
ATOM     84  F   UNL A   1      41.312  23.883  28.362  1.00  0.00    -0.203 F 
ATOM     85  F   UNL A   1      44.215  23.016  23.835  1.00  0.00    -0.200 F 
ATOM     86  C   UNL A   1      42.944  22.174  25.632  1.00  0.00     0.200 A 
ATOM     87  F   UNL A   1      41.718  21.384  27.485  1.00  0.00    -0.200 F 
ATOM     88  F   UNL A   1      43.225  20.916  25.264  1.00  0.00    -0.200 F 
ENDBRANCH  54  78
BRANCH  66  89
ATOM     89  C   UNL A   1      45.183  30.295  28.383  1.00  0.00     0.064 A 
ATOM     90  C   UNL A   1      44.068  31.020  27.934  1.00  0.00     0.173 A 
ATOM     91  C   UNL A   1      46.437  30.652  27.871  1.00  0.00     0.173 A 
ATOM     92  F   UNL A   1      42.844  30.774  28.418  1.00  0.00    -0.203 F 
ATOM     93  C   UNL A   1      44.208  32.046  26.998  1.00  0.00     0.198 A 
ATOM     94  C   UNL A   1      46.578  31.695  26.964  1.00  0.00     0.198 A 
ATOM     95  F   UNL A   1      47.538  30.007  28.288  1.00  0.00    -0.203 F 
ATOM     96  F   UNL A   1      43.129  32.724  26.575  1.00  0.00    -0.200 F 
ATOM     97  C   UNL A   1      45.463  32.389  26.522  1.00  0.00     0.200 A 
ATOM     98  F   UNL A   1      47.800  32.042  26.535  1.00  0.00    -0.200 F 
ATOM     99  F   UNL A   1      45.604  33.399  25.652  1.00  0.00    -0.200 F 
ENDBRANCH  66  89
ENDBRANCH  40  41
ENDBRANCH  32  35
ENDBRANCH  30  31
ENDBRANCH   1  30
TORSDOF 14
ENDMDL
MODEL 2
REMARK VINA RESULT:     -12.9      3.566      8.710
REMARK SMILES Cn1cc(-c2cc(C(F)(F)F)c3c(C4CC4)nn(CC(=O)NCCCNC(=O)c4ccc(-c5c6nc(c(-c7c(F)c(F)c(F)c(F)c7F)c7ccc([nH]7)c(-c7c(F)c(F)c(F)c(F)c7F)c7nc(c(-c8c(F)c(F)c(F)c(F)c8F)c8ccc5[nH]8)C=C7)C=C6)cc4)c3n2)cn1
REMARK SMILES IDX 24 1 23 2 22 3 20 4 21 5 19 7 18 8 5 9 6 10 93 11 7 12 92 13
REMARK SMILES IDX 12 14 13 15 17 16 4 17 1 18 2 19 3 20 95 21 94 22 8 23 9 24
REMARK SMILES IDX 10 25 11 26 14 27 15 28 16 29 25 30 26 31 27 32 28 34 29 35
REMARK SMILES IDX 30 36 91 37 31 38 90 39 32 40 33 41 34 42 84 43 35 44 89 45
REMARK SMILES IDX 83 46 85 47 36 48 88 49 82 50 81 51 37 53 69 54 49 55 68 56
REMARK SMILES IDX 50 57 53 58 67 59 86 60 51 61 52 62 66 64 87 65 54 66 38 67
REMARK SMILES IDX 39 68 47 69 40 70 41 71 45 72 48 73 42 74 43 75 46 76 44 77
REMARK SMILES IDX 70 78 71 79 79 80 72 81 73 82 77 83 80 84 74 85 75 86 78 87
REMARK SMILES IDX 76 88 55 89 56 90 64 91 57 92 58 93 62 94 65 95 59 96 60 97
REMARK SMILES IDX 63 98 61 99
REMARK H PARENT 22 6 26 33 85 52 53 63
REMARK Flexibility Score: inf
ROOT
ATOM      1  C   UNL A   1      38.891  21.825  25.991  1.00  0.00     0.042 C 
ENDROOT
BRANCH   1   2
ATOM      2  C   UNL A   1      37.746  22.813  25.757  1.00  0.00     0.117 C 
BRANCH   2   3
ATOM      3  N   UNL A   1      36.501  22.398  26.380  1.00  0.00    -0.354 N 
ATOM      4  C   UNL A   1      35.243  22.512  25.854  1.00  0.00     0.241 C 
ATOM      5  O   UNL A   1      34.279  22.061  26.474  1.00  0.00    -0.273 OA
ATOM      6  H   UNL A   1      36.569  21.991  27.274  1.00  0.00     0.163 HD
BRANCH   4   7
ATOM      7  C   UNL A   1      35.104  23.117  24.494  1.00  0.00     0.246 C 
BRANCH   7   8
ATOM      8  N   UNL A   1      34.736  24.518  24.531  1.00  0.00    -0.237 N 
ATOM      9  C   UNL A   1      32.325  24.892  22.228  1.00  0.00     0.077 A 
ATOM     10  C   UNL A   1      32.008  26.245  22.319  1.00  0.00     0.043 A 
ATOM     11  N   UNL A   1      33.613  24.521  22.410  1.00  0.00    -0.228 NA
ATOM     12  C   UNL A   1      32.876  27.097  23.048  1.00  0.00     0.071 A 
ATOM     13  C   UNL A   1      34.077  25.135  23.513  1.00  0.00     0.159 A 
ATOM     14  C   UNL A   1      33.671  26.381  23.962  1.00  0.00     0.055 A 
ATOM     15  C   UNL A   1      33.993  26.337  25.346  1.00  0.00     0.076 A 
ATOM     16  N   UNL A   1      34.724  25.252  25.668  1.00  0.00    -0.175 NA
BRANCH   9  17
ATOM     17  C   UNL A   1      31.492  23.860  22.903  1.00  0.00     0.038 A 
ATOM     18  C   UNL A   1      30.962  23.227  26.379  1.00  0.00     0.173 C 
ATOM     19  N   UNL A   1      30.967  23.127  24.931  1.00  0.00    -0.275 N 
ATOM     20  C   UNL A   1      30.780  24.173  24.062  1.00  0.00     0.118 A 
ATOM     21  N   UNL A   1      31.506  22.049  24.332  1.00  0.00    -0.181 NA
ATOM     22  C   UNL A   1      31.880  22.511  23.132  1.00  0.00     0.145 A 
ENDBRANCH   9  17
BRANCH  12  23
ATOM     23  C   UNL A   1      33.120  28.527  22.652  1.00  0.00     0.417 C 
ATOM     24  F   UNL A   1      33.615  29.330  23.625  1.00  0.00    -0.166 F 
ATOM     25  F   UNL A   1      34.020  28.609  21.628  1.00  0.00    -0.166 F 
ATOM     26  F   UNL A   1      31.998  29.151  22.197  1.00  0.00    -0.166 F 
ENDBRANCH  12  23
BRANCH  15  27
ATOM     27  C   UNL A   1      33.396  27.147  26.498  1.00  0.00     0.041 C 
ATOM     28  C   UNL A   1      32.472  28.326  26.345  1.00  0.00     0.011 C 
ATOM     29  C   UNL A   1      31.901  27.017  26.762  1.00  0.00     0.011 C 
ENDBRANCH  15  27
ENDBRANCH   7   8
ENDBRANCH   4   7
ENDBRANCH   2   3
ENDBRANCH   1   2
BRANCH   1  30
ATOM     30  C   UNL A   1      39.872  22.371  26.995  1.00  0.00     0.118 C 
BRANCH  30  31
ATOM     31  N   UNL A   1      41.245  22.251  26.510  1.00  0.00    -0.352 N 
ATOM     32  C   UNL A   1      42.176  23.247  26.321  1.00  0.00     0.251 C 
ATOM     33  H   UNL A   1      41.543  21.338  26.289  1.00  0.00     0.163 HD
ATOM     34  O   UNL A   1      43.174  23.065  25.654  1.00  0.00    -0.269 OA
BRANCH  32  35
ATOM     35  C   UNL A   1      41.921  24.539  26.969  1.00  0.00     0.039 A 
ATOM     36  C   UNL A   1      42.451  24.831  28.224  1.00  0.00     0.014 A 
ATOM     37  C   UNL A   1      41.153  25.469  26.268  1.00  0.00     0.014 A 
ATOM     38  C   UNL A   1      42.205  26.087  28.756  1.00  0.00     0.010 A 
ATOM     39  C   UNL A   1      41.112  26.764  26.681  1.00  0.00     0.010 A 
ATOM     40  C   UNL A   1      41.530  27.036  27.969  1.00  0.00    -0.014 A 
BRANCH  40  41
ATOM     41  C   UNL A   1      41.282  28.374  28.451  1.00  0.00     0.031 A 
ATOM     42  C   UNL A   1      42.291  29.343  27.990  1.00  0.00     0.074 A 
ATOM     43  C   UNL A   1      40.150  28.709  29.104  1.00  0.00     0.049 A 
ATOM     44  N   UNL A   1      43.284  29.793  28.678  1.00  0.00    -0.248 NA
ATOM     45  C   UNL A   1      42.336  29.705  26.565  1.00  0.00     0.031 C 
ATOM     46  C   UNL A   1      38.938  27.901  29.303  1.00  0.00     0.029 A 
ATOM     47  N   UNL A   1      39.816  29.895  29.681  1.00  0.00    -0.354 N 
ATOM     48  C   UNL A   1      43.915  30.710  27.850  1.00  0.00     0.074 A 
ATOM     49  C   UNL A   1      43.448  30.444  26.515  1.00  0.00     0.031 C 
ATOM     50  C   UNL A   1      37.934  28.685  29.756  1.00  0.00     0.029 A 
ATOM     51  C   UNL A   1      38.481  29.992  30.061  1.00  0.00     0.049 A 
ATOM     52  H   UNL A   1      40.464  30.624  29.819  1.00  0.00     0.167 HD
ATOM     53  C   UNL A   1      44.493  31.815  28.395  1.00  0.00     0.037 A 
ATOM     54  C   UNL A   1      37.888  31.080  30.607  1.00  0.00     0.037 A 
ATOM     55  C   UNL A   1      44.553  31.703  29.830  1.00  0.00     0.049 A 
ATOM     56  C   UNL A   1      38.965  31.883  31.231  1.00  0.00     0.074 A 
ATOM     57  C   UNL A   1      45.365  31.078  30.751  1.00  0.00     0.029 A 
ATOM     58  N   UNL A   1      43.359  31.962  30.451  1.00  0.00    -0.354 N 
ATOM     59  N   UNL A   1      39.664  31.469  32.253  1.00  0.00    -0.248 NA
ATOM     60  C   UNL A   1      39.533  33.008  30.494  1.00  0.00     0.031 C 
ATOM     61  C   UNL A   1      44.569  30.871  31.919  1.00  0.00     0.029 A 
ATOM     62  C   UNL A   1      43.306  31.416  31.706  1.00  0.00     0.049 A 
ATOM     63  H   UNL A   1      42.625  32.478  30.044  1.00  0.00     0.167 HD
ATOM     64  C   UNL A   1      40.924  31.987  32.031  1.00  0.00     0.074 A 
ATOM     65  C   UNL A   1      40.745  33.051  31.052  1.00  0.00     0.031 C 
ATOM     66  C   UNL A   1      42.039  31.294  32.391  1.00  0.00     0.037 A 
BRANCH  53  67
ATOM     67  C   UNL A   1      44.556  33.160  27.723  1.00  0.00     0.064 A 
ATOM     68  C   UNL A   1      45.745  33.555  27.082  1.00  0.00     0.173 A 
ATOM     69  C   UNL A   1      43.601  34.180  27.925  1.00  0.00     0.173 A 
ATOM     70  F   UNL A   1      46.740  32.677  26.891  1.00  0.00    -0.203 F 
ATOM     71  C   UNL A   1      45.962  34.879  26.687  1.00  0.00     0.198 A 
ATOM     72  C   UNL A   1      43.797  35.484  27.479  1.00  0.00     0.198 A 
ATOM     73  F   UNL A   1      42.498  33.981  28.657  1.00  0.00    -0.203 F 
ATOM     74  F   UNL A   1      47.145  35.232  26.164  1.00  0.00    -0.200 F 
ATOM     75  C   UNL A   1      44.985  35.840  26.878  1.00  0.00     0.200 A 
ATOM     76  F   UNL A   1      42.851  36.407  27.705  1.00  0.00    -0.200 F 
ATOM     77  F   UNL A   1      45.204  37.114  26.529  1.00  0.00    -0.200 F 
ENDBRANCH  53  67
BRANCH  54  78
ATOM     78  C   UNL A   1      36.550  31.651  30.328  1.00  0.00     0.064 A 
ATOM     79  C   UNL A   1      35.725  32.065  31.388  1.00  0.00     0.173 A 
ATOM     80  C   UNL A   1      36.216  32.125  29.046  1.00  0.00     0.173 A 
ATOM     81  F   UNL A   1      35.993  31.674  32.642  1.00  0.00    -0.203 F 
ATOM     82  C   UNL A   1      34.673  32.964  31.189  1.00  0.00     0.198 A 
ATOM     83  C   UNL A   1      35.162  33.021  28.849  1.00  0.00     0.198 A 
ATOM     84  F   UNL A   1      36.970  31.814  27.982  1.00  0.00    -0.203 F 
ATOM     85  F   UNL A   1      33.967  33.410  32.238  1.00  0.00    -0.200 F 
ATOM     86  C   UNL A   1      34.408  33.460  29.923  1.00  0.00     0.200 A 
ATOM     87  F   UNL A   1      34.936  33.521  27.626  1.00  0.00    -0.200 F 
ATOM     88  F   UNL A   1      33.462  34.392  29.746  1.00  0.00    -0.200 F 
ENDBRANCH  54  78
BRANCH  66  89
ATOM     89  C   UNL A   1      41.899  30.259  33.463  1.00  0.00     0.064 A 
ATOM     90  C   UNL A   1      41.640  28.899  33.237  1.00  0.00     0.173 A 
ATOM     91  C   UNL A   1      42.115  30.667  34.786  1.00  0.00     0.173 A 
ATOM     92  F   UNL A   1      41.479  28.423  31.996  1.00  0.00    -0.203 F 
ATOM     93  C   UNL A   1      41.583  27.992  34.298  1.00  0.00     0.198 A 
ATOM     94  C   UNL A   1      42.090  29.758  35.836  1.00  0.00     0.198 A 
ATOM     95  F   UNL A   1      42.393  31.953  35.052  1.00  0.00    -0.203 F 
ATOM     96  F   UNL A   1      41.328  26.696  34.063  1.00  0.00    -0.200 F 
ATOM     97  C   UNL A   1      41.817  28.422  35.594  1.00  0.00     0.200 A 
ATOM     98  F   UNL A   1      42.351  30.176  37.083  1.00  0.00    -0.200 F 
ATOM     99  F   UNL A   1      41.800  27.547  36.609  1.00  0.00    -0.200 F 
ENDBRANCH  66  89
ENDBRANCH  40  41
ENDBRANCH  32  35
ENDBRANCH  30  31
ENDBRANCH   1  30
TORSDOF 14
ENDMDL
MODEL 3
REMARK VINA RESULT:     -12.5      3.329      8.474
REMARK SMILES Cn1cc(-c2cc(C(F)(F)F)c3c(C4CC4)nn(CC(=O)NCCCNC(=O)c4ccc(-c5c6nc(c(-c7c(F)c(F)c(F)c(F)c7F)c7ccc([nH]7)c(-c7c(F)c(F)c(F)c(F)c7F)c7nc(c(-c8c(F)c(F)c(F)c(F)c8F)c8ccc5[nH]8)C=C7)C=C6)cc4)c3n2)cn1
REMARK SMILES IDX 24 1 23 2 22 3 20 4 21 5 19 7 18 8 5 9 6 10 93 11 7 12 92 13
REMARK SMILES IDX 12 14 13 15 17 16 4 17 1 18 2 19 3 20 95 21 94 22 8 23 9 24
REMARK SMILES IDX 10 25 11 26 14 27 15 28 16 29 25 30 26 31 27 32 28 34 29 35
REMARK SMILES IDX 30 36 91 37 31 38 90 39 32 40 33 41 34 42 84 43 35 44 89 45
REMARK SMILES IDX 83 46 85 47 36 48 88 49 82 50 81 51 37 53 69 54 49 55 68 56
REMARK SMILES IDX 50 57 53 58 67 59 86 60 51 61 52 62 66 64 87 65 54 66 38 67
REMARK SMILES IDX 39 68 47 69 40 70 41 71 45 72 48 73 42 74 43 75 46 76 44 77
REMARK SMILES IDX 70 78 71 79 79 80 72 81 73 82 77 83 80 84 74 85 75 86 78 87
REMARK SMILES IDX 76 88 55 89 56 90 64 91 57 92 58 93 62 94 65 95 59 96 60 97
REMARK SMILES IDX 63 98 61 99
REMARK H PARENT 22 6 26 33 85 52 53 63
REMARK Flexibility Score: inf
ROOT
ATOM      1  C   UNL A   1      39.075  21.522  26.054  1.00  0.00     0.042 C 
ENDROOT
BRANCH   1   2
ATOM      2  C   UNL A   1      37.744  22.226  25.785  1.00  0.00     0.117 C 
BRANCH   2   3
ATOM      3  N   UNL A   1      37.455  22.374  24.369  1.00  0.00    -0.354 N 
ATOM      4  C   UNL A   1      36.482  23.154  23.807  1.00  0.00     0.241 C 
ATOM      5  O   UNL A   1      36.389  23.227  22.581  1.00  0.00    -0.273 OA
ATOM      6  H   UNL A   1      38.019  21.859  23.747  1.00  0.00     0.163 HD
BRANCH   4   7
ATOM      7  C   UNL A   1      35.612  23.956  24.722  1.00  0.00     0.246 C 
BRANCH   7   8
ATOM      8  N   UNL A   1      34.403  23.260  25.112  1.00  0.00    -0.237 N 
ATOM      9  C   UNL A   1      31.938  25.527  24.924  1.00  0.00     0.077 A 
ATOM     10  C   UNL A   1      30.810  24.800  25.296  1.00  0.00     0.043 A 
ATOM     11  N   UNL A   1      33.115  25.240  25.527  1.00  0.00    -0.228 NA
ATOM     12  C   UNL A   1      30.992  23.523  25.887  1.00  0.00     0.071 A 
ATOM     13  C   UNL A   1      33.278  23.905  25.521  1.00  0.00     0.159 A 
ATOM     14  C   UNL A   1      32.252  22.977  25.582  1.00  0.00     0.055 A 
ATOM     15  C   UNL A   1      32.843  21.817  25.011  1.00  0.00     0.076 A 
ATOM     16  N   UNL A   1      34.169  21.959  24.818  1.00  0.00    -0.175 NA
BRANCH   9  17
ATOM     17  C   UNL A   1      32.251  25.779  23.491  1.00  0.00     0.038 A 
ATOM     18  C   UNL A   1      33.197  23.512  20.897  1.00  0.00     0.173 C 
ATOM     19  N   UNL A   1      32.907  24.713  21.659  1.00  0.00    -0.275 N 
ATOM     20  C   UNL A   1      31.841  24.877  22.508  1.00  0.00     0.118 A 
ATOM     21  N   UNL A   1      33.866  25.637  21.850  1.00  0.00    -0.181 NA
ATOM     22  C   UNL A   1      33.502  26.236  22.991  1.00  0.00     0.145 A 
ENDBRANCH   9  17
BRANCH  12  23
ATOM     23  C   UNL A   1      30.072  22.989  26.950  1.00  0.00     0.417 C 
ATOM     24  F   UNL A   1      29.126  23.850  27.396  1.00  0.00    -0.166 F 
ATOM     25  F   UNL A   1      29.382  21.898  26.502  1.00  0.00    -0.166 F 
ATOM     26  F   UNL A   1      30.735  22.563  28.062  1.00  0.00    -0.166 F 
ENDBRANCH  12  23
BRANCH  15  27
ATOM     27  C   UNL A   1      32.162  20.620  24.345  1.00  0.00     0.041 C 
ATOM     28  C   UNL A   1      32.849  19.599  23.479  1.00  0.00     0.011 C 
ATOM     29  C   UNL A   1      32.487  19.228  24.873  1.00  0.00     0.011 C 
ENDBRANCH  15  27
ENDBRANCH   7   8
ENDBRANCH   4   7
ENDBRANCH   2   3
ENDBRANCH   1   2
BRANCH   1  30
ATOM     30  C   UNL A   1      39.970  22.378  26.912  1.00  0.00     0.118 C 
BRANCH  30  31
ATOM     31  N   UNL A   1      41.372  22.226  26.527  1.00  0.00    -0.352 N 
ATOM     32  C   UNL A   1      42.344  23.195  26.436  1.00  0.00     0.251 C 
ATOM     33  H   UNL A   1      41.658  21.310  26.304  1.00  0.00     0.163 HD
ATOM     34  O   UNL A   1      43.383  22.998  25.841  1.00  0.00    -0.269 OA
BRANCH  32  35
ATOM     35  C   UNL A   1      42.080  24.479  27.098  1.00  0.00     0.039 A 
ATOM     36  C   UNL A   1      42.542  24.730  28.388  1.00  0.00     0.014 A 
ATOM     37  C   UNL A   1      41.375  25.441  26.376  1.00  0.00     0.014 A 
ATOM     38  C   UNL A   1      42.293  25.979  28.934  1.00  0.00     0.010 A 
ATOM     39  C   UNL A   1      41.338  26.728  26.816  1.00  0.00     0.010 A 
ATOM     40  C   UNL A   1      41.686  26.961  28.132  1.00  0.00    -0.014 A 
BRANCH  40  41
ATOM     41  C   UNL A   1      41.440  28.294  28.630  1.00  0.00     0.031 A 
ATOM     42  C   UNL A   1      42.439  29.271  28.165  1.00  0.00     0.074 A 
ATOM     43  C   UNL A   1      40.315  28.618  29.302  1.00  0.00     0.049 A 
ATOM     44  N   UNL A   1      43.440  29.718  28.843  1.00  0.00    -0.248 NA
ATOM     45  C   UNL A   1      42.463  29.646  26.742  1.00  0.00     0.031 C 
ATOM     46  C   UNL A   1      39.109  27.803  29.510  1.00  0.00     0.029 A 
ATOM     47  N   UNL A   1      39.985  29.797  29.895  1.00  0.00    -0.354 N 
ATOM     48  C   UNL A   1      44.056  30.645  28.016  1.00  0.00     0.074 A 
ATOM     49  C   UNL A   1      43.572  30.390  26.685  1.00  0.00     0.031 C 
ATOM     50  C   UNL A   1      38.108  28.580  29.984  1.00  0.00     0.029 A 
ATOM     51  C   UNL A   1      38.655  29.885  30.294  1.00  0.00     0.049 A 
ATOM     52  H   UNL A   1      40.633  30.527  30.030  1.00  0.00     0.167 HD
ATOM     53  C   UNL A   1      44.637  31.747  28.563  1.00  0.00     0.037 A 
ATOM     54  C   UNL A   1      38.066  30.966  30.858  1.00  0.00     0.037 A 
ATOM     55  C   UNL A   1      44.717  31.622  29.996  1.00  0.00     0.049 A 
ATOM     56  C   UNL A   1      39.149  31.767  31.475  1.00  0.00     0.074 A 
ATOM     57  C   UNL A   1      45.544  30.991  30.899  1.00  0.00     0.029 A 
ATOM     58  N   UNL A   1      43.531  31.870  30.636  1.00  0.00    -0.354 N 
ATOM     59  N   UNL A   1      39.863  31.346  32.483  1.00  0.00    -0.248 NA
ATOM     60  C   UNL A   1      39.702  32.901  30.742  1.00  0.00     0.031 C 
ATOM     61  C   UNL A   1      44.765  30.770  32.076  1.00  0.00     0.029 A 
ATOM     62  C   UNL A   1      43.497  31.312  31.886  1.00  0.00     0.049 A 
ATOM     63  H   UNL A   1      42.790  32.387  30.244  1.00  0.00     0.167 HD
ATOM     64  C   UNL A   1      41.118  31.871  32.250  1.00  0.00     0.074 A 
ATOM     65  C   UNL A   1      40.921  32.944  31.283  1.00  0.00     0.031 C 
ATOM     66  C   UNL A   1      42.240  31.179  32.587  1.00  0.00     0.037 A 
BRANCH  53  67
ATOM     67  C   UNL A   1      44.686  33.099  27.904  1.00  0.00     0.064 A 
ATOM     68  C   UNL A   1      45.899  33.555  27.356  1.00  0.00     0.173 A 
ATOM     69  C   UNL A   1      43.671  34.070  28.036  1.00  0.00     0.173 A 
ATOM     70  F   UNL A   1      46.947  32.726  27.238  1.00  0.00    -0.203 F 
ATOM     71  C   UNL A   1      46.083  34.890  26.983  1.00  0.00     0.198 A 
ATOM     72  C   UNL A   1      43.837  35.386  27.611  1.00  0.00     0.198 A 
ATOM     73  F   UNL A   1      42.527  33.814  28.682  1.00  0.00    -0.203 F 
ATOM     74  F   UNL A   1      47.282  35.304  26.553  1.00  0.00    -0.200 F 
ATOM     75  C   UNL A   1      45.049  35.802  27.103  1.00  0.00     0.200 A 
ATOM     76  F   UNL A   1      42.833  36.261  27.769  1.00  0.00    -0.200 F 
ATOM     77  F   UNL A   1      45.232  37.088  26.778  1.00  0.00    -0.200 F 
ENDBRANCH  53  67
BRANCH  54  78
ATOM     78  C   UNL A   1      36.722  31.535  30.603  1.00  0.00     0.064 A 
ATOM     79  C   UNL A   1      35.869  31.838  31.678  1.00  0.00     0.173 A 
ATOM     80  C   UNL A   1      36.403  32.114  29.361  1.00  0.00     0.173 A 
ATOM     81  F   UNL A   1      36.121  31.343  32.898  1.00  0.00    -0.203 F 
ATOM     82  C   UNL A   1      34.803  32.731  31.537  1.00  0.00     0.198 A 
ATOM     83  C   UNL A   1      35.335  33.005  29.222  1.00  0.00     0.198 A 
ATOM     84  F   UNL A   1      37.183  31.913  28.290  1.00  0.00    -0.203 F 
ATOM     85  F   UNL A   1      34.068  33.069  32.607  1.00  0.00    -0.200 F 
ATOM     86  C   UNL A   1      34.552  33.332  30.315  1.00  0.00     0.200 A 
ATOM     87  F   UNL A   1      35.122  33.607  28.044  1.00  0.00    -0.200 F 
ATOM     88  F   UNL A   1      33.591  34.259  30.201  1.00  0.00    -0.200 F 
ENDBRANCH  54  78
BRANCH  66  89
ATOM     89  C   UNL A   1      42.119  30.133  33.651  1.00  0.00     0.064 A 
ATOM     90  C   UNL A   1      41.854  28.775  33.417  1.00  0.00     0.173 A 
ATOM     91  C   UNL A   1      42.360  30.528  34.974  1.00  0.00     0.173 A 
ATOM     92  F   UNL A   1      41.669  28.313  32.173  1.00  0.00    -0.203 F 
ATOM     93  C   UNL A   1      41.815  27.858  34.468  1.00  0.00     0.198 A 
ATOM     94  C   UNL A   1      42.353  29.608  36.015  1.00  0.00     0.198 A 
ATOM     95  F   UNL A   1      42.645  31.811  35.248  1.00  0.00    -0.203 F 
ATOM     96  F   UNL A   1      41.553  26.565  34.226  1.00  0.00    -0.200 F 
ATOM     97  C   UNL A   1      42.074  28.274  35.765  1.00  0.00     0.200 A 
ATOM     98  F   UNL A   1      42.638  30.013  37.261  1.00  0.00    -0.200 F 
ATOM     99  F   UNL A   1      42.075  27.389  36.771  1.00  0.00    -0.200 F 
ENDBRANCH  66  89
ENDBRANCH  40  41
ENDBRANCH  32  35
ENDBRANCH  30  31
ENDBRANCH   1  30
TORSDOF 14
ENDMDL
