MODEL 1
REMARK VINA RESULT:     -12.1      0.000      0.000
REMARK SMILES C/C(=N/OCC(=O)NCCCNC(=O)c1ccc(-c2c3nc(c(-c4c(F)c(F)c(F)c(F)c4F)c4ccc([nH]4)c(-c4c(F)c(F)c(F)c(F)c4F)c4nc(c(-c5c(F)c(F)c(F)c(F)c5F)c5ccc2[nH]5)C=C4)C=C3)cc1)c1ccc(C)cc1
REMARK SMILES IDX 9 1 8 2 6 3 7 4 5 6 4 7 3 8 1 9 2 10 78 11 79 12 84 13 80 14
REMARK SMILES IDX 83 15 81 16 82 17 10 18 11 19 12 20 13 21 14 23 15 24 16 25
REMARK SMILES IDX 77 26 17 27 76 28 18 29 19 30 20 31 70 32 21 33 75 34 69 35
REMARK SMILES IDX 71 36 22 37 74 38 68 39 67 40 23 42 55 43 35 44 54 45 36 46
REMARK SMILES IDX 39 47 53 48 72 49 37 50 38 51 52 53 73 54 40 55 24 56 25 57
REMARK SMILES IDX 33 58 26 59 27 60 31 61 34 62 28 63 29 64 32 65 30 66 56 67
REMARK SMILES IDX 57 68 65 69 58 70 59 71 63 72 66 73 60 74 61 75 64 76 62 77
REMARK SMILES IDX 41 78 42 79 50 80 43 81 44 82 48 83 51 84 45 85 46 86 49 87
REMARK SMILES IDX 47 88
REMARK H PARENT 8 5 12 22 71 41 39 52
REMARK Flexibility Score: inf
ROOT
ATOM      1  C   UNL A   1      31.808  30.417  26.374  1.00  0.00     0.117 C 
ENDROOT
BRANCH   1   2
ATOM      2  N   UNL A   1      31.471  30.104  24.998  1.00  0.00    -0.353 N 
ATOM      3  C   UNL A   1      31.474  28.888  24.370  1.00  0.00     0.260 C 
ATOM      4  O   UNL A   1      31.122  28.846  23.188  1.00  0.00    -0.271 OA
ATOM      5  H   UNL A   1      31.203  30.870  24.441  1.00  0.00     0.163 HD
BRANCH   3   6
ATOM      6  C   UNL A   1      31.800  27.626  25.161  1.00  0.00     0.363 C 
BRANCH   6   7
ATOM      7  O   UNL A   1      31.425  26.422  24.515  1.00  0.00    -0.385 OA
BRANCH   7   8
ATOM      8  N   UNL A   1      30.823  25.556  25.435  1.00  0.00    -0.091 NA
ATOM      9  C   UNL A   1      30.884  23.405  26.501  1.00  0.00     0.071 C 
ATOM     10  C   UNL A   1      31.493  24.452  25.595  1.00  0.00     0.084 C 
BRANCH  10  11
ATOM     11  C   UNL A   1      32.800  24.119  24.959  1.00  0.00    -0.001 A 
ATOM     12  C   UNL A   1      32.836  23.427  23.744  1.00  0.00     0.010 A 
ATOM     13  C   UNL A   1      33.998  24.485  25.580  1.00  0.00     0.010 A 
ATOM     14  C   UNL A   1      34.058  23.055  23.181  1.00  0.00     0.004 A 
ATOM     15  C   UNL A   1      35.222  24.123  25.008  1.00  0.00     0.004 A 
ATOM     16  C   UNL A   1      35.261  23.396  23.812  1.00  0.00    -0.051 A 
ATOM     17  C   UNL A   1      36.565  22.953  23.217  1.00  0.00     0.044 C 
ENDBRANCH  10  11
ENDBRANCH   7   8
ENDBRANCH   6   7
ENDBRANCH   3   6
ENDBRANCH   1   2
BRANCH   1  18
ATOM     18  C   UNL A   1      31.535  31.878  26.722  1.00  0.00     0.042 C 
BRANCH  18  19
ATOM     19  C   UNL A   1      32.741  32.630  27.283  1.00  0.00     0.118 C 
BRANCH  19  20
ATOM     20  N   UNL A   1      32.448  34.020  27.612  1.00  0.00    -0.352 N 
ATOM     21  C   UNL A   1      33.016  34.862  28.537  1.00  0.00     0.251 C 
ATOM     22  H   UNL A   1      31.723  34.422  27.083  1.00  0.00     0.163 HD
ATOM     23  O   UNL A   1      32.504  35.959  28.752  1.00  0.00    -0.269 OA
BRANCH  21  24
ATOM     24  C   UNL A   1      34.213  34.456  29.303  1.00  0.00     0.039 A 
ATOM     25  C   UNL A   1      34.039  33.932  30.588  1.00  0.00     0.014 A 
ATOM     26  C   UNL A   1      35.500  34.597  28.777  1.00  0.00     0.014 A 
ATOM     27  C   UNL A   1      35.142  33.461  31.304  1.00  0.00     0.010 A 
ATOM     28  C   UNL A   1      36.592  34.066  29.463  1.00  0.00     0.010 A 
ATOM     29  C   UNL A   1      36.420  33.472  30.722  1.00  0.00    -0.014 A 
BRANCH  29  30
ATOM     30  C   UNL A   1      37.570  32.797  31.379  1.00  0.00     0.031 A 
ATOM     31  C   UNL A   1      38.237  31.614  30.739  1.00  0.00     0.074 A 
ATOM     32  C   UNL A   1      37.955  33.205  32.605  1.00  0.00     0.049 A 
ATOM     33  N   UNL A   1      39.178  30.837  31.215  1.00  0.00    -0.248 NA
ATOM     34  C   UNL A   1      37.771  31.241  29.395  1.00  0.00     0.031 C 
ATOM     35  C   UNL A   1      37.365  34.321  33.346  1.00  0.00     0.029 A 
ATOM     36  N   UNL A   1      38.920  32.719  33.453  1.00  0.00    -0.354 N 
ATOM     37  C   UNL A   1      39.411  29.881  30.236  1.00  0.00     0.074 A 
ATOM     38  C   UNL A   1      38.483  30.148  29.157  1.00  0.00     0.031 C 
ATOM     39  C   UNL A   1      37.985  34.441  34.529  1.00  0.00     0.029 A 
ATOM     40  C   UNL A   1      38.978  33.380  34.655  1.00  0.00     0.049 A 
ATOM     41  H   UNL A   1      39.512  31.967  33.221  1.00  0.00     0.167 HD
ATOM     42  C   UNL A   1      40.327  28.882  30.234  1.00  0.00     0.037 A 
ATOM     43  C   UNL A   1      39.726  33.142  35.750  1.00  0.00     0.037 A 
ATOM     44  C   UNL A   1      41.252  28.626  31.308  1.00  0.00     0.049 A 
ATOM     45  C   UNL A   1      40.697  31.993  35.740  1.00  0.00     0.074 A 
ATOM     46  C   UNL A   1      42.261  27.679  31.370  1.00  0.00     0.029 A 
ATOM     47  N   UNL A   1      41.274  29.308  32.516  1.00  0.00    -0.354 N 
ATOM     48  N   UNL A   1      40.962  31.141  34.780  1.00  0.00    -0.248 NA
ATOM     49  C   UNL A   1      41.472  31.770  36.969  1.00  0.00     0.031 C 
ATOM     50  C   UNL A   1      42.847  27.745  32.638  1.00  0.00     0.029 A 
ATOM     51  C   UNL A   1      42.247  28.774  33.345  1.00  0.00     0.049 A 
ATOM     52  H   UNL A   1      40.684  30.062  32.748  1.00  0.00     0.167 HD
ATOM     53  C   UNL A   1      41.941  30.294  35.279  1.00  0.00     0.074 A 
ATOM     54  C   UNL A   1      42.244  30.750  36.619  1.00  0.00     0.031 C 
ATOM     55  C   UNL A   1      42.533  29.230  34.682  1.00  0.00     0.037 A 
BRANCH  42  56
ATOM     56  C   UNL A   1      40.371  27.977  29.035  1.00  0.00     0.064 A 
ATOM     57  C   UNL A   1      39.632  26.786  28.981  1.00  0.00     0.173 A 
ATOM     58  C   UNL A   1      41.122  28.332  27.903  1.00  0.00     0.173 A 
ATOM     59  F   UNL A   1      38.901  26.397  30.037  1.00  0.00    -0.203 F 
ATOM     60  C   UNL A   1      39.664  25.971  27.852  1.00  0.00     0.198 A 
ATOM     61  C   UNL A   1      41.127  27.531  26.764  1.00  0.00     0.198 A 
ATOM     62  F   UNL A   1      41.841  29.464  27.896  1.00  0.00    -0.203 F 
ATOM     63  F   UNL A   1      38.986  24.815  27.843  1.00  0.00    -0.200 F 
ATOM     64  C   UNL A   1      40.405  26.348  26.742  1.00  0.00     0.200 A 
ATOM     65  F   UNL A   1      41.831  27.906  25.686  1.00  0.00    -0.200 F 
ATOM     66  F   UNL A   1      40.427  25.568  25.653  1.00  0.00    -0.200 F 
ENDBRANCH  42  56
BRANCH  43  67
ATOM     67  C   UNL A   1      39.578  34.004  36.952  1.00  0.00     0.064 A 
ATOM     68  C   UNL A   1      38.768  33.611  38.026  1.00  0.00     0.173 A 
ATOM     69  C   UNL A   1      40.236  35.239  37.050  1.00  0.00     0.173 A 
ATOM     70  F   UNL A   1      38.101  32.449  37.970  1.00  0.00    -0.203 F 
ATOM     71  C   UNL A   1      38.606  34.429  39.143  1.00  0.00     0.198 A 
ATOM     72  C   UNL A   1      40.101  36.040  38.183  1.00  0.00     0.198 A 
ATOM     73  F   UNL A   1      41.029  35.661  36.055  1.00  0.00    -0.203 F 
ATOM     74  F   UNL A   1      37.788  34.049  40.134  1.00  0.00    -0.200 F 
ATOM     75  C   UNL A   1      39.277  35.638  39.224  1.00  0.00     0.200 A 
ATOM     76  F   UNL A   1      40.768  37.199  38.264  1.00  0.00    -0.200 F 
ATOM     77  F   UNL A   1      39.129  36.420  40.302  1.00  0.00    -0.200 F 
ENDBRANCH  43  67
BRANCH  55  78
ATOM     78  C   UNL A   1      43.572  28.488  35.473  1.00  0.00     0.064 A 
ATOM     79  C   UNL A   1      43.223  27.449  36.350  1.00  0.00     0.173 A 
ATOM     80  C   UNL A   1      44.935  28.788  35.323  1.00  0.00     0.173 A 
ATOM     81  F   UNL A   1      41.934  27.135  36.544  1.00  0.00    -0.203 F 
ATOM     82  C   UNL A   1      44.198  26.756  37.063  1.00  0.00     0.198 A 
ATOM     83  C   UNL A   1      45.908  28.070  36.012  1.00  0.00     0.198 A 
ATOM     84  F   UNL A   1      45.324  29.769  34.493  1.00  0.00    -0.203 F 
ATOM     85  F   UNL A   1      43.837  25.801  37.931  1.00  0.00    -0.200 F 
ATOM     86  C   UNL A   1      45.539  27.060  36.886  1.00  0.00     0.200 A 
ATOM     87  F   UNL A   1      47.205  28.356  35.829  1.00  0.00    -0.200 F 
ATOM     88  F   UNL A   1      46.476  26.384  37.566  1.00  0.00    -0.200 F 
ENDBRANCH  55  78
ENDBRANCH  29  30
ENDBRANCH  21  24
ENDBRANCH  19  20
ENDBRANCH  18  19
ENDBRANCH   1  18
TORSDOF 13
ENDMDL
MODEL 2
REMARK VINA RESULT:     -12.1      4.361     10.289
REMARK SMILES C/C(=N/OCC(=O)NCCCNC(=O)c1ccc(-c2c3nc(c(-c4c(F)c(F)c(F)c(F)c4F)c4ccc([nH]4)c(-c4c(F)c(F)c(F)c(F)c4F)c4nc(c(-c5c(F)c(F)c(F)c(F)c5F)c5ccc2[nH]5)C=C4)C=C3)cc1)c1ccc(C)cc1
REMARK SMILES IDX 9 1 8 2 6 3 7 4 5 6 4 7 3 8 1 9 2 10 78 11 79 12 84 13 80 14
REMARK SMILES IDX 83 15 81 16 82 17 10 18 11 19 12 20 13 21 14 23 15 24 16 25
REMARK SMILES IDX 77 26 17 27 76 28 18 29 19 30 20 31 70 32 21 33 75 34 69 35
REMARK SMILES IDX 71 36 22 37 74 38 68 39 67 40 23 42 55 43 35 44 54 45 36 46
REMARK SMILES IDX 39 47 53 48 72 49 37 50 38 51 52 53 73 54 40 55 24 56 25 57
REMARK SMILES IDX 33 58 26 59 27 60 31 61 34 62 28 63 29 64 32 65 30 66 56 67
REMARK SMILES IDX 57 68 65 69 58 70 59 71 63 72 66 73 60 74 61 75 64 76 62 77
REMARK SMILES IDX 41 78 42 79 50 80 43 81 44 82 48 83 51 84 45 85 46 86 49 87
REMARK SMILES IDX 47 88
REMARK H PARENT 8 5 12 22 71 41 39 52
REMARK Flexibility Score: inf
ROOT
ATOM      1  C   UNL A   1      34.041  34.939  28.576  1.00  0.00     0.117 C 
ENDROOT
BRANCH   1   2
ATOM      2  N   UNL A   1      33.045  35.667  29.340  1.00  0.00    -0.353 N 
ATOM      3  C   UNL A   1      32.903  35.757  30.698  1.00  0.00     0.260 C 
ATOM      4  O   UNL A   1      31.991  36.460  31.139  1.00  0.00    -0.271 OA
ATOM      5  H   UNL A   1      32.382  36.165  28.809  1.00  0.00     0.163 HD
BRANCH   3   6
ATOM      6  C   UNL A   1      33.921  35.085  31.614  1.00  0.00     0.363 C 
BRANCH   6   7
ATOM      7  O   UNL A   1      34.659  34.045  30.999  1.00  0.00    -0.385 OA
BRANCH   7   8
ATOM      8  N   UNL A   1      34.847  32.995  31.905  1.00  0.00    -0.091 NA
ATOM      9  C   UNL A   1      36.381  31.397  32.834  1.00  0.00     0.071 C 
ATOM     10  C   UNL A   1      36.083  32.590  31.952  1.00  0.00     0.084 C 
BRANCH  10  11
ATOM     11  C   UNL A   1      37.230  33.186  31.208  1.00  0.00    -0.001 A 
ATOM     12  C   UNL A   1      38.178  33.964  31.882  1.00  0.00     0.010 A 
ATOM     13  C   UNL A   1      37.357  32.983  29.831  1.00  0.00     0.010 A 
ATOM     14  C   UNL A   1      39.214  34.579  31.176  1.00  0.00     0.004 A 
ATOM     15  C   UNL A   1      38.402  33.590  29.127  1.00  0.00     0.004 A 
ATOM     16  C   UNL A   1      39.331  34.401  29.792  1.00  0.00    -0.051 A 
ATOM     17  C   UNL A   1      40.424  35.102  29.042  1.00  0.00     0.044 C 
ENDBRANCH  10  11
ENDBRANCH   7   8
ENDBRANCH   6   7
ENDBRANCH   3   6
ENDBRANCH   1   2
BRANCH   1  18
ATOM     18  C   UNL A   1      33.528  33.585  28.093  1.00  0.00     0.042 C 
BRANCH  18  19
ATOM     19  C   UNL A   1      34.600  32.500  28.000  1.00  0.00     0.118 C 
BRANCH  19  20
ATOM     20  N   UNL A   1      34.048  31.161  27.834  1.00  0.00    -0.352 N 
ATOM     21  C   UNL A   1      34.649  29.928  27.898  1.00  0.00     0.251 C 
ATOM     22  H   UNL A   1      33.082  31.137  27.644  1.00  0.00     0.163 HD
ATOM     23  O   UNL A   1      34.014  28.926  27.571  1.00  0.00    -0.269 OA
BRANCH  21  24
ATOM     24  C   UNL A   1      36.058  29.789  28.322  1.00  0.00     0.039 A 
ATOM     25  C   UNL A   1      36.325  29.399  29.639  1.00  0.00     0.014 A 
ATOM     26  C   UNL A   1      37.115  30.051  27.446  1.00  0.00     0.014 A 
ATOM     27  C   UNL A   1      37.641  29.176  30.047  1.00  0.00     0.010 A 
ATOM     28  C   UNL A   1      38.424  29.765  27.833  1.00  0.00     0.010 A 
ATOM     29  C   UNL A   1      38.697  29.302  29.129  1.00  0.00    -0.014 A 
BRANCH  29  30
ATOM     30  C   UNL A   1      40.078  28.880  29.482  1.00  0.00     0.031 A 
ATOM     31  C   UNL A   1      40.994  29.797  30.239  1.00  0.00     0.074 A 
ATOM     32  C   UNL A   1      40.533  27.692  29.033  1.00  0.00     0.049 A 
ATOM     33  N   UNL A   1      42.260  29.641  30.537  1.00  0.00    -0.248 NA
ATOM     34  C   UNL A   1      40.418  31.066  30.708  1.00  0.00     0.031 C 
ATOM     35  C   UNL A   1      39.752  26.727  28.259  1.00  0.00     0.029 A 
ATOM     36  N   UNL A   1      41.769  27.102  29.147  1.00  0.00    -0.354 N 
ATOM     37  C   UNL A   1      42.634  30.791  31.218  1.00  0.00     0.074 A 
ATOM     38  C   UNL A   1      41.473  31.656  31.252  1.00  0.00     0.031 C 
ATOM     39  C   UNL A   1      40.519  25.664  27.977  1.00  0.00     0.029 A 
ATOM     40  C   UNL A   1      41.861  25.893  28.502  1.00  0.00     0.049 A 
ATOM     41  H   UNL A   1      42.516  27.508  29.642  1.00  0.00     0.167 HD
ATOM     42  C   UNL A   1      43.833  31.089  31.776  1.00  0.00     0.037 A 
ATOM     43  C   UNL A   1      42.915  25.073  28.326  1.00  0.00     0.037 A 
ATOM     44  C   UNL A   1      44.982  30.220  31.744  1.00  0.00     0.049 A 
ATOM     45  C   UNL A   1      44.247  25.454  28.911  1.00  0.00     0.074 A 
ATOM     46  C   UNL A   1      46.219  30.406  32.337  1.00  0.00     0.029 A 
ATOM     47  N   UNL A   1      45.042  29.009  31.071  1.00  0.00    -0.354 N 
ATOM     48  N   UNL A   1      44.569  26.509  29.617  1.00  0.00    -0.248 NA
ATOM     49  C   UNL A   1      45.365  24.529  28.671  1.00  0.00     0.031 C 
ATOM     50  C   UNL A   1      47.046  29.340  31.969  1.00  0.00     0.029 A 
ATOM     51  C   UNL A   1      46.308  28.459  31.196  1.00  0.00     0.049 A 
ATOM     52  H   UNL A   1      44.294  28.600  30.577  1.00  0.00     0.167 HD
ATOM     53  C   UNL A   1      45.917  26.371  29.919  1.00  0.00     0.074 A 
ATOM     54  C   UNL A   1      46.347  25.114  29.342  1.00  0.00     0.031 C 
ATOM     55  C   UNL A   1      46.727  27.211  30.609  1.00  0.00     0.037 A 
BRANCH  42  56
ATOM     56  C   UNL A   1      43.972  32.417  32.463  1.00  0.00     0.064 A 
ATOM     57  C   UNL A   1      44.389  33.566  31.773  1.00  0.00     0.173 A 
ATOM     58  C   UNL A   1      43.635  32.556  33.819  1.00  0.00     0.173 A 
ATOM     59  F   UNL A   1      44.728  33.488  30.477  1.00  0.00    -0.203 F 
ATOM     60  C   UNL A   1      44.488  34.796  32.419  1.00  0.00     0.198 A 
ATOM     61  C   UNL A   1      43.705  33.793  34.454  1.00  0.00     0.198 A 
ATOM     62  F   UNL A   1      43.222  31.493  34.525  1.00  0.00    -0.203 F 
ATOM     63  F   UNL A   1      44.932  35.868  31.750  1.00  0.00    -0.200 F 
ATOM     64  C   UNL A   1      44.139  34.910  33.757  1.00  0.00     0.200 A 
ATOM     65  F   UNL A   1      43.352  33.905  35.742  1.00  0.00    -0.200 F 
ATOM     66  F   UNL A   1      44.227  36.096  34.374  1.00  0.00    -0.200 F 
ENDBRANCH  42  56
BRANCH  43  67
ATOM     67  C   UNL A   1      42.753  23.813  27.553  1.00  0.00     0.064 A 
ATOM     68  C   UNL A   1      43.083  23.755  26.191  1.00  0.00     0.173 A 
ATOM     69  C   UNL A   1      42.262  22.645  28.154  1.00  0.00     0.173 A 
ATOM     70  F   UNL A   1      43.536  24.851  25.567  1.00  0.00    -0.203 F 
ATOM     71  C   UNL A   1      42.909  22.584  25.458  1.00  0.00     0.198 A 
ATOM     72  C   UNL A   1      42.121  21.464  27.427  1.00  0.00     0.198 A 
ATOM     73  F   UNL A   1      41.938  22.642  29.455  1.00  0.00    -0.203 F 
ATOM     74  F   UNL A   1      43.188  22.571  24.147  1.00  0.00    -0.200 F 
ATOM     75  C   UNL A   1      42.435  21.438  26.076  1.00  0.00     0.200 A 
ATOM     76  F   UNL A   1      41.682  20.354  28.035  1.00  0.00    -0.200 F 
ATOM     77  F   UNL A   1      42.277  20.309  25.373  1.00  0.00    -0.200 F 
ENDBRANCH  43  67
BRANCH  55  78
ATOM     78  C   UNL A   1      48.161  26.798  30.782  1.00  0.00     0.064 A 
ATOM     79  C   UNL A   1      48.557  25.945  31.824  1.00  0.00     0.173 A 
ATOM     80  C   UNL A   1      49.142  27.222  29.873  1.00  0.00     0.173 A 
ATOM     81  F   UNL A   1      47.662  25.527  32.730  1.00  0.00    -0.203 F 
ATOM     82  C   UNL A   1      49.886  25.554  31.963  1.00  0.00     0.198 A 
ATOM     83  C   UNL A   1      50.464  26.801  29.996  1.00  0.00     0.198 A 
ATOM     84  F   UNL A   1      48.816  28.033  28.855  1.00  0.00    -0.203 F 
ATOM     85  F   UNL A   1      50.250  24.780  32.995  1.00  0.00    -0.200 F 
ATOM     86  C   UNL A   1      50.836  25.974  31.044  1.00  0.00     0.200 A 
ATOM     87  F   UNL A   1      51.377  27.197  29.098  1.00  0.00    -0.200 F 
ATOM     88  F   UNL A   1      52.113  25.587  31.173  1.00  0.00    -0.200 F 
ENDBRANCH  55  78
ENDBRANCH  29  30
ENDBRANCH  21  24
ENDBRANCH  19  20
ENDBRANCH  18  19
ENDBRANCH   1  18
TORSDOF 13
ENDMDL
MODEL 3
REMARK VINA RESULT:     -12.0      4.329     10.190
REMARK SMILES C/C(=N/OCC(=O)NCCCNC(=O)c1ccc(-c2c3nc(c(-c4c(F)c(F)c(F)c(F)c4F)c4ccc([nH]4)c(-c4c(F)c(F)c(F)c(F)c4F)c4nc(c(-c5c(F)c(F)c(F)c(F)c5F)c5ccc2[nH]5)C=C4)C=C3)cc1)c1ccc(C)cc1
REMARK SMILES IDX 9 1 8 2 6 3 7 4 5 6 4 7 3 8 1 9 2 10 78 11 79 12 84 13 80 14
REMARK SMILES IDX 83 15 81 16 82 17 10 18 11 19 12 20 13 21 14 23 15 24 16 25
REMARK SMILES IDX 77 26 17 27 76 28 18 29 19 30 20 31 70 32 21 33 75 34 69 35
REMARK SMILES IDX 71 36 22 37 74 38 68 39 67 40 23 42 55 43 35 44 54 45 36 46
REMARK SMILES IDX 39 47 53 48 72 49 37 50 38 51 52 53 73 54 40 55 24 56 25 57
REMARK SMILES IDX 33 58 26 59 27 60 31 61 34 62 28 63 29 64 32 65 30 66 56 67
REMARK SMILES IDX 57 68 65 69 58 70 59 71 63 72 66 73 60 74 61 75 64 76 62 77
REMARK SMILES IDX 41 78 42 79 50 80 43 81 44 82 48 83 51 84 45 85 46 86 49 87
REMARK SMILES IDX 47 88
REMARK H PARENT 8 5 12 22 71 41 39 52
REMARK Flexibility Score: inf
ROOT
ATOM      1  C   UNL A   1      34.075  34.966  28.526  1.00  0.00     0.117 C 
ENDROOT
BRANCH   1   2
ATOM      2  N   UNL A   1      33.101  35.704  29.309  1.00  0.00    -0.353 N 
ATOM      3  C   UNL A   1      32.932  35.725  30.666  1.00  0.00     0.260 C 
ATOM      4  O   UNL A   1      32.048  36.452  31.127  1.00  0.00    -0.271 OA
ATOM      5  H   UNL A   1      32.479  36.266  28.793  1.00  0.00     0.163 HD
BRANCH   3   6
ATOM      6  C   UNL A   1      33.889  34.949  31.564  1.00  0.00     0.363 C 
BRANCH   6   7
ATOM      7  O   UNL A   1      34.514  33.846  30.932  1.00  0.00    -0.385 OA
BRANCH   7   8
ATOM      8  N   UNL A   1      34.765  32.839  31.870  1.00  0.00    -0.091 NA
ATOM      9  C   UNL A   1      36.402  31.398  32.878  1.00  0.00     0.071 C 
ATOM     10  C   UNL A   1      36.029  32.539  31.957  1.00  0.00     0.084 C 
BRANCH  10  11
ATOM     11  C   UNL A   1      37.141  33.209  31.223  1.00  0.00    -0.001 A 
ATOM     12  C   UNL A   1      37.295  33.012  29.847  1.00  0.00     0.010 A 
ATOM     13  C   UNL A   1      38.045  34.026  31.909  1.00  0.00     0.010 A 
ATOM     14  C   UNL A   1      38.374  33.583  29.171  1.00  0.00     0.004 A 
ATOM     15  C   UNL A   1      39.119  34.607  31.227  1.00  0.00     0.004 A 
ATOM     16  C   UNL A   1      39.298  34.381  29.857  1.00  0.00    -0.051 A 
ATOM     17  C   UNL A   1      40.476  34.953  29.125  1.00  0.00     0.044 C 
ENDBRANCH  10  11
ENDBRANCH   7   8
ENDBRANCH   6   7
ENDBRANCH   3   6
ENDBRANCH   1   2
BRANCH   1  18
ATOM     18  C   UNL A   1      33.539  33.617  28.052  1.00  0.00     0.042 C 
BRANCH  18  19
ATOM     19  C   UNL A   1      34.597  32.520  27.941  1.00  0.00     0.118 C 
BRANCH  19  20
ATOM     20  N   UNL A   1      34.027  31.185  27.804  1.00  0.00    -0.352 N 
ATOM     21  C   UNL A   1      34.611  29.946  27.896  1.00  0.00     0.251 C 
ATOM     22  H   UNL A   1      33.061  31.170  27.614  1.00  0.00     0.163 HD
ATOM     23  O   UNL A   1      33.964  28.946  27.592  1.00  0.00    -0.269 OA
BRANCH  21  24
ATOM     24  C   UNL A   1      36.018  29.798  28.326  1.00  0.00     0.039 A 
ATOM     25  C   UNL A   1      36.278  29.431  29.650  1.00  0.00     0.014 A 
ATOM     26  C   UNL A   1      37.079  30.029  27.446  1.00  0.00     0.014 A 
ATOM     27  C   UNL A   1      37.592  29.200  30.064  1.00  0.00     0.010 A 
ATOM     28  C   UNL A   1      38.384  29.734  27.840  1.00  0.00     0.010 A 
ATOM     29  C   UNL A   1      38.650  29.294  29.146  1.00  0.00    -0.014 A 
BRANCH  29  30
ATOM     30  C   UNL A   1      40.025  28.861  29.508  1.00  0.00     0.031 A 
ATOM     31  C   UNL A   1      40.937  29.766  30.286  1.00  0.00     0.074 A 
ATOM     32  C   UNL A   1      40.480  27.678  29.051  1.00  0.00     0.049 A 
ATOM     33  N   UNL A   1      42.199  29.601  30.596  1.00  0.00    -0.248 NA
ATOM     34  C   UNL A   1      40.361  31.032  30.763  1.00  0.00     0.031 C 
ATOM     35  C   UNL A   1      39.703  26.725  28.258  1.00  0.00     0.029 A 
ATOM     36  N   UNL A   1      41.711  27.081  29.171  1.00  0.00    -0.354 N 
ATOM     37  C   UNL A   1      42.570  30.741  31.295  1.00  0.00     0.074 A 
ATOM     38  C   UNL A   1      41.413  31.611  31.326  1.00  0.00     0.031 C 
ATOM     39  C   UNL A   1      40.469  25.661  27.971  1.00  0.00     0.029 A 
ATOM     40  C   UNL A   1      41.806  25.878  28.514  1.00  0.00     0.049 A 
ATOM     41  H   UNL A   1      42.455  27.477  29.680  1.00  0.00     0.167 HD
ATOM     42  C   UNL A   1      43.764  31.027  31.869  1.00  0.00     0.037 A 
ATOM     43  C   UNL A   1      42.857  25.056  28.340  1.00  0.00     0.037 A 
ATOM     44  C   UNL A   1      44.910  30.154  31.839  1.00  0.00     0.049 A 
ATOM     45  C   UNL A   1      44.185  25.423  28.944  1.00  0.00     0.074 A 
ATOM     46  C   UNL A   1      46.141  30.327  32.448  1.00  0.00     0.029 A 
ATOM     47  N   UNL A   1      44.972  28.950  31.153  1.00  0.00    -0.354 N 
ATOM     48  N   UNL A   1      44.504  26.470  29.666  1.00  0.00    -0.248 NA
ATOM     49  C   UNL A   1      45.301  24.497  28.705  1.00  0.00     0.031 C 
ATOM     50  C   UNL A   1      46.967  29.262  32.076  1.00  0.00     0.029 A 
ATOM     51  C   UNL A   1      46.234  28.393  31.286  1.00  0.00     0.049 A 
ATOM     52  H   UNL A   1      44.228  28.551  30.646  1.00  0.00     0.167 HD
ATOM     53  C   UNL A   1      45.848  26.321  29.981  1.00  0.00     0.074 A 
ATOM     54  C   UNL A   1      46.279  25.070  29.394  1.00  0.00     0.031 C 
ATOM     55  C   UNL A   1      46.654  27.150  30.689  1.00  0.00     0.037 A 
BRANCH  42  56
ATOM     56  C   UNL A   1      43.901  32.347  32.573  1.00  0.00     0.064 A 
ATOM     57  C   UNL A   1      43.595  32.493  33.935  1.00  0.00     0.173 A 
ATOM     58  C   UNL A   1      44.396  33.470  31.891  1.00  0.00     0.173 A 
ATOM     59  F   UNL A   1      43.113  31.453  34.633  1.00  0.00    -0.203 F 
ATOM     60  C   UNL A   1      43.752  33.717  34.579  1.00  0.00     0.198 A 
ATOM     61  C   UNL A   1      44.583  34.685  32.546  1.00  0.00     0.198 A 
ATOM     62  F   UNL A   1      44.714  33.385  30.591  1.00  0.00    -0.203 F 
ATOM     63  F   UNL A   1      43.408  33.842  35.869  1.00  0.00    -0.200 F 
ATOM     64  C   UNL A   1      44.253  34.810  33.887  1.00  0.00     0.200 A 
ATOM     65  F   UNL A   1      45.082  35.734  31.880  1.00  0.00    -0.200 F 
ATOM     66  F   UNL A   1      44.412  35.985  34.511  1.00  0.00    -0.200 F 
ENDBRANCH  42  56
BRANCH  43  67
ATOM     67  C   UNL A   1      42.699  23.806  27.550  1.00  0.00     0.064 A 
ATOM     68  C   UNL A   1      42.223  22.630  28.148  1.00  0.00     0.173 A 
ATOM     69  C   UNL A   1      43.024  23.758  26.186  1.00  0.00     0.173 A 
ATOM     70  F   UNL A   1      41.920  22.620  29.454  1.00  0.00    -0.203 F 
ATOM     71  C   UNL A   1      42.098  21.451  27.417  1.00  0.00     0.198 A 
ATOM     72  C   UNL A   1      42.864  22.586  25.448  1.00  0.00     0.198 A 
ATOM     73  F   UNL A   1      43.476  24.855  25.562  1.00  0.00    -0.203 F 
ATOM     74  F   UNL A   1      41.686  20.330  28.026  1.00  0.00    -0.200 F 
ATOM     75  C   UNL A   1      42.411  21.431  26.067  1.00  0.00     0.200 A 
ATOM     76  F   UNL A   1      43.150  22.578  24.139  1.00  0.00    -0.200 F 
ATOM     77  F   UNL A   1      42.282  20.299  25.363  1.00  0.00    -0.200 F 
ENDBRANCH  43  67
BRANCH  55  78
ATOM     78  C   UNL A   1      48.084  26.728  30.872  1.00  0.00     0.064 A 
ATOM     79  C   UNL A   1      49.099  27.186  30.018  1.00  0.00     0.173 A 
ATOM     80  C   UNL A   1      48.451  25.892  31.937  1.00  0.00     0.173 A 
ATOM     81  F   UNL A   1      48.798  27.972  28.974  1.00  0.00    -0.203 F 
ATOM     82  C   UNL A   1      50.424  26.803  30.210  1.00  0.00     0.198 A 
ATOM     83  C   UNL A   1      49.782  25.539  32.146  1.00  0.00     0.198 A 
ATOM     84  F   UNL A   1      47.521  25.430  32.787  1.00  0.00    -0.203 F 
ATOM     85  F   UNL A   1      51.369  27.213  29.353  1.00  0.00    -0.200 F 
ATOM     86  C   UNL A   1      50.766  25.988  31.279  1.00  0.00     0.200 A 
ATOM     87  F   UNL A   1      50.112  24.763  33.188  1.00  0.00    -0.200 F 
ATOM     88  F   UNL A   1      52.043  25.629  31.469  1.00  0.00    -0.200 F 
ENDBRANCH  55  78
ENDBRANCH  29  30
ENDBRANCH  21  24
ENDBRANCH  19  20
ENDBRANCH  18  19
ENDBRANCH   1  18
TORSDOF 13
ENDMDL
