MODEL 1
REMARK VINA RESULT:     -12.9      0.000      0.000
REMARK SMILES O=C(NC[C@@H]1CCCO1)C(=O)N/N=C/c1ccc(C(=O)NCCCNC(=O)c2ccc(-c3c4nc(c(-c5c(F)c(F)c(F)c(F)c5F)c5ccc([nH]5)c(-c5c(F)c(F)c(F)c(F)c5F)c5nc(c(-c6c(F)c(F)c(F)c(F)c6F)c6ccc3[nH]6)C=C5)C=C4)cc2)cc1
REMARK SMILES IDX 19 1 20 2 21 3 18 5 15 6 16 7 92 8 17 9 91 10 14 11 13 12
REMARK SMILES IDX 12 13 10 14 11 15 2 17 1 18 3 19 4 21 5 22 6 23 9 24 7 25
REMARK SMILES IDX 8 26 22 27 23 28 24 29 25 30 26 31 27 33 28 34 29 35 90 36
REMARK SMILES IDX 30 37 89 38 31 39 32 40 33 41 83 42 34 43 88 44 82 45 84 46
REMARK SMILES IDX 35 47 87 48 81 49 80 50 36 52 68 53 48 54 67 55 49 56 52 57
REMARK SMILES IDX 66 58 85 59 50 60 51 61 65 63 86 64 53 65 37 66 38 67 46 68
REMARK SMILES IDX 39 69 40 70 44 71 47 72 41 73 42 74 45 75 43 76 69 77 70 78
REMARK SMILES IDX 78 79 71 80 72 81 76 82 79 83 73 84 74 85 77 86 75 87 54 88
REMARK SMILES IDX 55 89 63 90 56 91 57 92 61 93 64 94 58 95 59 96 62 97 60 98
REMARK H PARENT 21 4 12 16 3 20 25 32 84 51 52 62
REMARK Flexibility Score: inf
ROOT
ATOM      1  C   UNL A   1      30.651  29.632  23.901  1.00  0.00     0.251 C 
ATOM      2  O   UNL A   1      29.859  29.779  22.969  1.00  0.00    -0.269 OA
ATOM      3  N   UNL A   1      30.738  30.653  24.806  1.00  0.00    -0.352 N 
ATOM      4  H   UNL A   1      30.157  31.416  24.585  1.00  0.00     0.163 HD
ENDROOT
BRANCH   1   5
ATOM      5  C   UNL A   1      31.418  28.359  23.986  1.00  0.00     0.039 A 
ATOM      6  C   UNL A   1      33.124  26.125  24.230  1.00  0.00    -0.005 A 
ATOM      7  C   UNL A   1      33.589  27.285  23.617  1.00  0.00     0.010 A 
ATOM      8  C   UNL A   1      31.801  26.068  24.696  1.00  0.00     0.010 A 
ATOM      9  C   UNL A   1      32.737  28.388  23.494  1.00  0.00     0.014 A 
ATOM     10  C   UNL A   1      30.967  27.192  24.607  1.00  0.00     0.014 A 
BRANCH   6  11
ATOM     11  C   UNL A   1      34.119  25.106  24.650  1.00  0.00     0.141 C 
ATOM     12  N   UNL A   1      33.861  24.347  25.666  1.00  0.00    -0.180 NA
BRANCH  12  13
ATOM     13  N   UNL A   1      34.919  23.671  26.208  1.00  0.00    -0.239 N 
ATOM     14  C   UNL A   1      34.924  22.272  26.263  1.00  0.00     0.329 C 
ATOM     15  O   UNL A   1      35.884  21.633  25.837  1.00  0.00    -0.262 OA
ATOM     16  H   UNL A   1      35.688  24.174  26.561  1.00  0.00     0.194 HD
BRANCH  14  17
ATOM     17  C   UNL A   1      33.833  21.515  27.051  1.00  0.00     0.311 C 
ATOM     18  O   UNL A   1      33.524  21.935  28.165  1.00  0.00    -0.264 OA
ATOM     19  N   UNL A   1      33.292  20.321  26.586  1.00  0.00    -0.345 N 
ATOM     20  H   UNL A   1      33.169  19.572  27.214  1.00  0.00     0.164 HD
BRANCH  19  21
ATOM     21  C   UNL A   1      32.908  20.152  25.213  1.00  0.00     0.148 C 
BRANCH  21  22
ATOM     22  C   UNL A   1      32.944  18.813  24.507  1.00  0.00     0.137 C 
ATOM     23  C   UNL A   1      34.249  18.085  24.307  1.00  0.00     0.036 C 
ATOM     24  O   UNL A   1      32.327  18.863  23.217  1.00  0.00    -0.376 OA
ATOM     25  C   UNL A   1      33.751  16.969  23.409  1.00  0.00     0.031 C 
ATOM     26  C   UNL A   1      32.733  17.674  22.523  1.00  0.00     0.160 C 
ENDBRANCH  21  22
ENDBRANCH  19  21
ENDBRANCH  14  17
ENDBRANCH  12  13
ENDBRANCH   6  11
ENDBRANCH   1   5
BRANCH   3  27
ATOM     27  C   UNL A   1      31.506  30.855  26.021  1.00  0.00     0.118 C 
BRANCH  27  28
ATOM     28  C   UNL A   1      31.331  32.287  26.528  1.00  0.00     0.042 C 
BRANCH  28  29
ATOM     29  C   UNL A   1      32.572  32.808  27.253  1.00  0.00     0.118 C 
BRANCH  29  30
ATOM     30  N   UNL A   1      32.424  34.212  27.619  1.00  0.00    -0.352 N 
ATOM     31  C   UNL A   1      33.008  34.926  28.634  1.00  0.00     0.251 C 
ATOM     32  H   UNL A   1      31.810  34.728  27.048  1.00  0.00     0.163 HD
ATOM     33  O   UNL A   1      32.546  36.017  28.955  1.00  0.00    -0.269 OA
BRANCH  31  34
ATOM     34  C   UNL A   1      34.188  34.391  29.342  1.00  0.00     0.039 A 
ATOM     35  C   UNL A   1      33.997  33.662  30.521  1.00  0.00     0.014 A 
ATOM     36  C   UNL A   1      35.480  34.648  28.876  1.00  0.00     0.014 A 
ATOM     37  C   UNL A   1      35.101  33.137  31.196  1.00  0.00     0.010 A 
ATOM     38  C   UNL A   1      36.574  34.070  29.513  1.00  0.00     0.010 A 
ATOM     39  C   UNL A   1      36.395  33.308  30.677  1.00  0.00    -0.014 A 
BRANCH  39  40
ATOM     40  C   UNL A   1      37.574  32.680  31.323  1.00  0.00     0.031 A 
ATOM     41  C   UNL A   1      38.280  31.535  30.657  1.00  0.00     0.074 A 
ATOM     42  C   UNL A   1      37.953  33.094  32.547  1.00  0.00     0.049 A 
ATOM     43  N   UNL A   1      39.259  30.791  31.109  1.00  0.00    -0.248 NA
ATOM     44  C   UNL A   1      37.806  31.155  29.317  1.00  0.00     0.031 C 
ATOM     45  C   UNL A   1      37.316  34.171  33.308  1.00  0.00     0.029 A 
ATOM     46  N   UNL A   1      38.951  32.647  33.375  1.00  0.00    -0.354 N 
ATOM     47  C   UNL A   1      39.508  29.852  30.116  1.00  0.00     0.074 A 
ATOM     48  C   UNL A   1      38.547  30.087  29.060  1.00  0.00     0.031 C 
ATOM     49  C   UNL A   1      37.948  34.310  34.484  1.00  0.00     0.029 A 
ATOM     50  C   UNL A   1      39.003  33.307  34.579  1.00  0.00     0.049 A 
ATOM     51  H   UNL A   1      39.571  31.923  33.129  1.00  0.00     0.167 HD
ATOM     52  C   UNL A   1      40.465  28.893  30.084  1.00  0.00     0.037 A 
ATOM     53  C   UNL A   1      39.800  33.110  35.646  1.00  0.00     0.037 A 
ATOM     54  C   UNL A   1      41.430  28.678  31.131  1.00  0.00     0.049 A 
ATOM     55  C   UNL A   1      40.839  32.024  35.592  1.00  0.00     0.074 A 
ATOM     56  C   UNL A   1      42.479  27.777  31.167  1.00  0.00     0.029 A 
ATOM     57  N   UNL A   1      41.457  29.372  32.333  1.00  0.00    -0.354 N 
ATOM     58  N   UNL A   1      41.110  31.186  34.621  1.00  0.00    -0.248 NA
ATOM     59  C   UNL A   1      41.686  31.860  36.781  1.00  0.00     0.031 C 
ATOM     60  C   UNL A   1      43.110  27.889  32.411  1.00  0.00     0.029 A 
ATOM     61  C   UNL A   1      42.486  28.897  33.131  1.00  0.00     0.049 A 
ATOM     62  H   UNL A   1      40.836  30.094  32.584  1.00  0.00     0.167 HD
ATOM     63  C   UNL A   1      42.169  30.409  35.072  1.00  0.00     0.074 A 
ATOM     64  C   UNL A   1      42.504  30.891  36.397  1.00  0.00     0.031 C 
ATOM     65  C   UNL A   1      42.804  29.387  34.448  1.00  0.00     0.037 A 
BRANCH  52  66
ATOM     66  C   UNL A   1      40.516  28.002  28.877  1.00  0.00     0.064 A 
ATOM     67  C   UNL A   1      39.791  26.801  28.816  1.00  0.00     0.173 A 
ATOM     68  C   UNL A   1      41.266  28.371  27.750  1.00  0.00     0.173 A 
ATOM     69  F   UNL A   1      39.066  26.398  29.870  1.00  0.00    -0.203 F 
ATOM     70  C   UNL A   1      39.840  25.990  27.685  1.00  0.00     0.198 A 
ATOM     71  C   UNL A   1      41.289  27.572  26.609  1.00  0.00     0.198 A 
ATOM     72  F   UNL A   1      41.974  29.511  27.751  1.00  0.00    -0.203 F 
ATOM     73  F   UNL A   1      39.178  24.825  27.670  1.00  0.00    -0.200 F 
ATOM     74  C   UNL A   1      40.582  26.380  26.580  1.00  0.00     0.200 A 
ATOM     75  F   UNL A   1      41.995  27.957  25.537  1.00  0.00    -0.200 F 
ATOM     76  F   UNL A   1      40.621  25.601  25.490  1.00  0.00    -0.200 F 
ENDBRANCH  52  66
BRANCH  53  77
ATOM     77  C   UNL A   1      39.652  33.968  36.850  1.00  0.00     0.064 A 
ATOM     78  C   UNL A   1      38.841  33.568  37.922  1.00  0.00     0.173 A 
ATOM     79  C   UNL A   1      40.314  35.199  36.957  1.00  0.00     0.173 A 
ATOM     80  F   UNL A   1      38.172  32.407  37.858  1.00  0.00    -0.203 F 
ATOM     81  C   UNL A   1      38.681  34.378  39.045  1.00  0.00     0.198 A 
ATOM     82  C   UNL A   1      40.177  35.994  38.094  1.00  0.00     0.198 A 
ATOM     83  F   UNL A   1      41.107  35.625  35.963  1.00  0.00    -0.203 F 
ATOM     84  F   UNL A   1      37.865  33.992  40.035  1.00  0.00    -0.200 F 
ATOM     85  C   UNL A   1      39.355  35.587  39.132  1.00  0.00     0.200 A 
ATOM     86  F   UNL A   1      40.843  37.154  38.181  1.00  0.00    -0.200 F 
ATOM     87  F   UNL A   1      39.205  36.362  40.215  1.00  0.00    -0.200 F 
ENDBRANCH  53  77
BRANCH  65  88
ATOM     88  C   UNL A   1      43.939  28.736  35.183  1.00  0.00     0.064 A 
ATOM     89  C   UNL A   1      43.732  27.635  36.027  1.00  0.00     0.173 A 
ATOM     90  C   UNL A   1      45.254  29.195  35.013  1.00  0.00     0.173 A 
ATOM     91  F   UNL A   1      42.491  27.169  36.236  1.00  0.00    -0.203 F 
ATOM     92  C   UNL A   1      44.796  27.034  36.694  1.00  0.00     0.198 A 
ATOM     93  C   UNL A   1      46.319  28.572  35.657  1.00  0.00     0.198 A 
ATOM     94  F   UNL A   1      45.507  30.241  34.212  1.00  0.00    -0.203 F 
ATOM     95  F   UNL A   1      44.567  26.015  37.534  1.00  0.00    -0.200 F 
ATOM     96  C   UNL A   1      46.088  27.498  36.502  1.00  0.00     0.200 A 
ATOM     97  F   UNL A   1      47.570  29.013  35.459  1.00  0.00    -0.200 F 
ATOM     98  F   UNL A   1      47.113  26.914  37.138  1.00  0.00    -0.200 F 
ENDBRANCH  65  88
ENDBRANCH  39  40
ENDBRANCH  31  34
ENDBRANCH  29  30
ENDBRANCH  28  29
ENDBRANCH  27  28
ENDBRANCH   3  27
TORSDOF 15
ENDMDL
MODEL 2
REMARK VINA RESULT:     -12.7      5.739     11.673
REMARK SMILES O=C(NC[C@@H]1CCCO1)C(=O)N/N=C/c1ccc(C(=O)NCCCNC(=O)c2ccc(-c3c4nc(c(-c5c(F)c(F)c(F)c(F)c5F)c5ccc([nH]5)c(-c5c(F)c(F)c(F)c(F)c5F)c5nc(c(-c6c(F)c(F)c(F)c(F)c6F)c6ccc3[nH]6)C=C5)C=C4)cc2)cc1
REMARK SMILES IDX 19 1 20 2 21 3 18 5 15 6 16 7 92 8 17 9 91 10 14 11 13 12
REMARK SMILES IDX 12 13 10 14 11 15 2 17 1 18 3 19 4 21 5 22 6 23 9 24 7 25
REMARK SMILES IDX 8 26 22 27 23 28 24 29 25 30 26 31 27 33 28 34 29 35 90 36
REMARK SMILES IDX 30 37 89 38 31 39 32 40 33 41 83 42 34 43 88 44 82 45 84 46
REMARK SMILES IDX 35 47 87 48 81 49 80 50 36 52 68 53 48 54 67 55 49 56 52 57
REMARK SMILES IDX 66 58 85 59 50 60 51 61 65 63 86 64 53 65 37 66 38 67 46 68
REMARK SMILES IDX 39 69 40 70 44 71 47 72 41 73 42 74 45 75 43 76 69 77 70 78
REMARK SMILES IDX 78 79 71 80 72 81 76 82 79 83 73 84 74 85 77 86 75 87 54 88
REMARK SMILES IDX 55 89 63 90 56 91 57 92 61 93 64 94 58 95 59 96 62 97 60 98
REMARK H PARENT 21 4 12 16 3 20 25 32 84 51 52 62
REMARK Flexibility Score: inf
ROOT
ATOM      1  C   UNL A   1      37.783  22.975  25.564  1.00  0.00     0.251 C 
ATOM      2  O   UNL A   1      38.482  23.802  26.151  1.00  0.00    -0.269 OA
ATOM      3  N   UNL A   1      38.252  21.692  25.514  1.00  0.00    -0.352 N 
ATOM      4  H   UNL A   1      39.129  21.584  25.948  1.00  0.00     0.163 HD
ENDROOT
BRANCH   1   5
ATOM      5  C   UNL A   1      36.486  23.424  24.987  1.00  0.00     0.039 A 
ATOM      6  C   UNL A   1      34.084  24.557  24.035  1.00  0.00    -0.005 A 
ATOM      7  C   UNL A   1      34.488  24.796  25.346  1.00  0.00     0.010 A 
ATOM      8  C   UNL A   1      34.861  23.731  23.209  1.00  0.00     0.010 A 
ATOM      9  C   UNL A   1      35.677  24.227  25.815  1.00  0.00     0.014 A 
ATOM     10  C   UNL A   1      36.074  23.200  23.672  1.00  0.00     0.014 A 
BRANCH   6  11
ATOM     11  C   UNL A   1      33.022  25.421  23.459  1.00  0.00     0.141 C 
ATOM     12  N   UNL A   1      32.109  25.909  24.236  1.00  0.00    -0.180 NA
BRANCH  12  13
ATOM     13  N   UNL A   1      30.992  26.409  23.626  1.00  0.00    -0.239 N 
ATOM     14  C   UNL A   1      31.080  27.493  22.745  1.00  0.00     0.329 C 
ATOM     15  O   UNL A   1      30.573  27.432  21.626  1.00  0.00    -0.262 OA
ATOM     16  H   UNL A   1      30.115  26.001  23.808  1.00  0.00     0.194 HD
BRANCH  14  17
ATOM     17  C   UNL A   1      31.619  28.856  23.230  1.00  0.00     0.311 C 
ATOM     18  O   UNL A   1      32.813  29.101  23.068  1.00  0.00    -0.264 OA
ATOM     19  N   UNL A   1      30.820  29.744  23.943  1.00  0.00    -0.345 N 
ATOM     20  H   UNL A   1      31.191  30.191  24.739  1.00  0.00     0.164 HD
BRANCH  19  21
ATOM     21  C   UNL A   1      29.468  30.025  23.550  1.00  0.00     0.148 C 
BRANCH  21  22
ATOM     22  C   UNL A   1      29.118  30.975  22.425  1.00  0.00     0.137 C 
ATOM     23  C   UNL A   1      28.179  32.130  22.660  1.00  0.00     0.036 C 
ATOM     24  O   UNL A   1      28.610  30.291  21.275  1.00  0.00    -0.376 OA
ATOM     25  C   UNL A   1      28.027  32.596  21.224  1.00  0.00     0.031 C 
ATOM     26  C   UNL A   1      27.995  31.287  20.445  1.00  0.00     0.160 C 
ENDBRANCH  21  22
ENDBRANCH  19  21
ENDBRANCH  14  17
ENDBRANCH  12  13
ENDBRANCH   6  11
ENDBRANCH   1   5
BRANCH   3  27
ATOM     27  C   UNL A   1      37.735  20.454  24.958  1.00  0.00     0.118 C 
BRANCH  27  28
ATOM     28  C   UNL A   1      38.649  19.285  25.325  1.00  0.00     0.042 C 
BRANCH  28  29
ATOM     29  C   UNL A   1      39.809  19.708  26.227  1.00  0.00     0.118 C 
BRANCH  29  30
ATOM     30  N   UNL A   1      40.966  18.839  26.048  1.00  0.00    -0.352 N 
ATOM     31  C   UNL A   1      42.295  19.154  25.913  1.00  0.00     0.251 C 
ATOM     32  H   UNL A   1      40.764  17.876  26.019  1.00  0.00     0.163 HD
ATOM     33  O   UNL A   1      43.081  18.313  25.489  1.00  0.00    -0.269 OA
BRANCH  31  34
ATOM     34  C   UNL A   1      42.784  20.500  26.275  1.00  0.00     0.039 A 
ATOM     35  C   UNL A   1      43.436  21.267  25.304  1.00  0.00     0.014 A 
ATOM     36  C   UNL A   1      42.646  20.985  27.578  1.00  0.00     0.014 A 
ATOM     37  C   UNL A   1      43.893  22.547  25.625  1.00  0.00     0.010 A 
ATOM     38  C   UNL A   1      43.043  22.284  27.879  1.00  0.00     0.010 A 
ATOM     39  C   UNL A   1      43.668  23.077  26.906  1.00  0.00    -0.014 A 
BRANCH  39  40
ATOM     40  C   UNL A   1      44.058  24.469  27.244  1.00  0.00     0.031 A 
ATOM     41  C   UNL A   1      43.018  25.462  27.675  1.00  0.00     0.074 A 
ATOM     42  C   UNL A   1      45.339  24.852  27.080  1.00  0.00     0.049 A 
ATOM     43  N   UNL A   1      43.146  26.745  27.911  1.00  0.00    -0.248 NA
ATOM     44  C   UNL A   1      41.647  24.956  27.836  1.00  0.00     0.031 C 
ATOM     45  C   UNL A   1      46.428  23.984  26.628  1.00  0.00     0.029 A 
ATOM     46  N   UNL A   1      45.939  26.073  27.258  1.00  0.00    -0.354 N 
ATOM     47  C   UNL A   1      41.874  27.197  28.235  1.00  0.00     0.074 A 
ATOM     48  C   UNL A   1      40.979  26.065  28.118  1.00  0.00     0.031 C 
ATOM     49  C   UNL A   1      47.564  24.696  26.577  1.00  0.00     0.029 A 
ATOM     50  C   UNL A   1      47.277  26.077  26.950  1.00  0.00     0.049 A 
ATOM     51  H   UNL A   1      45.456  26.869  27.576  1.00  0.00     0.167 HD
ATOM     52  C   UNL A   1      41.493  28.441  28.614  1.00  0.00     0.037 A 
ATOM     53  C   UNL A   1      48.168  27.087  26.950  1.00  0.00     0.037 A 
ATOM     54  C   UNL A   1      42.392  29.557  28.746  1.00  0.00     0.049 A 
ATOM     55  C   UNL A   1      47.712  28.462  27.353  1.00  0.00     0.074 A 
ATOM     56  C   UNL A   1      42.118  30.840  29.183  1.00  0.00     0.029 A 
ATOM     57  N   UNL A   1      43.744  29.522  28.432  1.00  0.00    -0.354 N 
ATOM     58  N   UNL A   1      46.520  28.864  27.722  1.00  0.00    -0.248 NA
ATOM     59  C   UNL A   1      48.728  29.524  27.341  1.00  0.00     0.031 C 
ATOM     60  C   UNL A   1      43.291  31.596  29.086  1.00  0.00     0.029 A 
ATOM     61  C   UNL A   1      44.310  30.770  28.638  1.00  0.00     0.049 A 
ATOM     62  H   UNL A   1      44.229  28.728  28.110  1.00  0.00     0.167 HD
ATOM     63  C   UNL A   1      46.646  30.218  28.007  1.00  0.00     0.074 A 
ATOM     64  C   UNL A   1      48.035  30.563  27.786  1.00  0.00     0.031 C 
ATOM     65  C   UNL A   1      45.695  31.096  28.411  1.00  0.00     0.037 A 
BRANCH  52  66
ATOM     66  C   UNL A   1      40.038  28.661  28.912  1.00  0.00     0.064 A 
ATOM     67  C   UNL A   1      39.506  28.443  30.193  1.00  0.00     0.173 A 
ATOM     68  C   UNL A   1      39.170  29.136  27.916  1.00  0.00     0.173 A 
ATOM     69  F   UNL A   1      40.291  27.981  31.178  1.00  0.00    -0.203 F 
ATOM     70  C   UNL A   1      38.157  28.662  30.457  1.00  0.00     0.198 A 
ATOM     71  C   UNL A   1      37.827  29.382  28.192  1.00  0.00     0.198 A 
ATOM     72  F   UNL A   1      39.625  29.367  26.676  1.00  0.00    -0.203 F 
ATOM     73  F   UNL A   1      37.663  28.399  31.675  1.00  0.00    -0.200 F 
ATOM     74  C   UNL A   1      37.321  29.139  29.459  1.00  0.00     0.200 A 
ATOM     75  F   UNL A   1      37.023  29.856  27.230  1.00  0.00    -0.200 F 
ATOM     76  F   UNL A   1      36.023  29.356  29.717  1.00  0.00    -0.200 F 
ENDBRANCH  52  66
BRANCH  53  77
ATOM     77  C   UNL A   1      49.580  26.831  26.564  1.00  0.00     0.064 A 
ATOM     78  C   UNL A   1      50.529  26.449  27.523  1.00  0.00     0.173 A 
ATOM     79  C   UNL A   1      50.010  26.961  25.236  1.00  0.00     0.173 A 
ATOM     80  F   UNL A   1      50.169  26.330  28.810  1.00  0.00    -0.203 F 
ATOM     81  C   UNL A   1      51.859  26.228  27.172  1.00  0.00     0.198 A 
ATOM     82  C   UNL A   1      51.334  26.710  24.881  1.00  0.00     0.198 A 
ATOM     83  F   UNL A   1      49.141  27.317  24.279  1.00  0.00    -0.203 F 
ATOM     84  F   UNL A   1      52.754  25.908  28.116  1.00  0.00    -0.200 F 
ATOM     85  C   UNL A   1      52.259  26.352  25.849  1.00  0.00     0.200 A 
ATOM     86  F   UNL A   1      51.713  26.816  23.600  1.00  0.00    -0.200 F 
ATOM     87  F   UNL A   1      53.537  26.134  25.511  1.00  0.00    -0.200 F 
ENDBRANCH  53  77
BRANCH  65  88
ATOM     88  C   UNL A   1      46.132  32.510  28.661  1.00  0.00     0.064 A 
ATOM     89  C   UNL A   1      46.083  33.483  27.651  1.00  0.00     0.173 A 
ATOM     90  C   UNL A   1      46.571  32.906  29.933  1.00  0.00     0.173 A 
ATOM     91  F   UNL A   1      45.687  33.151  26.413  1.00  0.00    -0.203 F 
ATOM     92  C   UNL A   1      46.481  34.794  27.900  1.00  0.00     0.198 A 
ATOM     93  C   UNL A   1      46.939  34.224  30.187  1.00  0.00     0.198 A 
ATOM     94  F   UNL A   1      46.631  32.015  30.935  1.00  0.00    -0.203 F 
ATOM     95  F   UNL A   1      46.472  35.694  26.907  1.00  0.00    -0.200 F 
ATOM     96  C   UNL A   1      46.901  35.164  29.168  1.00  0.00     0.200 A 
ATOM     97  F   UNL A   1      47.330  34.583  31.417  1.00  0.00    -0.200 F 
ATOM     98  F   UNL A   1      47.276  36.428  29.409  1.00  0.00    -0.200 F 
ENDBRANCH  65  88
ENDBRANCH  39  40
ENDBRANCH  31  34
ENDBRANCH  29  30
ENDBRANCH  28  29
ENDBRANCH  27  28
ENDBRANCH   3  27
TORSDOF 15
ENDMDL
MODEL 3
REMARK VINA RESULT:     -12.6      6.308     11.117
REMARK SMILES O=C(NC[C@@H]1CCCO1)C(=O)N/N=C/c1ccc(C(=O)NCCCNC(=O)c2ccc(-c3c4nc(c(-c5c(F)c(F)c(F)c(F)c5F)c5ccc([nH]5)c(-c5c(F)c(F)c(F)c(F)c5F)c5nc(c(-c6c(F)c(F)c(F)c(F)c6F)c6ccc3[nH]6)C=C5)C=C4)cc2)cc1
REMARK SMILES IDX 19 1 20 2 21 3 18 5 15 6 16 7 92 8 17 9 91 10 14 11 13 12
REMARK SMILES IDX 12 13 10 14 11 15 2 17 1 18 3 19 4 21 5 22 6 23 9 24 7 25
REMARK SMILES IDX 8 26 22 27 23 28 24 29 25 30 26 31 27 33 28 34 29 35 90 36
REMARK SMILES IDX 30 37 89 38 31 39 32 40 33 41 83 42 34 43 88 44 82 45 84 46
REMARK SMILES IDX 35 47 87 48 81 49 80 50 36 52 68 53 48 54 67 55 49 56 52 57
REMARK SMILES IDX 66 58 85 59 50 60 51 61 65 63 86 64 53 65 37 66 38 67 46 68
REMARK SMILES IDX 39 69 40 70 44 71 47 72 41 73 42 74 45 75 43 76 69 77 70 78
REMARK SMILES IDX 78 79 71 80 72 81 76 82 79 83 73 84 74 85 77 86 75 87 54 88
REMARK SMILES IDX 55 89 63 90 56 91 57 92 61 93 64 94 58 95 59 96 62 97 60 98
REMARK H PARENT 21 4 12 16 3 20 25 32 84 51 52 62
REMARK Flexibility Score: inf
ROOT
ATOM      1  C   UNL A   1      41.155  21.953  27.890  1.00  0.00     0.251 C 
ATOM      2  O   UNL A   1      41.695  22.685  28.721  1.00  0.00    -0.269 OA
ATOM      3  N   UNL A   1      41.639  20.679  27.782  1.00  0.00    -0.352 N 
ATOM      4  H   UNL A   1      42.397  20.500  28.384  1.00  0.00     0.163 HD
ENDROOT
BRANCH   1   5
ATOM      5  C   UNL A   1      40.016  22.495  27.100  1.00  0.00     0.039 A 
ATOM      6  C   UNL A   1      37.715  23.238  25.646  1.00  0.00    -0.005 A 
ATOM      7  C   UNL A   1      38.268  21.974  25.465  1.00  0.00     0.010 A 
ATOM      8  C   UNL A   1      38.324  24.142  26.531  1.00  0.00     0.010 A 
ATOM      9  C   UNL A   1      39.412  21.612  26.184  1.00  0.00     0.014 A 
ATOM     10  C   UNL A   1      39.445  23.757  27.280  1.00  0.00     0.014 A 
BRANCH   6  11
ATOM     11  C   UNL A   1      36.338  23.481  25.144  1.00  0.00     0.141 C 
ATOM     12  N   UNL A   1      35.403  23.797  25.981  1.00  0.00    -0.180 NA
BRANCH  12  13
ATOM     13  N   UNL A   1      34.117  23.685  25.532  1.00  0.00    -0.239 N 
ATOM     14  C   UNL A   1      33.060  23.478  26.426  1.00  0.00     0.329 C 
ATOM     15  O   UNL A   1      32.063  24.198  26.392  1.00  0.00    -0.262 OA
ATOM     16  H   UNL A   1      33.932  23.753  24.567  1.00  0.00     0.194 HD
BRANCH  14  17
ATOM     17  C   UNL A   1      33.025  22.220  27.320  1.00  0.00     0.311 C 
ATOM     18  O   UNL A   1      32.742  22.359  28.509  1.00  0.00    -0.264 OA
ATOM     19  N   UNL A   1      33.419  20.975  26.842  1.00  0.00    -0.345 N 
ATOM     20  H   UNL A   1      33.996  20.406  27.402  1.00  0.00     0.164 HD
BRANCH  19  21
ATOM     21  C   UNL A   1      33.005  20.496  25.553  1.00  0.00     0.148 C 
BRANCH  21  22
ATOM     22  C   UNL A   1      33.203  19.064  25.104  1.00  0.00     0.137 C 
ATOM     23  C   UNL A   1      32.855  18.645  23.699  1.00  0.00     0.036 C 
ATOM     24  O   UNL A   1      32.538  18.130  25.962  1.00  0.00    -0.376 OA
ATOM     25  C   UNL A   1      33.039  17.148  23.855  1.00  0.00     0.031 C 
ATOM     26  C   UNL A   1      32.495  16.883  25.253  1.00  0.00     0.160 C 
ENDBRANCH  21  22
ENDBRANCH  19  21
ENDBRANCH  14  17
ENDBRANCH  12  13
ENDBRANCH   6  11
ENDBRANCH   1   5
BRANCH   3  27
ATOM     27  C   UNL A   1      41.274  19.532  26.969  1.00  0.00     0.118 C 
BRANCH  27  28
ATOM     28  C   UNL A   1      42.199  19.426  25.756  1.00  0.00     0.042 C 
BRANCH  28  29
ATOM     29  C   UNL A   1      43.485  18.658  26.064  1.00  0.00     0.118 C 
BRANCH  29  30
ATOM     30  N   UNL A   1      44.325  18.530  24.878  1.00  0.00    -0.352 N 
ATOM     31  C   UNL A   1      44.885  19.498  24.085  1.00  0.00     0.251 C 
ATOM     32  H   UNL A   1      44.520  17.605  24.605  1.00  0.00     0.163 HD
ATOM     33  O   UNL A   1      45.320  19.201  22.977  1.00  0.00    -0.269 OA
BRANCH  31  34
ATOM     34  C   UNL A   1      44.968  20.895  24.556  1.00  0.00     0.039 A 
ATOM     35  C   UNL A   1      45.515  21.153  25.817  1.00  0.00     0.014 A 
ATOM     36  C   UNL A   1      44.463  21.943  23.782  1.00  0.00     0.014 A 
ATOM     37  C   UNL A   1      45.613  22.469  26.273  1.00  0.00     0.010 A 
ATOM     38  C   UNL A   1      44.620  23.258  24.208  1.00  0.00     0.010 A 
ATOM     39  C   UNL A   1      45.198  23.533  25.456  1.00  0.00    -0.014 A 
BRANCH  39  40
ATOM     40  C   UNL A   1      45.379  24.945  25.877  1.00  0.00     0.031 A 
ATOM     41  C   UNL A   1      46.735  25.586  25.810  1.00  0.00     0.074 A 
ATOM     42  C   UNL A   1      44.333  25.617  26.395  1.00  0.00     0.049 A 
ATOM     43  N   UNL A   1      47.113  26.769  26.228  1.00  0.00    -0.248 NA
ATOM     44  C   UNL A   1      47.818  24.783  25.222  1.00  0.00     0.031 C 
ATOM     45  C   UNL A   1      42.978  25.083  26.546  1.00  0.00     0.029 A 
ATOM     46  N   UNL A   1      44.249  26.887  26.906  1.00  0.00    -0.354 N 
ATOM     47  C   UNL A   1      48.475  26.845  25.963  1.00  0.00     0.074 A 
ATOM     48  C   UNL A   1      48.867  25.572  25.396  1.00  0.00     0.031 C 
ATOM     49  C   UNL A   1      42.196  26.022  27.099  1.00  0.00     0.029 A 
ATOM     50  C   UNL A   1      43.001  27.207  27.381  1.00  0.00     0.049 A 
ATOM     51  H   UNL A   1      45.011  27.510  26.930  1.00  0.00     0.167 HD
ATOM     52  C   UNL A   1      49.314  27.889  26.161  1.00  0.00     0.037 A 
ATOM     53  C   UNL A   1      42.561  28.322  27.993  1.00  0.00     0.037 A 
ATOM     54  C   UNL A   1      48.911  29.158  26.709  1.00  0.00     0.049 A 
ATOM     55  C   UNL A   1      43.520  29.458  28.220  1.00  0.00     0.074 A 
ATOM     56  C   UNL A   1      49.670  30.300  26.890  1.00  0.00     0.029 A 
ATOM     57  N   UNL A   1      47.636  29.448  27.172  1.00  0.00    -0.354 N 
ATOM     58  N   UNL A   1      44.790  29.544  27.905  1.00  0.00    -0.248 NA
ATOM     59  C   UNL A   1      42.983  30.654  28.884  1.00  0.00     0.031 C 
ATOM     60  C   UNL A   1      48.868  31.265  27.510  1.00  0.00     0.029 A 
ATOM     61  C   UNL A   1      47.594  30.742  27.667  1.00  0.00     0.049 A 
ATOM     62  H   UNL A   1      46.872  28.826  27.153  1.00  0.00     0.167 HD
ATOM     63  C   UNL A   1      45.199  30.807  28.313  1.00  0.00     0.074 A 
ATOM     64  C   UNL A   1      44.036  31.459  28.880  1.00  0.00     0.031 C 
ATOM     65  C   UNL A   1      46.427  31.374  28.229  1.00  0.00     0.037 A 
BRANCH  52  66
ATOM     66  C   UNL A   1      50.756  27.704  25.782  1.00  0.00     0.064 A 
ATOM     67  C   UNL A   1      51.204  27.901  24.466  1.00  0.00     0.173 A 
ATOM     68  C   UNL A   1      51.709  27.365  26.755  1.00  0.00     0.173 A 
ATOM     69  F   UNL A   1      50.331  28.216  23.498  1.00  0.00    -0.203 F 
ATOM     70  C   UNL A   1      52.545  27.735  24.133  1.00  0.00     0.198 A 
ATOM     71  C   UNL A   1      53.055  27.230  26.423  1.00  0.00     0.198 A 
ATOM     72  F   UNL A   1      51.338  27.171  28.029  1.00  0.00    -0.203 F 
ATOM     73  F   UNL A   1      52.940  27.879  22.860  1.00  0.00    -0.200 F 
ATOM     74  C   UNL A   1      53.471  27.408  25.112  1.00  0.00     0.200 A 
ATOM     75  F   UNL A   1      53.951  26.927  27.373  1.00  0.00    -0.200 F 
ATOM     76  F   UNL A   1      54.763  27.256  24.791  1.00  0.00    -0.200 F 
ENDBRANCH  52  66
BRANCH  53  77
ATOM     77  C   UNL A   1      41.142  28.422  28.424  1.00  0.00     0.064 A 
ATOM     78  C   UNL A   1      40.165  28.949  27.566  1.00  0.00     0.173 A 
ATOM     79  C   UNL A   1      40.732  27.995  29.694  1.00  0.00     0.173 A 
ATOM     80  F   UNL A   1      40.513  29.388  26.348  1.00  0.00    -0.203 F 
ATOM     81  C   UNL A   1      38.838  29.064  27.972  1.00  0.00     0.198 A 
ATOM     82  C   UNL A   1      39.398  28.082  30.088  1.00  0.00     0.198 A 
ATOM     83  F   UNL A   1      41.625  27.476  30.551  1.00  0.00    -0.203 F 
ATOM     84  F   UNL A   1      37.934  29.612  27.149  1.00  0.00    -0.200 F 
ATOM     85  C   UNL A   1      38.454  28.624  29.230  1.00  0.00     0.200 A 
ATOM     86  F   UNL A   1      39.028  27.641  31.298  1.00  0.00    -0.200 F 
ATOM     87  F   UNL A   1      37.176  28.730  29.617  1.00  0.00    -0.200 F 
ENDBRANCH  53  77
BRANCH  65  88
ATOM     88  C   UNL A   1      46.570  32.776  28.744  1.00  0.00     0.064 A 
ATOM     89  C   UNL A   1      46.951  33.037  30.069  1.00  0.00     0.173 A 
ATOM     90  C   UNL A   1      46.360  33.872  27.894  1.00  0.00     0.173 A 
ATOM     91  F   UNL A   1      47.148  32.024  30.927  1.00  0.00    -0.203 F 
ATOM     92  C   UNL A   1      47.091  34.343  30.530  1.00  0.00     0.198 A 
ATOM     93  C   UNL A   1      46.530  35.176  28.349  1.00  0.00     0.198 A 
ATOM     94  F   UNL A   1      45.999  33.677  26.616  1.00  0.00    -0.203 F 
ATOM     95  F   UNL A   1      47.406  34.568  31.813  1.00  0.00    -0.200 F 
ATOM     96  C   UNL A   1      46.887  35.410  29.668  1.00  0.00     0.200 A 
ATOM     97  F   UNL A   1      46.347  36.206  27.511  1.00  0.00    -0.200 F 
ATOM     98  F   UNL A   1      47.029  36.668  30.111  1.00  0.00    -0.200 F 
ENDBRANCH  65  88
ENDBRANCH  39  40
ENDBRANCH  31  34
ENDBRANCH  29  30
ENDBRANCH  28  29
ENDBRANCH  27  28
ENDBRANCH   3  27
TORSDOF 15
ENDMDL
