MODEL 1
REMARK VINA RESULT:      -9.0      0.000      0.000
REMARK SMILES CCCCCCOC(=O)Nc1cccc(-c2ccc([C@@H](C)C(=O)NCCCNC(=O)c3ccc(-c4c5nc(c(-c6c(F)c(F)c(F)c(F)c6F)c6ccc([nH]6)c(-c6c(F)c(F)c(F)c(F)c6F)c6nc(c(-c7c(F)c(F)c(F)c(F)c7F)c7ccc4[nH]7)C=C6)C=C5)cc3)cc2F)c1
REMARK SMILES IDX 16 1 17 2 18 3 19 4 94 5 95 6 96 7 15 8 11 9 12 10 97 11
REMARK SMILES IDX 13 12 14 13 10 14 8 15 9 16 7 18 6 19 5 20 4 21 3 22 2 23
REMARK SMILES IDX 1 24 20 25 21 26 22 27 23 28 24 29 25 31 26 32 27 33 28 34
REMARK SMILES IDX 29 35 30 37 31 38 32 39 93 40 33 41 92 42 34 43 35 44 36 45
REMARK SMILES IDX 86 46 37 47 91 48 85 49 87 50 38 51 90 52 84 53 83 54 39 56
REMARK SMILES IDX 71 57 51 58 70 59 52 60 55 61 69 62 88 63 53 64 54 65 68 67
REMARK SMILES IDX 89 68 56 69 40 70 41 71 49 72 42 73 43 74 47 75 50 76 44 77
REMARK SMILES IDX 45 78 48 79 46 80 72 81 73 82 81 83 74 84 75 85 79 86 82 87
REMARK SMILES IDX 76 88 77 89 80 90 78 91 57 92 58 93 66 94 59 95 60 96 64 97
REMARK SMILES IDX 67 98 61 99 62 100 65 101 63 102
REMARK H PARENT 10 17 24 30 28 36 87 55 55 66
REMARK Flexibility Score: inf
ROOT
ATOM      1  C   UNL A   1      44.114  23.967  29.740  1.00  0.00     0.018 A 
ATOM      2  C   UNL A   1      42.843  23.480  29.400  1.00  0.00     0.012 A 
ATOM      3  C   UNL A   1      42.581  22.936  28.135  1.00  0.00     0.005 A 
ATOM      4  C   UNL A   1      43.558  22.920  27.135  1.00  0.00    -0.033 A 
ATOM      5  C   UNL A   1      44.839  23.373  27.473  1.00  0.00     0.044 A 
ATOM      6  C   UNL A   1      45.108  23.862  28.753  1.00  0.00     0.131 A 
ATOM      7  F   UNL A   1      46.372  24.235  29.014  1.00  0.00    -0.206 F 
ENDROOT
BRANCH   1   8
ATOM      8  C   UNL A   1      44.377  24.565  31.066  1.00  0.00    -0.013 A 
ATOM      9  C   UNL A   1      44.868  26.536  32.438  1.00  0.00     0.045 A 
ATOM     10  C   UNL A   1      45.041  25.728  33.558  1.00  0.00     0.026 A 
ATOM     11  C   UNL A   1      44.520  25.955  31.213  1.00  0.00     0.035 A 
ATOM     12  C   UNL A   1      44.833  24.354  33.458  1.00  0.00     0.003 A 
ATOM     13  C   UNL A   1      44.516  23.779  32.223  1.00  0.00     0.009 A 
BRANCH   9  14
ATOM     14  N   UNL A   1      45.168  27.900  32.541  1.00  0.00    -0.291 N 
ATOM     15  C   UNL A   1      44.296  28.953  32.470  1.00  0.00     0.411 C 
ATOM     16  O   UNL A   1      44.664  30.056  32.106  1.00  0.00    -0.224 OA
ATOM     17  H   UNL A   1      46.116  28.127  32.681  1.00  0.00     0.173 HD
BRANCH  15  18
ATOM     18  O   UNL A   1      43.066  28.652  32.967  1.00  0.00    -0.449 OA
BRANCH  18  19
ATOM     19  C   UNL A   1      41.919  28.937  32.150  1.00  0.00     0.235 C 
BRANCH  19  20
ATOM     20  C   UNL A   1      40.947  29.906  32.832  1.00  0.00     0.042 C 
BRANCH  20  21
ATOM     21  C   UNL A   1      41.511  30.685  34.028  1.00  0.00     0.003 C 
BRANCH  21  22
ATOM     22  C   UNL A   1      42.109  32.056  33.686  1.00  0.00    -0.000 C 
BRANCH  22  23
ATOM     23  C   UNL A   1      41.426  33.244  34.360  1.00  0.00    -0.003 C 
ATOM     24  C   UNL A   1      39.912  33.120  34.375  1.00  0.00     0.004 C 
ENDBRANCH  22  23
ENDBRANCH  21  22
ENDBRANCH  20  21
ENDBRANCH  19  20
ENDBRANCH  18  19
ENDBRANCH  15  18
ENDBRANCH   9  14
ENDBRANCH   1   8
BRANCH   4  25
ATOM     25  C   UNL A   1      43.285  22.474  25.707  1.00  0.00     0.105 C 
ATOM     26  C   UNL A   1      43.474  23.541  24.631  1.00  0.00     0.023 C 
BRANCH  25  27
ATOM     27  C   UNL A   1      43.901  21.108  25.367  1.00  0.00     0.227 C 
ATOM     28  O   UNL A   1      44.853  21.039  24.580  1.00  0.00    -0.274 OA
ATOM     29  N   UNL A   1      43.467  19.927  25.885  1.00  0.00    -0.356 N 
ATOM     30  H   UNL A   1      44.010  19.149  25.623  1.00  0.00     0.163 HD
BRANCH  29  31
ATOM     31  C   UNL A   1      42.350  19.604  26.748  1.00  0.00     0.117 C 
BRANCH  31  32
ATOM     32  C   UNL A   1      41.010  19.992  26.127  1.00  0.00     0.042 C 
BRANCH  32  33
ATOM     33  C   UNL A   1      40.287  21.108  26.868  1.00  0.00     0.118 C 
BRANCH  33  34
ATOM     34  N   UNL A   1      39.087  21.542  26.168  1.00  0.00    -0.352 N 
ATOM     35  C   UNL A   1      38.478  22.769  26.104  1.00  0.00     0.251 C 
ATOM     36  H   UNL A   1      38.635  20.835  25.653  1.00  0.00     0.163 HD
ATOM     37  O   UNL A   1      37.347  22.845  25.630  1.00  0.00    -0.269 OA
BRANCH  35  38
ATOM     38  C   UNL A   1      39.147  23.998  26.593  1.00  0.00     0.039 A 
ATOM     39  C   UNL A   1      38.922  24.397  27.915  1.00  0.00     0.014 A 
ATOM     40  C   UNL A   1      39.918  24.805  25.753  1.00  0.00     0.014 A 
ATOM     41  C   UNL A   1      39.487  25.581  28.397  1.00  0.00     0.010 A 
ATOM     42  C   UNL A   1      40.556  25.937  26.259  1.00  0.00     0.010 A 
ATOM     43  C   UNL A   1      40.323  26.353  27.577  1.00  0.00    -0.014 A 
BRANCH  43  44
ATOM     44  C   UNL A   1      40.914  27.625  28.068  1.00  0.00     0.031 A 
ATOM     45  C   UNL A   1      42.404  27.834  28.017  1.00  0.00     0.074 A 
ATOM     46  C   UNL A   1      40.116  28.576  28.591  1.00  0.00     0.049 A 
ATOM     47  N   UNL A   1      43.114  28.858  28.424  1.00  0.00    -0.248 NA
ATOM     48  C   UNL A   1      43.210  26.735  27.463  1.00  0.00     0.031 C 
ATOM     49  C   UNL A   1      38.665  28.470  28.743  1.00  0.00     0.029 A 
ATOM     50  N   UNL A   1      40.415  29.817  29.095  1.00  0.00    -0.354 N 
ATOM     51  C   UNL A   1      44.440  28.516  28.194  1.00  0.00     0.074 A 
ATOM     52  C   UNL A   1      44.444  27.169  27.666  1.00  0.00     0.031 C 
ATOM     53  C   UNL A   1      38.196  29.610  29.276  1.00  0.00     0.029 A 
ATOM     54  C   UNL A   1      39.315  30.512  29.532  1.00  0.00     0.049 A 
ATOM     55  H   UNL A   1      41.331  30.174  29.139  1.00  0.00     0.167 HD
ATOM     56  C   UNL A   1      45.553  29.265  28.377  1.00  0.00     0.037 A 
ATOM     57  C   UNL A   1      39.220  31.741  30.075  1.00  0.00     0.037 A 
ATOM     58  C   UNL A   1      45.543  30.617  28.870  1.00  0.00     0.049 A 
ATOM     59  C   UNL A   1      40.469  32.564  30.245  1.00  0.00     0.074 A 
ATOM     60  C   UNL A   1      46.608  31.485  29.042  1.00  0.00     0.029 A 
ATOM     61  N   UNL A   1      44.403  31.302  29.271  1.00  0.00    -0.354 N 
ATOM     62  N   UNL A   1      41.710  32.255  29.959  1.00  0.00    -0.248 NA
ATOM     63  C   UNL A   1      40.299  33.913  30.800  1.00  0.00     0.031 C 
ATOM     64  C   UNL A   1      46.119  32.678  29.584  1.00  0.00     0.029 A 
ATOM     65  C   UNL A   1      44.742  32.575  29.701  1.00  0.00     0.049 A 
ATOM     66  H   UNL A   1      43.489  30.936  29.252  1.00  0.00     0.167 HD
ATOM     67  C   UNL A   1      42.464  33.379  30.268  1.00  0.00     0.074 A 
ATOM     68  C   UNL A   1      41.537  34.383  30.746  1.00  0.00     0.031 C 
ATOM     69  C   UNL A   1      43.804  33.565  30.164  1.00  0.00     0.037 A 
BRANCH  56  70
ATOM     70  C   UNL A   1      46.877  28.640  28.037  1.00  0.00     0.064 A 
ATOM     71  C   UNL A   1      47.418  28.717  26.744  1.00  0.00     0.173 A 
ATOM     72  C   UNL A   1      47.627  27.979  29.021  1.00  0.00     0.173 A 
ATOM     73  F   UNL A   1      46.736  29.328  25.762  1.00  0.00    -0.203 F 
ATOM     74  C   UNL A   1      48.642  28.127  26.442  1.00  0.00     0.198 A 
ATOM     75  C   UNL A   1      48.867  27.419  28.723  1.00  0.00     0.198 A 
ATOM     76  F   UNL A   1      47.161  27.879  30.275  1.00  0.00    -0.203 F 
ATOM     77  F   UNL A   1      49.112  28.167  25.186  1.00  0.00    -0.200 F 
ATOM     78  C   UNL A   1      49.370  27.486  27.432  1.00  0.00     0.200 A 
ATOM     79  F   UNL A   1      49.574  26.810  29.684  1.00  0.00    -0.200 F 
ATOM     80  F   UNL A   1      50.550  26.923  27.141  1.00  0.00    -0.200 F 
ENDBRANCH  56  70
BRANCH  57  81
ATOM     81  C   UNL A   1      37.891  32.284  30.457  1.00  0.00     0.064 A 
ATOM     82  C   UNL A   1      37.322  31.986  31.703  1.00  0.00     0.173 A 
ATOM     83  C   UNL A   1      37.161  33.107  29.588  1.00  0.00     0.173 A 
ATOM     84  F   UNL A   1      37.973  31.188  32.562  1.00  0.00    -0.203 F 
ATOM     85  C   UNL A   1      36.065  32.470  32.056  1.00  0.00     0.198 A 
ATOM     86  C   UNL A   1      35.916  33.615  29.953  1.00  0.00     0.198 A 
ATOM     87  F   UNL A   1      37.663  33.429  28.386  1.00  0.00    -0.203 F 
ATOM     88  F   UNL A   1      35.525  32.130  33.234  1.00  0.00    -0.200 F 
ATOM     89  C   UNL A   1      35.365  33.289  31.182  1.00  0.00     0.200 A 
ATOM     90  F   UNL A   1      35.250  34.420  29.113  1.00  0.00    -0.200 F 
ATOM     91  F   UNL A   1      34.157  33.759  31.524  1.00  0.00    -0.200 F 
ENDBRANCH  57  81
BRANCH  69  92
ATOM     92  C   UNL A   1      44.338  34.918  30.532  1.00  0.00     0.064 A 
ATOM     93  C   UNL A   1      44.779  35.211  31.831  1.00  0.00     0.173 A 
ATOM     94  C   UNL A   1      44.429  35.930  29.564  1.00  0.00     0.173 A 
ATOM     95  F   UNL A   1      44.700  34.283  32.796  1.00  0.00    -0.203 F 
ATOM     96  C   UNL A   1      45.258  36.478  32.156  1.00  0.00     0.198 A 
ATOM     97  C   UNL A   1      44.939  37.185  29.884  1.00  0.00     0.198 A 
ATOM     98  F   UNL A   1      44.029  35.700  28.304  1.00  0.00    -0.203 F 
ATOM     99  F   UNL A   1      45.618  36.753  33.417  1.00  0.00    -0.200 F 
ATOM    100  C   UNL A   1      45.342  37.461  31.181  1.00  0.00     0.200 A 
ATOM    101  F   UNL A   1      45.032  38.130  28.938  1.00  0.00    -0.200 F 
ATOM    102  F   UNL A   1      45.803  38.679  31.496  1.00  0.00    -0.200 F 
ENDBRANCH  69  92
ENDBRANCH  43  44
ENDBRANCH  35  38
ENDBRANCH  33  34
ENDBRANCH  32  33
ENDBRANCH  31  32
ENDBRANCH  29  31
ENDBRANCH  25  27
ENDBRANCH   4  25
TORSDOF 19
ENDMDL
MODEL 2
REMARK VINA RESULT:      -8.8      1.237      2.046
REMARK SMILES CCCCCCOC(=O)Nc1cccc(-c2ccc([C@@H](C)C(=O)NCCCNC(=O)c3ccc(-c4c5nc(c(-c6c(F)c(F)c(F)c(F)c6F)c6ccc([nH]6)c(-c6c(F)c(F)c(F)c(F)c6F)c6nc(c(-c7c(F)c(F)c(F)c(F)c7F)c7ccc4[nH]7)C=C6)C=C5)cc3)cc2F)c1
REMARK SMILES IDX 16 1 17 2 18 3 19 4 94 5 95 6 96 7 15 8 11 9 12 10 97 11
REMARK SMILES IDX 13 12 14 13 10 14 8 15 9 16 7 18 6 19 5 20 4 21 3 22 2 23
REMARK SMILES IDX 1 24 20 25 21 26 22 27 23 28 24 29 25 31 26 32 27 33 28 34
REMARK SMILES IDX 29 35 30 37 31 38 32 39 93 40 33 41 92 42 34 43 35 44 36 45
REMARK SMILES IDX 86 46 37 47 91 48 85 49 87 50 38 51 90 52 84 53 83 54 39 56
REMARK SMILES IDX 71 57 51 58 70 59 52 60 55 61 69 62 88 63 53 64 54 65 68 67
REMARK SMILES IDX 89 68 56 69 40 70 41 71 49 72 42 73 43 74 47 75 50 76 44 77
REMARK SMILES IDX 45 78 48 79 46 80 72 81 73 82 81 83 74 84 75 85 79 86 82 87
REMARK SMILES IDX 76 88 77 89 80 90 78 91 57 92 58 93 66 94 59 95 60 96 64 97
REMARK SMILES IDX 67 98 61 99 62 100 65 101 63 102
REMARK H PARENT 10 17 24 30 28 36 87 55 55 66
REMARK Flexibility Score: inf
ROOT
ATOM      1  C   UNL A   1      44.309  24.134  29.668  1.00  0.00     0.018 A 
ATOM      2  C   UNL A   1      43.030  23.616  29.414  1.00  0.00     0.012 A 
ATOM      3  C   UNL A   1      42.715  23.009  28.191  1.00  0.00     0.005 A 
ATOM      4  C   UNL A   1      43.643  22.956  27.146  1.00  0.00    -0.033 A 
ATOM      5  C   UNL A   1      44.932  23.439  27.399  1.00  0.00     0.044 A 
ATOM      6  C   UNL A   1      45.256  23.993  28.640  1.00  0.00     0.131 A 
ATOM      7  F   UNL A   1      46.525  24.393  28.820  1.00  0.00    -0.206 F 
ENDROOT
BRANCH   1   8
ATOM      8  C   UNL A   1      44.627  24.799  30.950  1.00  0.00    -0.013 A 
ATOM      9  C   UNL A   1      45.011  24.661  33.366  1.00  0.00     0.045 A 
ATOM     10  C   UNL A   1      45.075  26.048  33.447  1.00  0.00     0.026 A 
ATOM     11  C   UNL A   1      44.809  24.048  32.123  1.00  0.00     0.035 A 
ATOM     12  C   UNL A   1      44.972  26.814  32.288  1.00  0.00     0.003 A 
ATOM     13  C   UNL A   1      44.738  26.195  31.056  1.00  0.00     0.009 A 
BRANCH   9  14
ATOM     14  N   UNL A   1      45.029  23.916  34.553  1.00  0.00    -0.291 N 
ATOM     15  C   UNL A   1      44.186  24.037  35.624  1.00  0.00     0.411 C 
ATOM     16  O   UNL A   1      44.537  23.711  36.745  1.00  0.00    -0.224 OA
ATOM     17  H   UNL A   1      45.728  23.226  34.623  1.00  0.00     0.173 HD
BRANCH  15  18
ATOM     18  O   UNL A   1      42.930  24.416  35.266  1.00  0.00    -0.449 OA
BRANCH  18  19
ATOM     19  C   UNL A   1      42.348  25.546  35.936  1.00  0.00     0.235 C 
BRANCH  19  20
ATOM     20  C   UNL A   1      41.403  26.337  35.025  1.00  0.00     0.042 C 
BRANCH  20  21
ATOM     21  C   UNL A   1      41.973  27.636  34.440  1.00  0.00     0.003 C 
BRANCH  21  22
ATOM     22  C   UNL A   1      41.500  27.969  33.019  1.00  0.00    -0.000 C 
BRANCH  22  23
ATOM     23  C   UNL A   1      40.162  28.702  32.939  1.00  0.00    -0.003 C 
ATOM     24  C   UNL A   1      39.047  27.828  32.392  1.00  0.00     0.004 C 
ENDBRANCH  22  23
ENDBRANCH  21  22
ENDBRANCH  20  21
ENDBRANCH  19  20
ENDBRANCH  18  19
ENDBRANCH  15  18
ENDBRANCH   9  14
ENDBRANCH   1   8
BRANCH   4  25
ATOM     25  C   UNL A   1      43.307  22.437  25.757  1.00  0.00     0.105 C 
ATOM     26  C   UNL A   1      43.399  23.461  24.627  1.00  0.00     0.023 C 
BRANCH  25  27
ATOM     27  C   UNL A   1      43.951  21.078  25.441  1.00  0.00     0.227 C 
ATOM     28  O   UNL A   1      44.929  21.019  24.686  1.00  0.00    -0.274 OA
ATOM     29  N   UNL A   1      43.513  19.893  25.947  1.00  0.00    -0.356 N 
ATOM     30  H   UNL A   1      44.075  19.121  25.706  1.00  0.00     0.163 HD
BRANCH  29  31
ATOM     31  C   UNL A   1      42.372  19.559  26.774  1.00  0.00     0.117 C 
BRANCH  31  32
ATOM     32  C   UNL A   1      41.052  19.974  26.129  1.00  0.00     0.042 C 
BRANCH  32  33
ATOM     33  C   UNL A   1      40.335  21.099  26.862  1.00  0.00     0.118 C 
BRANCH  33  34
ATOM     34  N   UNL A   1      39.117  21.510  26.178  1.00  0.00    -0.352 N 
ATOM     35  C   UNL A   1      38.485  22.725  26.122  1.00  0.00     0.251 C 
ATOM     36  H   UNL A   1      38.673  20.794  25.670  1.00  0.00     0.163 HD
ATOM     37  O   UNL A   1      37.347  22.780  25.663  1.00  0.00    -0.269 OA
BRANCH  35  38
ATOM     38  C   UNL A   1      39.136  23.967  26.602  1.00  0.00     0.039 A 
ATOM     39  C   UNL A   1      38.968  24.332  27.942  1.00  0.00     0.014 A 
ATOM     40  C   UNL A   1      39.835  24.816  25.741  1.00  0.00     0.014 A 
ATOM     41  C   UNL A   1      39.517  25.525  28.419  1.00  0.00     0.010 A 
ATOM     42  C   UNL A   1      40.461  25.959  26.237  1.00  0.00     0.010 A 
ATOM     43  C   UNL A   1      40.283  26.342  27.574  1.00  0.00    -0.014 A 
BRANCH  43  44
ATOM     44  C   UNL A   1      40.856  27.624  28.060  1.00  0.00     0.031 A 
ATOM     45  C   UNL A   1      42.341  27.861  27.991  1.00  0.00     0.074 A 
ATOM     46  C   UNL A   1      40.047  28.557  28.596  1.00  0.00     0.049 A 
ATOM     47  N   UNL A   1      43.036  28.897  28.392  1.00  0.00    -0.248 NA
ATOM     48  C   UNL A   1      43.160  26.779  27.424  1.00  0.00     0.031 C 
ATOM     49  C   UNL A   1      38.600  28.424  28.767  1.00  0.00     0.029 A 
ATOM     50  N   UNL A   1      40.328  29.803  29.100  1.00  0.00    -0.354 N 
ATOM     51  C   UNL A   1      44.365  28.581  28.143  1.00  0.00     0.074 A 
ATOM     52  C   UNL A   1      44.388  27.236  27.611  1.00  0.00     0.031 C 
ATOM     53  C   UNL A   1      38.116  29.553  29.309  1.00  0.00     0.029 A 
ATOM     54  C   UNL A   1      39.220  30.476  29.552  1.00  0.00     0.049 A 
ATOM     55  H   UNL A   1      41.237  30.177  29.133  1.00  0.00     0.167 HD
ATOM     56  C   UNL A   1      45.466  29.352  28.314  1.00  0.00     0.037 A 
ATOM     57  C   UNL A   1      39.110  31.701  30.100  1.00  0.00     0.037 A 
ATOM     58  C   UNL A   1      45.436  30.702  28.811  1.00  0.00     0.049 A 
ATOM     59  C   UNL A   1      40.345  32.547  30.256  1.00  0.00     0.074 A 
ATOM     60  C   UNL A   1      46.487  31.589  28.971  1.00  0.00     0.029 A 
ATOM     61  N   UNL A   1      44.289  31.363  29.228  1.00  0.00    -0.354 N 
ATOM     62  N   UNL A   1      41.587  32.263  29.954  1.00  0.00    -0.248 NA
ATOM     63  C   UNL A   1      40.156  33.891  30.818  1.00  0.00     0.031 C 
ATOM     64  C   UNL A   1      45.983  32.771  29.523  1.00  0.00     0.029 A 
ATOM     65  C   UNL A   1      44.609  32.642  29.657  1.00  0.00     0.049 A 
ATOM     66  H   UNL A   1      43.382  30.980  29.220  1.00  0.00     0.167 HD
ATOM     67  C   UNL A   1      42.323  33.401  30.255  1.00  0.00     0.074 A 
ATOM     68  C   UNL A   1      41.384  34.385  30.749  1.00  0.00     0.031 C 
ATOM     69  C   UNL A   1      43.658  33.613  30.135  1.00  0.00     0.037 A 
BRANCH  56  70
ATOM     70  C   UNL A   1      46.797  28.753  27.955  1.00  0.00     0.064 A 
ATOM     71  C   UNL A   1      47.281  28.768  26.637  1.00  0.00     0.173 A 
ATOM     72  C   UNL A   1      47.612  28.180  28.944  1.00  0.00     0.173 A 
ATOM     73  F   UNL A   1      46.537  29.293  25.651  1.00  0.00    -0.203 F 
ATOM     74  C   UNL A   1      48.513  28.204  26.318  1.00  0.00     0.198 A 
ATOM     75  C   UNL A   1      48.858  27.646  28.626  1.00  0.00     0.198 A 
ATOM     76  F   UNL A   1      47.201  28.142  30.220  1.00  0.00    -0.203 F 
ATOM     77  F   UNL A   1      48.928  28.182  25.044  1.00  0.00    -0.200 F 
ATOM     78  C   UNL A   1      49.304  27.650  27.313  1.00  0.00     0.200 A 
ATOM     79  F   UNL A   1      49.627  27.123  29.591  1.00  0.00    -0.200 F 
ATOM     80  F   UNL A   1      50.492  27.112  27.005  1.00  0.00    -0.200 F 
ENDBRANCH  56  70
BRANCH  57  81
ATOM     81  C   UNL A   1      37.775  32.217  30.501  1.00  0.00     0.064 A 
ATOM     82  C   UNL A   1      37.265  31.975  31.784  1.00  0.00     0.173 A 
ATOM     83  C   UNL A   1      36.982  32.959  29.614  1.00  0.00     0.173 A 
ATOM     84  F   UNL A   1      37.978  31.256  32.663  1.00  0.00    -0.203 F 
ATOM     85  C   UNL A   1      36.003  32.434  32.156  1.00  0.00     0.198 A 
ATOM     86  C   UNL A   1      35.733  33.443  29.996  1.00  0.00     0.198 A 
ATOM     87  F   UNL A   1      37.426  33.225  28.376  1.00  0.00    -0.203 F 
ATOM     88  F   UNL A   1      35.521  32.147  33.372  1.00  0.00    -0.200 F 
ATOM     89  C   UNL A   1      35.241  33.172  31.264  1.00  0.00     0.200 A 
ATOM     90  F   UNL A   1      35.005  34.170  29.137  1.00  0.00    -0.200 F 
ATOM     91  F   UNL A   1      34.029  33.617  31.623  1.00  0.00    -0.200 F 
ENDBRANCH  57  81
BRANCH  69  92
ATOM     92  C   UNL A   1      44.171  34.975  30.500  1.00  0.00     0.064 A 
ATOM     93  C   UNL A   1      44.230  36.018  29.566  1.00  0.00     0.173 A 
ATOM     94  C   UNL A   1      44.592  35.243  31.812  1.00  0.00     0.173 A 
ATOM     95  F   UNL A   1      43.853  35.808  28.295  1.00  0.00    -0.203 F 
ATOM     96  C   UNL A   1      44.724  37.271  29.921  1.00  0.00     0.198 A 
ATOM     97  C   UNL A   1      45.054  36.506  32.172  1.00  0.00     0.198 A 
ATOM     98  F   UNL A   1      44.549  34.283  32.748  1.00  0.00    -0.203 F 
ATOM     99  F   UNL A   1      44.825  38.236  28.996  1.00  0.00    -0.200 F 
ATOM    100  C   UNL A   1      45.129  37.515  31.224  1.00  0.00     0.200 A 
ATOM    101  F   UNL A   1      45.432  36.744  33.436  1.00  0.00    -0.200 F 
ATOM    102  F   UNL A   1      45.603  38.721  31.564  1.00  0.00    -0.200 F 
ENDBRANCH  69  92
ENDBRANCH  43  44
ENDBRANCH  35  38
ENDBRANCH  33  34
ENDBRANCH  32  33
ENDBRANCH  31  32
ENDBRANCH  29  31
ENDBRANCH  25  27
ENDBRANCH   4  25
TORSDOF 19
ENDMDL
MODEL 3
REMARK VINA RESULT:      -8.7      4.997      8.395
REMARK SMILES CCCCCCOC(=O)Nc1cccc(-c2ccc([C@@H](C)C(=O)NCCCNC(=O)c3ccc(-c4c5nc(c(-c6c(F)c(F)c(F)c(F)c6F)c6ccc([nH]6)c(-c6c(F)c(F)c(F)c(F)c6F)c6nc(c(-c7c(F)c(F)c(F)c(F)c7F)c7ccc4[nH]7)C=C6)C=C5)cc3)cc2F)c1
REMARK SMILES IDX 16 1 17 2 18 3 19 4 94 5 95 6 96 7 15 8 11 9 12 10 97 11
REMARK SMILES IDX 13 12 14 13 10 14 8 15 9 16 7 18 6 19 5 20 4 21 3 22 2 23
REMARK SMILES IDX 1 24 20 25 21 26 22 27 23 28 24 29 25 31 26 32 27 33 28 34
REMARK SMILES IDX 29 35 30 37 31 38 32 39 93 40 33 41 92 42 34 43 35 44 36 45
REMARK SMILES IDX 86 46 37 47 91 48 85 49 87 50 38 51 90 52 84 53 83 54 39 56
REMARK SMILES IDX 71 57 51 58 70 59 52 60 55 61 69 62 88 63 53 64 54 65 68 67
REMARK SMILES IDX 89 68 56 69 40 70 41 71 49 72 42 73 43 74 47 75 50 76 44 77
REMARK SMILES IDX 45 78 48 79 46 80 72 81 73 82 81 83 74 84 75 85 79 86 82 87
REMARK SMILES IDX 76 88 77 89 80 90 78 91 57 92 58 93 66 94 59 95 60 96 64 97
REMARK SMILES IDX 67 98 61 99 62 100 65 101 63 102
REMARK H PARENT 10 17 24 30 28 36 87 55 55 66
REMARK Flexibility Score: inf
ROOT
ATOM      1  C   UNL A   1      30.079  25.981  24.215  1.00  0.00     0.018 A 
ATOM      2  C   UNL A   1      31.079  25.527  23.342  1.00  0.00     0.012 A 
ATOM      3  C   UNL A   1      32.017  24.565  23.740  1.00  0.00     0.005 A 
ATOM      4  C   UNL A   1      32.038  24.068  25.047  1.00  0.00    -0.033 A 
ATOM      5  C   UNL A   1      31.025  24.489  25.916  1.00  0.00     0.044 A 
ATOM      6  C   UNL A   1      30.059  25.406  25.496  1.00  0.00     0.131 A 
ATOM      7  F   UNL A   1      29.093  25.725  26.374  1.00  0.00    -0.206 F 
ENDROOT
BRANCH   1   8
ATOM      8  C   UNL A   1      29.109  27.017  23.799  1.00  0.00    -0.013 A 
ATOM      9  C   UNL A   1      28.650  29.301  23.040  1.00  0.00     0.045 A 
ATOM     10  C   UNL A   1      27.282  29.075  23.150  1.00  0.00     0.026 A 
ATOM     11  C   UNL A   1      29.548  28.272  23.344  1.00  0.00     0.035 A 
ATOM     12  C   UNL A   1      26.816  27.818  23.527  1.00  0.00     0.003 A 
ATOM     13  C   UNL A   1      27.722  26.805  23.859  1.00  0.00     0.009 A 
BRANCH   9  14
ATOM     14  N   UNL A   1      29.096  30.596  22.745  1.00  0.00    -0.291 N 
ATOM     15  C   UNL A   1      29.317  31.622  23.625  1.00  0.00     0.411 C 
ATOM     16  O   UNL A   1      29.244  32.786  23.271  1.00  0.00    -0.224 OA
ATOM     17  H   UNL A   1      29.271  30.790  21.796  1.00  0.00     0.173 HD
BRANCH  15  18
ATOM     18  O   UNL A   1      29.743  31.189  24.842  1.00  0.00    -0.449 OA
BRANCH  18  19
ATOM     19  C   UNL A   1      30.588  32.060  25.610  1.00  0.00     0.235 C 
BRANCH  19  20
ATOM     20  C   UNL A   1      31.655  31.290  26.396  1.00  0.00     0.042 C 
BRANCH  20  21
ATOM     21  C   UNL A   1      32.159  29.996  25.744  1.00  0.00     0.003 C 
BRANCH  21  22
ATOM     22  C   UNL A   1      31.701  28.702  26.430  1.00  0.00    -0.000 C 
BRANCH  22  23
ATOM     23  C   UNL A   1      32.781  27.632  26.579  1.00  0.00    -0.003 C 
ATOM     24  C   UNL A   1      33.630  27.478  25.329  1.00  0.00     0.004 C 
ENDBRANCH  22  23
ENDBRANCH  21  22
ENDBRANCH  20  21
ENDBRANCH  19  20
ENDBRANCH  18  19
ENDBRANCH  15  18
ENDBRANCH   9  14
ENDBRANCH   1   8
BRANCH   4  25
ATOM     25  C   UNL A   1      33.118  23.133  25.567  1.00  0.00     0.105 C 
ATOM     26  C   UNL A   1      33.261  23.065  27.087  1.00  0.00     0.023 C 
BRANCH  25  27
ATOM     27  C   UNL A   1      33.135  21.768  24.862  1.00  0.00     0.227 C 
ATOM     28  O   UNL A   1      32.071  21.186  24.620  1.00  0.00    -0.274 OA
ATOM     29  N   UNL A   1      34.269  21.128  24.468  1.00  0.00    -0.356 N 
ATOM     30  H   UNL A   1      34.108  20.296  23.967  1.00  0.00     0.163 HD
BRANCH  29  31
ATOM     31  C   UNL A   1      35.670  21.447  24.652  1.00  0.00     0.117 C 
BRANCH  31  32
ATOM     32  C   UNL A   1      36.006  22.860  24.183  1.00  0.00     0.042 C 
BRANCH  32  33
ATOM     33  C   UNL A   1      37.078  23.548  25.017  1.00  0.00     0.118 C 
BRANCH  33  34
ATOM     34  N   UNL A   1      38.062  22.604  25.529  1.00  0.00    -0.352 N 
ATOM     35  C   UNL A   1      39.220  22.808  26.234  1.00  0.00     0.251 C 
ATOM     36  H   UNL A   1      37.862  21.660  25.335  1.00  0.00     0.163 HD
ATOM     37  O   UNL A   1      40.006  21.873  26.365  1.00  0.00    -0.269 OA
BRANCH  35  38
ATOM     38  C   UNL A   1      39.546  24.123  26.836  1.00  0.00     0.039 A 
ATOM     39  C   UNL A   1      40.206  25.071  26.048  1.00  0.00     0.014 A 
ATOM     40  C   UNL A   1      39.289  24.405  28.180  1.00  0.00     0.014 A 
ATOM     41  C   UNL A   1      40.583  26.300  26.595  1.00  0.00     0.010 A 
ATOM     42  C   UNL A   1      39.581  25.665  28.701  1.00  0.00     0.010 A 
ATOM     43  C   UNL A   1      40.259  26.614  27.923  1.00  0.00    -0.014 A 
BRANCH  43  44
ATOM     44  C   UNL A   1      40.671  27.908  28.527  1.00  0.00     0.031 A 
ATOM     45  C   UNL A   1      42.108  28.141  28.908  1.00  0.00     0.074 A 
ATOM     46  C   UNL A   1      39.747  28.859  28.764  1.00  0.00     0.049 A 
ATOM     47  N   UNL A   1      42.659  29.187  29.474  1.00  0.00    -0.248 NA
ATOM     48  C   UNL A   1      43.049  27.041  28.648  1.00  0.00     0.031 C 
ATOM     49  C   UNL A   1      38.315  28.734  28.488  1.00  0.00     0.029 A 
ATOM     50  N   UNL A   1      39.874  30.118  29.296  1.00  0.00    -0.354 N 
ATOM     51  C   UNL A   1      43.998  28.861  29.652  1.00  0.00     0.074 A 
ATOM     52  C   UNL A   1      44.167  27.501  29.189  1.00  0.00     0.031 C 
ATOM     53  C   UNL A   1      37.701  29.880  28.826  1.00  0.00     0.029 A 
ATOM     54  C   UNL A   1      38.689  30.806  29.370  1.00  0.00     0.049 A 
ATOM     55  H   UNL A   1      40.734  30.492  29.595  1.00  0.00     0.167 HD
ATOM     56  C   UNL A   1      45.002  29.633  30.130  1.00  0.00     0.037 A 
ATOM     57  C   UNL A   1      38.429  32.047  29.824  1.00  0.00     0.037 A 
ATOM     58  C   UNL A   1      44.836  30.998  30.558  1.00  0.00     0.049 A 
ATOM     59  C   UNL A   1      39.567  32.895  30.328  1.00  0.00     0.074 A 
ATOM     60  C   UNL A   1      45.797  31.887  31.007  1.00  0.00     0.029 A 
ATOM     61  N   UNL A   1      43.624  31.673  30.586  1.00  0.00    -0.354 N 
ATOM     62  N   UNL A   1      40.840  32.599  30.427  1.00  0.00    -0.248 NA
ATOM     63  C   UNL A   1      39.230  34.256  30.767  1.00  0.00     0.031 C 
ATOM     64  C   UNL A   1      45.162  33.085  31.346  1.00  0.00     0.029 A 
ATOM     65  C   UNL A   1      43.811  32.963  31.058  1.00  0.00     0.049 A 
ATOM     66  H   UNL A   1      42.759  31.292  30.312  1.00  0.00     0.167 HD
ATOM     67  C   UNL A   1      41.461  33.744  30.908  1.00  0.00     0.074 A 
ATOM     68  C   UNL A   1      40.426  34.744  31.064  1.00  0.00     0.031 C 
ATOM     69  C   UNL A   1      42.771  33.949  31.196  1.00  0.00     0.037 A 
BRANCH  56  70
ATOM     70  C   UNL A   1      46.372  29.021  30.211  1.00  0.00     0.064 A 
ATOM     71  C   UNL A   1      47.322  29.203  29.194  1.00  0.00     0.173 A 
ATOM     72  C   UNL A   1      46.750  28.266  31.332  1.00  0.00     0.173 A 
ATOM     73  F   UNL A   1      47.008  29.907  28.095  1.00  0.00    -0.203 F 
ATOM     74  C   UNL A   1      48.586  28.625  29.280  1.00  0.00     0.198 A 
ATOM     75  C   UNL A   1      48.026  27.716  31.429  1.00  0.00     0.198 A 
ATOM     76  F   UNL A   1      45.884  28.064  32.336  1.00  0.00    -0.203 F 
ATOM     77  F   UNL A   1      49.456  28.768  28.270  1.00  0.00    -0.200 F 
ATOM     78  C   UNL A   1      48.940  27.889  30.400  1.00  0.00     0.200 A 
ATOM     79  F   UNL A   1      48.371  27.016  32.518  1.00  0.00    -0.200 F 
ATOM     80  F   UNL A   1      50.158  27.337  30.484  1.00  0.00    -0.200 F 
ENDBRANCH  56  70
BRANCH  57  81
ATOM     81  C   UNL A   1      37.042  32.578  29.784  1.00  0.00     0.064 A 
ATOM     82  C   UNL A   1      36.563  33.256  28.654  1.00  0.00     0.173 A 
ATOM     83  C   UNL A   1      36.168  32.421  30.869  1.00  0.00     0.173 A 
ATOM     84  F   UNL A   1      37.367  33.447  27.598  1.00  0.00    -0.203 F 
ATOM     85  C   UNL A   1      35.273  33.780  28.621  1.00  0.00     0.198 A 
ATOM     86  C   UNL A   1      34.867  32.920  30.824  1.00  0.00     0.198 A 
ATOM     87  F   UNL A   1      36.573  31.774  31.971  1.00  0.00    -0.203 F 
ATOM     88  F   UNL A   1      34.858  34.465  27.547  1.00  0.00    -0.200 F 
ATOM     89  C   UNL A   1      34.424  33.605  29.704  1.00  0.00     0.200 A 
ATOM     90  F   UNL A   1      34.044  32.736  31.865  1.00  0.00    -0.200 F 
ATOM     91  F   UNL A   1      33.181  34.105  29.670  1.00  0.00    -0.200 F 
ENDBRANCH  57  81
BRANCH  69  92
ATOM     92  C   UNL A   1      43.163  35.320  31.663  1.00  0.00     0.064 A 
ATOM     93  C   UNL A   1      43.095  35.689  33.014  1.00  0.00     0.173 A 
ATOM     94  C   UNL A   1      43.633  36.272  30.746  1.00  0.00     0.173 A 
ATOM     95  F   UNL A   1      42.638  34.820  33.929  1.00  0.00    -0.203 F 
ATOM     96  C   UNL A   1      43.449  36.972  33.426  1.00  0.00     0.198 A 
ATOM     97  C   UNL A   1      44.018  37.543  31.165  1.00  0.00     0.198 A 
ATOM     98  F   UNL A   1      43.726  35.969  29.442  1.00  0.00    -0.203 F 
ATOM     99  F   UNL A   1      43.319  37.320  34.713  1.00  0.00    -0.200 F 
ATOM    100  C   UNL A   1      43.915  37.895  32.501  1.00  0.00     0.200 A 
ATOM    101  F   UNL A   1      44.481  38.429  30.272  1.00  0.00    -0.200 F 
ATOM    102  F   UNL A   1      44.256  39.128  32.899  1.00  0.00    -0.200 F 
ENDBRANCH  69  92
ENDBRANCH  43  44
ENDBRANCH  35  38
ENDBRANCH  33  34
ENDBRANCH  32  33
ENDBRANCH  31  32
ENDBRANCH  29  31
ENDBRANCH  25  27
ENDBRANCH   4  25
TORSDOF 19
ENDMDL
