MODEL 1
REMARK VINA RESULT:     -12.8      0.000      0.000
REMARK SMILES CC(C)N1C(=O)c2ccccc2N2C(=O)CC[C@]21C(=O)NCCCNC(=O)c1ccc(-c2c3nc(c(-c4c(F)c(F)c(F)c(F)c4F)c4ccc([nH]4)c(-c4c(F)c(F)c(F)c(F)c4F)c4nc(c(-c5c(F)c(F)c(F)c(F)c5F)c5ccc2[nH]5)C=C4)C=C3)cc1
REMARK SMILES IDX 23 1 22 2 21 3 19 4 20 5 18 7 4 8 5 9 7 10 6 11 13 12 17 13
REMARK SMILES IDX 8 14 12 15 14 16 16 17 9 18 11 19 15 20 10 21 2 22 1 23 3 24
REMARK SMILES IDX 24 25 25 26 26 27 27 29 28 30 29 31 90 32 30 33 89 34 31 35
REMARK SMILES IDX 32 36 33 37 83 38 34 39 88 40 82 41 84 42 35 43 87 44 81 45
REMARK SMILES IDX 80 46 36 48 68 49 48 50 67 51 49 52 52 53 66 54 85 55 50 56
REMARK SMILES IDX 51 57 65 59 86 60 53 61 37 62 38 63 46 64 39 65 40 66 44 67
REMARK SMILES IDX 47 68 41 69 42 70 45 71 43 72 69 73 70 74 78 75 71 76 72 77
REMARK SMILES IDX 76 78 79 79 73 80 74 81 77 82 75 83 54 84 55 85 63 86 56 87
REMARK SMILES IDX 57 88 61 89 64 90 58 91 59 92 62 93 60 94
REMARK H PARENT 21 6 25 28 84 47 52 58
REMARK Flexibility Score: inf
ROOT
ATOM      1  C   UNL A   1      32.966  28.987  23.866  1.00  0.00     0.042 C 
ENDROOT
BRANCH   1   2
ATOM      2  C   UNL A   1      32.132  27.835  23.333  1.00  0.00     0.118 C 
BRANCH   2   3
ATOM      3  N   UNL A   1      32.895  26.889  22.547  1.00  0.00    -0.352 N 
ATOM      4  C   UNL A   1      33.006  25.528  22.617  1.00  0.00     0.267 C 
ATOM      5  O   UNL A   1      33.654  25.017  21.694  1.00  0.00    -0.270 OA
ATOM      6  H   UNL A   1      33.430  27.300  21.831  1.00  0.00     0.163 HD
BRANCH   4   7
ATOM      7  C   UNL A   1      32.382  24.652  23.811  1.00  0.00     0.203 C 
ATOM      8  N   UNL A   1      32.663  25.342  25.089  1.00  0.00    -0.304 N 
ATOM      9  C   UNL A   1      34.019  25.407  25.470  1.00  0.00     0.258 C 
ATOM     10  C   UNL A   1      34.915  24.322  24.982  1.00  0.00     0.064 A 
ATOM     11  O   UNL A   1      34.445  26.228  26.278  1.00  0.00    -0.269 OA
ATOM     12  N   UNL A   1      33.033  23.347  23.820  1.00  0.00    -0.279 N 
ATOM     13  C   UNL A   1      30.931  24.302  23.440  1.00  0.00     0.072 C 
ATOM     14  C   UNL A   1      36.258  24.300  25.389  1.00  0.00     0.016 A 
ATOM     15  C   UNL A   1      34.375  23.257  24.250  1.00  0.00     0.059 A 
ATOM     16  C   UNL A   1      32.284  22.347  23.221  1.00  0.00     0.229 C 
ATOM     17  C   UNL A   1      31.001  22.953  22.742  1.00  0.00     0.105 C 
ATOM     18  C   UNL A   1      37.071  23.218  25.051  1.00  0.00     0.001 A 
ATOM     19  C   UNL A   1      35.200  22.173  23.928  1.00  0.00     0.027 A 
ATOM     20  O   UNL A   1      32.553  21.167  23.070  1.00  0.00    -0.274 OA
ATOM     21  C   UNL A   1      36.542  22.157  24.322  1.00  0.00     0.002 A 
BRANCH   8  22
ATOM     22  C   UNL A   1      31.712  25.540  26.206  1.00  0.00     0.082 C 
ATOM     23  C   UNL A   1      30.471  26.373  25.908  1.00  0.00     0.031 C 
ATOM     24  C   UNL A   1      31.381  24.226  26.924  1.00  0.00     0.031 C 
ENDBRANCH   8  22
ENDBRANCH   4   7
ENDBRANCH   2   3
ENDBRANCH   1   2
BRANCH   1  25
ATOM     25  C   UNL A   1      33.023  29.070  25.382  1.00  0.00     0.118 C 
BRANCH  25  26
ATOM     26  N   UNL A   1      32.609  30.369  25.902  1.00  0.00    -0.352 N 
ATOM     27  C   UNL A   1      33.142  31.174  26.882  1.00  0.00     0.251 C 
ATOM     28  H   UNL A   1      31.803  30.737  25.473  1.00  0.00     0.163 HD
ATOM     29  O   UNL A   1      32.506  32.156  27.257  1.00  0.00    -0.269 OA
BRANCH  27  30
ATOM     30  C   UNL A   1      34.446  30.866  27.513  1.00  0.00     0.039 A 
ATOM     31  C   UNL A   1      34.771  29.575  27.919  1.00  0.00     0.014 A 
ATOM     32  C   UNL A   1      35.386  31.892  27.672  1.00  0.00     0.014 A 
ATOM     33  C   UNL A   1      35.921  29.348  28.664  1.00  0.00     0.010 A 
ATOM     34  C   UNL A   1      36.604  31.635  28.313  1.00  0.00     0.010 A 
ATOM     35  C   UNL A   1      36.861  30.372  28.863  1.00  0.00    -0.014 A 
BRANCH  35  36
ATOM     36  C   UNL A   1      38.103  30.076  29.625  1.00  0.00     0.031 A 
ATOM     37  C   UNL A   1      38.297  30.589  31.026  1.00  0.00     0.074 A 
ATOM     38  C   UNL A   1      39.035  29.274  29.069  1.00  0.00     0.049 A 
ATOM     39  N   UNL A   1      39.290  30.373  31.853  1.00  0.00    -0.248 NA
ATOM     40  C   UNL A   1      37.248  31.463  31.572  1.00  0.00     0.031 C 
ATOM     41  C   UNL A   1      38.960  28.715  27.717  1.00  0.00     0.029 A 
ATOM     42  N   UNL A   1      40.202  28.761  29.575  1.00  0.00    -0.354 N 
ATOM     43  C   UNL A   1      38.991  31.089  33.005  1.00  0.00     0.074 A 
ATOM     44  C   UNL A   1      37.744  31.781  32.760  1.00  0.00     0.031 C 
ATOM     45  C   UNL A   1      39.993  27.881  27.528  1.00  0.00     0.029 A 
ATOM     46  C   UNL A   1      40.842  27.902  28.714  1.00  0.00     0.049 A 
ATOM     47  H   UNL A   1      40.549  28.986  30.468  1.00  0.00     0.167 HD
ATOM     48  C   UNL A   1      39.685  31.148  34.167  1.00  0.00     0.037 A 
ATOM     49  C   UNL A   1      41.989  27.210  28.855  1.00  0.00     0.037 A 
ATOM     50  C   UNL A   1      40.913  30.439  34.414  1.00  0.00     0.049 A 
ATOM     51  C   UNL A   1      42.760  27.327  30.138  1.00  0.00     0.074 A 
ATOM     52  C   UNL A   1      41.676  30.419  35.569  1.00  0.00     0.029 A 
ATOM     53  N   UNL A   1      41.558  29.625  33.494  1.00  0.00    -0.354 N 
ATOM     54  N   UNL A   1      42.455  27.993  31.225  1.00  0.00    -0.248 NA
ATOM     55  C   UNL A   1      44.039  26.608  30.214  1.00  0.00     0.031 C 
ATOM     56  C   UNL A   1      42.809  29.636  35.330  1.00  0.00     0.029 A 
ATOM     57  C   UNL A   1      42.723  29.119  34.047  1.00  0.00     0.049 A 
ATOM     58  H   UNL A   1      41.236  29.435  32.583  1.00  0.00     0.167 HD
ATOM     59  C   UNL A   1      43.487  27.758  32.120  1.00  0.00     0.074 A 
ATOM     60  C   UNL A   1      44.426  26.877  31.455  1.00  0.00     0.031 C 
ATOM     61  C   UNL A   1      43.642  28.232  33.379  1.00  0.00     0.037 A 
BRANCH  48  62
ATOM     62  C   UNL A   1      39.139  32.006  35.272  1.00  0.00     0.064 A 
ATOM     63  C   UNL A   1      38.386  31.463  36.324  1.00  0.00     0.173 A 
ATOM     64  C   UNL A   1      39.441  33.378  35.322  1.00  0.00     0.173 A 
ATOM     65  F   UNL A   1      38.062  30.161  36.319  1.00  0.00    -0.203 F 
ATOM     66  C   UNL A   1      37.943  32.261  37.376  1.00  0.00     0.198 A 
ATOM     67  C   UNL A   1      39.021  34.166  36.391  1.00  0.00     0.198 A 
ATOM     68  F   UNL A   1      40.165  33.947  34.348  1.00  0.00    -0.203 F 
ATOM     69  F   UNL A   1      37.196  31.726  38.352  1.00  0.00    -0.200 F 
ATOM     70  C   UNL A   1      38.270  33.609  37.414  1.00  0.00     0.200 A 
ATOM     71  F   UNL A   1      39.352  35.464  36.435  1.00  0.00    -0.200 F 
ATOM     72  F   UNL A   1      37.858  34.371  38.437  1.00  0.00    -0.200 F 
ENDBRANCH  48  62
BRANCH  49  73
ATOM     73  C   UNL A   1      42.455  26.335  27.748  1.00  0.00     0.064 A 
ATOM     74  C   UNL A   1      41.909  25.059  27.559  1.00  0.00     0.173 A 
ATOM     75  C   UNL A   1      43.418  26.774  26.827  1.00  0.00     0.173 A 
ATOM     76  F   UNL A   1      40.998  24.587  28.424  1.00  0.00    -0.203 F 
ATOM     77  C   UNL A   1      42.308  24.255  26.493  1.00  0.00     0.198 A 
ATOM     78  C   UNL A   1      43.793  25.983  25.744  1.00  0.00     0.198 A 
ATOM     79  F   UNL A   1      43.969  27.991  26.960  1.00  0.00    -0.203 F 
ATOM     80  F   UNL A   1      41.788  23.029  26.350  1.00  0.00    -0.200 F 
ATOM     81  C   UNL A   1      43.241  24.723  25.580  1.00  0.00     0.200 A 
ATOM     82  F   UNL A   1      44.680  26.449  24.853  1.00  0.00    -0.200 F 
ATOM     83  F   UNL A   1      43.607  23.959  24.542  1.00  0.00    -0.200 F 
ENDBRANCH  49  73
BRANCH  61  84
ATOM     84  C   UNL A   1      44.856  27.799  34.146  1.00  0.00     0.064 A 
ATOM     85  C   UNL A   1      46.025  28.570  34.165  1.00  0.00     0.173 A 
ATOM     86  C   UNL A   1      44.809  26.652  34.956  1.00  0.00     0.173 A 
ATOM     87  F   UNL A   1      46.123  29.668  33.399  1.00  0.00    -0.203 F 
ATOM     88  C   UNL A   1      47.106  28.209  34.964  1.00  0.00     0.198 A 
ATOM     89  C   UNL A   1      45.880  26.310  35.775  1.00  0.00     0.198 A 
ATOM     90  F   UNL A   1      43.707  25.886  34.979  1.00  0.00    -0.203 F 
ATOM     91  F   UNL A   1      48.224  28.948  34.951  1.00  0.00    -0.200 F 
ATOM     92  C   UNL A   1      47.028  27.088  35.778  1.00  0.00     0.200 A 
ATOM     93  F   UNL A   1      45.795  25.237  36.573  1.00  0.00    -0.200 F 
ATOM     94  F   UNL A   1      48.059  26.758  36.568  1.00  0.00    -0.200 F 
ENDBRANCH  61  84
ENDBRANCH  35  36
ENDBRANCH  27  30
ENDBRANCH  25  26
ENDBRANCH   1  25
TORSDOF 11
ENDMDL
MODEL 2
REMARK VINA RESULT:     -12.7      1.104      2.271
REMARK SMILES CC(C)N1C(=O)c2ccccc2N2C(=O)CC[C@]21C(=O)NCCCNC(=O)c1ccc(-c2c3nc(c(-c4c(F)c(F)c(F)c(F)c4F)c4ccc([nH]4)c(-c4c(F)c(F)c(F)c(F)c4F)c4nc(c(-c5c(F)c(F)c(F)c(F)c5F)c5ccc2[nH]5)C=C4)C=C3)cc1
REMARK SMILES IDX 23 1 22 2 21 3 19 4 20 5 18 7 4 8 5 9 7 10 6 11 13 12 17 13
REMARK SMILES IDX 8 14 12 15 14 16 16 17 9 18 11 19 15 20 10 21 2 22 1 23 3 24
REMARK SMILES IDX 24 25 25 26 26 27 27 29 28 30 29 31 90 32 30 33 89 34 31 35
REMARK SMILES IDX 32 36 33 37 83 38 34 39 88 40 82 41 84 42 35 43 87 44 81 45
REMARK SMILES IDX 80 46 36 48 68 49 48 50 67 51 49 52 52 53 66 54 85 55 50 56
REMARK SMILES IDX 51 57 65 59 86 60 53 61 37 62 38 63 46 64 39 65 40 66 44 67
REMARK SMILES IDX 47 68 41 69 42 70 45 71 43 72 69 73 70 74 78 75 71 76 72 77
REMARK SMILES IDX 76 78 79 79 73 80 74 81 77 82 75 83 54 84 55 85 63 86 56 87
REMARK SMILES IDX 57 88 61 89 64 90 58 91 59 92 62 93 60 94
REMARK H PARENT 21 6 25 28 84 47 52 58
REMARK Flexibility Score: inf
ROOT
ATOM      1  C   UNL A   1      31.552  29.296  25.807  1.00  0.00     0.042 C 
ENDROOT
BRANCH   1   2
ATOM      2  C   UNL A   1      31.620  27.923  26.453  1.00  0.00     0.118 C 
BRANCH   2   3
ATOM      3  N   UNL A   1      32.960  27.379  26.507  1.00  0.00    -0.352 N 
ATOM      4  C   UNL A   1      33.581  26.413  25.765  1.00  0.00     0.267 C 
ATOM      5  O   UNL A   1      34.790  26.284  25.997  1.00  0.00    -0.270 OA
ATOM      6  H   UNL A   1      33.528  27.777  27.205  1.00  0.00     0.163 HD
BRANCH   4   7
ATOM      7  C   UNL A   1      32.812  25.489  24.698  1.00  0.00     0.203 C 
ATOM      8  N   UNL A   1      31.544  25.032  25.310  1.00  0.00    -0.304 N 
ATOM      9  C   UNL A   1      31.669  24.150  26.403  1.00  0.00     0.258 C 
ATOM     10  C   UNL A   1      32.884  23.292  26.449  1.00  0.00     0.064 A 
ATOM     11  O   UNL A   1      30.770  23.975  27.222  1.00  0.00    -0.269 OA
ATOM     12  N   UNL A   1      33.643  24.329  24.402  1.00  0.00    -0.279 N 
ATOM     13  C   UNL A   1      32.780  26.234  23.354  1.00  0.00     0.072 C 
ATOM     14  C   UNL A   1      33.025  22.348  27.478  1.00  0.00     0.016 A 
ATOM     15  C   UNL A   1      33.797  23.329  25.387  1.00  0.00     0.059 A 
ATOM     16  C   UNL A   1      34.345  24.437  23.213  1.00  0.00     0.229 C 
ATOM     17  C   UNL A   1      34.009  25.759  22.594  1.00  0.00     0.105 C 
ATOM     18  C   UNL A   1      34.089  21.447  27.456  1.00  0.00     0.001 A 
ATOM     19  C   UNL A   1      34.853  22.411  25.373  1.00  0.00     0.027 A 
ATOM     20  O   UNL A   1      35.118  23.646  22.697  1.00  0.00    -0.274 OA
ATOM     21  C   UNL A   1      35.001  21.478  26.405  1.00  0.00     0.002 A 
BRANCH   8  22
ATOM     22  C   UNL A   1      30.218  24.996  24.653  1.00  0.00     0.082 C 
ATOM     23  C   UNL A   1      29.519  26.335  24.448  1.00  0.00     0.031 C 
ATOM     24  C   UNL A   1      30.222  24.133  23.386  1.00  0.00     0.031 C 
ENDBRANCH   8  22
ENDBRANCH   4   7
ENDBRANCH   2   3
ENDBRANCH   1   2
BRANCH   1  25
ATOM     25  C   UNL A   1      32.842  30.094  25.893  1.00  0.00     0.118 C 
BRANCH  25  26
ATOM     26  N   UNL A   1      32.644  31.454  26.383  1.00  0.00    -0.352 N 
ATOM     27  C   UNL A   1      33.332  32.203  27.309  1.00  0.00     0.251 C 
ATOM     28  H   UNL A   1      31.878  31.921  25.976  1.00  0.00     0.163 HD
ATOM     29  O   UNL A   1      32.862  33.277  27.675  1.00  0.00    -0.269 OA
BRANCH  27  30
ATOM     30  C   UNL A   1      34.608  31.729  27.893  1.00  0.00     0.039 A 
ATOM     31  C   UNL A   1      34.767  30.414  28.323  1.00  0.00     0.014 A 
ATOM     32  C   UNL A   1      35.688  32.616  27.983  1.00  0.00     0.014 A 
ATOM     33  C   UNL A   1      35.907  30.046  29.026  1.00  0.00     0.010 A 
ATOM     34  C   UNL A   1      36.886  32.205  28.580  1.00  0.00     0.010 A 
ATOM     35  C   UNL A   1      36.989  30.931  29.155  1.00  0.00    -0.014 A 
BRANCH  35  36
ATOM     36  C   UNL A   1      38.211  30.480  29.874  1.00  0.00     0.031 A 
ATOM     37  C   UNL A   1      38.474  30.894  31.296  1.00  0.00     0.074 A 
ATOM     38  C   UNL A   1      39.055  29.630  29.254  1.00  0.00     0.049 A 
ATOM     39  N   UNL A   1      39.457  30.543  32.088  1.00  0.00    -0.248 NA
ATOM     40  C   UNL A   1      37.519  31.829  31.911  1.00  0.00     0.031 C 
ATOM     41  C   UNL A   1      38.908  29.157  27.876  1.00  0.00     0.029 A 
ATOM     42  N   UNL A   1      40.179  28.985  29.706  1.00  0.00    -0.354 N 
ATOM     43  C   UNL A   1      39.244  31.217  33.283  1.00  0.00     0.074 A 
ATOM     44  C   UNL A   1      38.062  32.032  33.103  1.00  0.00     0.031 C 
ATOM     45  C   UNL A   1      39.855  28.244  27.620  1.00  0.00     0.029 A 
ATOM     46  C   UNL A   1      40.722  28.121  28.786  1.00  0.00     0.049 A 
ATOM     47  H   UNL A   1      40.559  29.127  30.603  1.00  0.00     0.167 HD
ATOM     48  C   UNL A   1      39.959  31.148  34.431  1.00  0.00     0.037 A 
ATOM     49  C   UNL A   1      41.803  27.320  28.865  1.00  0.00     0.037 A 
ATOM     50  C   UNL A   1      41.121  30.317  34.613  1.00  0.00     0.049 A 
ATOM     51  C   UNL A   1      42.603  27.295  30.136  1.00  0.00     0.074 A 
ATOM     52  C   UNL A   1      41.898  30.163  35.748  1.00  0.00     0.029 A 
ATOM     53  N   UNL A   1      41.672  29.501  33.636  1.00  0.00    -0.354 N 
ATOM     54  N   UNL A   1      42.378  27.923  31.263  1.00  0.00    -0.248 NA
ATOM     55  C   UNL A   1      43.811  26.459  30.144  1.00  0.00     0.031 C 
ATOM     56  C   UNL A   1      42.950  29.295  35.444  1.00  0.00     0.029 A 
ATOM     57  C   UNL A   1      42.795  28.860  34.136  1.00  0.00     0.049 A 
ATOM     58  H   UNL A   1      41.320  29.393  32.724  1.00  0.00     0.167 HD
ATOM     59  C   UNL A   1      43.399  27.546  32.122  1.00  0.00     0.074 A 
ATOM     60  C   UNL A   1      44.241  26.622  31.389  1.00  0.00     0.031 C 
ATOM     61  C   UNL A   1      43.618  27.933  33.401  1.00  0.00     0.037 A 
BRANCH  48  62
ATOM     62  C   UNL A   1      39.513  31.989  35.593  1.00  0.00     0.064 A 
ATOM     63  C   UNL A   1      39.944  33.315  35.751  1.00  0.00     0.173 A 
ATOM     64  C   UNL A   1      38.578  31.489  36.516  1.00  0.00     0.173 A 
ATOM     65  F   UNL A   1      40.842  33.837  34.904  1.00  0.00    -0.203 F 
ATOM     66  C   UNL A   1      39.469  34.103  36.797  1.00  0.00     0.198 A 
ATOM     67  C   UNL A   1      38.084  32.290  37.542  1.00  0.00     0.198 A 
ATOM     68  F   UNL A   1      38.126  30.231  36.406  1.00  0.00    -0.203 F 
ATOM     69  F   UNL A   1      39.921  35.355  36.948  1.00  0.00    -0.200 F 
ATOM     70  C   UNL A   1      38.532  33.594  37.685  1.00  0.00     0.200 A 
ATOM     71  F   UNL A   1      37.167  31.802  38.389  1.00  0.00    -0.200 F 
ATOM     72  F   UNL A   1      38.063  34.361  38.679  1.00  0.00    -0.200 F 
ENDBRANCH  48  62
BRANCH  49  73
ATOM     73  C   UNL A   1      42.168  26.470  27.702  1.00  0.00     0.064 A 
ATOM     74  C   UNL A   1      43.158  26.873  26.797  1.00  0.00     0.173 A 
ATOM     75  C   UNL A   1      41.570  25.217  27.499  1.00  0.00     0.173 A 
ATOM     76  F   UNL A   1      43.746  28.071  26.939  1.00  0.00    -0.203 F 
ATOM     77  C   UNL A   1      43.537  26.057  25.734  1.00  0.00     0.198 A 
ATOM     78  C   UNL A   1      41.972  24.388  26.454  1.00  0.00     0.198 A 
ATOM     79  F   UNL A   1      40.620  24.781  28.340  1.00  0.00    -0.203 F 
ATOM     80  F   UNL A   1      44.469  26.477  24.868  1.00  0.00    -0.200 F 
ATOM     81  C   UNL A   1      42.952  24.810  25.570  1.00  0.00     0.200 A 
ATOM     82  F   UNL A   1      41.417  23.176  26.313  1.00  0.00    -0.200 F 
ATOM     83  F   UNL A   1      43.333  24.016  24.560  1.00  0.00    -0.200 F 
ENDBRANCH  49  73
BRANCH  61  84
ATOM     84  C   UNL A   1      44.799  27.348  34.118  1.00  0.00     0.064 A 
ATOM     85  C   UNL A   1      46.018  28.033  34.201  1.00  0.00     0.173 A 
ATOM     86  C   UNL A   1      44.673  26.137  34.817  1.00  0.00     0.173 A 
ATOM     87  F   UNL A   1      46.191  29.187  33.539  1.00  0.00    -0.203 F 
ATOM     88  C   UNL A   1      47.072  27.526  34.956  1.00  0.00     0.198 A 
ATOM     89  C   UNL A   1      45.718  25.648  35.594  1.00  0.00     0.198 A 
ATOM     90  F   UNL A   1      43.522  25.449  34.776  1.00  0.00    -0.203 F 
ATOM     91  F   UNL A   1      48.238  28.186  35.005  1.00  0.00    -0.200 F 
ATOM     92  C   UNL A   1      46.917  26.342  35.663  1.00  0.00     0.200 A 
ATOM     93  F   UNL A   1      45.560  24.514  36.290  1.00  0.00    -0.200 F 
ATOM     94  F   UNL A   1      47.923  25.871  36.412  1.00  0.00    -0.200 F 
ENDBRANCH  61  84
ENDBRANCH  35  36
ENDBRANCH  27  30
ENDBRANCH  25  26
ENDBRANCH   1  25
TORSDOF 11
ENDMDL
MODEL 3
REMARK VINA RESULT:     -12.6      1.807      3.203
REMARK SMILES CC(C)N1C(=O)c2ccccc2N2C(=O)CC[C@]21C(=O)NCCCNC(=O)c1ccc(-c2c3nc(c(-c4c(F)c(F)c(F)c(F)c4F)c4ccc([nH]4)c(-c4c(F)c(F)c(F)c(F)c4F)c4nc(c(-c5c(F)c(F)c(F)c(F)c5F)c5ccc2[nH]5)C=C4)C=C3)cc1
REMARK SMILES IDX 23 1 22 2 21 3 19 4 20 5 18 7 4 8 5 9 7 10 6 11 13 12 17 13
REMARK SMILES IDX 8 14 12 15 14 16 16 17 9 18 11 19 15 20 10 21 2 22 1 23 3 24
REMARK SMILES IDX 24 25 25 26 26 27 27 29 28 30 29 31 90 32 30 33 89 34 31 35
REMARK SMILES IDX 32 36 33 37 83 38 34 39 88 40 82 41 84 42 35 43 87 44 81 45
REMARK SMILES IDX 80 46 36 48 68 49 48 50 67 51 49 52 52 53 66 54 85 55 50 56
REMARK SMILES IDX 51 57 65 59 86 60 53 61 37 62 38 63 46 64 39 65 40 66 44 67
REMARK SMILES IDX 47 68 41 69 42 70 45 71 43 72 69 73 70 74 78 75 71 76 72 77
REMARK SMILES IDX 76 78 79 79 73 80 74 81 77 82 75 83 54 84 55 85 63 86 56 87
REMARK SMILES IDX 57 88 61 89 64 90 58 91 59 92 62 93 60 94
REMARK H PARENT 21 6 25 28 84 47 52 58
REMARK Flexibility Score: inf
ROOT
ATOM      1  C   UNL A   1      31.277  31.731  26.610  1.00  0.00     0.042 C 
ENDROOT
BRANCH   1   2
ATOM      2  C   UNL A   1      31.410  30.572  25.638  1.00  0.00     0.118 C 
BRANCH   2   3
ATOM      3  N   UNL A   1      32.583  29.757  25.871  1.00  0.00    -0.352 N 
ATOM      4  C   UNL A   1      33.041  28.624  25.259  1.00  0.00     0.267 C 
ATOM      5  O   UNL A   1      34.162  28.256  25.630  1.00  0.00    -0.270 OA
ATOM      6  H   UNL A   1      33.156  30.077  26.604  1.00  0.00     0.163 HD
BRANCH   4   7
ATOM      7  C   UNL A   1      32.190  27.805  24.167  1.00  0.00     0.203 C 
ATOM      8  N   UNL A   1      30.930  27.359  24.802  1.00  0.00    -0.304 N 
ATOM      9  C   UNL A   1      31.061  26.401  25.828  1.00  0.00     0.258 C 
ATOM     10  C   UNL A   1      32.240  25.494  25.765  1.00  0.00     0.064 A 
ATOM     11  O   UNL A   1      30.190  26.207  26.672  1.00  0.00    -0.269 OA
ATOM     12  N   UNL A   1      32.959  26.636  23.759  1.00  0.00    -0.279 N 
ATOM     13  C   UNL A   1      32.136  28.641  22.878  1.00  0.00     0.072 C 
ATOM     14  C   UNL A   1      32.382  24.478  26.722  1.00  0.00     0.016 A 
ATOM     15  C   UNL A   1      33.110  25.567  24.669  1.00  0.00     0.059 A 
ATOM     16  C   UNL A   1      33.616  26.797  22.550  1.00  0.00     0.229 C 
ATOM     17  C   UNL A   1      33.311  28.170  22.036  1.00  0.00     0.105 C 
ATOM     18  C   UNL A   1      33.405  23.538  26.594  1.00  0.00     0.001 A 
ATOM     19  C   UNL A   1      34.124  24.610  24.549  1.00  0.00     0.027 A 
ATOM     20  O   UNL A   1      34.333  26.012  21.951  1.00  0.00    -0.274 OA
ATOM     21  C   UNL A   1      34.274  23.605  25.509  1.00  0.00     0.002 A 
BRANCH   8  22
ATOM     22  C   UNL A   1      29.578  27.420  24.202  1.00  0.00     0.082 C 
ATOM     23  C   UNL A   1      29.266  28.638  23.341  1.00  0.00     0.031 C 
ATOM     24  C   UNL A   1      29.185  26.103  23.524  1.00  0.00     0.031 C 
ENDBRANCH   8  22
ENDBRANCH   4   7
ENDBRANCH   2   3
ENDBRANCH   1   2
BRANCH   1  25
ATOM     25  C   UNL A   1      32.591  32.416  26.951  1.00  0.00     0.118 C 
BRANCH  25  26
ATOM     26  N   UNL A   1      32.418  33.787  27.418  1.00  0.00    -0.352 N 
ATOM     27  C   UNL A   1      33.055  34.505  28.404  1.00  0.00     0.251 C 
ATOM     28  H   UNL A   1      31.720  34.291  26.942  1.00  0.00     0.163 HD
ATOM     29  O   UNL A   1      32.609  35.604  28.723  1.00  0.00    -0.269 OA
BRANCH  27  30
ATOM     30  C   UNL A   1      34.245  33.969  29.106  1.00  0.00     0.039 A 
ATOM     31  C   UNL A   1      35.526  34.437  28.828  1.00  0.00     0.014 A 
ATOM     32  C   UNL A   1      34.070  32.993  30.095  1.00  0.00     0.014 A 
ATOM     33  C   UNL A   1      36.633  33.797  29.369  1.00  0.00     0.010 A 
ATOM     34  C   UNL A   1      35.184  32.434  30.734  1.00  0.00     0.010 A 
ATOM     35  C   UNL A   1      36.480  32.793  30.339  1.00  0.00    -0.014 A 
BRANCH  35  36
ATOM     36  C   UNL A   1      37.692  32.166  30.929  1.00  0.00     0.031 A 
ATOM     37  C   UNL A   1      38.133  32.492  32.330  1.00  0.00     0.074 A 
ATOM     38  C   UNL A   1      38.360  31.238  30.214  1.00  0.00     0.049 A 
ATOM     39  N   UNL A   1      39.129  31.991  33.019  1.00  0.00    -0.248 NA
ATOM     40  C   UNL A   1      37.366  33.518  33.054  1.00  0.00     0.031 C 
ATOM     41  C   UNL A   1      38.029  30.837  28.845  1.00  0.00     0.029 A 
ATOM     42  N   UNL A   1      39.426  30.439  30.543  1.00  0.00    -0.354 N 
ATOM     43  C   UNL A   1      39.113  32.644  34.244  1.00  0.00     0.074 A 
ATOM     44  C   UNL A   1      38.036  33.608  34.195  1.00  0.00     0.031 C 
ATOM     45  C   UNL A   1      38.824  29.821  28.480  1.00  0.00     0.029 A 
ATOM     46  C   UNL A   1      39.769  29.547  29.556  1.00  0.00     0.049 A 
ATOM     47  H   UNL A   1      39.901  30.500  31.404  1.00  0.00     0.167 HD
ATOM     48  C   UNL A   1      39.913  32.443  35.319  1.00  0.00     0.037 A 
ATOM     49  C   UNL A   1      40.739  28.613  29.515  1.00  0.00     0.037 A 
ATOM     50  C   UNL A   1      40.969  31.465  35.371  1.00  0.00     0.049 A 
ATOM     51  C   UNL A   1      41.639  28.441  30.704  1.00  0.00     0.074 A 
ATOM     52  C   UNL A   1      41.818  31.174  36.425  1.00  0.00     0.029 A 
ATOM     53  N   UNL A   1      41.320  30.622  34.328  1.00  0.00    -0.354 N 
ATOM     54  N   UNL A   1      41.600  29.053  31.862  1.00  0.00    -0.248 NA
ATOM     55  C   UNL A   1      42.725  27.459  30.580  1.00  0.00     0.031 C 
ATOM     56  C   UNL A   1      42.717  30.191  36.003  1.00  0.00     0.029 A 
ATOM     57  C   UNL A   1      42.391  29.826  34.705  1.00  0.00     0.049 A 
ATOM     58  H   UNL A   1      40.876  30.591  33.450  1.00  0.00     0.167 HD
ATOM     59  C   UNL A   1      42.636  28.518  32.613  1.00  0.00     0.074 A 
ATOM     60  C   UNL A   1      43.282  27.521  31.783  1.00  0.00     0.031 C 
ATOM     61  C   UNL A   1      43.017  28.828  33.875  1.00  0.00     0.037 A 
BRANCH  48  62
ATOM     62  C   UNL A   1      39.685  33.292  36.537  1.00  0.00     0.064 A 
ATOM     63  C   UNL A   1      40.313  34.537  36.694  1.00  0.00     0.173 A 
ATOM     64  C   UNL A   1      38.766  32.892  37.521  1.00  0.00     0.173 A 
ATOM     65  F   UNL A   1      41.206  34.962  35.789  1.00  0.00    -0.203 F 
ATOM     66  C   UNL A   1      40.040  35.343  37.797  1.00  0.00     0.198 A 
ATOM     67  C   UNL A   1      38.475  33.714  38.607  1.00  0.00     0.198 A 
ATOM     68  F   UNL A   1      38.132  31.715  37.415  1.00  0.00    -0.203 F 
ATOM     69  F   UNL A   1      40.677  36.513  37.944  1.00  0.00    -0.200 F 
ATOM     70  C   UNL A   1      39.114  34.935  38.747  1.00  0.00     0.200 A 
ATOM     71  F   UNL A   1      37.567  33.326  39.514  1.00  0.00    -0.200 F 
ATOM     72  F   UNL A   1      38.840  35.721  39.798  1.00  0.00    -0.200 F 
ENDBRANCH  48  62
BRANCH  49  73
ATOM     73  C   UNL A   1      40.885  27.765  28.303  1.00  0.00     0.064 A 
ATOM     74  C   UNL A   1      41.665  28.187  27.219  1.00  0.00     0.173 A 
ATOM     75  C   UNL A   1      40.289  26.498  28.224  1.00  0.00     0.173 A 
ATOM     76  F   UNL A   1      42.241  29.398  27.240  1.00  0.00    -0.203 F 
ATOM     77  C   UNL A   1      41.844  27.373  26.101  1.00  0.00     0.198 A 
ATOM     78  C   UNL A   1      40.493  25.673  27.120  1.00  0.00     0.198 A 
ATOM     79  F   UNL A   1      39.536  26.045  29.238  1.00  0.00    -0.203 F 
ATOM     80  F   UNL A   1      42.574  27.811  25.067  1.00  0.00    -0.200 F 
ATOM     81  C   UNL A   1      41.268  26.113  26.058  1.00  0.00     0.200 A 
ATOM     82  F   UNL A   1      39.951  24.447  27.093  1.00  0.00    -0.200 F 
ATOM     83  F   UNL A   1      41.458  25.322  24.994  1.00  0.00    -0.200 F 
ENDBRANCH  49  73
BRANCH  61  84
ATOM     84  C   UNL A   1      44.171  28.074  34.464  1.00  0.00     0.064 A 
ATOM     85  C   UNL A   1      45.475  28.584  34.429  1.00  0.00     0.173 A 
ATOM     86  C   UNL A   1      43.951  26.876  35.163  1.00  0.00     0.173 A 
ATOM     87  F   UNL A   1      45.739  29.719  33.762  1.00  0.00    -0.203 F 
ATOM     88  C   UNL A   1      46.519  27.923  35.070  1.00  0.00     0.198 A 
ATOM     89  C   UNL A   1      44.990  26.232  35.827  1.00  0.00     0.198 A 
ATOM     90  F   UNL A   1      42.717  26.351  35.233  1.00  0.00    -0.203 F 
ATOM     91  F   UNL A   1      47.763  28.417  35.006  1.00  0.00    -0.200 F 
ATOM     92  C   UNL A   1      46.274  26.756  35.779  1.00  0.00     0.200 A 
ATOM     93  F   UNL A   1      44.748  25.115  36.526  1.00  0.00    -0.200 F 
ATOM     94  F   UNL A   1      47.275  26.136  36.419  1.00  0.00    -0.200 F 
ENDBRANCH  61  84
ENDBRANCH  35  36
ENDBRANCH  27  30
ENDBRANCH  25  26
ENDBRANCH   1  25
TORSDOF 11
ENDMDL
