MODEL 1
REMARK VINA RESULT:     -13.4      0.000      0.000
REMARK SMILES N#Cc1ccccc1C[C@@H](NC(=O)OCC1c2ccccc2-c2ccccc21)C(=O)NCCCNC(=O)c1ccc(-c2c3nc(c(-c4c(F)c(F)c(F)c(F)c4F)c4ccc([nH]4)c(-c4c(F)c(F)c(F)c(F)c4F)c4nc(c(-c5c(F)c(F)c(F)c(F)c5F)c5ccc2[nH]5)C=C4)C=C3)cc1
REMARK SMILES IDX 32 1 31 2 29 3 30 4 10 6 9 7 8 8 3 9 4 10 5 11 7 12 6 13
REMARK SMILES IDX 2 14 1 15 11 16 12 17 13 19 14 20 15 21 16 22 17 23 28 24
REMARK SMILES IDX 18 25 22 26 23 27 27 28 19 29 21 30 24 31 26 32 20 33 25 34
REMARK SMILES IDX 33 35 34 36 35 37 36 38 37 40 38 41 39 42 100 43 40 44 99 45
REMARK SMILES IDX 41 46 42 47 43 48 93 49 44 50 98 51 92 52 94 53 45 54 97 55
REMARK SMILES IDX 91 56 90 57 46 59 78 60 58 61 77 62 59 63 62 64 76 65 95 66
REMARK SMILES IDX 60 67 61 68 75 70 96 71 63 72 47 73 48 74 56 75 49 76 50 77
REMARK SMILES IDX 54 78 57 79 51 80 52 81 55 82 53 83 79 84 80 85 88 86 81 87
REMARK SMILES IDX 82 88 86 89 89 90 83 91 84 92 87 93 85 94 64 95 65 96 73 97
REMARK SMILES IDX 66 98 67 99 71 100 74 101 68 102 69 103 72 104 70 105
REMARK H PARENT 31 5 11 18 35 39 94 58 62 69
REMARK Flexibility Score: inf
ROOT
ATOM      1  C   UNL A   1      35.626  21.813  26.073  1.00  0.00     0.117 C 
ENDROOT
BRANCH   1   2
ATOM      2  N   UNL A   1      34.793  22.177  27.213  1.00  0.00    -0.354 N 
ATOM      3  C   UNL A   1      33.434  22.094  27.359  1.00  0.00     0.243 C 
ATOM      4  O   UNL A   1      32.946  22.370  28.456  1.00  0.00    -0.273 OA
ATOM      5  H   UNL A   1      35.278  22.534  27.991  1.00  0.00     0.163 HD
BRANCH   3   6
ATOM      6  C   UNL A   1      32.550  21.732  26.148  1.00  0.00     0.179 C 
BRANCH   6   7
ATOM      7  C   UNL A   1      32.908  20.275  25.723  1.00  0.00     0.072 C 
BRANCH   7   8
ATOM      8  C   UNL A   1      32.615  19.872  24.290  1.00  0.00    -0.028 A 
ATOM      9  C   UNL A   1      32.567  18.524  23.883  1.00  0.00     0.055 A 
ATOM     10  C   UNL A   1      32.306  18.204  22.543  1.00  0.00     0.020 A 
ATOM     11  C   UNL A   1      32.071  19.209  21.605  1.00  0.00     0.001 A 
ATOM     12  C   UNL A   1      32.281  20.862  23.346  1.00  0.00     0.005 A 
ATOM     13  C   UNL A   1      32.044  20.538  22.011  1.00  0.00     0.000 A 
BRANCH   9  14
ATOM     14  C   UNL A   1      32.709  17.440  24.819  1.00  0.00     0.099 C 
ATOM     15  N   UNL A   1      32.859  16.563  25.560  1.00  0.00    -0.192 NA
ENDBRANCH   9  14
ENDBRANCH   7   8
ENDBRANCH   6   7
BRANCH   6  16
ATOM     16  N   UNL A   1      31.114  21.978  26.337  1.00  0.00    -0.309 N 
ATOM     17  C   UNL A   1      30.518  23.103  26.816  1.00  0.00     0.407 C 
ATOM     18  H   UNL A   1      30.512  21.241  26.087  1.00  0.00     0.167 HD
ATOM     19  O   UNL A   1      29.596  23.026  27.616  1.00  0.00    -0.225 OA
BRANCH  17  20
ATOM     20  O   UNL A   1      31.034  24.241  26.293  1.00  0.00    -0.449 OA
BRANCH  20  21
ATOM     21  C   UNL A   1      30.125  25.345  26.114  1.00  0.00     0.248 C 
BRANCH  21  22
ATOM     22  C   UNL A   1      30.681  26.380  25.122  1.00  0.00     0.088 C 
ATOM     23  C   UNL A   1      31.655  27.335  25.804  1.00  0.00    -0.029 A 
ATOM     24  C   UNL A   1      31.592  25.698  24.106  1.00  0.00    -0.029 A 
ATOM     25  C   UNL A   1      31.380  28.306  26.756  1.00  0.00     0.005 A 
ATOM     26  C   UNL A   1      32.973  27.050  25.403  1.00  0.00    -0.014 A 
ATOM     27  C   UNL A   1      32.931  26.102  24.311  1.00  0.00    -0.014 A 
ATOM     28  C   UNL A   1      31.253  24.807  23.098  1.00  0.00     0.005 A 
ATOM     29  C   UNL A   1      32.453  28.879  27.436  1.00  0.00     0.000 A 
ATOM     30  C   UNL A   1      34.039  27.640  26.060  1.00  0.00     0.009 A 
ATOM     31  C   UNL A   1      33.941  25.632  23.488  1.00  0.00     0.009 A 
ATOM     32  C   UNL A   1      32.275  24.331  22.273  1.00  0.00     0.000 A 
ATOM     33  C   UNL A   1      33.771  28.532  27.106  1.00  0.00     0.001 A 
ATOM     34  C   UNL A   1      33.604  24.745  22.462  1.00  0.00     0.001 A 
ENDBRANCH  21  22
ENDBRANCH  20  21
ENDBRANCH  17  20
ENDBRANCH   6  16
ENDBRANCH   3   6
ENDBRANCH   1   2
BRANCH   1  35
ATOM     35  C   UNL A   1      35.805  22.966  25.115  1.00  0.00     0.042 C 
BRANCH  35  36
ATOM     36  C   UNL A   1      37.081  23.727  25.404  1.00  0.00     0.118 C 
BRANCH  36  37
ATOM     37  N   UNL A   1      38.213  22.839  25.659  1.00  0.00    -0.352 N 
ATOM     38  C   UNL A   1      39.417  23.117  26.254  1.00  0.00     0.251 C 
ATOM     39  H   UNL A   1      38.094  21.909  25.359  1.00  0.00     0.163 HD
ATOM     40  O   UNL A   1      40.336  22.308  26.212  1.00  0.00    -0.269 OA
BRANCH  38  41
ATOM     41  C   UNL A   1      39.594  24.418  26.921  1.00  0.00     0.039 A 
ATOM     42  C   UNL A   1      39.158  24.572  28.235  1.00  0.00     0.014 A 
ATOM     43  C   UNL A   1      40.250  25.458  26.258  1.00  0.00     0.014 A 
ATOM     44  C   UNL A   1      39.446  25.757  28.910  1.00  0.00     0.010 A 
ATOM     45  C   UNL A   1      40.651  26.575  26.972  1.00  0.00     0.010 A 
ATOM     46  C   UNL A   1      40.235  26.746  28.299  1.00  0.00    -0.014 A 
BRANCH  46  47
ATOM     47  C   UNL A   1      40.622  27.980  29.024  1.00  0.00     0.031 A 
ATOM     48  C   UNL A   1      42.009  28.109  29.588  1.00  0.00     0.074 A 
ATOM     49  C   UNL A   1      39.707  28.948  29.221  1.00  0.00     0.049 A 
ATOM     50  N   UNL A   1      42.525  29.083  30.294  1.00  0.00    -0.248 NA
ATOM     51  C   UNL A   1      42.931  26.984  29.358  1.00  0.00     0.031 C 
ATOM     52  C   UNL A   1      38.315  28.904  28.771  1.00  0.00     0.029 A 
ATOM     53  N   UNL A   1      39.811  30.160  29.858  1.00  0.00    -0.354 N 
ATOM     54  C   UNL A   1      43.817  28.679  30.602  1.00  0.00     0.074 A 
ATOM     55  C   UNL A   1      43.988  27.348  30.067  1.00  0.00     0.031 C 
ATOM     56  C   UNL A   1      37.704  30.048  29.116  1.00  0.00     0.029 A 
ATOM     57  C   UNL A   1      38.644  30.883  29.855  1.00  0.00     0.049 A 
ATOM     58  H   UNL A   1      40.643  30.478  30.276  1.00  0.00     0.167 HD
ATOM     59  C   UNL A   1      44.783  29.370  31.250  1.00  0.00     0.037 A 
ATOM     60  C   UNL A   1      38.362  32.081  30.404  1.00  0.00     0.037 A 
ATOM     61  C   UNL A   1      44.609  30.704  31.759  1.00  0.00     0.049 A 
ATOM     62  C   UNL A   1      39.454  32.821  31.130  1.00  0.00     0.074 A 
ATOM     63  C   UNL A   1      45.545  31.521  32.368  1.00  0.00     0.029 A 
ATOM     64  N   UNL A   1      43.416  31.412  31.729  1.00  0.00    -0.354 N 
ATOM     65  N   UNL A   1      40.699  32.469  31.339  1.00  0.00    -0.248 NA
ATOM     66  C   UNL A   1      39.102  34.133  31.691  1.00  0.00     0.031 C 
ATOM     67  C   UNL A   1      44.900  32.691  32.776  1.00  0.00     0.029 A 
ATOM     68  C   UNL A   1      43.584  32.642  32.346  1.00  0.00     0.049 A 
ATOM     69  H   UNL A   1      42.576  31.089  31.329  1.00  0.00     0.167 HD
ATOM     70  C   UNL A   1      41.286  33.523  32.024  1.00  0.00     0.074 A 
ATOM     71  C   UNL A   1      40.265  34.538  32.179  1.00  0.00     0.031 C 
ATOM     72  C   UNL A   1      42.556  33.643  32.486  1.00  0.00     0.037 A 
BRANCH  59  73
ATOM     73  C   UNL A   1      46.110  28.696  31.454  1.00  0.00     0.064 A 
ATOM     74  C   UNL A   1      46.387  27.929  32.596  1.00  0.00     0.173 A 
ATOM     75  C   UNL A   1      47.104  28.782  30.467  1.00  0.00     0.173 A 
ATOM     76  F   UNL A   1      45.476  27.824  33.578  1.00  0.00    -0.203 F 
ATOM     77  C   UNL A   1      47.618  27.299  32.757  1.00  0.00     0.198 A 
ATOM     78  C   UNL A   1      48.320  28.118  30.614  1.00  0.00     0.198 A 
ATOM     79  F   UNL A   1      46.893  29.500  29.354  1.00  0.00    -0.203 F 
ATOM     80  F   UNL A   1      47.878  26.616  33.880  1.00  0.00    -0.200 F 
ATOM     81  C   UNL A   1      48.578  27.385  31.761  1.00  0.00     0.200 A 
ATOM     82  F   UNL A   1      49.240  28.190  29.642  1.00  0.00    -0.200 F 
ATOM     83  F   UNL A   1      49.757  26.764  31.909  1.00  0.00    -0.200 F 
ENDBRANCH  59  73
BRANCH  60  84
ATOM     84  C   UNL A   1      36.995  32.654  30.286  1.00  0.00     0.064 A 
ATOM     85  C   UNL A   1      36.615  33.404  29.163  1.00  0.00     0.173 A 
ATOM     86  C   UNL A   1      36.045  32.484  31.303  1.00  0.00     0.173 A 
ATOM     87  F   UNL A   1      37.491  33.610  28.169  1.00  0.00    -0.203 F 
ATOM     88  C   UNL A   1      35.354  33.990  29.080  1.00  0.00     0.198 A 
ATOM     89  C   UNL A   1      34.770  33.038  31.202  1.00  0.00     0.198 A 
ATOM     90  F   UNL A   1      36.349  31.768  32.396  1.00  0.00    -0.203 F 
ATOM     91  F   UNL A   1      35.041  34.754  28.024  1.00  0.00    -0.200 F 
ATOM     92  C   UNL A   1      34.430  33.802  30.096  1.00  0.00     0.200 A 
ATOM     93  F   UNL A   1      33.874  32.834  32.177  1.00  0.00    -0.200 F 
ATOM     94  F   UNL A   1      33.217  34.365  30.016  1.00  0.00    -0.200 F 
ENDBRANCH  60  84
BRANCH  72  95
ATOM     95  C   UNL A   1      42.928  34.933  33.161  1.00  0.00     0.064 A 
ATOM     96  C   UNL A   1      43.387  36.044  32.438  1.00  0.00     0.173 A 
ATOM     97  C   UNL A   1      42.785  35.069  34.551  1.00  0.00     0.173 A 
ATOM     98  F   UNL A   1      43.553  35.964  31.108  1.00  0.00    -0.203 F 
ATOM     99  C   UNL A   1      43.725  37.229  33.085  1.00  0.00     0.198 A 
ATOM    100  C   UNL A   1      43.083  36.269  35.189  1.00  0.00     0.198 A 
ATOM    101  F   UNL A   1      42.341  34.042  35.290  1.00  0.00    -0.203 F 
ATOM    102  F   UNL A   1      44.220  38.256  32.381  1.00  0.00    -0.200 F 
ATOM    103  C   UNL A   1      43.564  37.344  34.458  1.00  0.00     0.200 A 
ATOM    104  F   UNL A   1      42.906  36.384  36.512  1.00  0.00    -0.200 F 
ATOM    105  F   UNL A   1      43.879  38.490  35.077  1.00  0.00    -0.200 F 
ENDBRANCH  72  95
ENDBRANCH  46  47
ENDBRANCH  38  41
ENDBRANCH  36  37
ENDBRANCH  35  36
ENDBRANCH   1  35
TORSDOF 17
ENDMDL
MODEL 2
REMARK VINA RESULT:     -13.2      3.684      7.701
REMARK SMILES N#Cc1ccccc1C[C@@H](NC(=O)OCC1c2ccccc2-c2ccccc21)C(=O)NCCCNC(=O)c1ccc(-c2c3nc(c(-c4c(F)c(F)c(F)c(F)c4F)c4ccc([nH]4)c(-c4c(F)c(F)c(F)c(F)c4F)c4nc(c(-c5c(F)c(F)c(F)c(F)c5F)c5ccc2[nH]5)C=C4)C=C3)cc1
REMARK SMILES IDX 32 1 31 2 29 3 30 4 10 6 9 7 8 8 3 9 4 10 5 11 7 12 6 13
REMARK SMILES IDX 2 14 1 15 11 16 12 17 13 19 14 20 15 21 16 22 17 23 28 24
REMARK SMILES IDX 18 25 22 26 23 27 27 28 19 29 21 30 24 31 26 32 20 33 25 34
REMARK SMILES IDX 33 35 34 36 35 37 36 38 37 40 38 41 39 42 100 43 40 44 99 45
REMARK SMILES IDX 41 46 42 47 43 48 93 49 44 50 98 51 92 52 94 53 45 54 97 55
REMARK SMILES IDX 91 56 90 57 46 59 78 60 58 61 77 62 59 63 62 64 76 65 95 66
REMARK SMILES IDX 60 67 61 68 75 70 96 71 63 72 47 73 48 74 56 75 49 76 50 77
REMARK SMILES IDX 54 78 57 79 51 80 52 81 55 82 53 83 79 84 80 85 88 86 81 87
REMARK SMILES IDX 82 88 86 89 89 90 83 91 84 92 87 93 85 94 64 95 65 96 73 97
REMARK SMILES IDX 66 98 67 99 71 100 74 101 68 102 69 103 72 104 70 105
REMARK H PARENT 31 5 11 18 35 39 94 58 62 69
REMARK Flexibility Score: inf
ROOT
ATOM      1  C   UNL A   1      34.271  30.331  27.358  1.00  0.00     0.117 C 
ENDROOT
BRANCH   1   2
ATOM      2  N   UNL A   1      33.075  29.664  27.858  1.00  0.00    -0.354 N 
ATOM      3  C   UNL A   1      32.489  28.498  27.441  1.00  0.00     0.243 C 
ATOM      4  O   UNL A   1      31.528  28.066  28.078  1.00  0.00    -0.273 OA
ATOM      5  H   UNL A   1      32.622  30.118  28.605  1.00  0.00     0.163 HD
BRANCH   3   6
ATOM      6  C   UNL A   1      32.993  27.799  26.162  1.00  0.00     0.179 C 
BRANCH   6   7
ATOM      7  C   UNL A   1      32.362  26.374  26.125  1.00  0.00     0.072 C 
BRANCH   7   8
ATOM      8  C   UNL A   1      33.309  25.189  26.110  1.00  0.00    -0.028 A 
ATOM      9  C   UNL A   1      32.933  23.919  26.591  1.00  0.00     0.055 A 
ATOM     10  C   UNL A   1      33.851  22.859  26.568  1.00  0.00     0.020 A 
ATOM     11  C   UNL A   1      35.134  23.041  26.052  1.00  0.00     0.001 A 
ATOM     12  C   UNL A   1      34.576  25.321  25.508  1.00  0.00     0.005 A 
ATOM     13  C   UNL A   1      35.490  24.269  25.509  1.00  0.00     0.000 A 
BRANCH   9  14
ATOM     14  C   UNL A   1      31.597  23.643  27.050  1.00  0.00     0.099 C 
ATOM     15  N   UNL A   1      30.526  23.449  27.445  1.00  0.00    -0.192 NA
ENDBRANCH   9  14
ENDBRANCH   7   8
ENDBRANCH   6   7
BRANCH   6  16
ATOM     16  N   UNL A   1      32.823  28.575  24.927  1.00  0.00    -0.309 N 
ATOM     17  C   UNL A   1      33.474  28.410  23.743  1.00  0.00     0.407 C 
ATOM     18  H   UNL A   1      32.159  29.300  24.959  1.00  0.00     0.167 HD
ATOM     19  O   UNL A   1      33.882  29.378  23.117  1.00  0.00    -0.225 OA
BRANCH  17  20
ATOM     20  O   UNL A   1      33.571  27.112  23.367  1.00  0.00    -0.449 OA
BRANCH  20  21
ATOM     21  C   UNL A   1      33.584  26.844  21.951  1.00  0.00     0.248 C 
BRANCH  21  22
ATOM     22  C   UNL A   1      32.289  26.151  21.495  1.00  0.00     0.088 C 
ATOM     23  C   UNL A   1      32.239  24.702  21.970  1.00  0.00    -0.029 A 
ATOM     24  C   UNL A   1      31.089  26.747  22.223  1.00  0.00    -0.029 A 
ATOM     25  C   UNL A   1      33.026  23.636  21.559  1.00  0.00     0.005 A 
ATOM     26  C   UNL A   1      31.300  24.566  23.009  1.00  0.00    -0.014 A 
ATOM     27  C   UNL A   1      30.544  25.795  23.115  1.00  0.00    -0.014 A 
ATOM     28  C   UNL A   1      30.541  28.015  22.097  1.00  0.00     0.005 A 
ATOM     29  C   UNL A   1      32.989  22.466  22.314  1.00  0.00     0.000 A 
ATOM     30  C   UNL A   1      31.243  23.393  23.742  1.00  0.00     0.009 A 
ATOM     31  C   UNL A   1      29.425  26.101  23.871  1.00  0.00     0.009 A 
ATOM     32  C   UNL A   1      29.414  28.322  22.865  1.00  0.00     0.000 A 
ATOM     33  C   UNL A   1      32.121  22.353  23.410  1.00  0.00     0.001 A 
ATOM     34  C   UNL A   1      28.858  27.372  23.738  1.00  0.00     0.001 A 
ENDBRANCH  21  22
ENDBRANCH  20  21
ENDBRANCH  17  20
ENDBRANCH   6  16
ENDBRANCH   3   6
ENDBRANCH   1   2
BRANCH   1  35
ATOM     35  C   UNL A   1      34.086  31.827  27.269  1.00  0.00     0.042 C 
BRANCH  35  36
ATOM     36  C   UNL A   1      32.671  32.228  27.629  1.00  0.00     0.118 C 
BRANCH  36  37
ATOM     37  N   UNL A   1      32.502  33.677  27.691  1.00  0.00    -0.352 N 
ATOM     38  C   UNL A   1      33.117  34.588  28.511  1.00  0.00     0.251 C 
ATOM     39  H   UNL A   1      31.853  34.053  27.053  1.00  0.00     0.163 HD
ATOM     40  O   UNL A   1      32.717  35.745  28.571  1.00  0.00    -0.269 OA
BRANCH  38  41
ATOM     41  C   UNL A   1      34.251  34.144  29.339  1.00  0.00     0.039 A 
ATOM     42  C   UNL A   1      34.003  33.372  30.473  1.00  0.00     0.014 A 
ATOM     43  C   UNL A   1      35.558  34.441  28.949  1.00  0.00     0.014 A 
ATOM     44  C   UNL A   1      35.080  32.839  31.178  1.00  0.00     0.010 A 
ATOM     45  C   UNL A   1      36.618  33.802  29.571  1.00  0.00     0.010 A 
ATOM     46  C   UNL A   1      36.391  33.011  30.705  1.00  0.00    -0.014 A 
BRANCH  46  47
ATOM     47  C   UNL A   1      37.546  32.388  31.394  1.00  0.00     0.031 A 
ATOM     48  C   UNL A   1      38.267  31.238  30.748  1.00  0.00     0.074 A 
ATOM     49  C   UNL A   1      37.902  32.820  32.619  1.00  0.00     0.049 A 
ATOM     50  N   UNL A   1      39.265  30.526  31.209  1.00  0.00    -0.248 NA
ATOM     51  C   UNL A   1      37.785  30.805  29.426  1.00  0.00     0.031 C 
ATOM     52  C   UNL A   1      37.237  33.888  33.367  1.00  0.00     0.029 A 
ATOM     53  N   UNL A   1      38.910  32.409  33.454  1.00  0.00    -0.354 N 
ATOM     54  C   UNL A   1      39.515  29.561  30.242  1.00  0.00     0.074 A 
ATOM     55  C   UNL A   1      38.525  29.731  29.203  1.00  0.00     0.031 C 
ATOM     56  C   UNL A   1      37.873  34.070  34.534  1.00  0.00     0.029 A 
ATOM     57  C   UNL A   1      38.956  33.099  34.640  1.00  0.00     0.049 A 
ATOM     58  H   UNL A   1      39.539  31.687  33.224  1.00  0.00     0.167 HD
ATOM     59  C   UNL A   1      40.499  28.634  30.213  1.00  0.00     0.037 A 
ATOM     60  C   UNL A   1      39.774  32.953  35.700  1.00  0.00     0.037 A 
ATOM     61  C   UNL A   1      41.492  28.488  31.243  1.00  0.00     0.049 A 
ATOM     62  C   UNL A   1      40.853  31.904  35.646  1.00  0.00     0.074 A 
ATOM     63  C   UNL A   1      42.576  27.628  31.278  1.00  0.00     0.029 A 
ATOM     64  N   UNL A   1      41.517  29.213  32.426  1.00  0.00    -0.354 N 
ATOM     65  N   UNL A   1      41.136  31.054  34.687  1.00  0.00    -0.248 NA
ATOM     66  C   UNL A   1      41.732  31.798  36.817  1.00  0.00     0.031 C 
ATOM     67  C   UNL A   1      43.209  27.777  32.514  1.00  0.00     0.029 A 
ATOM     68  C   UNL A   1      42.574  28.790  33.215  1.00  0.00     0.049 A 
ATOM     69  H   UNL A   1      40.877  29.922  32.668  1.00  0.00     0.167 HD
ATOM     70  C   UNL A   1      42.242  30.338  35.126  1.00  0.00     0.074 A 
ATOM     71  C   UNL A   1      42.590  30.867  36.429  1.00  0.00     0.031 C 
ATOM     72  C   UNL A   1      42.910  29.332  34.508  1.00  0.00     0.037 A 
BRANCH  59  73
ATOM     73  C   UNL A   1      40.547  27.698  29.038  1.00  0.00     0.064 A 
ATOM     74  C   UNL A   1      39.747  26.547  28.971  1.00  0.00     0.173 A 
ATOM     75  C   UNL A   1      41.374  27.985  27.941  1.00  0.00     0.173 A 
ATOM     76  F   UNL A   1      38.947  26.217  29.998  1.00  0.00    -0.203 F 
ATOM     77  C   UNL A   1      39.796  25.703  27.864  1.00  0.00     0.198 A 
ATOM     78  C   UNL A   1      41.391  27.160  26.820  1.00  0.00     0.198 A 
ATOM     79  F   UNL A   1      42.158  29.073  27.951  1.00  0.00    -0.203 F 
ATOM     80  F   UNL A   1      39.062  24.582  27.846  1.00  0.00    -0.200 F 
ATOM     81  C   UNL A   1      40.609  26.017  26.786  1.00  0.00     0.200 A 
ATOM     82  F   UNL A   1      42.165  27.474  25.772  1.00  0.00    -0.200 F 
ATOM     83  F   UNL A   1      40.642  25.212  25.714  1.00  0.00    -0.200 F 
ENDBRANCH  59  73
BRANCH  60  84
ATOM     84  C   UNL A   1      39.608  33.819  36.898  1.00  0.00     0.064 A 
ATOM     85  C   UNL A   1      38.825  33.411  37.987  1.00  0.00     0.173 A 
ATOM     86  C   UNL A   1      40.211  35.083  36.971  1.00  0.00     0.173 A 
ATOM     87  F   UNL A   1      38.214  32.217  37.962  1.00  0.00    -0.203 F 
ATOM     88  C   UNL A   1      38.623  34.247  39.084  1.00  0.00     0.198 A 
ATOM     89  C   UNL A   1      40.039  35.903  38.084  1.00  0.00     0.198 A 
ATOM     90  F   UNL A   1      40.979  35.522  35.962  1.00  0.00    -0.203 F 
ATOM     91  F   UNL A   1      37.818  33.856  40.081  1.00  0.00    -0.200 F 
ATOM     92  C   UNL A   1      39.234  35.489  39.134  1.00  0.00     0.200 A 
ATOM     93  F   UNL A   1      40.650  37.095  38.137  1.00  0.00    -0.200 F 
ATOM     94  F   UNL A   1      39.040  36.293  40.188  1.00  0.00    -0.200 F 
ENDBRANCH  60  84
BRANCH  72  95
ATOM     95  C   UNL A   1      44.113  28.767  35.209  1.00  0.00     0.064 A 
ATOM     96  C   UNL A   1      44.020  27.666  36.072  1.00  0.00     0.173 A 
ATOM     97  C   UNL A   1      45.384  29.317  34.981  1.00  0.00     0.173 A 
ATOM     98  F   UNL A   1      42.827  27.110  36.334  1.00  0.00    -0.203 F 
ATOM     99  C   UNL A   1      45.149  27.159  36.710  1.00  0.00     0.198 A 
ATOM    100  C   UNL A   1      46.516  28.781  35.588  1.00  0.00     0.198 A 
ATOM    101  F   UNL A   1      45.533  30.365  34.158  1.00  0.00    -0.203 F 
ATOM    102  F   UNL A   1      45.028  26.145  37.578  1.00  0.00    -0.200 F 
ATOM    103  C   UNL A   1      46.398  27.711  36.460  1.00  0.00     0.200 A 
ATOM    104  F   UNL A   1      47.724  29.302  35.327  1.00  0.00    -0.200 F 
ATOM    105  F   UNL A   1      47.484  27.214  37.066  1.00  0.00    -0.200 F 
ENDBRANCH  72  95
ENDBRANCH  46  47
ENDBRANCH  38  41
ENDBRANCH  36  37
ENDBRANCH  35  36
ENDBRANCH   1  35
TORSDOF 17
ENDMDL
MODEL 3
REMARK VINA RESULT:     -12.9      3.581      8.444
REMARK SMILES N#Cc1ccccc1C[C@@H](NC(=O)OCC1c2ccccc2-c2ccccc21)C(=O)NCCCNC(=O)c1ccc(-c2c3nc(c(-c4c(F)c(F)c(F)c(F)c4F)c4ccc([nH]4)c(-c4c(F)c(F)c(F)c(F)c4F)c4nc(c(-c5c(F)c(F)c(F)c(F)c5F)c5ccc2[nH]5)C=C4)C=C3)cc1
REMARK SMILES IDX 32 1 31 2 29 3 30 4 10 6 9 7 8 8 3 9 4 10 5 11 7 12 6 13
REMARK SMILES IDX 2 14 1 15 11 16 12 17 13 19 14 20 15 21 16 22 17 23 28 24
REMARK SMILES IDX 18 25 22 26 23 27 27 28 19 29 21 30 24 31 26 32 20 33 25 34
REMARK SMILES IDX 33 35 34 36 35 37 36 38 37 40 38 41 39 42 100 43 40 44 99 45
REMARK SMILES IDX 41 46 42 47 43 48 93 49 44 50 98 51 92 52 94 53 45 54 97 55
REMARK SMILES IDX 91 56 90 57 46 59 78 60 58 61 77 62 59 63 62 64 76 65 95 66
REMARK SMILES IDX 60 67 61 68 75 70 96 71 63 72 47 73 48 74 56 75 49 76 50 77
REMARK SMILES IDX 54 78 57 79 51 80 52 81 55 82 53 83 79 84 80 85 88 86 81 87
REMARK SMILES IDX 82 88 86 89 89 90 83 91 84 92 87 93 85 94 64 95 65 96 73 97
REMARK SMILES IDX 66 98 67 99 71 100 74 101 68 102 69 103 72 104 70 105
REMARK H PARENT 31 5 11 18 35 39 94 58 62 69
REMARK Flexibility Score: inf
ROOT
ATOM      1  C   UNL A   1      34.085  30.454  27.150  1.00  0.00     0.117 C 
ENDROOT
BRANCH   1   2
ATOM      2  N   UNL A   1      33.006  29.689  27.764  1.00  0.00    -0.354 N 
ATOM      3  C   UNL A   1      32.521  28.451  27.437  1.00  0.00     0.243 C 
ATOM      4  O   UNL A   1      31.660  27.950  28.161  1.00  0.00    -0.273 OA
ATOM      5  H   UNL A   1      32.563  30.126  28.526  1.00  0.00     0.163 HD
BRANCH   3   6
ATOM      6  C   UNL A   1      33.004  27.750  26.151  1.00  0.00     0.179 C 
BRANCH   6   7
ATOM      7  C   UNL A   1      32.356  26.333  26.115  1.00  0.00     0.072 C 
BRANCH   7   8
ATOM      8  C   UNL A   1      33.289  25.137  26.106  1.00  0.00    -0.028 A 
ATOM      9  C   UNL A   1      32.897  23.872  26.589  1.00  0.00     0.055 A 
ATOM     10  C   UNL A   1      33.802  22.801  26.570  1.00  0.00     0.020 A 
ATOM     11  C   UNL A   1      35.088  22.967  26.058  1.00  0.00     0.001 A 
ATOM     12  C   UNL A   1      34.559  25.252  25.507  1.00  0.00     0.005 A 
ATOM     13  C   UNL A   1      35.461  24.189  25.512  1.00  0.00     0.000 A 
BRANCH   9  14
ATOM     14  C   UNL A   1      31.556  23.614  27.045  1.00  0.00     0.099 C 
ATOM     15  N   UNL A   1      30.491  23.377  27.432  1.00  0.00    -0.192 NA
ENDBRANCH   9  14
ENDBRANCH   7   8
ENDBRANCH   6   7
BRANCH   6  16
ATOM     16  N   UNL A   1      32.830  28.533  24.920  1.00  0.00    -0.309 N 
ATOM     17  C   UNL A   1      33.475  28.372  23.733  1.00  0.00     0.407 C 
ATOM     18  H   UNL A   1      32.168  29.260  24.959  1.00  0.00     0.167 HD
ATOM     19  O   UNL A   1      33.883  29.342  23.109  1.00  0.00    -0.225 OA
BRANCH  17  20
ATOM     20  O   UNL A   1      33.567  27.076  23.350  1.00  0.00    -0.449 OA
BRANCH  20  21
ATOM     21  C   UNL A   1      33.575  26.814  21.932  1.00  0.00     0.248 C 
BRANCH  21  22
ATOM     22  C   UNL A   1      32.284  26.112  21.480  1.00  0.00     0.088 C 
ATOM     23  C   UNL A   1      32.247  24.662  21.950  1.00  0.00    -0.029 A 
ATOM     24  C   UNL A   1      31.082  26.696  22.215  1.00  0.00    -0.029 A 
ATOM     25  C   UNL A   1      33.041  23.603  21.533  1.00  0.00     0.005 A 
ATOM     26  C   UNL A   1      31.314  24.515  22.993  1.00  0.00    -0.014 A 
ATOM     27  C   UNL A   1      30.548  25.737  23.106  1.00  0.00    -0.014 A 
ATOM     28  C   UNL A   1      30.523  27.961  22.095  1.00  0.00     0.005 A 
ATOM     29  C   UNL A   1      33.017  22.430  22.284  1.00  0.00     0.000 A 
ATOM     30  C   UNL A   1      31.269  23.340  23.722  1.00  0.00     0.009 A 
ATOM     31  C   UNL A   1      29.430  26.032  23.868  1.00  0.00     0.009 A 
ATOM     32  C   UNL A   1      29.397  28.256  22.869  1.00  0.00     0.000 A 
ATOM     33  C   UNL A   1      32.154  22.307  23.383  1.00  0.00     0.001 A 
ATOM     34  C   UNL A   1      28.853  27.299  23.741  1.00  0.00     0.001 A 
ENDBRANCH  21  22
ENDBRANCH  20  21
ENDBRANCH  17  20
ENDBRANCH   6  16
ENDBRANCH   3   6
ENDBRANCH   1   2
BRANCH   1  35
ATOM     35  C   UNL A   1      34.010  31.919  27.505  1.00  0.00     0.042 C 
BRANCH  35  36
ATOM     36  C   UNL A   1      32.575  32.399  27.554  1.00  0.00     0.118 C 
BRANCH  36  37
ATOM     37  N   UNL A   1      32.477  33.849  27.699  1.00  0.00    -0.352 N 
ATOM     38  C   UNL A   1      33.160  34.684  28.545  1.00  0.00     0.251 C 
ATOM     39  H   UNL A   1      31.828  34.289  27.103  1.00  0.00     0.163 HD
ATOM     40  O   UNL A   1      32.817  35.853  28.680  1.00  0.00    -0.269 OA
BRANCH  38  41
ATOM     41  C   UNL A   1      34.294  34.143  29.312  1.00  0.00     0.039 A 
ATOM     42  C   UNL A   1      34.045  33.276  30.374  1.00  0.00     0.014 A 
ATOM     43  C   UNL A   1      35.602  34.449  28.931  1.00  0.00     0.014 A 
ATOM     44  C   UNL A   1      35.120  32.659  31.011  1.00  0.00     0.010 A 
ATOM     45  C   UNL A   1      36.657  33.734  29.475  1.00  0.00     0.010 A 
ATOM     46  C   UNL A   1      36.428  32.847  30.536  1.00  0.00    -0.014 A 
BRANCH  46  47
ATOM     47  C   UNL A   1      37.579  32.141  31.147  1.00  0.00     0.031 A 
ATOM     48  C   UNL A   1      38.059  32.542  32.514  1.00  0.00     0.074 A 
ATOM     49  C   UNL A   1      38.220  31.185  30.446  1.00  0.00     0.049 A 
ATOM     50  N   UNL A   1      39.077  32.083  33.198  1.00  0.00    -0.248 NA
ATOM     51  C   UNL A   1      37.323  33.622  33.190  1.00  0.00     0.031 C 
ATOM     52  C   UNL A   1      37.879  30.756  29.089  1.00  0.00     0.029 A 
ATOM     53  N   UNL A   1      39.299  30.406  30.779  1.00  0.00    -0.354 N 
ATOM     54  C   UNL A   1      39.107  32.828  34.369  1.00  0.00     0.074 A 
ATOM     55  C   UNL A   1      38.053  33.812  34.277  1.00  0.00     0.031 C 
ATOM     56  C   UNL A   1      38.709  29.770  28.718  1.00  0.00     0.029 A 
ATOM     57  C   UNL A   1      39.672  29.532  29.788  1.00  0.00     0.049 A 
ATOM     58  H   UNL A   1      39.761  30.467  31.647  1.00  0.00     0.167 HD
ATOM     59  C   UNL A   1      39.924  32.685  35.437  1.00  0.00     0.037 A 
ATOM     60  C   UNL A   1      40.689  28.649  29.743  1.00  0.00     0.037 A 
ATOM     61  C   UNL A   1      40.956  31.686  35.527  1.00  0.00     0.049 A 
ATOM     62  C   UNL A   1      41.591  28.520  30.941  1.00  0.00     0.074 A 
ATOM     63  C   UNL A   1      41.793  31.409  36.593  1.00  0.00     0.029 A 
ATOM     64  N   UNL A   1      41.299  30.809  34.508  1.00  0.00    -0.354 N 
ATOM     65  N   UNL A   1      41.555  29.169  32.081  1.00  0.00    -0.248 NA
ATOM     66  C   UNL A   1      42.671  27.529  30.851  1.00  0.00     0.031 C 
ATOM     67  C   UNL A   1      42.694  30.419  36.192  1.00  0.00     0.029 A 
ATOM     68  C   UNL A   1      42.364  30.018  34.907  1.00  0.00     0.049 A 
ATOM     69  H   UNL A   1      40.853  30.759  33.632  1.00  0.00     0.167 HD
ATOM     70  C   UNL A   1      42.583  28.644  32.852  1.00  0.00     0.074 A 
ATOM     71  C   UNL A   1      43.212  27.608  32.058  1.00  0.00     0.031 C 
ATOM     72  C   UNL A   1      42.974  28.987  34.105  1.00  0.00     0.037 A 
BRANCH  59  73
ATOM     73  C   UNL A   1      39.745  33.631  36.590  1.00  0.00     0.064 A 
ATOM     74  C   UNL A   1      40.369  34.888  36.624  1.00  0.00     0.173 A 
ATOM     75  C   UNL A   1      38.898  33.293  37.656  1.00  0.00     0.173 A 
ATOM     76  F   UNL A   1      41.201  35.258  35.637  1.00  0.00    -0.203 F 
ATOM     77  C   UNL A   1      40.176  35.757  37.695  1.00  0.00     0.198 A 
ATOM     78  C   UNL A   1      38.676  34.180  38.706  1.00  0.00     0.198 A 
ATOM     79  F   UNL A   1      38.274  32.106  37.675  1.00  0.00    -0.203 F 
ATOM     80  F   UNL A   1      40.824  36.929  37.730  1.00  0.00    -0.200 F 
ATOM     81  C   UNL A   1      39.321  35.407  38.728  1.00  0.00     0.200 A 
ATOM     82  F   UNL A   1      37.837  33.846  39.696  1.00  0.00    -0.200 F 
ATOM     83  F   UNL A   1      39.122  36.251  39.750  1.00  0.00    -0.200 F 
ENDBRANCH  59  73
BRANCH  60  84
ATOM     84  C   UNL A   1      40.906  27.820  28.528  1.00  0.00     0.064 A 
ATOM     85  C   UNL A   1      41.726  28.265  27.481  1.00  0.00     0.173 A 
ATOM     86  C   UNL A   1      40.281  26.574  28.376  1.00  0.00     0.173 A 
ATOM     87  F   UNL A   1      42.335  29.457  27.568  1.00  0.00    -0.203 F 
ATOM     88  C   UNL A   1      41.882  27.514  26.318  1.00  0.00     0.198 A 
ATOM     89  C   UNL A   1      40.468  25.806  27.229  1.00  0.00     0.198 A 
ATOM     90  F   UNL A   1      39.493  26.093  29.350  1.00  0.00    -0.203 F 
ATOM     91  F   UNL A   1      42.621  27.994  25.307  1.00  0.00    -0.200 F 
ATOM     92  C   UNL A   1      41.259  26.283  26.195  1.00  0.00     0.200 A 
ATOM     93  F   UNL A   1      39.880  24.606  27.125  1.00  0.00    -0.200 F 
ATOM     94  F   UNL A   1      41.409  25.560  25.077  1.00  0.00    -0.200 F 
ENDBRANCH  60  84
BRANCH  72  95
ATOM     95  C   UNL A   1      44.103  28.207  34.715  1.00  0.00     0.064 A 
ATOM     96  C   UNL A   1      43.885  27.022  35.434  1.00  0.00     0.173 A 
ATOM     97  C   UNL A   1      45.430  28.634  34.542  1.00  0.00     0.173 A 
ATOM     98  F   UNL A   1      42.636  26.576  35.638  1.00  0.00    -0.203 F 
ATOM     99  C   UNL A   1      44.948  26.315  35.989  1.00  0.00     0.198 A 
ATOM    100  C   UNL A   1      46.493  27.902  35.063  1.00  0.00     0.198 A 
ATOM    101  F   UNL A   1      45.698  29.753  33.855  1.00  0.00    -0.203 F 
ATOM    102  F   UNL A   1      44.711  25.221  36.725  1.00  0.00    -0.200 F 
ATOM    103  C   UNL A   1      46.251  26.750  35.795  1.00  0.00     0.200 A 
ATOM    104  F   UNL A   1      47.752  28.313  34.855  1.00  0.00    -0.200 F 
ATOM    105  F   UNL A   1      47.274  26.062  36.321  1.00  0.00    -0.200 F 
ENDBRANCH  72  95
ENDBRANCH  46  47
ENDBRANCH  38  41
ENDBRANCH  36  37
ENDBRANCH  35  36
ENDBRANCH   1  35
TORSDOF 17
ENDMDL
