MODEL 1
REMARK VINA RESULT:     -13.0      0.000      0.000
REMARK SMILES CCOc1ccc(C(=O)N2CCC(C(=O)NCCCNC(=O)c3ccc(-c4c5nc(c(-c6c(F)c(F)c(F)c(F)c6F)c6ccc([nH]6)c(-c6c(F)c(F)c(F)c(F)c6F)c6nc(c(-c7c(F)c(F)c(F)c(F)c7F)c7ccc4[nH]7)C=C6)C=C5)cc3)(c3ccccc3)CC2)cc1OC
REMARK SMILES IDX 17 1 16 2 14 3 15 4 13 6 8 7 9 8 10 9 11 10 93 11 12 12
REMARK SMILES IDX 92 13 7 14 4 15 5 16 95 17 6 18 94 19 3 20 2 21 1 22 96 23
REMARK SMILES IDX 97 24 86 25 87 26 91 27 88 28 90 29 89 30 18 31 19 32 20 33
REMARK SMILES IDX 21 34 22 36 23 37 24 38 85 39 25 40 84 41 26 42 27 43 28 44
REMARK SMILES IDX 78 45 29 46 83 47 77 48 79 49 30 50 82 51 76 52 75 53 31 55
REMARK SMILES IDX 63 56 43 57 62 58 44 59 47 60 61 61 80 62 45 63 46 64 60 66
REMARK SMILES IDX 81 67 48 68 32 69 33 70 41 71 34 72 35 73 39 74 42 75 36 76
REMARK SMILES IDX 37 77 40 78 38 79 64 80 65 81 73 82 66 83 67 84 71 85 74 86
REMARK SMILES IDX 68 87 69 88 72 89 70 90 49 91 50 92 58 93 51 94 52 95 56 96
REMARK SMILES IDX 59 97 53 98 54 99 57 100 55 101
REMARK H PARENT 16 5 20 35 79 54 47 65
REMARK Flexibility Score: inf
ROOT
ATOM      1  C   UNL A   1      31.606  30.477  26.100  1.00  0.00     0.117 C 
ENDROOT
BRANCH   1   2
ATOM      2  N   UNL A   1      31.565  29.578  27.247  1.00  0.00    -0.355 N 
ATOM      3  C   UNL A   1      31.603  28.214  27.374  1.00  0.00     0.230 C 
ATOM      4  O   UNL A   1      31.404  27.830  28.527  1.00  0.00    -0.274 OA
ATOM      5  H   UNL A   1      31.497  30.049  28.109  1.00  0.00     0.163 HD
BRANCH   3   6
ATOM      6  C   UNL A   1      31.835  27.271  26.141  1.00  0.00     0.077 C 
ATOM      7  C   UNL A   1      33.736  23.348  26.136  1.00  0.00     0.253 C 
ATOM      8  O   UNL A   1      34.816  23.287  26.727  1.00  0.00    -0.269 OA
ATOM      9  N   UNL A   1      33.042  24.567  26.018  1.00  0.00    -0.339 N 
ATOM     10  C   UNL A   1      33.869  25.699  25.641  1.00  0.00     0.121 C 
ATOM     11  C   UNL A   1      31.592  24.693  25.880  1.00  0.00     0.121 C 
ATOM     12  C   UNL A   1      33.372  27.058  26.099  1.00  0.00     0.043 C 
ATOM     13  C   UNL A   1      31.001  25.986  26.418  1.00  0.00     0.043 C 
BRANCH   7  14
ATOM     14  C   UNL A   1      33.263  22.120  25.421  1.00  0.00     0.043 A 
ATOM     15  C   UNL A   1      32.617  19.753  24.021  1.00  0.00     0.161 A 
ATOM     16  C   UNL A   1      32.993  19.704  25.373  1.00  0.00     0.051 A 
ATOM     17  C   UNL A   1      32.532  20.982  23.375  1.00  0.00     0.161 A 
ATOM     18  C   UNL A   1      33.304  20.881  26.071  1.00  0.00     0.018 A 
ATOM     19  C   UNL A   1      32.931  22.129  24.067  1.00  0.00     0.064 A 
BRANCH  15  20
ATOM     20  O   UNL A   1      32.303  18.594  23.370  1.00  0.00    -0.490 OA
BRANCH  20  21
ATOM     21  C   UNL A   1      32.874  17.433  23.987  1.00  0.00     0.226 C 
ATOM     22  C   UNL A   1      34.029  16.950  23.126  1.00  0.00     0.049 C 
ENDBRANCH  20  21
ENDBRANCH  15  20
BRANCH  17  23
ATOM     23  O   UNL A   1      32.139  21.286  22.104  1.00  0.00    -0.493 OA
ATOM     24  C   UNL A   1      32.531  22.513  21.519  1.00  0.00     0.278 C 
ENDBRANCH  17  23
ENDBRANCH   7  14
BRANCH   6  25
ATOM     25  C   UNL A   1      31.380  27.820  24.739  1.00  0.00    -0.032 A 
ATOM     26  C   UNL A   1      30.069  27.739  24.243  1.00  0.00     0.005 A 
ATOM     27  C   UNL A   1      32.321  28.419  23.868  1.00  0.00     0.005 A 
ATOM     28  C   UNL A   1      29.719  28.234  22.977  1.00  0.00     0.000 A 
ATOM     29  C   UNL A   1      31.981  28.898  22.596  1.00  0.00     0.000 A 
ATOM     30  C   UNL A   1      30.674  28.809  22.151  1.00  0.00     0.000 A 
ENDBRANCH   6  25
ENDBRANCH   3   6
ENDBRANCH   1   2
BRANCH   1  31
ATOM     31  C   UNL A   1      31.435  31.937  26.499  1.00  0.00     0.042 C 
BRANCH  31  32
ATOM     32  C   UNL A   1      32.709  32.606  26.992  1.00  0.00     0.118 C 
BRANCH  32  33
ATOM     33  N   UNL A   1      32.469  33.918  27.576  1.00  0.00    -0.352 N 
ATOM     34  C   UNL A   1      33.062  34.532  28.649  1.00  0.00     0.251 C 
ATOM     35  H   UNL A   1      31.770  34.448  27.129  1.00  0.00     0.163 HD
ATOM     36  O   UNL A   1      32.583  35.573  29.089  1.00  0.00    -0.269 OA
BRANCH  34  37
ATOM     37  C   UNL A   1      34.257  33.945  29.294  1.00  0.00     0.039 A 
ATOM     38  C   UNL A   1      34.074  32.923  30.231  1.00  0.00     0.014 A 
ATOM     39  C   UNL A   1      35.546  34.412  29.018  1.00  0.00     0.014 A 
ATOM     40  C   UNL A   1      35.182  32.335  30.843  1.00  0.00     0.010 A 
ATOM     41  C   UNL A   1      36.654  33.764  29.560  1.00  0.00     0.010 A 
ATOM     42  C   UNL A   1      36.484  32.727  30.488  1.00  0.00    -0.014 A 
BRANCH  42  43
ATOM     43  C   UNL A   1      37.666  32.060  31.089  1.00  0.00     0.031 A 
ATOM     44  C   UNL A   1      38.130  32.427  32.472  1.00  0.00     0.074 A 
ATOM     45  C   UNL A   1      38.347  31.147  30.371  1.00  0.00     0.049 A 
ATOM     46  N   UNL A   1      39.136  31.949  33.162  1.00  0.00    -0.248 NA
ATOM     47  C   UNL A   1      37.384  33.488  33.165  1.00  0.00     0.031 C 
ATOM     48  C   UNL A   1      38.039  30.755  28.994  1.00  0.00     0.029 A 
ATOM     49  N   UNL A   1      39.439  30.383  30.697  1.00  0.00    -0.354 N 
ATOM     50  C   UNL A   1      39.149  32.657  34.356  1.00  0.00     0.074 A 
ATOM     51  C   UNL A   1      38.087  33.636  34.277  1.00  0.00     0.031 C 
ATOM     52  C   UNL A   1      38.898  29.799  28.606  1.00  0.00     0.029 A 
ATOM     53  C   UNL A   1      39.834  29.532  29.693  1.00  0.00     0.049 A 
ATOM     54  H   UNL A   1      39.895  30.437  31.567  1.00  0.00     0.167 HD
ATOM     55  C   UNL A   1      39.954  32.488  35.432  1.00  0.00     0.037 A 
ATOM     56  C   UNL A   1      40.836  28.633  29.657  1.00  0.00     0.037 A 
ATOM     57  C   UNL A   1      40.992  31.495  35.518  1.00  0.00     0.049 A 
ATOM     58  C   UNL A   1      41.698  28.447  30.874  1.00  0.00     0.074 A 
ATOM     59  C   UNL A   1      41.818  31.199  36.590  1.00  0.00     0.029 A 
ATOM     60  N   UNL A   1      41.348  30.633  34.491  1.00  0.00    -0.354 N 
ATOM     61  N   UNL A   1      41.646  29.065  32.030  1.00  0.00    -0.248 NA
ATOM     62  C   UNL A   1      42.751  27.426  30.788  1.00  0.00     0.031 C 
ATOM     63  C   UNL A   1      42.703  30.189  36.195  1.00  0.00     0.029 A 
ATOM     64  C   UNL A   1      42.395  29.820  34.895  1.00  0.00     0.049 A 
ATOM     65  H   UNL A   1      40.920  30.605  33.604  1.00  0.00     0.167 HD
ATOM     66  C   UNL A   1      42.640  28.496  32.812  1.00  0.00     0.074 A 
ATOM     67  C   UNL A   1      43.263  27.464  32.009  1.00  0.00     0.031 C 
ATOM     68  C   UNL A   1      43.005  28.800  34.082  1.00  0.00     0.037 A 
BRANCH  55  69
ATOM     69  C   UNL A   1      39.739  33.395  36.610  1.00  0.00     0.064 A 
ATOM     70  C   UNL A   1      40.425  34.613  36.737  1.00  0.00     0.173 A 
ATOM     71  C   UNL A   1      38.808  33.061  37.606  1.00  0.00     0.173 A 
ATOM     72  F   UNL A   1      41.334  34.974  35.819  1.00  0.00    -0.203 F 
ATOM     73  C   UNL A   1      40.208  35.448  37.830  1.00  0.00     0.198 A 
ATOM     74  C   UNL A   1      38.571  33.914  38.682  1.00  0.00     0.198 A 
ATOM     75  F   UNL A   1      38.121  31.912  37.532  1.00  0.00    -0.203 F 
ATOM     76  F   UNL A   1      40.911  36.582  37.953  1.00  0.00    -0.200 F 
ATOM     77  C   UNL A   1      39.277  35.101  38.797  1.00  0.00     0.200 A 
ATOM     78  F   UNL A   1      37.661  33.584  39.609  1.00  0.00    -0.200 F 
ATOM     79  F   UNL A   1      39.063  35.911  39.843  1.00  0.00    -0.200 F 
ENDBRANCH  55  69
BRANCH  56  80
ATOM     80  C   UNL A   1      41.052  27.814  28.436  1.00  0.00     0.064 A 
ATOM     81  C   UNL A   1      41.953  28.226  27.444  1.00  0.00     0.173 A 
ATOM     82  C   UNL A   1      40.366  26.607  28.235  1.00  0.00     0.173 A 
ATOM     83  F   UNL A   1      42.618  29.382  27.581  1.00  0.00    -0.203 F 
ATOM     84  C   UNL A   1      42.140  27.474  26.286  1.00  0.00     0.198 A 
ATOM     85  C   UNL A   1      40.576  25.842  27.091  1.00  0.00     0.198 A 
ATOM     86  F   UNL A   1      39.498  26.167  29.159  1.00  0.00    -0.203 F 
ATOM     87  F   UNL A   1      42.971  27.914  25.331  1.00  0.00    -0.200 F 
ATOM     88  C   UNL A   1      41.457  26.280  26.112  1.00  0.00     0.200 A 
ATOM     89  F   UNL A   1      39.923  24.683  26.933  1.00  0.00    -0.200 F 
ATOM     90  F   UNL A   1      41.640  25.556  25.001  1.00  0.00    -0.200 F 
ENDBRANCH  56  80
BRANCH  68  91
ATOM     91  C   UNL A   1      44.115  27.989  34.685  1.00  0.00     0.064 A 
ATOM     92  C   UNL A   1      45.458  28.385  34.579  1.00  0.00     0.173 A 
ATOM     93  C   UNL A   1      43.833  26.807  35.388  1.00  0.00     0.173 A 
ATOM     94  F   UNL A   1      45.781  29.498  33.904  1.00  0.00    -0.203 F 
ATOM     95  C   UNL A   1      46.477  27.609  35.123  1.00  0.00     0.198 A 
ATOM     96  C   UNL A   1      44.852  26.052  35.959  1.00  0.00     0.198 A 
ATOM     97  F   UNL A   1      42.565  26.388  35.525  1.00  0.00    -0.203 F 
ATOM     98  F   UNL A   1      47.756  27.976  34.958  1.00  0.00    -0.200 F 
ATOM     99  C   UNL A   1      46.174  26.447  35.817  1.00  0.00     0.200 A 
ATOM    100  F   UNL A   1      44.557  24.936  36.639  1.00  0.00    -0.200 F 
ATOM    101  F   UNL A   1      47.157  25.702  36.339  1.00  0.00    -0.200 F 
ENDBRANCH  68  91
ENDBRANCH  42  43
ENDBRANCH  34  37
ENDBRANCH  32  33
ENDBRANCH  31  32
ENDBRANCH   1  31
TORSDOF 15
ENDMDL
MODEL 2
REMARK VINA RESULT:     -13.0      1.223      2.072
REMARK SMILES CCOc1ccc(C(=O)N2CCC(C(=O)NCCCNC(=O)c3ccc(-c4c5nc(c(-c6c(F)c(F)c(F)c(F)c6F)c6ccc([nH]6)c(-c6c(F)c(F)c(F)c(F)c6F)c6nc(c(-c7c(F)c(F)c(F)c(F)c7F)c7ccc4[nH]7)C=C6)C=C5)cc3)(c3ccccc3)CC2)cc1OC
REMARK SMILES IDX 17 1 16 2 14 3 15 4 13 6 8 7 9 8 10 9 11 10 93 11 12 12
REMARK SMILES IDX 92 13 7 14 4 15 5 16 95 17 6 18 94 19 3 20 2 21 1 22 96 23
REMARK SMILES IDX 97 24 86 25 87 26 91 27 88 28 90 29 89 30 18 31 19 32 20 33
REMARK SMILES IDX 21 34 22 36 23 37 24 38 85 39 25 40 84 41 26 42 27 43 28 44
REMARK SMILES IDX 78 45 29 46 83 47 77 48 79 49 30 50 82 51 76 52 75 53 31 55
REMARK SMILES IDX 63 56 43 57 62 58 44 59 47 60 61 61 80 62 45 63 46 64 60 66
REMARK SMILES IDX 81 67 48 68 32 69 33 70 41 71 34 72 35 73 39 74 42 75 36 76
REMARK SMILES IDX 37 77 40 78 38 79 64 80 65 81 73 82 66 83 67 84 71 85 74 86
REMARK SMILES IDX 68 87 69 88 72 89 70 90 49 91 50 92 58 93 51 94 52 95 56 96
REMARK SMILES IDX 59 97 53 98 54 99 57 100 55 101
REMARK H PARENT 16 5 20 35 79 54 47 65
REMARK Flexibility Score: inf
ROOT
ATOM      1  C   UNL A   1      31.777  29.751  25.935  1.00  0.00     0.117 C 
ENDROOT
BRANCH   1   2
ATOM      2  N   UNL A   1      32.721  29.818  24.826  1.00  0.00    -0.355 N 
ATOM      3  C   UNL A   1      33.069  28.938  23.834  1.00  0.00     0.230 C 
ATOM      4  O   UNL A   1      34.024  29.324  23.158  1.00  0.00    -0.274 OA
ATOM      5  H   UNL A   1      33.210  30.672  24.779  1.00  0.00     0.163 HD
BRANCH   3   6
ATOM      6  C   UNL A   1      32.329  27.567  23.642  1.00  0.00     0.077 C 
ATOM      7  C   UNL A   1      34.138  23.627  23.195  1.00  0.00     0.253 C 
ATOM      8  O   UNL A   1      35.049  23.558  22.367  1.00  0.00    -0.269 OA
ATOM      9  N   UNL A   1      33.435  24.829  23.401  1.00  0.00    -0.339 N 
ATOM     10  C   UNL A   1      33.039  25.513  22.183  1.00  0.00     0.121 C 
ATOM     11  C   UNL A   1      32.785  25.212  24.652  1.00  0.00     0.121 C 
ATOM     12  C   UNL A   1      32.874  27.017  22.297  1.00  0.00     0.043 C 
ATOM     13  C   UNL A   1      32.678  26.710  24.893  1.00  0.00     0.043 C 
BRANCH   7  14
ATOM     14  C   UNL A   1      33.708  22.358  23.864  1.00  0.00     0.043 A 
ATOM     15  C   UNL A   1      32.664  20.069  25.149  1.00  0.00     0.161 A 
ATOM     16  C   UNL A   1      32.509  20.246  23.765  1.00  0.00     0.051 A 
ATOM     17  C   UNL A   1      33.367  21.016  25.889  1.00  0.00     0.161 A 
ATOM     18  C   UNL A   1      33.036  21.378  23.125  1.00  0.00     0.018 A 
ATOM     19  C   UNL A   1      33.805  22.175  25.243  1.00  0.00     0.064 A 
BRANCH  15  20
ATOM     20  O   UNL A   1      32.156  18.950  25.744  1.00  0.00    -0.490 OA
BRANCH  20  21
ATOM     21  C   UNL A   1      32.289  17.776  24.933  1.00  0.00     0.226 C 
ATOM     22  C   UNL A   1      32.887  16.668  25.784  1.00  0.00     0.049 C 
ENDBRANCH  20  21
ENDBRANCH  15  20
BRANCH  17  23
ATOM     23  O   UNL A   1      33.695  21.035  27.213  1.00  0.00    -0.493 OA
ATOM     24  C   UNL A   1      33.472  22.205  27.977  1.00  0.00     0.278 C 
ENDBRANCH  17  23
ENDBRANCH   7  14
BRANCH   6  25
ATOM     25  C   UNL A   1      30.759  27.622  23.547  1.00  0.00    -0.032 A 
ATOM     26  C   UNL A   1      29.900  26.631  24.046  1.00  0.00     0.005 A 
ATOM     27  C   UNL A   1      30.121  28.706  22.899  1.00  0.00     0.005 A 
ATOM     28  C   UNL A   1      28.504  26.722  23.923  1.00  0.00     0.000 A 
ATOM     29  C   UNL A   1      28.730  28.793  22.755  1.00  0.00     0.000 A 
ATOM     30  C   UNL A   1      27.919  27.799  23.273  1.00  0.00     0.000 A 
ENDBRANCH   6  25
ENDBRANCH   3   6
ENDBRANCH   1   2
BRANCH   1  31
ATOM     31  C   UNL A   1      31.612  31.093  26.639  1.00  0.00     0.042 C 
BRANCH  31  32
ATOM     32  C   UNL A   1      32.912  31.849  26.863  1.00  0.00     0.118 C 
BRANCH  32  33
ATOM     33  N   UNL A   1      32.701  33.213  27.323  1.00  0.00    -0.352 N 
ATOM     34  C   UNL A   1      33.319  33.918  28.324  1.00  0.00     0.251 C 
ATOM     35  H   UNL A   1      32.002  33.710  26.838  1.00  0.00     0.163 HD
ATOM     36  O   UNL A   1      32.862  35.003  28.669  1.00  0.00    -0.269 OA
BRANCH  34  37
ATOM     37  C   UNL A   1      34.516  33.376  29.005  1.00  0.00     0.039 A 
ATOM     38  C   UNL A   1      34.337  32.389  29.980  1.00  0.00     0.014 A 
ATOM     39  C   UNL A   1      35.800  33.851  28.725  1.00  0.00     0.014 A 
ATOM     40  C   UNL A   1      35.448  31.843  30.627  1.00  0.00     0.010 A 
ATOM     41  C   UNL A   1      36.911  33.243  29.304  1.00  0.00     0.010 A 
ATOM     42  C   UNL A   1      36.747  32.242  30.271  1.00  0.00    -0.014 A 
BRANCH  42  43
ATOM     43  C   UNL A   1      37.932  31.618  30.912  1.00  0.00     0.031 A 
ATOM     44  C   UNL A   1      38.346  32.012  32.303  1.00  0.00     0.074 A 
ATOM     45  C   UNL A   1      38.661  30.721  30.221  1.00  0.00     0.049 A 
ATOM     46  N   UNL A   1      39.347  31.573  33.025  1.00  0.00    -0.248 NA
ATOM     47  C   UNL A   1      37.547  33.056  32.964  1.00  0.00     0.031 C 
ATOM     48  C   UNL A   1      38.404  30.306  28.841  1.00  0.00     0.029 A 
ATOM     49  N   UNL A   1      39.767  29.994  30.585  1.00  0.00    -0.354 N 
ATOM     50  C   UNL A   1      39.304  32.292  34.212  1.00  0.00     0.074 A 
ATOM     51  C   UNL A   1      38.214  33.237  34.094  1.00  0.00     0.031 C 
ATOM     52  C   UNL A   1      39.303  29.375  28.487  1.00  0.00     0.029 A 
ATOM     53  C   UNL A   1      40.216  29.147  29.601  1.00  0.00     0.049 A 
ATOM     54  H   UNL A   1      40.197  30.071  31.467  1.00  0.00     0.167 HD
ATOM     55  C   UNL A   1      40.084  32.159  35.312  1.00  0.00     0.037 A 
ATOM     56  C   UNL A   1      41.246  28.280  29.602  1.00  0.00     0.037 A 
ATOM     57  C   UNL A   1      41.150  31.199  35.436  1.00  0.00     0.049 A 
ATOM     58  C   UNL A   1      42.080  28.132  30.845  1.00  0.00     0.074 A 
ATOM     59  C   UNL A   1      41.954  30.940  36.533  1.00  0.00     0.029 A 
ATOM     60  N   UNL A   1      41.560  30.340  34.428  1.00  0.00    -0.354 N 
ATOM     61  N   UNL A   1      41.976  28.759  31.992  1.00  0.00    -0.248 NA
ATOM     62  C   UNL A   1      43.166  27.144  30.798  1.00  0.00     0.031 C 
ATOM     63  C   UNL A   1      42.881  29.955  36.173  1.00  0.00     0.029 A 
ATOM     64  C   UNL A   1      42.621  29.564  34.869  1.00  0.00     0.049 A 
ATOM     65  H   UNL A   1      41.159  30.290  33.530  1.00  0.00     0.167 HD
ATOM     66  C   UNL A   1      42.965  28.229  32.807  1.00  0.00     0.074 A 
ATOM     67  C   UNL A   1      43.642  27.210  32.032  1.00  0.00     0.031 C 
ATOM     68  C   UNL A   1      43.285  28.556  34.084  1.00  0.00     0.037 A 
BRANCH  55  69
ATOM     69  C   UNL A   1      39.807  33.069  36.474  1.00  0.00     0.064 A 
ATOM     70  C   UNL A   1      40.471  34.297  36.621  1.00  0.00     0.173 A 
ATOM     71  C   UNL A   1      38.840  32.728  37.432  1.00  0.00     0.173 A 
ATOM     72  F   UNL A   1      41.412  34.666  35.739  1.00  0.00    -0.203 F 
ATOM     73  C   UNL A   1      40.197  35.136  37.699  1.00  0.00     0.198 A 
ATOM     74  C   UNL A   1      38.548  33.584  38.492  1.00  0.00     0.198 A 
ATOM     75  F   UNL A   1      38.173  31.569  37.337  1.00  0.00    -0.203 F 
ATOM     76  F   UNL A   1      40.879  36.280  37.844  1.00  0.00    -0.200 F 
ATOM     77  C   UNL A   1      39.231  34.782  38.628  1.00  0.00     0.200 A 
ATOM     78  F   UNL A   1      37.604  33.246  39.382  1.00  0.00    -0.200 F 
ATOM     79  F   UNL A   1      38.964  35.594  39.660  1.00  0.00    -0.200 F 
ENDBRANCH  55  69
BRANCH  56  80
ATOM     80  C   UNL A   1      41.522  27.456  28.396  1.00  0.00     0.064 A 
ATOM     81  C   UNL A   1      42.493  27.849  27.464  1.00  0.00     0.173 A 
ATOM     82  C   UNL A   1      40.824  26.265  28.150  1.00  0.00     0.173 A 
ATOM     83  F   UNL A   1      43.173  28.991  27.646  1.00  0.00    -0.203 F 
ATOM     84  C   UNL A   1      42.738  27.094  26.319  1.00  0.00     0.198 A 
ATOM     85  C   UNL A   1      41.090  25.496  27.020  1.00  0.00     0.198 A 
ATOM     86  F   UNL A   1      39.890  25.844  29.015  1.00  0.00    -0.203 F 
ATOM     87  F   UNL A   1      43.637  27.516  25.420  1.00  0.00    -0.200 F 
ATOM     88  C   UNL A   1      42.041  25.915  26.100  1.00  0.00     0.200 A 
ATOM     89  F   UNL A   1      40.424  24.351  26.819  1.00  0.00    -0.200 F 
ATOM     90  F   UNL A   1      42.279  25.188  25.001  1.00  0.00    -0.200 F 
ENDBRANCH  56  80
BRANCH  68  91
ATOM     91  C   UNL A   1      44.403  27.786  34.725  1.00  0.00     0.064 A 
ATOM     92  C   UNL A   1      44.170  26.582  35.408  1.00  0.00     0.173 A 
ATOM     93  C   UNL A   1      45.724  28.251  34.646  1.00  0.00     0.173 A 
ATOM     94  F   UNL A   1      42.922  26.103  35.525  1.00  0.00    -0.203 F 
ATOM     95  C   UNL A   1      45.214  25.892  36.017  1.00  0.00     0.198 A 
ATOM     96  C   UNL A   1      46.770  27.541  35.228  1.00  0.00     0.198 A 
ATOM     97  F   UNL A   1      46.002  29.393  33.998  1.00  0.00    -0.203 F 
ATOM     98  F   UNL A   1      44.959  24.776  36.714  1.00  0.00    -0.200 F 
ATOM     99  C   UNL A   1      46.513  26.369  35.923  1.00  0.00     0.200 A 
ATOM    100  F   UNL A   1      48.026  27.996  35.126  1.00  0.00    -0.200 F 
ATOM    101  F   UNL A   1      47.516  25.702  36.510  1.00  0.00    -0.200 F 
ENDBRANCH  68  91
ENDBRANCH  42  43
ENDBRANCH  34  37
ENDBRANCH  32  33
ENDBRANCH  31  32
ENDBRANCH   1  31
TORSDOF 15
ENDMDL
MODEL 3
REMARK VINA RESULT:     -13.0      1.275      2.202
REMARK SMILES CCOc1ccc(C(=O)N2CCC(C(=O)NCCCNC(=O)c3ccc(-c4c5nc(c(-c6c(F)c(F)c(F)c(F)c6F)c6ccc([nH]6)c(-c6c(F)c(F)c(F)c(F)c6F)c6nc(c(-c7c(F)c(F)c(F)c(F)c7F)c7ccc4[nH]7)C=C6)C=C5)cc3)(c3ccccc3)CC2)cc1OC
REMARK SMILES IDX 17 1 16 2 14 3 15 4 13 6 8 7 9 8 10 9 11 10 93 11 12 12
REMARK SMILES IDX 92 13 7 14 4 15 5 16 95 17 6 18 94 19 3 20 2 21 1 22 96 23
REMARK SMILES IDX 97 24 86 25 87 26 91 27 88 28 90 29 89 30 18 31 19 32 20 33
REMARK SMILES IDX 21 34 22 36 23 37 24 38 85 39 25 40 84 41 26 42 27 43 28 44
REMARK SMILES IDX 78 45 29 46 83 47 77 48 79 49 30 50 82 51 76 52 75 53 31 55
REMARK SMILES IDX 63 56 43 57 62 58 44 59 47 60 61 61 80 62 45 63 46 64 60 66
REMARK SMILES IDX 81 67 48 68 32 69 33 70 41 71 34 72 35 73 39 74 42 75 36 76
REMARK SMILES IDX 37 77 40 78 38 79 64 80 65 81 73 82 66 83 67 84 71 85 74 86
REMARK SMILES IDX 68 87 69 88 72 89 70 90 49 91 50 92 58 93 51 94 52 95 56 96
REMARK SMILES IDX 59 97 53 98 54 99 57 100 55 101
REMARK H PARENT 16 5 20 35 79 54 47 65
REMARK Flexibility Score: inf
ROOT
ATOM      1  C   UNL A   1      31.677  30.025  25.777  1.00  0.00     0.117 C 
ENDROOT
BRANCH   1   2
ATOM      2  N   UNL A   1      32.722  30.025  24.761  1.00  0.00    -0.355 N 
ATOM      3  C   UNL A   1      33.188  29.074  23.892  1.00  0.00     0.230 C 
ATOM      4  O   UNL A   1      34.194  29.431  23.276  1.00  0.00    -0.274 OA
ATOM      5  H   UNL A   1      33.190  30.888  24.682  1.00  0.00     0.163 HD
BRANCH   3   6
ATOM      6  C   UNL A   1      32.507  27.666  23.758  1.00  0.00     0.077 C 
ATOM      7  C   UNL A   1      34.479  23.784  23.551  1.00  0.00     0.253 C 
ATOM      8  O   UNL A   1      35.408  23.709  22.745  1.00  0.00    -0.269 OA
ATOM      9  N   UNL A   1      33.725  24.965  23.680  1.00  0.00    -0.339 N 
ATOM     10  C   UNL A   1      33.328  25.569  22.421  1.00  0.00     0.121 C 
ATOM     11  C   UNL A   1      33.034  25.386  24.898  1.00  0.00     0.121 C 
ATOM     12  C   UNL A   1      33.101  27.069  22.454  1.00  0.00     0.043 C 
ATOM     13  C   UNL A   1      32.863  26.889  25.058  1.00  0.00     0.043 C 
BRANCH   7  14
ATOM     14  C   UNL A   1      34.085  22.535  24.277  1.00  0.00     0.043 A 
ATOM     15  C   UNL A   1      33.304  20.071  25.416  1.00  0.00     0.161 A 
ATOM     16  C   UNL A   1      34.628  20.278  24.998  1.00  0.00     0.051 A 
ATOM     17  C   UNL A   1      32.377  21.101  25.297  1.00  0.00     0.161 A 
ATOM     18  C   UNL A   1      35.019  21.505  24.441  1.00  0.00     0.018 A 
ATOM     19  C   UNL A   1      32.768  22.281  24.660  1.00  0.00     0.064 A 
BRANCH  15  20
ATOM     20  O   UNL A   1      32.956  18.872  25.971  1.00  0.00    -0.490 OA
BRANCH  20  21
ATOM     21  C   UNL A   1      32.396  17.958  25.020  1.00  0.00     0.226 C 
ATOM     22  C   UNL A   1      32.703  16.541  25.476  1.00  0.00     0.049 C 
ENDBRANCH  20  21
ENDBRANCH  15  20
BRANCH  17  23
ATOM     23  O   UNL A   1      31.068  21.159  25.681  1.00  0.00    -0.493 OA
ATOM     24  C   UNL A   1      30.520  22.382  26.133  1.00  0.00     0.278 C 
ENDBRANCH  17  23
ENDBRANCH   7  14
BRANCH   6  25
ATOM     25  C   UNL A   1      30.939  27.652  23.630  1.00  0.00    -0.032 A 
ATOM     26  C   UNL A   1      30.103  26.692  24.223  1.00  0.00     0.005 A 
ATOM     27  C   UNL A   1      30.277  28.633  22.854  1.00  0.00     0.005 A 
ATOM     28  C   UNL A   1      28.709  26.717  24.067  1.00  0.00     0.000 A 
ATOM     29  C   UNL A   1      28.888  28.652  22.677  1.00  0.00     0.000 A 
ATOM     30  C   UNL A   1      28.100  27.693  23.290  1.00  0.00     0.000 A 
ENDBRANCH   6  25
ENDBRANCH   3   6
ENDBRANCH   1   2
BRANCH   1  31
ATOM     31  C   UNL A   1      31.478  31.398  26.407  1.00  0.00     0.042 C 
BRANCH  31  32
ATOM     32  C   UNL A   1      32.746  32.018  26.975  1.00  0.00     0.118 C 
BRANCH  32  33
ATOM     33  N   UNL A   1      32.560  33.398  27.397  1.00  0.00    -0.352 N 
ATOM     34  C   UNL A   1      33.209  34.125  28.363  1.00  0.00     0.251 C 
ATOM     35  H   UNL A   1      31.856  33.888  26.913  1.00  0.00     0.163 HD
ATOM     36  O   UNL A   1      32.772  35.225  28.685  1.00  0.00    -0.269 OA
BRANCH  34  37
ATOM     37  C   UNL A   1      34.413  33.589  29.034  1.00  0.00     0.039 A 
ATOM     38  C   UNL A   1      34.252  32.574  29.983  1.00  0.00     0.014 A 
ATOM     39  C   UNL A   1      35.689  34.097  28.770  1.00  0.00     0.014 A 
ATOM     40  C   UNL A   1      35.371  32.034  30.619  1.00  0.00     0.010 A 
ATOM     41  C   UNL A   1      36.810  33.496  29.338  1.00  0.00     0.010 A 
ATOM     42  C   UNL A   1      36.663  32.467  30.279  1.00  0.00    -0.014 A 
BRANCH  42  43
ATOM     43  C   UNL A   1      37.858  31.850  30.907  1.00  0.00     0.031 A 
ATOM     44  C   UNL A   1      38.289  32.253  32.290  1.00  0.00     0.074 A 
ATOM     45  C   UNL A   1      38.581  30.951  30.211  1.00  0.00     0.049 A 
ATOM     46  N   UNL A   1      39.301  31.821  33.001  1.00  0.00    -0.248 NA
ATOM     47  C   UNL A   1      37.496  33.298  32.956  1.00  0.00     0.031 C 
ATOM     48  C   UNL A   1      38.307  30.529  28.837  1.00  0.00     0.029 A 
ATOM     49  N   UNL A   1      39.694  30.230  30.565  1.00  0.00    -0.354 N 
ATOM     50  C   UNL A   1      39.271  32.546  34.184  1.00  0.00     0.074 A 
ATOM     51  C   UNL A   1      38.177  33.487  34.076  1.00  0.00     0.031 C 
ATOM     52  C   UNL A   1      39.204  29.598  28.476  1.00  0.00     0.029 A 
ATOM     53  C   UNL A   1      40.133  29.379  29.579  1.00  0.00     0.049 A 
ATOM     54  H   UNL A   1      40.135  30.313  31.441  1.00  0.00     0.167 HD
ATOM     55  C   UNL A   1      40.066  32.422  35.275  1.00  0.00     0.037 A 
ATOM     56  C   UNL A   1      41.166  28.516  29.571  1.00  0.00     0.037 A 
ATOM     57  C   UNL A   1      41.136  31.466  35.391  1.00  0.00     0.049 A 
ATOM     58  C   UNL A   1      42.016  28.377  30.804  1.00  0.00     0.074 A 
ATOM     59  C   UNL A   1      41.956  31.215  36.478  1.00  0.00     0.029 A 
ATOM     60  N   UNL A   1      41.536  30.603  34.382  1.00  0.00    -0.354 N 
ATOM     61  N   UNL A   1      41.925  29.010  31.949  1.00  0.00    -0.248 NA
ATOM     62  C   UNL A   1      43.105  27.392  30.748  1.00  0.00     0.031 C 
ATOM     63  C   UNL A   1      42.880  30.231  36.111  1.00  0.00     0.029 A 
ATOM     64  C   UNL A   1      42.605  29.833  34.813  1.00  0.00     0.049 A 
ATOM     65  H   UNL A   1      41.123  30.547  33.490  1.00  0.00     0.167 HD
ATOM     66  C   UNL A   1      42.926  28.487  32.754  1.00  0.00     0.074 A 
ATOM     67  C   UNL A   1      43.597  27.466  31.975  1.00  0.00     0.031 C 
ATOM     68  C   UNL A   1      43.262  28.822  34.025  1.00  0.00     0.037 A 
BRANCH  55  69
ATOM     69  C   UNL A   1      39.801  33.337  36.436  1.00  0.00     0.064 A 
ATOM     70  C   UNL A   1      38.904  32.989  37.458  1.00  0.00     0.173 A 
ATOM     71  C   UNL A   1      40.479  34.561  36.548  1.00  0.00     0.173 A 
ATOM     72  F   UNL A   1      38.222  31.836  37.394  1.00  0.00    -0.203 F 
ATOM     73  C   UNL A   1      38.676  33.844  38.534  1.00  0.00     0.198 A 
ATOM     74  C   UNL A   1      40.271  35.399  37.641  1.00  0.00     0.198 A 
ATOM     75  F   UNL A   1      41.351  34.941  35.602  1.00  0.00    -0.203 F 
ATOM     76  F   UNL A   1      37.780  33.511  39.472  1.00  0.00    -0.200 F 
ATOM     77  C   UNL A   1      39.365  35.044  38.627  1.00  0.00     0.200 A 
ATOM     78  F   UNL A   1      40.947  36.552  37.737  1.00  0.00    -0.200 F 
ATOM     79  F   UNL A   1      39.150  35.861  39.667  1.00  0.00    -0.200 F 
ENDBRANCH  55  69
BRANCH  56  80
ATOM     80  C   UNL A   1      41.429  27.686  28.367  1.00  0.00     0.064 A 
ATOM     81  C   UNL A   1      40.758  26.470  28.171  1.00  0.00     0.173 A 
ATOM     82  C   UNL A   1      42.352  28.087  27.391  1.00  0.00     0.173 A 
ATOM     83  F   UNL A   1      39.880  26.035  29.086  1.00  0.00    -0.203 F 
ATOM     84  C   UNL A   1      41.019  25.676  27.056  1.00  0.00     0.198 A 
ATOM     85  C   UNL A   1      42.591  27.306  26.263  1.00  0.00     0.198 A 
ATOM     86  F   UNL A   1      43.015  29.245  27.530  1.00  0.00    -0.203 F 
ATOM     87  F   UNL A   1      40.400  24.496  26.917  1.00  0.00    -0.200 F 
ATOM     88  C   UNL A   1      41.931  26.097  26.100  1.00  0.00     0.200 A 
ATOM     89  F   UNL A   1      43.463  27.723  25.334  1.00  0.00    -0.200 F 
ATOM     90  F   UNL A   1      42.179  25.335  25.027  1.00  0.00    -0.200 F 
ENDBRANCH  56  80
BRANCH  68  91
ATOM     91  C   UNL A   1      44.391  28.059  34.656  1.00  0.00     0.064 A 
ATOM     92  C   UNL A   1      45.717  28.512  34.582  1.00  0.00     0.173 A 
ATOM     93  C   UNL A   1      44.142  26.867  35.353  1.00  0.00     0.173 A 
ATOM     94  F   UNL A   1      46.010  29.638  33.913  1.00  0.00    -0.203 F 
ATOM     95  C   UNL A   1      46.755  27.780  35.151  1.00  0.00     0.198 A 
ATOM     96  C   UNL A   1      45.178  26.157  35.950  1.00  0.00     0.198 A 
ATOM     97  F   UNL A   1      42.890  26.395  35.460  1.00  0.00    -0.203 F 
ATOM     98  F   UNL A   1      48.021  28.201  35.017  1.00  0.00    -0.200 F 
ATOM     99  C   UNL A   1      46.485  26.607  35.839  1.00  0.00     0.200 A 
ATOM    100  F   UNL A   1      44.914  25.029  36.624  1.00  0.00    -0.200 F 
ATOM    101  F   UNL A   1      47.486  25.904  36.387  1.00  0.00    -0.200 F 
ENDBRANCH  68  91
ENDBRANCH  42  43
ENDBRANCH  34  37
ENDBRANCH  32  33
ENDBRANCH  31  32
ENDBRANCH   1  31
TORSDOF 15
ENDMDL
