MODEL 1
REMARK VINA RESULT:     -12.4      0.000      0.000
REMARK SMILES O=C(NCCCNC(=O)c1ccc(-c2cccc(F)c2)o1)c1ccc(-c2c3nc(c(-c4c(F)c(F)c(F)c(F)c4F)c4ccc([nH]4)c(-c4c(F)c(F)c(F)c(F)c4F)c4nc(c(-c5c(F)c(F)c(F)c(F)c5F)c5ccc2[nH]5)C=C4)C=C3)cc1
REMARK SMILES IDX 4 1 3 2 1 3 2 4 22 6 23 7 84 8 24 9 83 10 25 11 26 12 27 13
REMARK SMILES IDX 77 14 28 15 82 16 76 17 78 18 29 19 81 20 75 21 74 22 30 24
REMARK SMILES IDX 62 25 42 26 61 27 43 28 46 29 60 30 79 31 44 32 45 33 59 35
REMARK SMILES IDX 80 36 47 37 31 38 32 39 40 40 33 41 34 42 38 43 41 44 35 45
REMARK SMILES IDX 36 46 39 47 37 48 63 49 64 50 72 51 65 52 66 53 70 54 73 55
REMARK SMILES IDX 67 56 68 57 71 58 69 59 48 60 49 61 57 62 50 63 51 64 55 65
REMARK SMILES IDX 58 66 52 67 53 68 56 69 54 70 5 71 6 72 7 73 8 74 9 76 10 77
REMARK SMILES IDX 11 78 21 79 12 80 13 81 14 82 15 83 20 84 16 85 18 86 17 87
REMARK SMILES IDX 19 88
REMARK H PARENT 3 5 78 23 46 34 7 75
REMARK Flexibility Score: inf
ROOT
ATOM      1  C   UNL A   1      33.198  29.224  25.250  1.00  0.00     0.118 C 
ENDROOT
BRANCH   1   2
ATOM      2  N   UNL A   1      32.708  30.475  25.814  1.00  0.00    -0.352 N 
ATOM      3  O   UNL A   1      32.495  32.162  27.281  1.00  0.00    -0.269 OA
ATOM      4  C   UNL A   1      33.164  31.214  26.876  1.00  0.00     0.251 C 
ATOM      5  H   UNL A   1      31.920  30.851  25.358  1.00  0.00     0.163 HD
BRANCH   4   6
ATOM      6  C   UNL A   1      34.440  30.883  27.553  1.00  0.00     0.039 A 
ATOM      7  C   UNL A   1      34.714  29.589  28.005  1.00  0.00     0.014 A 
ATOM      8  C   UNL A   1      35.414  31.884  27.673  1.00  0.00     0.014 A 
ATOM      9  C   UNL A   1      35.914  29.323  28.665  1.00  0.00     0.010 A 
ATOM     10  C   UNL A   1      36.634  31.608  28.298  1.00  0.00     0.010 A 
ATOM     11  C   UNL A   1      36.879  30.333  28.824  1.00  0.00    -0.014 A 
BRANCH  11  12
ATOM     12  C   UNL A   1      38.140  30.025  29.542  1.00  0.00     0.031 A 
ATOM     13  C   UNL A   1      38.358  30.511  30.946  1.00  0.00     0.074 A 
ATOM     14  C   UNL A   1      39.066  29.250  28.950  1.00  0.00     0.049 A 
ATOM     15  N   UNL A   1      39.348  30.252  31.764  1.00  0.00    -0.248 NA
ATOM     16  C   UNL A   1      37.335  31.408  31.506  1.00  0.00     0.031 C 
ATOM     17  C   UNL A   1      38.982  28.731  27.585  1.00  0.00     0.029 A 
ATOM     18  N   UNL A   1      40.240  28.732  29.436  1.00  0.00    -0.354 N 
ATOM     19  C   UNL A   1      39.081  30.967  32.922  1.00  0.00     0.074 A 
ATOM     20  C   UNL A   1      37.836  31.674  32.705  1.00  0.00     0.031 C 
ATOM     21  C   UNL A   1      40.028  27.918  27.363  1.00  0.00     0.029 A 
ATOM     22  C   UNL A   1      40.855  27.868  28.566  1.00  0.00     0.049 A 
ATOM     23  H   UNL A   1      40.606  28.959  30.322  1.00  0.00     0.167 HD
ATOM     24  C   UNL A   1      39.805  31.028  34.064  1.00  0.00     0.037 A 
ATOM     25  C   UNL A   1      41.943  27.093  28.732  1.00  0.00     0.037 A 
ATOM     26  C   UNL A   1      41.030  30.313  34.299  1.00  0.00     0.049 A 
ATOM     27  C   UNL A   1      42.680  27.110  30.038  1.00  0.00     0.074 A 
ATOM     28  C   UNL A   1      41.849  30.339  35.416  1.00  0.00     0.029 A 
ATOM     29  N   UNL A   1      41.604  29.426  33.403  1.00  0.00    -0.354 N 
ATOM     30  N   UNL A   1      42.423  27.799  31.121  1.00  0.00    -0.248 NA
ATOM     31  C   UNL A   1      43.858  26.237  30.145  1.00  0.00     0.031 C 
ATOM     32  C   UNL A   1      42.919  29.462  35.196  1.00  0.00     0.029 A 
ATOM     33  C   UNL A   1      42.759  28.886  33.947  1.00  0.00     0.049 A 
ATOM     34  H   UNL A   1      41.245  29.211  32.512  1.00  0.00     0.167 HD
ATOM     35  C   UNL A   1      43.403  27.449  32.037  1.00  0.00     0.074 A 
ATOM     36  C   UNL A   1      44.253  26.470  31.390  1.00  0.00     0.031 C 
ATOM     37  C   UNL A   1      43.587  27.908  33.296  1.00  0.00     0.037 A 
BRANCH  24  38
ATOM     38  C   UNL A   1      39.291  31.914  35.154  1.00  0.00     0.064 A 
ATOM     39  C   UNL A   1      38.493  31.390  36.180  1.00  0.00     0.173 A 
ATOM     40  C   UNL A   1      39.563  33.289  35.157  1.00  0.00     0.173 A 
ATOM     41  F   UNL A   1      38.212  30.078  36.214  1.00  0.00    -0.203 F 
ATOM     42  C   UNL A   1      37.981  32.216  37.176  1.00  0.00     0.198 A 
ATOM     43  C   UNL A   1      39.058  34.112  36.160  1.00  0.00     0.198 A 
ATOM     44  F   UNL A   1      40.336  33.826  34.200  1.00  0.00    -0.203 F 
ATOM     45  F   UNL A   1      37.217  31.698  38.148  1.00  0.00    -0.200 F 
ATOM     46  C   UNL A   1      38.265  33.574  37.165  1.00  0.00     0.200 A 
ATOM     47  F   UNL A   1      39.345  35.421  36.159  1.00  0.00    -0.200 F 
ATOM     48  F   UNL A   1      37.779  34.368  38.131  1.00  0.00    -0.200 F 
ENDBRANCH  24  38
BRANCH  25  49
ATOM     49  C   UNL A   1      42.355  26.180  27.643  1.00  0.00     0.064 A 
ATOM     50  C   UNL A   1      43.345  26.544  26.723  1.00  0.00     0.173 A 
ATOM     51  C   UNL A   1      41.732  24.933  27.491  1.00  0.00     0.173 A 
ATOM     52  F   UNL A   1      43.965  27.728  26.839  1.00  0.00    -0.203 F 
ATOM     53  C   UNL A   1      43.697  25.691  25.680  1.00  0.00     0.198 A 
ATOM     54  C   UNL A   1      42.088  24.079  26.453  1.00  0.00     0.198 A 
ATOM     55  F   UNL A   1      40.788  24.547  28.363  1.00  0.00    -0.203 F 
ATOM     56  F   UNL A   1      44.641  26.059  24.805  1.00  0.00    -0.200 F 
ATOM     57  C   UNL A   1      43.068  24.460  25.545  1.00  0.00     0.200 A 
ATOM     58  F   UNL A   1      41.487  22.886  26.333  1.00  0.00    -0.200 F 
ATOM     59  F   UNL A   1      43.409  23.638  24.544  1.00  0.00    -0.200 F 
ENDBRANCH  25  49
BRANCH  37  60
ATOM     60  C   UNL A   1      44.750  27.360  34.059  1.00  0.00     0.064 A 
ATOM     61  C   UNL A   1      44.605  26.220  34.861  1.00  0.00     0.173 A 
ATOM     62  C   UNL A   1      45.998  27.996  34.020  1.00  0.00     0.173 A 
ATOM     63  F   UNL A   1      43.428  25.580  34.921  1.00  0.00    -0.203 F 
ATOM     64  C   UNL A   1      45.678  25.733  35.603  1.00  0.00     0.198 A 
ATOM     65  C   UNL A   1      47.070  27.503  34.759  1.00  0.00     0.198 A 
ATOM     66  F   UNL A   1      46.178  29.083  33.256  1.00  0.00    -0.203 F 
ATOM     67  F   UNL A   1      45.524  24.642  36.366  1.00  0.00    -0.200 F 
ATOM     68  C   UNL A   1      46.908  26.375  35.551  1.00  0.00     0.200 A 
ATOM     69  F   UNL A   1      48.260  28.115  34.699  1.00  0.00    -0.200 F 
ATOM     70  F   UNL A   1      47.941  25.901  36.260  1.00  0.00    -0.200 F 
ENDBRANCH  37  60
ENDBRANCH  11  12
ENDBRANCH   4   6
ENDBRANCH   1   2
BRANCH   1  71
ATOM     71  C   UNL A   1      32.743  29.006  23.807  1.00  0.00     0.042 C 
BRANCH  71  72
ATOM     72  C   UNL A   1      33.840  28.527  22.856  1.00  0.00     0.118 C 
BRANCH  72  73
ATOM     73  N   UNL A   1      33.361  27.509  21.940  1.00  0.00    -0.349 N 
ATOM     74  C   UNL A   1      33.402  26.137  22.029  1.00  0.00     0.287 C 
ATOM     75  H   UNL A   1      32.939  27.857  21.122  1.00  0.00     0.163 HD
ATOM     76  O   UNL A   1      33.225  25.519  20.977  1.00  0.00    -0.266 OA
BRANCH  74  77
ATOM     77  C   UNL A   1      33.628  25.486  23.302  1.00  0.00     0.192 A 
ATOM     78  C   UNL A   1      32.836  25.268  24.415  1.00  0.00     0.057 A 
ATOM     79  O   UNL A   1      34.827  24.846  23.484  1.00  0.00    -0.451 OA
ATOM     80  C   UNL A   1      33.587  24.466  25.310  1.00  0.00     0.052 A 
ATOM     81  C   UNL A   1      34.797  24.220  24.696  1.00  0.00     0.135 A 
BRANCH  81  82
ATOM     82  C   UNL A   1      35.973  23.429  25.042  1.00  0.00     0.020 A 
ATOM     83  C   UNL A   1      37.024  24.005  25.776  1.00  0.00     0.012 A 
ATOM     84  C   UNL A   1      36.076  22.085  24.661  1.00  0.00     0.051 A 
ATOM     85  C   UNL A   1      38.152  23.254  26.126  1.00  0.00     0.004 A 
ATOM     86  C   UNL A   1      37.206  21.348  25.005  1.00  0.00     0.123 A 
ATOM     87  C   UNL A   1      38.242  21.920  25.735  1.00  0.00     0.039 A 
ATOM     88  F   UNL A   1      37.299  20.067  24.627  1.00  0.00    -0.207 F 
ENDBRANCH  81  82
ENDBRANCH  74  77
ENDBRANCH  72  73
ENDBRANCH  71  72
ENDBRANCH   1  71
TORSDOF 11
ENDMDL
MODEL 2
REMARK VINA RESULT:     -12.4      2.520      4.283
REMARK SMILES O=C(NCCCNC(=O)c1ccc(-c2cccc(F)c2)o1)c1ccc(-c2c3nc(c(-c4c(F)c(F)c(F)c(F)c4F)c4ccc([nH]4)c(-c4c(F)c(F)c(F)c(F)c4F)c4nc(c(-c5c(F)c(F)c(F)c(F)c5F)c5ccc2[nH]5)C=C4)C=C3)cc1
REMARK SMILES IDX 4 1 3 2 1 3 2 4 22 6 23 7 84 8 24 9 83 10 25 11 26 12 27 13
REMARK SMILES IDX 77 14 28 15 82 16 76 17 78 18 29 19 81 20 75 21 74 22 30 24
REMARK SMILES IDX 62 25 42 26 61 27 43 28 46 29 60 30 79 31 44 32 45 33 59 35
REMARK SMILES IDX 80 36 47 37 31 38 32 39 40 40 33 41 34 42 38 43 41 44 35 45
REMARK SMILES IDX 36 46 39 47 37 48 63 49 64 50 72 51 65 52 66 53 70 54 73 55
REMARK SMILES IDX 67 56 68 57 71 58 69 59 48 60 49 61 57 62 50 63 51 64 55 65
REMARK SMILES IDX 58 66 52 67 53 68 56 69 54 70 5 71 6 72 7 73 8 74 9 76 10 77
REMARK SMILES IDX 11 78 21 79 12 80 13 81 14 82 15 83 20 84 16 85 18 86 17 87
REMARK SMILES IDX 19 88
REMARK H PARENT 3 5 78 23 46 34 7 75
REMARK Flexibility Score: inf
ROOT
ATOM      1  C   UNL A   1      32.852  29.442  26.081  1.00  0.00     0.118 C 
ENDROOT
BRANCH   1   2
ATOM      2  N   UNL A   1      32.619  30.851  26.368  1.00  0.00    -0.352 N 
ATOM      3  O   UNL A   1      32.816  32.828  27.414  1.00  0.00    -0.269 OA
ATOM      4  C   UNL A   1      33.288  31.714  27.200  1.00  0.00     0.251 C 
ATOM      5  H   UNL A   1      31.859  31.249  25.887  1.00  0.00     0.163 HD
BRANCH   4   6
ATOM      6  C   UNL A   1      34.557  31.322  27.857  1.00  0.00     0.039 A 
ATOM      7  C   UNL A   1      34.764  30.025  28.334  1.00  0.00     0.014 A 
ATOM      8  C   UNL A   1      35.591  32.265  27.930  1.00  0.00     0.014 A 
ATOM      9  C   UNL A   1      35.961  29.703  28.973  1.00  0.00     0.010 A 
ATOM     10  C   UNL A   1      36.808  31.932  28.535  1.00  0.00     0.010 A 
ATOM     11  C   UNL A   1      36.989  30.656  29.087  1.00  0.00    -0.014 A 
BRANCH  11  12
ATOM     12  C   UNL A   1      38.245  30.290  29.784  1.00  0.00     0.031 A 
ATOM     13  C   UNL A   1      38.492  30.732  31.197  1.00  0.00     0.074 A 
ATOM     14  C   UNL A   1      39.141  29.500  29.163  1.00  0.00     0.049 A 
ATOM     15  N   UNL A   1      39.481  30.422  31.998  1.00  0.00    -0.248 NA
ATOM     16  C   UNL A   1      37.504  31.648  31.790  1.00  0.00     0.031 C 
ATOM     17  C   UNL A   1      39.027  29.020  27.786  1.00  0.00     0.029 A 
ATOM     18  N   UNL A   1      40.301  28.934  29.624  1.00  0.00    -0.354 N 
ATOM     19  C   UNL A   1      39.247  31.114  33.177  1.00  0.00     0.074 A 
ATOM     20  C   UNL A   1      38.024  31.866  32.990  1.00  0.00     0.031 C 
ATOM     21  C   UNL A   1      40.044  28.180  27.533  1.00  0.00     0.029 A 
ATOM     22  C   UNL A   1      40.880  28.072  28.726  1.00  0.00     0.049 A 
ATOM     23  H   UNL A   1      40.682  29.126  30.512  1.00  0.00     0.167 HD
ATOM     24  C   UNL A   1      39.984  31.124  34.313  1.00  0.00     0.037 A 
ATOM     25  C   UNL A   1      41.944  27.259  28.862  1.00  0.00     0.037 A 
ATOM     26  C   UNL A   1      41.187  30.364  34.517  1.00  0.00     0.049 A 
ATOM     27  C   UNL A   1      42.694  27.220  30.161  1.00  0.00     0.074 A 
ATOM     28  C   UNL A   1      42.017  30.335  35.626  1.00  0.00     0.029 A 
ATOM     29  N   UNL A   1      41.724  29.482  33.593  1.00  0.00    -0.354 N 
ATOM     30  N   UNL A   1      42.469  27.889  31.263  1.00  0.00    -0.248 NA
ATOM     31  C   UNL A   1      43.844  26.306  30.233  1.00  0.00     0.031 C 
ATOM     32  C   UNL A   1      43.056  29.430  35.373  1.00  0.00     0.029 A 
ATOM     33  C   UNL A   1      42.866  28.892  34.112  1.00  0.00     0.049 A 
ATOM     34  H   UNL A   1      41.350  29.301  32.700  1.00  0.00     0.167 HD
ATOM     35  C   UNL A   1      43.445  27.484  32.159  1.00  0.00     0.074 A 
ATOM     36  C   UNL A   1      44.257  26.495  31.480  1.00  0.00     0.031 C 
ATOM     37  C   UNL A   1      43.656  27.904  33.428  1.00  0.00     0.037 A 
BRANCH  24  38
ATOM     38  C   UNL A   1      39.509  31.998  35.429  1.00  0.00     0.064 A 
ATOM     39  C   UNL A   1      39.977  33.313  35.552  1.00  0.00     0.173 A 
ATOM     40  C   UNL A   1      38.614  31.515  36.395  1.00  0.00     0.173 A 
ATOM     41  F   UNL A   1      40.831  33.813  34.646  1.00  0.00    -0.203 F 
ATOM     42  C   UNL A   1      39.566  34.119  36.609  1.00  0.00     0.198 A 
ATOM     43  C   UNL A   1      38.197  32.327  37.446  1.00  0.00     0.198 A 
ATOM     44  F   UNL A   1      38.131  30.267  36.303  1.00  0.00    -0.203 F 
ATOM     45  F   UNL A   1      40.027  35.374  36.713  1.00  0.00    -0.200 F 
ATOM     46  C   UNL A   1      38.677  33.626  37.553  1.00  0.00     0.200 A 
ATOM     47  F   UNL A   1      37.325  31.857  38.349  1.00  0.00    -0.200 F 
ATOM     48  F   UNL A   1      38.273  34.407  38.567  1.00  0.00    -0.200 F 
ENDBRANCH  24  38
BRANCH  25  49
ATOM     49  C   UNL A   1      42.316  26.361  27.746  1.00  0.00     0.064 A 
ATOM     50  C   UNL A   1      43.285  26.731  26.806  1.00  0.00     0.173 A 
ATOM     51  C   UNL A   1      41.676  25.124  27.590  1.00  0.00     0.173 A 
ATOM     52  F   UNL A   1      43.919  27.907  26.925  1.00  0.00    -0.203 F 
ATOM     53  C   UNL A   1      43.598  25.893  25.739  1.00  0.00     0.198 A 
ATOM     54  C   UNL A   1      41.994  24.285  26.528  1.00  0.00     0.198 A 
ATOM     55  F   UNL A   1      40.752  24.732  28.481  1.00  0.00    -0.203 F 
ATOM     56  F   UNL A   1      44.522  26.268  24.844  1.00  0.00    -0.200 F 
ATOM     57  C   UNL A   1      42.952  24.671  25.600  1.00  0.00     0.200 A 
ATOM     58  F   UNL A   1      41.378  23.100  26.403  1.00  0.00    -0.200 F 
ATOM     59  F   UNL A   1      43.258  23.864  24.576  1.00  0.00    -0.200 F 
ENDBRANCH  25  49
BRANCH  37  60
ATOM     60  C   UNL A   1      44.807  27.300  34.165  1.00  0.00     0.064 A 
ATOM     61  C   UNL A   1      44.632  26.151  34.948  1.00  0.00     0.173 A 
ATOM     62  C   UNL A   1      46.077  27.891  34.121  1.00  0.00     0.173 A 
ATOM     63  F   UNL A   1      43.432  25.554  35.012  1.00  0.00    -0.203 F 
ATOM     64  C   UNL A   1      45.695  25.612  35.666  1.00  0.00     0.198 A 
ATOM     65  C   UNL A   1      47.139  27.345  34.837  1.00  0.00     0.198 A 
ATOM     66  F   UNL A   1      46.288  28.985  33.375  1.00  0.00    -0.203 F 
ATOM     67  F   UNL A   1      45.511  24.513  36.411  1.00  0.00    -0.200 F 
ATOM     68  C   UNL A   1      46.947  26.209  35.610  1.00  0.00     0.200 A 
ATOM     69  F   UNL A   1      48.351  27.915  34.772  1.00  0.00    -0.200 F 
ATOM     70  F   UNL A   1      47.971  25.685  36.296  1.00  0.00    -0.200 F 
ENDBRANCH  37  60
ENDBRANCH  11  12
ENDBRANCH   4   6
ENDBRANCH   1   2
BRANCH   1  71
ATOM     71  C   UNL A   1      31.782  28.529  26.680  1.00  0.00     0.042 C 
BRANCH  71  72
ATOM     72  C   UNL A   1      32.008  27.037  26.442  1.00  0.00     0.118 C 
BRANCH  72  73
ATOM     73  N   UNL A   1      32.633  26.779  25.158  1.00  0.00    -0.349 N 
ATOM     74  C   UNL A   1      32.077  26.624  23.910  1.00  0.00     0.287 C 
ATOM     75  H   UNL A   1      33.614  26.700  25.185  1.00  0.00     0.163 HD
ATOM     76  O   UNL A   1      32.793  26.093  23.058  1.00  0.00    -0.266 OA
BRANCH  74  77
ATOM     77  C   UNL A   1      30.731  27.083  23.638  1.00  0.00     0.192 A 
ATOM     78  C   UNL A   1      29.479  26.519  23.808  1.00  0.00     0.057 A 
ATOM     79  O   UNL A   1      30.576  28.374  23.204  1.00  0.00    -0.451 OA
ATOM     80  C   UNL A   1      28.527  27.508  23.459  1.00  0.00     0.052 A 
ATOM     81  C   UNL A   1      29.240  28.634  23.106  1.00  0.00     0.135 A 
BRANCH  81  82
ATOM     82  C   UNL A   1      28.875  29.990  22.712  1.00  0.00     0.020 A 
ATOM     83  C   UNL A   1      29.034  31.057  23.612  1.00  0.00     0.012 A 
ATOM     84  C   UNL A   1      28.370  30.259  21.434  1.00  0.00     0.051 A 
ATOM     85  C   UNL A   1      28.700  32.365  23.243  1.00  0.00     0.004 A 
ATOM     86  C   UNL A   1      28.031  31.561  21.078  1.00  0.00     0.123 A 
ATOM     87  C   UNL A   1      28.193  32.615  21.970  1.00  0.00     0.039 A 
ATOM     88  F   UNL A   1      27.538  31.805  19.856  1.00  0.00    -0.207 F 
ENDBRANCH  81  82
ENDBRANCH  74  77
ENDBRANCH  72  73
ENDBRANCH  71  72
ENDBRANCH   1  71
TORSDOF 11
ENDMDL
MODEL 3
REMARK VINA RESULT:     -12.4      1.315      2.300
REMARK SMILES O=C(NCCCNC(=O)c1ccc(-c2cccc(F)c2)o1)c1ccc(-c2c3nc(c(-c4c(F)c(F)c(F)c(F)c4F)c4ccc([nH]4)c(-c4c(F)c(F)c(F)c(F)c4F)c4nc(c(-c5c(F)c(F)c(F)c(F)c5F)c5ccc2[nH]5)C=C4)C=C3)cc1
REMARK SMILES IDX 4 1 3 2 1 3 2 4 22 6 23 7 84 8 24 9 83 10 25 11 26 12 27 13
REMARK SMILES IDX 77 14 28 15 82 16 76 17 78 18 29 19 81 20 75 21 74 22 30 24
REMARK SMILES IDX 62 25 42 26 61 27 43 28 46 29 60 30 79 31 44 32 45 33 59 35
REMARK SMILES IDX 80 36 47 37 31 38 32 39 40 40 33 41 34 42 38 43 41 44 35 45
REMARK SMILES IDX 36 46 39 47 37 48 63 49 64 50 72 51 65 52 66 53 70 54 73 55
REMARK SMILES IDX 67 56 68 57 71 58 69 59 48 60 49 61 57 62 50 63 51 64 55 65
REMARK SMILES IDX 58 66 52 67 53 68 56 69 54 70 5 71 6 72 7 73 8 74 9 76 10 77
REMARK SMILES IDX 11 78 21 79 12 80 13 81 14 82 15 83 20 84 16 85 18 86 17 87
REMARK SMILES IDX 19 88
REMARK H PARENT 3 5 78 23 46 34 7 75
REMARK Flexibility Score: inf
ROOT
ATOM      1  C   UNL A   1      32.862  29.021  25.755  1.00  0.00     0.118 C 
ENDROOT
BRANCH   1   2
ATOM      2  N   UNL A   1      32.538  30.402  26.086  1.00  0.00    -0.352 N 
ATOM      3  O   UNL A   1      32.595  32.350  27.202  1.00  0.00    -0.269 OA
ATOM      4  C   UNL A   1      33.137  31.274  26.960  1.00  0.00     0.251 C 
ATOM      5  H   UNL A   1      31.763  30.770  25.603  1.00  0.00     0.163 HD
BRANCH   4   6
ATOM      6  C   UNL A   1      34.416  30.937  27.628  1.00  0.00     0.039 A 
ATOM      7  C   UNL A   1      34.701  29.635  28.050  1.00  0.00     0.014 A 
ATOM      8  C   UNL A   1      35.382  31.942  27.770  1.00  0.00     0.014 A 
ATOM      9  C   UNL A   1      35.903  29.364  28.702  1.00  0.00     0.010 A 
ATOM     10  C   UNL A   1      36.605  31.663  28.387  1.00  0.00     0.010 A 
ATOM     11  C   UNL A   1      36.861  30.377  28.885  1.00  0.00    -0.014 A 
BRANCH  11  12
ATOM     12  C   UNL A   1      38.124  30.063  29.594  1.00  0.00     0.031 A 
ATOM     13  C   UNL A   1      38.348  30.534  31.002  1.00  0.00     0.074 A 
ATOM     14  C   UNL A   1      39.049  29.294  28.990  1.00  0.00     0.049 A 
ATOM     15  N   UNL A   1      39.342  30.268  31.813  1.00  0.00    -0.248 NA
ATOM     16  C   UNL A   1      37.327  31.425  31.574  1.00  0.00     0.031 C 
ATOM     17  C   UNL A   1      38.959  28.789  27.620  1.00  0.00     0.029 A 
ATOM     18  N   UNL A   1      40.225  28.772  29.466  1.00  0.00    -0.354 N 
ATOM     19  C   UNL A   1      39.078  30.971  32.980  1.00  0.00     0.074 A 
ATOM     20  C   UNL A   1      37.833  31.679  32.774  1.00  0.00     0.031 C 
ATOM     21  C   UNL A   1      40.005  27.979  27.386  1.00  0.00     0.029 A 
ATOM     22  C   UNL A   1      40.837  27.917  28.585  1.00  0.00     0.049 A 
ATOM     23  H   UNL A   1      40.594  28.990  30.353  1.00  0.00     0.167 HD
ATOM     24  C   UNL A   1      39.808  31.021  34.119  1.00  0.00     0.037 A 
ATOM     25  C   UNL A   1      41.926  27.142  28.739  1.00  0.00     0.037 A 
ATOM     26  C   UNL A   1      41.034  30.305  34.341  1.00  0.00     0.049 A 
ATOM     27  C   UNL A   1      42.669  27.146  30.042  1.00  0.00     0.074 A 
ATOM     28  C   UNL A   1      41.857  30.320  35.455  1.00  0.00     0.029 A 
ATOM     29  N   UNL A   1      41.605  29.427  33.434  1.00  0.00    -0.354 N 
ATOM     30  N   UNL A   1      42.415  27.824  31.133  1.00  0.00    -0.248 NA
ATOM     31  C   UNL A   1      43.847  26.272  30.135  1.00  0.00     0.031 C 
ATOM     32  C   UNL A   1      42.927  29.445  35.222  1.00  0.00     0.029 A 
ATOM     33  C   UNL A   1      42.762  28.882  33.969  1.00  0.00     0.049 A 
ATOM     34  H   UNL A   1      41.242  29.220  32.542  1.00  0.00     0.167 HD
ATOM     35  C   UNL A   1      43.399  27.465  32.041  1.00  0.00     0.074 A 
ATOM     36  C   UNL A   1      44.247  26.493  31.381  1.00  0.00     0.031 C 
ATOM     37  C   UNL A   1      43.588  27.911  33.304  1.00  0.00     0.037 A 
BRANCH  24  38
ATOM     38  C   UNL A   1      39.297  31.896  35.220  1.00  0.00     0.064 A 
ATOM     39  C   UNL A   1      39.630  33.257  35.258  1.00  0.00     0.173 A 
ATOM     40  C   UNL A   1      38.506  31.372  36.251  1.00  0.00     0.173 A 
ATOM     41  F   UNL A   1      40.382  33.797  34.288  1.00  0.00    -0.203 F 
ATOM     42  C   UNL A   1      39.187  34.068  36.299  1.00  0.00     0.198 A 
ATOM     43  C   UNL A   1      38.057  32.188  37.287  1.00  0.00     0.198 A 
ATOM     44  F   UNL A   1      38.153  30.078  36.241  1.00  0.00    -0.203 F 
ATOM     45  F   UNL A   1      39.518  35.367  36.323  1.00  0.00    -0.200 F 
ATOM     46  C   UNL A   1      38.402  33.533  37.311  1.00  0.00     0.200 A 
ATOM     47  F   UNL A   1      37.284  31.676  38.255  1.00  0.00    -0.200 F 
ATOM     48  F   UNL A   1      37.967  34.318  38.308  1.00  0.00    -0.200 F 
ENDBRANCH  24  38
BRANCH  25  49
ATOM     49  C   UNL A   1      42.334  26.240  27.639  1.00  0.00     0.064 A 
ATOM     50  C   UNL A   1      43.303  26.623  26.705  1.00  0.00     0.173 A 
ATOM     51  C   UNL A   1      41.728  24.984  27.492  1.00  0.00     0.173 A 
ATOM     52  F   UNL A   1      43.905  27.816  26.815  1.00  0.00    -0.203 F 
ATOM     53  C   UNL A   1      43.650  25.780  25.652  1.00  0.00     0.198 A 
ATOM     54  C   UNL A   1      42.080  24.140  26.444  1.00  0.00     0.198 A 
ATOM     55  F   UNL A   1      40.805  24.579  28.377  1.00  0.00    -0.203 F 
ATOM     56  F   UNL A   1      44.574  26.167  24.762  1.00  0.00    -0.200 F 
ATOM     57  C   UNL A   1      43.038  24.540  25.522  1.00  0.00     0.200 A 
ATOM     58  F   UNL A   1      41.497  22.938  26.329  1.00  0.00    -0.200 F 
ATOM     59  F   UNL A   1      43.376  23.728  24.512  1.00  0.00    -0.200 F 
ENDBRANCH  25  49
BRANCH  37  60
ATOM     60  C   UNL A   1      44.754  27.356  34.057  1.00  0.00     0.064 A 
ATOM     61  C   UNL A   1      46.010  27.973  33.985  1.00  0.00     0.173 A 
ATOM     62  C   UNL A   1      44.627  26.187  34.818  1.00  0.00     0.173 A 
ATOM     63  F   UNL A   1      46.172  29.097  33.271  1.00  0.00    -0.203 F 
ATOM     64  C   UNL A   1      47.105  27.434  34.654  1.00  0.00     0.198 A 
ATOM     65  C   UNL A   1      45.724  25.654  35.490  1.00  0.00     0.198 A 
ATOM     66  F   UNL A   1      43.439  25.574  34.921  1.00  0.00    -0.203 F 
ATOM     67  F   UNL A   1      48.301  28.036  34.575  1.00  0.00    -0.200 F 
ATOM     68  C   UNL A   1      46.961  26.276  35.405  1.00  0.00     0.200 A 
ATOM     69  F   UNL A   1      45.581  24.543  36.226  1.00  0.00    -0.200 F 
ATOM     70  F   UNL A   1      48.015  25.762  36.054  1.00  0.00    -0.200 F 
ENDBRANCH  37  60
ENDBRANCH  11  12
ENDBRANCH   4   6
ENDBRANCH   1   2
BRANCH   1  71
ATOM     71  C   UNL A   1      31.837  28.025  26.300  1.00  0.00     0.042 C 
BRANCH  71  72
ATOM     72  C   UNL A   1      31.989  26.599  25.773  1.00  0.00     0.118 C 
BRANCH  72  73
ATOM     73  N   UNL A   1      31.370  25.624  26.651  1.00  0.00    -0.349 N 
ATOM     74  C   UNL A   1      31.300  24.253  26.555  1.00  0.00     0.287 C 
ATOM     75  H   UNL A   1      30.925  26.005  27.442  1.00  0.00     0.163 HD
ATOM     76  O   UNL A   1      30.444  23.703  27.251  1.00  0.00    -0.266 OA
BRANCH  74  77
ATOM     77  C   UNL A   1      32.205  23.527  25.691  1.00  0.00     0.192 A 
ATOM     78  C   UNL A   1      32.079  22.970  24.430  1.00  0.00     0.057 A 
ATOM     79  O   UNL A   1      33.509  23.400  26.098  1.00  0.00    -0.451 OA
ATOM     80  C   UNL A   1      33.357  22.483  24.061  1.00  0.00     0.052 A 
ATOM     81  C   UNL A   1      34.208  22.778  25.106  1.00  0.00     0.135 A 
BRANCH  81  82
ATOM     82  C   UNL A   1      35.638  22.608  25.334  1.00  0.00     0.020 A 
ATOM     83  C   UNL A   1      36.258  21.375  25.067  1.00  0.00     0.012 A 
ATOM     84  C   UNL A   1      36.423  23.665  25.812  1.00  0.00     0.051 A 
ATOM     85  C   UNL A   1      37.632  21.203  25.269  1.00  0.00     0.004 A 
ATOM     86  C   UNL A   1      37.787  23.482  26.020  1.00  0.00     0.123 A 
ATOM     87  C   UNL A   1      38.398  22.262  25.751  1.00  0.00     0.039 A 
ATOM     88  F   UNL A   1      38.526  24.497  26.487  1.00  0.00    -0.207 F 
ENDBRANCH  81  82
ENDBRANCH  74  77
ENDBRANCH  72  73
ENDBRANCH  71  72
ENDBRANCH   1  71
TORSDOF 11
ENDMDL
