MODEL 1
REMARK VINA RESULT:     -12.0      0.000      0.000
REMARK SMILES CC(C)C[C@H](CNC(=O)/C=C/c1ccc(Br)o1)C(=O)NCCCNC(=O)c1ccc(-c2c3nc(c(-c4c(F)c(F)c(F)c(F)c4F)c4ccc([nH]4)c(-c4c(F)c(F)c(F)c(F)c4F)c4nc(c(-c5c(F)c(F)c(F)c(F)c5F)c5ccc2[nH]5)C=C4)C=C3)cc1
REMARK SMILES IDX 21 1 20 2 18 3 19 4 5 6 4 7 2 8 1 9 3 10 6 11 7 12 8 13 9 15
REMARK SMILES IDX 10 16 11 17 12 18 13 19 17 20 14 21 15 22 16 23 22 24 23 25
REMARK SMILES IDX 24 26 25 27 26 29 27 30 28 31 89 32 29 33 88 34 30 35 31 36
REMARK SMILES IDX 32 37 82 38 33 39 87 40 81 41 83 42 34 43 86 44 80 45 79 46
REMARK SMILES IDX 35 48 67 49 47 50 66 51 48 52 51 53 65 54 84 55 49 56 50 57
REMARK SMILES IDX 64 59 85 60 52 61 36 62 37 63 45 64 38 65 39 66 43 67 46 68
REMARK SMILES IDX 40 69 41 70 44 71 42 72 68 73 69 74 77 75 70 76 71 77 75 78
REMARK SMILES IDX 78 79 72 80 73 81 76 82 74 83 53 84 54 85 62 86 55 87 56 88
REMARK SMILES IDX 60 89 63 90 57 91 58 92 61 93 59 94
REMARK H PARENT 20 5 7 14 24 28 83 47 51 58
REMARK Flexibility Score: inf
ROOT
ATOM      1  C   UNL A   1      31.776  30.675  26.194  1.00  0.00     0.117 C 
ENDROOT
BRANCH   1   2
ATOM      2  N   UNL A   1      31.057  30.353  24.977  1.00  0.00    -0.356 N 
ATOM      3  C   UNL A   1      30.890  29.153  24.358  1.00  0.00     0.224 C 
ATOM      4  O   UNL A   1      30.237  29.124  23.315  1.00  0.00    -0.275 OA
ATOM      5  H   UNL A   1      30.623  31.117  24.532  1.00  0.00     0.163 HD
BRANCH   3   6
ATOM      6  C   UNL A   1      31.535  27.889  24.915  1.00  0.00     0.098 C 
BRANCH   6   7
ATOM      7  C   UNL A   1      33.011  27.658  24.494  1.00  0.00     0.018 C 
BRANCH   7   8
ATOM      8  C   UNL A   1      33.285  27.523  22.975  1.00  0.00    -0.017 C 
ATOM      9  C   UNL A   1      34.317  28.526  22.468  1.00  0.00     0.007 C 
ATOM     10  C   UNL A   1      33.717  26.094  22.634  1.00  0.00     0.007 C 
ENDBRANCH   7   8
ENDBRANCH   6   7
BRANCH   6  11
ATOM     11  C   UNL A   1      30.534  26.726  24.703  1.00  0.00     0.129 C 
BRANCH  11  12
ATOM     12  N   UNL A   1      30.424  25.776  25.797  1.00  0.00    -0.352 N 
ATOM     13  C   UNL A   1      31.209  24.814  26.326  1.00  0.00     0.244 C 
ATOM     14  H   UNL A   1      29.563  25.852  26.268  1.00  0.00     0.163 HD
ATOM     15  O   UNL A   1      30.741  24.173  27.272  1.00  0.00    -0.270 OA
BRANCH  13  16
ATOM     16  C   UNL A   1      32.584  24.489  25.890  1.00  0.00     0.075 C 
ATOM     17  C   UNL A   1      33.532  23.763  26.490  1.00  0.00     0.053 C 
BRANCH  17  18
ATOM     18  C   UNL A   1      34.754  23.454  25.844  1.00  0.00     0.128 A 
ATOM     19  C   UNL A   1      35.655  24.254  25.153  1.00  0.00     0.051 A 
ATOM     20  O   UNL A   1      35.258  22.174  25.858  1.00  0.00    -0.450 OA
ATOM     21  C   UNL A   1      36.729  23.430  24.736  1.00  0.00     0.059 A 
ATOM     22  C   UNL A   1      36.427  22.166  25.176  1.00  0.00     0.169 A 
ATOM     23  Br  UNL A   1      37.466  20.643  24.897  1.00  0.00    -0.008 Br
ENDBRANCH  17  18
ENDBRANCH  13  16
ENDBRANCH  11  12
ENDBRANCH   6  11
ENDBRANCH   3   6
ENDBRANCH   1   2
BRANCH   1  24
ATOM     24  C   UNL A   1      31.463  32.077  26.683  1.00  0.00     0.042 C 
BRANCH  24  25
ATOM     25  C   UNL A   1      32.652  32.716  27.370  1.00  0.00     0.118 C 
BRANCH  25  26
ATOM     26  N   UNL A   1      32.433  34.135  27.614  1.00  0.00    -0.352 N 
ATOM     27  C   UNL A   1      32.995  34.937  28.577  1.00  0.00     0.251 C 
ATOM     28  H   UNL A   1      31.798  34.579  27.007  1.00  0.00     0.163 HD
ATOM     29  O   UNL A   1      32.536  36.043  28.813  1.00  0.00    -0.269 OA
BRANCH  27  30
ATOM     30  C   UNL A   1      34.156  34.427  29.330  1.00  0.00     0.039 A 
ATOM     31  C   UNL A   1      33.952  33.770  30.543  1.00  0.00     0.014 A 
ATOM     32  C   UNL A   1      35.444  34.579  28.808  1.00  0.00     0.014 A 
ATOM     33  C   UNL A   1      35.043  33.213  31.210  1.00  0.00     0.010 A 
ATOM     34  C   UNL A   1      36.508  33.934  29.415  1.00  0.00     0.010 A 
ATOM     35  C   UNL A   1      36.322  33.264  30.634  1.00  0.00    -0.014 A 
BRANCH  35  36
ATOM     36  C   UNL A   1      37.507  32.670  31.296  1.00  0.00     0.031 A 
ATOM     37  C   UNL A   1      38.235  31.543  30.619  1.00  0.00     0.074 A 
ATOM     38  C   UNL A   1      37.861  33.073  32.530  1.00  0.00     0.049 A 
ATOM     39  N   UNL A   1      39.190  30.777  31.078  1.00  0.00    -0.248 NA
ATOM     40  C   UNL A   1      37.800  31.205  29.253  1.00  0.00     0.031 C 
ATOM     41  C   UNL A   1      37.202  34.129  33.300  1.00  0.00     0.029 A 
ATOM     42  N   UNL A   1      38.853  32.623  33.363  1.00  0.00    -0.354 N 
ATOM     43  C   UNL A   1      39.448  29.857  30.071  1.00  0.00     0.074 A 
ATOM     44  C   UNL A   1      38.509  30.117  29.003  1.00  0.00     0.031 C 
ATOM     45  C   UNL A   1      37.820  34.259  34.486  1.00  0.00     0.029 A 
ATOM     46  C   UNL A   1      38.883  33.263  34.578  1.00  0.00     0.049 A 
ATOM     47  H   UNL A   1      39.484  31.909  33.114  1.00  0.00     0.167 HD
ATOM     48  C   UNL A   1      40.400  28.895  30.032  1.00  0.00     0.037 A 
ATOM     49  C   UNL A   1      39.670  33.053  35.650  1.00  0.00     0.037 A 
ATOM     50  C   UNL A   1      41.350  28.666  31.088  1.00  0.00     0.049 A 
ATOM     51  C   UNL A   1      40.716  31.972  35.585  1.00  0.00     0.074 A 
ATOM     52  C   UNL A   1      42.392  27.759  31.130  1.00  0.00     0.029 A 
ATOM     53  N   UNL A   1      41.370  29.358  32.291  1.00  0.00    -0.354 N 
ATOM     54  N   UNL A   1      40.991  31.142  34.607  1.00  0.00    -0.248 NA
ATOM     55  C   UNL A   1      41.567  31.803  36.771  1.00  0.00     0.031 C 
ATOM     56  C   UNL A   1      43.011  27.866  32.378  1.00  0.00     0.029 A 
ATOM     57  C   UNL A   1      42.397  28.884  33.090  1.00  0.00     0.049 A 
ATOM     58  H   UNL A   1      40.748  30.080  32.539  1.00  0.00     0.167 HD
ATOM     59  C   UNL A   1      42.068  30.381  35.043  1.00  0.00     0.074 A 
ATOM     60  C   UNL A   1      42.400  30.852  36.372  1.00  0.00     0.031 C 
ATOM     61  C   UNL A   1      42.724  29.384  34.401  1.00  0.00     0.037 A 
BRANCH  48  62
ATOM     62  C   UNL A   1      40.460  28.023  28.811  1.00  0.00     0.064 A 
ATOM     63  C   UNL A   1      39.767  26.805  28.737  1.00  0.00     0.173 A 
ATOM     64  C   UNL A   1      41.202  28.422  27.689  1.00  0.00     0.173 A 
ATOM     65  F   UNL A   1      39.055  26.369  29.788  1.00  0.00    -0.203 F 
ATOM     66  C   UNL A   1      39.842  26.004  27.602  1.00  0.00     0.198 A 
ATOM     67  C   UNL A   1      41.245  27.636  26.540  1.00  0.00     0.198 A 
ATOM     68  F   UNL A   1      41.882  29.578  27.703  1.00  0.00    -0.203 F 
ATOM     69  F   UNL A   1      39.219  24.817  27.578  1.00  0.00    -0.200 F 
ATOM     70  C   UNL A   1      40.574  26.423  26.501  1.00  0.00     0.200 A 
ATOM     71  F   UNL A   1      41.941  28.049  25.473  1.00  0.00    -0.200 F 
ATOM     72  F   UNL A   1      40.637  25.654  25.405  1.00  0.00    -0.200 F 
ENDBRANCH  48  62
BRANCH  49  73
ATOM     73  C   UNL A   1      39.514  33.895  36.865  1.00  0.00     0.064 A 
ATOM     74  C   UNL A   1      40.144  35.144  36.959  1.00  0.00     0.173 A 
ATOM     75  C   UNL A   1      38.741  33.472  37.957  1.00  0.00     0.173 A 
ATOM     76  F   UNL A   1      40.909  35.585  35.948  1.00  0.00    -0.203 F 
ATOM     77  C   UNL A   1      40.030  35.925  38.106  1.00  0.00     0.198 A 
ATOM     78  C   UNL A   1      38.602  34.269  39.092  1.00  0.00     0.198 A 
ATOM     79  F   UNL A   1      38.112  32.289  37.915  1.00  0.00    -0.203 F 
ATOM     80  F   UNL A   1      40.685  37.091  38.189  1.00  0.00    -0.200 F 
ATOM     81  C   UNL A   1      39.255  35.490  39.170  1.00  0.00     0.200 A 
ATOM     82  F   UNL A   1      37.839  33.851  40.111  1.00  0.00    -0.200 F 
ATOM     83  F   UNL A   1      39.142  36.242  40.273  1.00  0.00    -0.200 F 
ENDBRANCH  49  73
BRANCH  61  84
ATOM     84  C   UNL A   1      43.907  28.774  35.095  1.00  0.00     0.064 A 
ATOM     85  C   UNL A   1      45.198  29.306  34.965  1.00  0.00     0.173 A 
ATOM     86  C   UNL A   1      43.731  27.674  35.950  1.00  0.00     0.173 A 
ATOM     87  F   UNL A   1      45.421  30.347  34.149  1.00  0.00    -0.203 F 
ATOM     88  C   UNL A   1      46.273  28.743  35.646  1.00  0.00     0.198 A 
ATOM     89  C   UNL A   1      44.803  27.136  36.656  1.00  0.00     0.198 A 
ATOM     90  F   UNL A   1      42.515  27.134  36.115  1.00  0.00    -0.203 F 
ATOM     91  F   UNL A   1      47.507  29.238  35.471  1.00  0.00    -0.200 F 
ATOM     92  C   UNL A   1      46.074  27.666  36.498  1.00  0.00     0.200 A 
ATOM     93  F   UNL A   1      44.603  26.108  37.492  1.00  0.00    -0.200 F 
ATOM     94  F   UNL A   1      47.109  27.136  37.164  1.00  0.00    -0.200 F 
ENDBRANCH  61  84
ENDBRANCH  35  36
ENDBRANCH  27  30
ENDBRANCH  25  26
ENDBRANCH  24  25
ENDBRANCH   1  24
TORSDOF 16
ENDMDL
MODEL 2
REMARK VINA RESULT:     -12.0      2.275      3.615
REMARK SMILES CC(C)C[C@H](CNC(=O)/C=C/c1ccc(Br)o1)C(=O)NCCCNC(=O)c1ccc(-c2c3nc(c(-c4c(F)c(F)c(F)c(F)c4F)c4ccc([nH]4)c(-c4c(F)c(F)c(F)c(F)c4F)c4nc(c(-c5c(F)c(F)c(F)c(F)c5F)c5ccc2[nH]5)C=C4)C=C3)cc1
REMARK SMILES IDX 21 1 20 2 18 3 19 4 5 6 4 7 2 8 1 9 3 10 6 11 7 12 8 13 9 15
REMARK SMILES IDX 10 16 11 17 12 18 13 19 17 20 14 21 15 22 16 23 22 24 23 25
REMARK SMILES IDX 24 26 25 27 26 29 27 30 28 31 89 32 29 33 88 34 30 35 31 36
REMARK SMILES IDX 32 37 82 38 33 39 87 40 81 41 83 42 34 43 86 44 80 45 79 46
REMARK SMILES IDX 35 48 67 49 47 50 66 51 48 52 51 53 65 54 84 55 49 56 50 57
REMARK SMILES IDX 64 59 85 60 52 61 36 62 37 63 45 64 38 65 39 66 43 67 46 68
REMARK SMILES IDX 40 69 41 70 44 71 42 72 68 73 69 74 77 75 70 76 71 77 75 78
REMARK SMILES IDX 78 79 72 80 73 81 76 82 74 83 53 84 54 85 62 86 55 87 56 88
REMARK SMILES IDX 60 89 63 90 57 91 58 92 61 93 59 94
REMARK H PARENT 20 5 7 14 24 28 83 47 51 58
REMARK Flexibility Score: inf
ROOT
ATOM      1  C   UNL A   1      31.785  30.651  26.274  1.00  0.00     0.117 C 
ENDROOT
BRANCH   1   2
ATOM      2  N   UNL A   1      33.113  30.222  26.665  1.00  0.00    -0.356 N 
ATOM      3  C   UNL A   1      33.772  29.067  26.379  1.00  0.00     0.224 C 
ATOM      4  O   UNL A   1      34.906  28.917  26.835  1.00  0.00    -0.275 OA
ATOM      5  H   UNL A   1      33.613  30.862  27.222  1.00  0.00     0.163 HD
BRANCH   3   6
ATOM      6  C   UNL A   1      33.107  27.970  25.556  1.00  0.00     0.098 C 
BRANCH   6   7
ATOM      7  C   UNL A   1      33.185  26.545  26.167  1.00  0.00     0.018 C 
BRANCH   7   8
ATOM      8  C   UNL A   1      31.842  25.896  26.586  1.00  0.00    -0.017 C 
ATOM      9  C   UNL A   1      30.656  26.412  25.775  1.00  0.00     0.007 C 
ATOM     10  C   UNL A   1      31.931  24.371  26.491  1.00  0.00     0.007 C 
ENDBRANCH   7   8
ENDBRANCH   6   7
BRANCH   6  11
ATOM     11  C   UNL A   1      33.564  28.150  24.087  1.00  0.00     0.129 C 
BRANCH  11  12
ATOM     12  N   UNL A   1      32.990  27.223  23.125  1.00  0.00    -0.352 N 
ATOM     13  C   UNL A   1      31.860  27.168  22.390  1.00  0.00     0.244 C 
ATOM     14  H   UNL A   1      33.569  26.442  22.974  1.00  0.00     0.163 HD
ATOM     15  O   UNL A   1      31.707  26.170  21.680  1.00  0.00    -0.270 OA
BRANCH  13  16
ATOM     16  C   UNL A   1      30.814  28.212  22.340  1.00  0.00     0.075 C 
ATOM     17  C   UNL A   1      30.507  29.170  23.220  1.00  0.00     0.053 C 
BRANCH  17  18
ATOM     18  C   UNL A   1      29.546  30.169  22.929  1.00  0.00     0.128 A 
ATOM     19  C   UNL A   1      28.667  30.863  23.750  1.00  0.00     0.051 A 
ATOM     20  O   UNL A   1      29.378  30.637  21.647  1.00  0.00    -0.450 OA
ATOM     21  C   UNL A   1      27.947  31.773  22.937  1.00  0.00     0.059 A 
ATOM     22  C   UNL A   1      28.407  31.580  21.658  1.00  0.00     0.169 A 
ATOM     23  Br  UNL A   1      27.804  32.481  20.142  1.00  0.00    -0.008 Br
ENDBRANCH  17  18
ENDBRANCH  13  16
ENDBRANCH  11  12
ENDBRANCH   6  11
ENDBRANCH   3   6
ENDBRANCH   1   2
BRANCH   1  24
ATOM     24  C   UNL A   1      31.477  32.056  26.760  1.00  0.00     0.042 C 
BRANCH  24  25
ATOM     25  C   UNL A   1      32.707  32.745  27.313  1.00  0.00     0.118 C 
BRANCH  25  26
ATOM     26  N   UNL A   1      32.456  34.154  27.587  1.00  0.00    -0.352 N 
ATOM     27  C   UNL A   1      32.990  34.945  28.574  1.00  0.00     0.251 C 
ATOM     28  H   UNL A   1      31.818  34.598  26.982  1.00  0.00     0.163 HD
ATOM     29  O   UNL A   1      32.506  36.036  28.829  1.00  0.00    -0.269 OA
BRANCH  27  30
ATOM     30  C   UNL A   1      34.154  34.442  29.328  1.00  0.00     0.039 A 
ATOM     31  C   UNL A   1      33.951  33.773  30.535  1.00  0.00     0.014 A 
ATOM     32  C   UNL A   1      35.442  34.612  28.814  1.00  0.00     0.014 A 
ATOM     33  C   UNL A   1      35.044  33.222  31.203  1.00  0.00     0.010 A 
ATOM     34  C   UNL A   1      36.510  33.974  29.421  1.00  0.00     0.010 A 
ATOM     35  C   UNL A   1      36.326  33.292  30.633  1.00  0.00    -0.014 A 
BRANCH  35  36
ATOM     36  C   UNL A   1      37.514  32.706  31.297  1.00  0.00     0.031 A 
ATOM     37  C   UNL A   1      38.245  31.577  30.625  1.00  0.00     0.074 A 
ATOM     38  C   UNL A   1      37.869  33.118  32.528  1.00  0.00     0.049 A 
ATOM     39  N   UNL A   1      39.203  30.817  31.086  1.00  0.00    -0.248 NA
ATOM     40  C   UNL A   1      37.808  31.230  29.262  1.00  0.00     0.031 C 
ATOM     41  C   UNL A   1      37.209  34.177  33.293  1.00  0.00     0.029 A 
ATOM     42  N   UNL A   1      38.864  32.676  33.362  1.00  0.00    -0.354 N 
ATOM     43  C   UNL A   1      39.461  29.892  30.085  1.00  0.00     0.074 A 
ATOM     44  C   UNL A   1      38.520  30.142  29.017  1.00  0.00     0.031 C 
ATOM     45  C   UNL A   1      37.829  34.315  34.476  1.00  0.00     0.029 A 
ATOM     46  C   UNL A   1      38.895  33.324  34.572  1.00  0.00     0.049 A 
ATOM     47  H   UNL A   1      39.498  31.963  33.115  1.00  0.00     0.167 HD
ATOM     48  C   UNL A   1      40.416  28.933  30.050  1.00  0.00     0.037 A 
ATOM     49  C   UNL A   1      39.685  33.123  35.644  1.00  0.00     0.037 A 
ATOM     50  C   UNL A   1      41.369  28.714  31.105  1.00  0.00     0.049 A 
ATOM     51  C   UNL A   1      40.735  32.045  35.583  1.00  0.00     0.074 A 
ATOM     52  C   UNL A   1      42.414  27.811  31.150  1.00  0.00     0.029 A 
ATOM     53  N   UNL A   1      41.390  29.413  32.303  1.00  0.00    -0.354 N 
ATOM     54  N   UNL A   1      41.010  31.210  34.610  1.00  0.00    -0.248 NA
ATOM     55  C   UNL A   1      41.588  31.886  36.768  1.00  0.00     0.031 C 
ATOM     56  C   UNL A   1      43.036  27.926  32.396  1.00  0.00     0.029 A 
ATOM     57  C   UNL A   1      42.420  28.947  33.103  1.00  0.00     0.049 A 
ATOM     58  H   UNL A   1      40.766  30.134  32.549  1.00  0.00     0.167 HD
ATOM     59  C   UNL A   1      42.090  30.455  35.048  1.00  0.00     0.074 A 
ATOM     60  C   UNL A   1      42.423  30.935  36.373  1.00  0.00     0.031 C 
ATOM     61  C   UNL A   1      42.748  29.456  34.411  1.00  0.00     0.037 A 
BRANCH  48  62
ATOM     62  C   UNL A   1      40.477  28.054  28.834  1.00  0.00     0.064 A 
ATOM     63  C   UNL A   1      39.777  26.840  28.764  1.00  0.00     0.173 A 
ATOM     64  C   UNL A   1      41.227  28.442  27.713  1.00  0.00     0.173 A 
ATOM     65  F   UNL A   1      39.057  26.414  29.813  1.00  0.00    -0.203 F 
ATOM     66  C   UNL A   1      39.851  26.032  27.633  1.00  0.00     0.198 A 
ATOM     67  C   UNL A   1      41.270  27.649  26.569  1.00  0.00     0.198 A 
ATOM     68  F   UNL A   1      41.914  29.593  27.724  1.00  0.00    -0.203 F 
ATOM     69  F   UNL A   1      39.222  24.849  27.613  1.00  0.00    -0.200 F 
ATOM     70  C   UNL A   1      40.591  26.440  26.533  1.00  0.00     0.200 A 
ATOM     71  F   UNL A   1      41.974  28.052  25.503  1.00  0.00    -0.200 F 
ATOM     72  F   UNL A   1      40.655  25.665  25.442  1.00  0.00    -0.200 F 
ENDBRANCH  48  62
BRANCH  49  73
ATOM     73  C   UNL A   1      39.529  33.972  36.854  1.00  0.00     0.064 A 
ATOM     74  C   UNL A   1      40.160  35.221  36.941  1.00  0.00     0.173 A 
ATOM     75  C   UNL A   1      38.756  33.555  37.948  1.00  0.00     0.173 A 
ATOM     76  F   UNL A   1      40.925  35.657  35.928  1.00  0.00    -0.203 F 
ATOM     77  C   UNL A   1      40.045  36.009  38.084  1.00  0.00     0.198 A 
ATOM     78  C   UNL A   1      38.617  34.359  39.078  1.00  0.00     0.198 A 
ATOM     79  F   UNL A   1      38.126  32.372  37.913  1.00  0.00    -0.203 F 
ATOM     80  F   UNL A   1      40.701  37.175  38.160  1.00  0.00    -0.200 F 
ATOM     81  C   UNL A   1      39.269  35.580  39.150  1.00  0.00     0.200 A 
ATOM     82  F   UNL A   1      37.853  33.946  40.100  1.00  0.00    -0.200 F 
ATOM     83  F   UNL A   1      39.157  36.338  40.248  1.00  0.00    -0.200 F 
ENDBRANCH  49  73
BRANCH  61  84
ATOM     84  C   UNL A   1      43.935  28.855  35.106  1.00  0.00     0.064 A 
ATOM     85  C   UNL A   1      45.223  29.392  34.973  1.00  0.00     0.173 A 
ATOM     86  C   UNL A   1      43.765  27.756  35.964  1.00  0.00     0.173 A 
ATOM     87  F   UNL A   1      45.440  30.432  34.154  1.00  0.00    -0.203 F 
ATOM     88  C   UNL A   1      46.302  28.836  35.655  1.00  0.00     0.198 A 
ATOM     89  C   UNL A   1      44.839  27.226  36.671  1.00  0.00     0.198 A 
ATOM     90  F   UNL A   1      42.551  27.211  36.132  1.00  0.00    -0.203 F 
ATOM     91  F   UNL A   1      47.533  29.337  35.479  1.00  0.00    -0.200 F 
ATOM     92  C   UNL A   1      46.108  27.762  36.511  1.00  0.00     0.200 A 
ATOM     93  F   UNL A   1      44.646  26.199  37.510  1.00  0.00    -0.200 F 
ATOM     94  F   UNL A   1      47.146  27.239  37.178  1.00  0.00    -0.200 F 
ENDBRANCH  61  84
ENDBRANCH  35  36
ENDBRANCH  27  30
ENDBRANCH  25  26
ENDBRANCH  24  25
ENDBRANCH   1  24
TORSDOF 16
ENDMDL
MODEL 3
REMARK VINA RESULT:     -12.0      1.218      1.999
REMARK SMILES CC(C)C[C@H](CNC(=O)/C=C/c1ccc(Br)o1)C(=O)NCCCNC(=O)c1ccc(-c2c3nc(c(-c4c(F)c(F)c(F)c(F)c4F)c4ccc([nH]4)c(-c4c(F)c(F)c(F)c(F)c4F)c4nc(c(-c5c(F)c(F)c(F)c(F)c5F)c5ccc2[nH]5)C=C4)C=C3)cc1
REMARK SMILES IDX 21 1 20 2 18 3 19 4 5 6 4 7 2 8 1 9 3 10 6 11 7 12 8 13 9 15
REMARK SMILES IDX 10 16 11 17 12 18 13 19 17 20 14 21 15 22 16 23 22 24 23 25
REMARK SMILES IDX 24 26 25 27 26 29 27 30 28 31 89 32 29 33 88 34 30 35 31 36
REMARK SMILES IDX 32 37 82 38 33 39 87 40 81 41 83 42 34 43 86 44 80 45 79 46
REMARK SMILES IDX 35 48 67 49 47 50 66 51 48 52 51 53 65 54 84 55 49 56 50 57
REMARK SMILES IDX 64 59 85 60 52 61 36 62 37 63 45 64 38 65 39 66 43 67 46 68
REMARK SMILES IDX 40 69 41 70 44 71 42 72 68 73 69 74 77 75 70 76 71 77 75 78
REMARK SMILES IDX 78 79 72 80 73 81 76 82 74 83 53 84 54 85 62 86 55 87 56 88
REMARK SMILES IDX 60 89 63 90 57 91 58 92 61 93 59 94
REMARK H PARENT 20 5 7 14 24 28 83 47 51 58
REMARK Flexibility Score: inf
ROOT
ATOM      1  C   UNL A   1      31.735  30.501  25.983  1.00  0.00     0.117 C 
ENDROOT
BRANCH   1   2
ATOM      2  N   UNL A   1      31.130  30.399  24.670  1.00  0.00    -0.356 N 
ATOM      3  C   UNL A   1      30.991  29.316  23.859  1.00  0.00     0.224 C 
ATOM      4  O   UNL A   1      30.443  29.474  22.768  1.00  0.00    -0.275 OA
ATOM      5  H   UNL A   1      30.763  31.240  24.311  1.00  0.00     0.163 HD
BRANCH   3   6
ATOM      6  C   UNL A   1      31.543  27.955  24.270  1.00  0.00     0.098 C 
BRANCH   6   7
ATOM      7  C   UNL A   1      33.064  27.923  24.577  1.00  0.00     0.018 C 
BRANCH   7   8
ATOM      8  C   UNL A   1      33.483  27.329  25.945  1.00  0.00    -0.017 C 
ATOM      9  C   UNL A   1      34.104  25.940  25.822  1.00  0.00     0.007 C 
ATOM     10  C   UNL A   1      34.439  28.279  26.671  1.00  0.00     0.007 C 
ENDBRANCH   7   8
ENDBRANCH   6   7
BRANCH   6  11
ATOM     11  C   UNL A   1      30.986  26.909  23.273  1.00  0.00     0.129 C 
BRANCH  11  12
ATOM     12  N   UNL A   1      31.778  26.691  22.074  1.00  0.00    -0.352 N 
ATOM     13  C   UNL A   1      32.625  25.737  21.634  1.00  0.00     0.244 C 
ATOM     14  H   UNL A   1      31.670  27.419  21.421  1.00  0.00     0.163 HD
ATOM     15  O   UNL A   1      33.146  25.922  20.530  1.00  0.00    -0.270 OA
BRANCH  13  16
ATOM     16  C   UNL A   1      32.954  24.483  22.347  1.00  0.00     0.075 C 
ATOM     17  C   UNL A   1      34.120  24.044  22.828  1.00  0.00     0.053 C 
BRANCH  17  18
ATOM     18  C   UNL A   1      34.208  22.862  23.606  1.00  0.00     0.128 A 
ATOM     19  C   UNL A   1      35.130  22.461  24.564  1.00  0.00     0.051 A 
ATOM     20  O   UNL A   1      33.256  21.876  23.503  1.00  0.00    -0.450 OA
ATOM     21  C   UNL A   1      34.721  21.194  25.049  1.00  0.00     0.059 A 
ATOM     22  C   UNL A   1      33.582  20.874  24.353  1.00  0.00     0.169 A 
ATOM     23  Br  UNL A   1      32.602  19.299  24.542  1.00  0.00    -0.008 Br
ENDBRANCH  17  18
ENDBRANCH  13  16
ENDBRANCH  11  12
ENDBRANCH   6  11
ENDBRANCH   3   6
ENDBRANCH   1   2
BRANCH   1  24
ATOM     24  C   UNL A   1      31.399  31.817  26.661  1.00  0.00     0.042 C 
BRANCH  24  25
ATOM     25  C   UNL A   1      32.628  32.485  27.242  1.00  0.00     0.118 C 
BRANCH  25  26
ATOM     26  N   UNL A   1      32.410  33.907  27.470  1.00  0.00    -0.352 N 
ATOM     27  C   UNL A   1      32.975  34.721  28.420  1.00  0.00     0.251 C 
ATOM     28  H   UNL A   1      31.772  34.343  26.859  1.00  0.00     0.163 HD
ATOM     29  O   UNL A   1      32.517  35.830  28.643  1.00  0.00    -0.269 OA
BRANCH  27  30
ATOM     30  C   UNL A   1      34.140  34.221  29.174  1.00  0.00     0.039 A 
ATOM     31  C   UNL A   1      33.936  33.413  30.293  1.00  0.00     0.014 A 
ATOM     32  C   UNL A   1      35.432  34.533  28.745  1.00  0.00     0.014 A 
ATOM     33  C   UNL A   1      35.038  32.869  30.953  1.00  0.00     0.010 A 
ATOM     34  C   UNL A   1      36.518  33.908  29.334  1.00  0.00     0.010 A 
ATOM     35  C   UNL A   1      36.334  33.088  30.458  1.00  0.00    -0.014 A 
BRANCH  35  36
ATOM     36  C   UNL A   1      37.532  32.516  31.115  1.00  0.00     0.031 A 
ATOM     37  C   UNL A   1      38.272  31.396  30.439  1.00  0.00     0.074 A 
ATOM     38  C   UNL A   1      37.890  32.933  32.343  1.00  0.00     0.049 A 
ATOM     39  N   UNL A   1      39.242  30.648  30.896  1.00  0.00    -0.248 NA
ATOM     40  C   UNL A   1      37.832  31.043  29.079  1.00  0.00     0.031 C 
ATOM     41  C   UNL A   1      37.222  33.985  33.112  1.00  0.00     0.029 A 
ATOM     42  N   UNL A   1      38.895  32.504  33.172  1.00  0.00    -0.354 N 
ATOM     43  C   UNL A   1      39.506  29.725  29.893  1.00  0.00     0.074 A 
ATOM     44  C   UNL A   1      38.555  29.964  28.830  1.00  0.00     0.031 C 
ATOM     45  C   UNL A   1      37.847  34.131  34.292  1.00  0.00     0.029 A 
ATOM     46  C   UNL A   1      38.926  33.152  34.381  1.00  0.00     0.049 A 
ATOM     47  H   UNL A   1      39.536  31.798  32.922  1.00  0.00     0.167 HD
ATOM     48  C   UNL A   1      40.472  28.777  29.853  1.00  0.00     0.037 A 
ATOM     49  C   UNL A   1      39.724  32.962  35.448  1.00  0.00     0.037 A 
ATOM     50  C   UNL A   1      41.434  28.570  30.902  1.00  0.00     0.049 A 
ATOM     51  C   UNL A   1      40.786  31.896  35.382  1.00  0.00     0.074 A 
ATOM     52  C   UNL A   1      42.490  27.679  30.941  1.00  0.00     0.029 A 
ATOM     53  N   UNL A   1      41.453  29.270  32.100  1.00  0.00    -0.354 N 
ATOM     54  N   UNL A   1      41.066  31.064  34.408  1.00  0.00    -0.248 NA
ATOM     55  C   UNL A   1      41.648  31.747  36.562  1.00  0.00     0.031 C 
ATOM     56  C   UNL A   1      43.118  27.803  32.184  1.00  0.00     0.029 A 
ATOM     57  C   UNL A   1      42.493  28.817  32.894  1.00  0.00     0.049 A 
ATOM     58  H   UNL A   1      40.822  29.984  32.349  1.00  0.00     0.167 HD
ATOM     59  C   UNL A   1      42.157  30.322  34.840  1.00  0.00     0.074 A 
ATOM     60  C   UNL A   1      42.493  30.807  36.163  1.00  0.00     0.031 C 
ATOM     61  C   UNL A   1      42.824  29.330  34.200  1.00  0.00     0.037 A 
BRANCH  48  62
ATOM     62  C   UNL A   1      40.536  27.898  28.637  1.00  0.00     0.064 A 
ATOM     63  C   UNL A   1      39.852  26.675  28.572  1.00  0.00     0.173 A 
ATOM     64  C   UNL A   1      41.272  28.295  27.511  1.00  0.00     0.173 A 
ATOM     65  F   UNL A   1      39.144  26.240  29.627  1.00  0.00    -0.203 F 
ATOM     66  C   UNL A   1      39.929  25.867  27.441  1.00  0.00     0.198 A 
ATOM     67  C   UNL A   1      41.318  27.502  26.367  1.00  0.00     0.198 A 
ATOM     68  F   UNL A   1      41.944  29.456  27.516  1.00  0.00    -0.203 F 
ATOM     69  F   UNL A   1      39.315  24.676  27.427  1.00  0.00    -0.200 F 
ATOM     70  C   UNL A   1      40.656  26.284  26.336  1.00  0.00     0.200 A 
ATOM     71  F   UNL A   1      42.009  27.914  25.295  1.00  0.00    -0.200 F 
ATOM     72  F   UNL A   1      40.722  25.510  25.245  1.00  0.00    -0.200 F 
ENDBRANCH  48  62
BRANCH  49  73
ATOM     73  C   UNL A   1      39.566  33.809  36.660  1.00  0.00     0.064 A 
ATOM     74  C   UNL A   1      38.781  33.379  37.739  1.00  0.00     0.173 A 
ATOM     75  C   UNL A   1      40.185  35.063  36.764  1.00  0.00     0.173 A 
ATOM     76  F   UNL A   1      38.153  32.194  37.680  1.00  0.00    -0.203 F 
ATOM     77  C   UNL A   1      38.601  34.180  38.864  1.00  0.00     0.198 A 
ATOM     78  C   UNL A   1      40.029  35.851  37.903  1.00  0.00     0.198 A 
ATOM     79  F   UNL A   1      40.953  35.518  35.763  1.00  0.00    -0.203 F 
ATOM     80  F   UNL A   1      37.804  33.766  39.858  1.00  0.00    -0.200 F 
ATOM     81  C   UNL A   1      39.230  35.413  38.948  1.00  0.00     0.200 A 
ATOM     82  F   UNL A   1      40.652  37.035  37.986  1.00  0.00    -0.200 F 
ATOM     83  F   UNL A   1      39.058  36.183  40.031  1.00  0.00    -0.200 F 
ENDBRANCH  49  73
BRANCH  61  84
ATOM     84  C   UNL A   1      44.021  28.743  34.888  1.00  0.00     0.064 A 
ATOM     85  C   UNL A   1      45.302  29.296  34.748  1.00  0.00     0.173 A 
ATOM     86  C   UNL A   1      43.869  27.643  35.747  1.00  0.00     0.173 A 
ATOM     87  F   UNL A   1      45.501  30.339  33.928  1.00  0.00    -0.203 F 
ATOM     88  C   UNL A   1      46.391  28.754  35.424  1.00  0.00     0.198 A 
ATOM     89  C   UNL A   1      44.954  27.126  36.448  1.00  0.00     0.198 A 
ATOM     90  F   UNL A   1      42.663  27.083  35.922  1.00  0.00    -0.203 F 
ATOM     91  F   UNL A   1      47.615  29.270  35.240  1.00  0.00    -0.200 F 
ATOM     92  C   UNL A   1      46.215  27.677  36.281  1.00  0.00     0.200 A 
ATOM     93  F   UNL A   1      44.778  26.097  37.288  1.00  0.00    -0.200 F 
ATOM     94  F   UNL A   1      47.263  27.167  36.941  1.00  0.00    -0.200 F 
ENDBRANCH  61  84
ENDBRANCH  35  36
ENDBRANCH  27  30
ENDBRANCH  25  26
ENDBRANCH  24  25
ENDBRANCH   1  24
TORSDOF 16
ENDMDL
