MODEL 1
REMARK VINA RESULT:     -11.8      0.000      0.000
REMARK SMILES CSCC[C@@H](CO)n1ccnc1-c1ccccc1C(=O)NCCCNC(=O)c1ccc(-c2c3nc(c(-c4c(F)c(F)c(F)c(F)c4F)c4ccc([nH]4)c(-c4c(F)c(F)c(F)c(F)c4F)c4nc(c(-c5c(F)c(F)c(F)c(F)c5F)c5ccc2[nH]5)C=C4)C=C3)cc1
REMARK SMILES IDX 19 1 20 2 21 3 18 5 13 6 14 7 15 8 17 9 16 10 12 11 8 12
REMARK SMILES IDX 9 13 10 14 11 15 5 16 4 17 3 18 2 19 1 20 6 21 7 22 22 24
REMARK SMILES IDX 23 25 24 26 25 27 26 28 27 30 28 31 29 32 90 33 30 34 89 35
REMARK SMILES IDX 31 36 32 37 33 38 83 39 34 40 88 41 82 42 84 43 35 44 87 45
REMARK SMILES IDX 81 46 80 47 36 49 68 50 48 51 67 52 49 53 52 54 66 55 85 56
REMARK SMILES IDX 50 57 51 58 65 60 86 61 53 62 37 63 38 64 46 65 39 66 40 67
REMARK SMILES IDX 44 68 47 69 41 70 42 71 45 72 43 73 69 74 70 75 78 76 71 77
REMARK SMILES IDX 72 78 76 79 79 80 73 81 74 82 77 83 75 84 54 85 55 86 63 87
REMARK SMILES IDX 56 88 57 89 61 90 64 91 58 92 59 93 62 94 60 95
REMARK H PARENT 21 4 7 23 25 29 84 48 52 59
REMARK Flexibility Score: inf
ROOT
ATOM      1  C   UNL A   1      33.129  28.291  25.002  1.00  0.00     0.252 C 
ATOM      2  O   UNL A   1      34.086  28.025  24.274  1.00  0.00    -0.269 OA
ATOM      3  N   UNL A   1      33.374  28.767  26.269  1.00  0.00    -0.352 N 
ATOM      4  H   UNL A   1      34.294  28.654  26.602  1.00  0.00     0.163 HD
ENDROOT
BRANCH   1   5
ATOM      5  C   UNL A   1      31.760  28.016  24.494  1.00  0.00     0.050 A 
ATOM      6  C   UNL A   1      31.025  26.825  24.626  1.00  0.00     0.030 A 
ATOM      7  C   UNL A   1      29.768  26.752  23.987  1.00  0.00     0.013 A 
ATOM      8  C   UNL A   1      29.221  27.839  23.303  1.00  0.00     0.001 A 
ATOM      9  C   UNL A   1      31.177  29.125  23.839  1.00  0.00     0.014 A 
ATOM     10  C   UNL A   1      29.917  29.037  23.247  1.00  0.00     0.001 A 
BRANCH   6  11
ATOM     11  C   UNL A   1      31.461  25.592  25.297  1.00  0.00     0.141 A 
ATOM     12  N   UNL A   1      32.380  24.645  24.868  1.00  0.00    -0.326 N 
ATOM     13  C   UNL A   1      32.412  23.644  25.813  1.00  0.00     0.108 A 
ATOM     14  C   UNL A   1      31.522  24.020  26.785  1.00  0.00     0.131 A 
ATOM     15  N   UNL A   1      30.956  25.219  26.467  1.00  0.00    -0.237 NA
BRANCH  12  16
ATOM     16  C   UNL A   1      33.207  24.670  23.657  1.00  0.00     0.115 C 
BRANCH  16  17
ATOM     17  C   UNL A   1      34.675  24.347  23.990  1.00  0.00     0.039 C 
BRANCH  17  18
ATOM     18  C   UNL A   1      35.211  23.055  23.372  1.00  0.00     0.071 C 
BRANCH  18  19
ATOM     19  S   UNL A   1      35.890  21.867  24.582  1.00  0.00    -0.165 SA
ATOM     20  C   UNL A   1      36.097  22.917  26.046  1.00  0.00     0.085 C 
ENDBRANCH  18  19
ENDBRANCH  17  18
ENDBRANCH  16  17
BRANCH  16  21
ATOM     21  C   UNL A   1      32.632  23.782  22.531  1.00  0.00     0.181 C 
BRANCH  21  22
ATOM     22  O   UNL A   1      32.653  24.384  21.245  1.00  0.00    -0.394 OA
ATOM     23  H   UNL A   1      31.845  24.144  20.763  1.00  0.00     0.210 HD
ENDBRANCH  21  22
ENDBRANCH  16  21
ENDBRANCH  12  16
ENDBRANCH   6  11
ENDBRANCH   1   5
BRANCH   3  24
ATOM     24  C   UNL A   1      32.446  29.413  27.173  1.00  0.00     0.118 C 
BRANCH  24  25
ATOM     25  C   UNL A   1      32.456  30.932  27.185  1.00  0.00     0.042 C 
BRANCH  25  26
ATOM     26  C   UNL A   1      33.808  31.517  27.584  1.00  0.00     0.118 C 
BRANCH  26  27
ATOM     27  N   UNL A   1      33.947  31.951  28.978  1.00  0.00    -0.352 N 
ATOM     28  C   UNL A   1      35.094  31.885  29.757  1.00  0.00     0.251 C 
ATOM     29  H   UNL A   1      33.143  32.327  29.405  1.00  0.00     0.163 HD
ATOM     30  O   UNL A   1      35.107  32.172  30.948  1.00  0.00    -0.269 OA
BRANCH  28  31
ATOM     31  C   UNL A   1      36.313  31.390  29.089  1.00  0.00     0.039 A 
ATOM     32  C   UNL A   1      37.514  32.079  29.258  1.00  0.00     0.014 A 
ATOM     33  C   UNL A   1      36.289  30.083  28.612  1.00  0.00     0.014 A 
ATOM     34  C   UNL A   1      38.709  31.375  29.122  1.00  0.00     0.010 A 
ATOM     35  C   UNL A   1      37.468  29.361  28.614  1.00  0.00     0.010 A 
ATOM     36  C   UNL A   1      38.689  29.986  28.894  1.00  0.00    -0.014 A 
BRANCH  36  37
ATOM     37  C   UNL A   1      39.913  29.201  29.147  1.00  0.00     0.031 A 
ATOM     38  C   UNL A   1      40.260  28.928  30.589  1.00  0.00     0.074 A 
ATOM     39  C   UNL A   1      40.622  28.520  28.220  1.00  0.00     0.049 A 
ATOM     40  N   UNL A   1      41.344  29.246  31.225  1.00  0.00    -0.248 NA
ATOM     41  C   UNL A   1      39.268  28.237  31.429  1.00  0.00     0.031 C 
ATOM     42  C   UNL A   1      40.349  28.329  26.793  1.00  0.00     0.029 A 
ATOM     43  N   UNL A   1      41.734  27.749  28.417  1.00  0.00    -0.354 N 
ATOM     44  C   UNL A   1      41.240  28.695  32.504  1.00  0.00     0.074 A 
ATOM     45  C   UNL A   1      39.907  28.155  32.599  1.00  0.00     0.031 C 
ATOM     46  C   UNL A   1      41.121  27.330  26.313  1.00  0.00     0.029 A 
ATOM     47  C   UNL A   1      42.073  26.952  27.339  1.00  0.00     0.049 A 
ATOM     48  H   UNL A   1      42.249  27.761  29.257  1.00  0.00     0.167 HD
ATOM     49  C   UNL A   1      42.313  28.595  33.344  1.00  0.00     0.037 A 
ATOM     50  C   UNL A   1      43.072  26.044  27.275  1.00  0.00     0.037 A 
ATOM     51  C   UNL A   1      43.382  29.469  32.941  1.00  0.00     0.049 A 
ATOM     52  C   UNL A   1      44.060  26.392  28.319  1.00  0.00     0.074 A 
ATOM     53  C   UNL A   1      43.518  30.834  32.766  1.00  0.00     0.029 A 
ATOM     54  N   UNL A   1      44.493  28.927  32.347  1.00  0.00    -0.354 N 
ATOM     55  N   UNL A   1      44.817  27.453  28.289  1.00  0.00    -0.248 NA
ATOM     56  C   UNL A   1      43.962  25.728  29.610  1.00  0.00     0.031 C 
ATOM     57  C   UNL A   1      44.385  30.976  31.640  1.00  0.00     0.029 A 
ATOM     58  C   UNL A   1      44.742  29.690  31.236  1.00  0.00     0.049 A 
ATOM     59  H   UNL A   1      45.009  28.148  32.657  1.00  0.00     0.167 HD
ATOM     60  C   UNL A   1      44.945  27.830  29.615  1.00  0.00     0.074 A 
ATOM     61  C   UNL A   1      44.510  26.668  30.383  1.00  0.00     0.031 C 
ATOM     62  C   UNL A   1      45.129  29.137  29.962  1.00  0.00     0.037 A 
BRANCH  49  63
ATOM     63  C   UNL A   1      42.534  27.503  34.369  1.00  0.00     0.064 A 
ATOM     64  C   UNL A   1      43.075  26.262  33.960  1.00  0.00     0.173 A 
ATOM     65  C   UNL A   1      41.959  27.513  35.656  1.00  0.00     0.173 A 
ATOM     66  F   UNL A   1      43.639  26.125  32.751  1.00  0.00    -0.203 F 
ATOM     67  C   UNL A   1      42.962  25.107  34.740  1.00  0.00     0.198 A 
ATOM     68  C   UNL A   1      41.896  26.369  36.455  1.00  0.00     0.198 A 
ATOM     69  F   UNL A   1      41.342  28.594  36.146  1.00  0.00    -0.203 F 
ATOM     70  F   UNL A   1      43.369  23.929  34.249  1.00  0.00    -0.200 F 
ATOM     71  C   UNL A   1      42.363  25.160  35.984  1.00  0.00     0.200 A 
ATOM     72  F   UNL A   1      41.300  26.436  37.654  1.00  0.00    -0.200 F 
ATOM     73  F   UNL A   1      42.193  24.044  36.706  1.00  0.00    -0.200 F 
ENDBRANCH  49  63
BRANCH  50  74
ATOM     74  C   UNL A   1      43.139  24.792  26.496  1.00  0.00     0.064 A 
ATOM     75  C   UNL A   1      43.992  24.672  25.390  1.00  0.00     0.173 A 
ATOM     76  C   UNL A   1      42.575  23.601  26.992  1.00  0.00     0.173 A 
ATOM     77  F   UNL A   1      44.594  25.757  24.881  1.00  0.00    -0.203 F 
ATOM     78  C   UNL A   1      44.294  23.427  24.832  1.00  0.00     0.198 A 
ATOM     79  C   UNL A   1      42.870  22.360  26.430  1.00  0.00     0.198 A 
ATOM     80  F   UNL A   1      41.803  23.611  28.089  1.00  0.00    -0.203 F 
ATOM     81  F   UNL A   1      45.166  23.344  23.818  1.00  0.00    -0.200 F 
ATOM     82  C   UNL A   1      43.743  22.272  25.361  1.00  0.00     0.200 A 
ATOM     83  F   UNL A   1      42.355  21.246  26.970  1.00  0.00    -0.200 F 
ATOM     84  F   UNL A   1      44.084  21.073  24.870  1.00  0.00    -0.200 F 
ENDBRANCH  50  74
BRANCH  62  85
ATOM     85  C   UNL A   1      45.483  30.111  28.877  1.00  0.00     0.064 A 
ATOM     86  C   UNL A   1      44.539  30.732  28.041  1.00  0.00     0.173 A 
ATOM     87  C   UNL A   1      46.814  30.535  28.768  1.00  0.00     0.173 A 
ATOM     88  F   UNL A   1      43.233  30.462  28.157  1.00  0.00    -0.203 F 
ATOM     89  C   UNL A   1      44.919  31.689  27.104  1.00  0.00     0.198 A 
ATOM     90  C   UNL A   1      47.186  31.520  27.857  1.00  0.00     0.198 A 
ATOM     91  F   UNL A   1      47.752  30.024  29.583  1.00  0.00    -0.203 F 
ATOM     92  F   UNL A   1      43.999  32.252  26.306  1.00  0.00    -0.200 F 
ATOM     93  C   UNL A   1      46.242  32.087  27.016  1.00  0.00     0.200 A 
ATOM     94  F   UNL A   1      48.460  31.938  27.811  1.00  0.00    -0.200 F 
ATOM     95  F   UNL A   1      46.604  33.036  26.141  1.00  0.00    -0.200 F 
ENDBRANCH  62  85
ENDBRANCH  36  37
ENDBRANCH  28  31
ENDBRANCH  26  27
ENDBRANCH  25  26
ENDBRANCH  24  25
ENDBRANCH   3  24
TORSDOF 17
ENDMDL
MODEL 2
REMARK VINA RESULT:     -11.6      1.573      2.079
REMARK SMILES CSCC[C@@H](CO)n1ccnc1-c1ccccc1C(=O)NCCCNC(=O)c1ccc(-c2c3nc(c(-c4c(F)c(F)c(F)c(F)c4F)c4ccc([nH]4)c(-c4c(F)c(F)c(F)c(F)c4F)c4nc(c(-c5c(F)c(F)c(F)c(F)c5F)c5ccc2[nH]5)C=C4)C=C3)cc1
REMARK SMILES IDX 19 1 20 2 21 3 18 5 13 6 14 7 15 8 17 9 16 10 12 11 8 12
REMARK SMILES IDX 9 13 10 14 11 15 5 16 4 17 3 18 2 19 1 20 6 21 7 22 22 24
REMARK SMILES IDX 23 25 24 26 25 27 26 28 27 30 28 31 29 32 90 33 30 34 89 35
REMARK SMILES IDX 31 36 32 37 33 38 83 39 34 40 88 41 82 42 84 43 35 44 87 45
REMARK SMILES IDX 81 46 80 47 36 49 68 50 48 51 67 52 49 53 52 54 66 55 85 56
REMARK SMILES IDX 50 57 51 58 65 60 86 61 53 62 37 63 38 64 46 65 39 66 40 67
REMARK SMILES IDX 44 68 47 69 41 70 42 71 45 72 43 73 69 74 70 75 78 76 71 77
REMARK SMILES IDX 72 78 76 79 79 80 73 81 74 82 77 83 75 84 54 85 55 86 63 87
REMARK SMILES IDX 56 88 57 89 61 90 64 91 58 92 59 93 62 94 60 95
REMARK H PARENT 21 4 7 23 25 29 84 48 52 59
REMARK Flexibility Score: inf
ROOT
ATOM      1  C   UNL A   1      32.075  28.252  27.397  1.00  0.00     0.252 C 
ATOM      2  O   UNL A   1      31.352  27.806  28.288  1.00  0.00    -0.269 OA
ATOM      3  N   UNL A   1      33.267  28.842  27.746  1.00  0.00    -0.352 N 
ATOM      4  H   UNL A   1      33.371  29.077  28.696  1.00  0.00     0.163 HD
ENDROOT
BRANCH   1   5
ATOM      5  C   UNL A   1      31.584  28.190  25.996  1.00  0.00     0.050 A 
ATOM      6  C   UNL A   1      31.404  27.040  25.207  1.00  0.00     0.030 A 
ATOM      7  C   UNL A   1      31.006  27.219  23.863  1.00  0.00     0.013 A 
ATOM      8  C   UNL A   1      30.725  28.481  23.336  1.00  0.00     0.001 A 
ATOM      9  C   UNL A   1      31.252  29.457  25.466  1.00  0.00     0.014 A 
ATOM     10  C   UNL A   1      30.826  29.602  24.146  1.00  0.00     0.001 A 
BRANCH   6  11
ATOM     11  C   UNL A   1      31.667  25.650  25.603  1.00  0.00     0.141 A 
ATOM     12  N   UNL A   1      32.677  24.798  25.174  1.00  0.00    -0.326 N 
ATOM     13  C   UNL A   1      32.477  23.582  25.788  1.00  0.00     0.108 A 
ATOM     14  C   UNL A   1      31.365  23.738  26.572  1.00  0.00     0.131 A 
ATOM     15  N   UNL A   1      30.885  25.010  26.463  1.00  0.00    -0.237 NA
BRANCH  12  16
ATOM     16  C   UNL A   1      33.785  25.097  24.261  1.00  0.00     0.115 C 
BRANCH  16  17
ATOM     17  C   UNL A   1      35.087  24.434  24.746  1.00  0.00     0.039 C 
BRANCH  17  18
ATOM     18  C   UNL A   1      35.644  23.347  23.825  1.00  0.00     0.071 C 
BRANCH  18  19
ATOM     19  S   UNL A   1      36.018  21.769  24.666  1.00  0.00    -0.165 SA
ATOM     20  C   UNL A   1      37.479  22.215  25.643  1.00  0.00     0.085 C 
ENDBRANCH  18  19
ENDBRANCH  17  18
ENDBRANCH  16  17
BRANCH  16  21
ATOM     21  C   UNL A   1      33.445  24.760  22.791  1.00  0.00     0.181 C 
BRANCH  21  22
ATOM     22  O   UNL A   1      33.864  25.743  21.856  1.00  0.00    -0.394 OA
ATOM     23  H   UNL A   1      33.655  25.443  20.957  1.00  0.00     0.210 HD
ENDBRANCH  21  22
ENDBRANCH  16  21
ENDBRANCH  12  16
ENDBRANCH   6  11
ENDBRANCH   1   5
BRANCH   3  24
ATOM     24  C   UNL A   1      34.389  29.160  26.886  1.00  0.00     0.118 C 
BRANCH  24  25
ATOM     25  C   UNL A   1      35.758  29.197  27.543  1.00  0.00     0.042 C 
BRANCH  25  26
ATOM     26  C   UNL A   1      36.279  30.615  27.758  1.00  0.00     0.118 C 
BRANCH  26  27
ATOM     27  N   UNL A   1      35.394  31.535  28.480  1.00  0.00    -0.352 N 
ATOM     28  C   UNL A   1      35.489  31.899  29.816  1.00  0.00     0.251 C 
ATOM     29  H   UNL A   1      34.657  31.933  27.964  1.00  0.00     0.163 HD
ATOM     30  O   UNL A   1      34.651  32.594  30.378  1.00  0.00    -0.269 OA
BRANCH  28  31
ATOM     31  C   UNL A   1      36.639  31.356  30.565  1.00  0.00     0.039 A 
ATOM     32  C   UNL A   1      36.572  30.060  31.076  1.00  0.00     0.014 A 
ATOM     33  C   UNL A   1      37.855  32.020  30.431  1.00  0.00     0.014 A 
ATOM     34  C   UNL A   1      37.761  29.362  31.275  1.00  0.00     0.010 A 
ATOM     35  C   UNL A   1      39.019  31.278  30.501  1.00  0.00     0.010 A 
ATOM     36  C   UNL A   1      38.990  29.935  30.896  1.00  0.00    -0.014 A 
BRANCH  36  37
ATOM     37  C   UNL A   1      40.170  29.062  30.738  1.00  0.00     0.031 A 
ATOM     38  C   UNL A   1      40.921  28.699  31.993  1.00  0.00     0.074 A 
ATOM     39  C   UNL A   1      40.506  28.384  29.619  1.00  0.00     0.049 A 
ATOM     40  N   UNL A   1      42.169  28.916  32.270  1.00  0.00    -0.248 NA
ATOM     41  C   UNL A   1      40.186  28.033  33.080  1.00  0.00     0.031 C 
ATOM     42  C   UNL A   1      39.795  28.280  28.342  1.00  0.00     0.029 A 
ATOM     43  N   UNL A   1      41.564  27.535  29.442  1.00  0.00    -0.354 N 
ATOM     44  C   UNL A   1      42.421  28.312  33.504  1.00  0.00     0.074 A 
ATOM     45  C   UNL A   1      41.145  27.854  33.993  1.00  0.00     0.031 C 
ATOM     46  C   UNL A   1      40.305  27.258  27.620  1.00  0.00     0.029 A 
ATOM     47  C   UNL A   1      41.495  26.771  28.290  1.00  0.00     0.049 A 
ATOM     48  H   UNL A   1      42.311  27.474  30.081  1.00  0.00     0.167 HD
ATOM     49  C   UNL A   1      43.690  28.103  33.967  1.00  0.00     0.037 A 
ATOM     50  C   UNL A   1      42.355  25.806  27.896  1.00  0.00     0.037 A 
ATOM     51  C   UNL A   1      44.646  28.927  33.277  1.00  0.00     0.049 A 
ATOM     52  C   UNL A   1      43.639  26.039  28.593  1.00  0.00     0.074 A 
ATOM     53  C   UNL A   1      44.823  30.287  33.104  1.00  0.00     0.029 A 
ATOM     54  N   UNL A   1      45.477  28.344  32.354  1.00  0.00    -0.354 N 
ATOM     55  N   UNL A   1      44.427  27.050  28.357  1.00  0.00    -0.248 NA
ATOM     56  C   UNL A   1      43.892  25.322  29.832  1.00  0.00     0.031 C 
ATOM     57  C   UNL A   1      45.311  30.428  31.770  1.00  0.00     0.029 A 
ATOM     58  C   UNL A   1      45.429  29.143  31.241  1.00  0.00     0.049 A 
ATOM     59  H   UNL A   1      46.002  27.520  32.468  1.00  0.00     0.167 HD
ATOM     60  C   UNL A   1      44.984  27.354  29.588  1.00  0.00     0.074 A 
ATOM     61  C   UNL A   1      44.719  26.187  30.422  1.00  0.00     0.031 C 
ATOM     62  C   UNL A   1      45.364  28.628  29.896  1.00  0.00     0.037 A 
BRANCH  49  63
ATOM     63  C   UNL A   1      44.132  26.952  34.845  1.00  0.00     0.064 A 
ATOM     64  C   UNL A   1      44.813  27.219  36.055  1.00  0.00     0.173 A 
ATOM     65  C   UNL A   1      44.189  25.613  34.406  1.00  0.00     0.173 A 
ATOM     66  F   UNL A   1      44.838  28.458  36.568  1.00  0.00    -0.203 F 
ATOM     67  C   UNL A   1      45.567  26.245  36.716  1.00  0.00     0.198 A 
ATOM     68  C   UNL A   1      44.900  24.630  35.098  1.00  0.00     0.198 A 
ATOM     69  F   UNL A   1      43.656  25.229  33.241  1.00  0.00    -0.203 F 
ATOM     70  F   UNL A   1      46.304  26.582  37.783  1.00  0.00    -0.200 F 
ATOM     71  C   UNL A   1      45.617  24.952  36.231  1.00  0.00     0.200 A 
ATOM     72  F   UNL A   1      44.948  23.384  34.606  1.00  0.00    -0.200 F 
ATOM     73  F   UNL A   1      46.391  24.032  36.823  1.00  0.00    -0.200 F 
ENDBRANCH  49  63
BRANCH  50  74
ATOM     74  C   UNL A   1      42.084  24.591  27.103  1.00  0.00     0.064 A 
ATOM     75  C   UNL A   1      42.948  24.194  26.072  1.00  0.00     0.173 A 
ATOM     76  C   UNL A   1      41.128  23.648  27.526  1.00  0.00     0.173 A 
ATOM     77  F   UNL A   1      43.908  25.023  25.637  1.00  0.00    -0.203 F 
ATOM     78  C   UNL A   1      42.883  22.912  25.519  1.00  0.00     0.198 A 
ATOM     79  C   UNL A   1      41.058  22.373  26.968  1.00  0.00     0.198 A 
ATOM     80  F   UNL A   1      40.307  23.916  28.552  1.00  0.00    -0.203 F 
ATOM     81  F   UNL A   1      43.768  22.544  24.582  1.00  0.00    -0.200 F 
ATOM     82  C   UNL A   1      41.947  21.999  25.976  1.00  0.00     0.200 A 
ATOM     83  F   UNL A   1      40.169  21.488  27.440  1.00  0.00    -0.200 F 
ATOM     84  F   UNL A   1      41.928  20.749  25.494  1.00  0.00    -0.200 F 
ENDBRANCH  50  74
BRANCH  62  85
ATOM     85  C   UNL A   1      45.440  29.629  28.780  1.00  0.00     0.064 A 
ATOM     86  C   UNL A   1      44.343  30.381  28.324  1.00  0.00     0.173 A 
ATOM     87  C   UNL A   1      46.697  29.938  28.243  1.00  0.00     0.173 A 
ATOM     88  F   UNL A   1      43.128  30.224  28.862  1.00  0.00    -0.203 F 
ATOM     89  C   UNL A   1      44.491  31.354  27.339  1.00  0.00     0.198 A 
ATOM     90  C   UNL A   1      46.849  30.937  27.287  1.00  0.00     0.198 A 
ATOM     91  F   UNL A   1      47.792  29.297  28.684  1.00  0.00    -0.203 F 
ATOM     92  F   UNL A   1      43.423  32.044  26.910  1.00  0.00    -0.200 F 
ATOM     93  C   UNL A   1      45.745  31.636  26.825  1.00  0.00     0.200 A 
ATOM     94  F   UNL A   1      48.072  31.241  26.828  1.00  0.00    -0.200 F 
ATOM     95  F   UNL A   1      45.895  32.599  25.904  1.00  0.00    -0.200 F 
ENDBRANCH  62  85
ENDBRANCH  36  37
ENDBRANCH  28  31
ENDBRANCH  26  27
ENDBRANCH  25  26
ENDBRANCH  24  25
ENDBRANCH   3  24
TORSDOF 17
ENDMDL
MODEL 3
REMARK VINA RESULT:     -11.2      3.574      8.897
REMARK SMILES CSCC[C@@H](CO)n1ccnc1-c1ccccc1C(=O)NCCCNC(=O)c1ccc(-c2c3nc(c(-c4c(F)c(F)c(F)c(F)c4F)c4ccc([nH]4)c(-c4c(F)c(F)c(F)c(F)c4F)c4nc(c(-c5c(F)c(F)c(F)c(F)c5F)c5ccc2[nH]5)C=C4)C=C3)cc1
REMARK SMILES IDX 19 1 20 2 21 3 18 5 13 6 14 7 15 8 17 9 16 10 12 11 8 12
REMARK SMILES IDX 9 13 10 14 11 15 5 16 4 17 3 18 2 19 1 20 6 21 7 22 22 24
REMARK SMILES IDX 23 25 24 26 25 27 26 28 27 30 28 31 29 32 90 33 30 34 89 35
REMARK SMILES IDX 31 36 32 37 33 38 83 39 34 40 88 41 82 42 84 43 35 44 87 45
REMARK SMILES IDX 81 46 80 47 36 49 68 50 48 51 67 52 49 53 52 54 66 55 85 56
REMARK SMILES IDX 50 57 51 58 65 60 86 61 53 62 37 63 38 64 46 65 39 66 40 67
REMARK SMILES IDX 44 68 47 69 41 70 42 71 45 72 43 73 69 74 70 75 78 76 71 77
REMARK SMILES IDX 72 78 76 79 79 80 73 81 74 82 77 83 75 84 54 85 55 86 63 87
REMARK SMILES IDX 56 88 57 89 61 90 64 91 58 92 59 93 62 94 60 95
REMARK H PARENT 21 4 7 23 25 29 84 48 52 59
REMARK Flexibility Score: inf
ROOT
ATOM      1  C   UNL A   1      34.222  22.009  26.614  1.00  0.00     0.252 C 
ATOM      2  O   UNL A   1      33.598  22.094  27.672  1.00  0.00    -0.269 OA
ATOM      3  N   UNL A   1      35.468  22.586  26.533  1.00  0.00    -0.352 N 
ATOM      4  H   UNL A   1      35.695  23.225  27.246  1.00  0.00     0.163 HD
ENDROOT
BRANCH   1   5
ATOM      5  C   UNL A   1      33.562  21.347  25.459  1.00  0.00     0.050 A 
ATOM      6  C   UNL A   1      33.194  21.934  24.236  1.00  0.00     0.030 A 
ATOM      7  C   UNL A   1      32.495  21.135  23.305  1.00  0.00     0.013 A 
ATOM      8  C   UNL A   1      32.233  19.784  23.539  1.00  0.00     0.001 A 
ATOM      9  C   UNL A   1      33.332  19.967  25.666  1.00  0.00     0.014 A 
ATOM     10  C   UNL A   1      32.672  19.192  24.713  1.00  0.00     0.001 A 
BRANCH   6  11
ATOM     11  C   UNL A   1      33.383  23.337  23.841  1.00  0.00     0.141 A 
ATOM     12  N   UNL A   1      32.883  24.485  24.440  1.00  0.00    -0.326 N 
ATOM     13  C   UNL A   1      33.288  25.557  23.677  1.00  0.00     0.108 A 
ATOM     14  C   UNL A   1      34.026  25.028  22.651  1.00  0.00     0.131 A 
ATOM     15  N   UNL A   1      34.089  23.670  22.768  1.00  0.00    -0.237 NA
BRANCH  12  16
ATOM     16  C   UNL A   1      32.089  24.593  25.669  1.00  0.00     0.115 C 
BRANCH  16  17
ATOM     17  C   UNL A   1      32.393  25.912  26.402  1.00  0.00     0.039 C 
BRANCH  17  18
ATOM     18  C   UNL A   1      31.251  26.930  26.406  1.00  0.00     0.071 C 
BRANCH  18  19
ATOM     19  S   UNL A   1      31.610  28.467  25.488  1.00  0.00    -0.165 SA
ATOM     20  C   UNL A   1      33.231  28.923  26.163  1.00  0.00     0.085 C 
ENDBRANCH  18  19
ENDBRANCH  17  18
ENDBRANCH  16  17
BRANCH  16  21
ATOM     21  C   UNL A   1      30.581  24.373  25.418  1.00  0.00     0.181 C 
BRANCH  21  22
ATOM     22  O   UNL A   1      30.078  23.144  25.923  1.00  0.00    -0.394 OA
ATOM     23  H   UNL A   1      29.426  22.782  25.302  1.00  0.00     0.210 HD
ENDBRANCH  21  22
ENDBRANCH  16  21
ENDBRANCH  12  16
ENDBRANCH   6  11
ENDBRANCH   1   5
BRANCH   3  24
ATOM     24  C   UNL A   1      36.486  22.368  25.527  1.00  0.00     0.118 C 
BRANCH  24  25
ATOM     25  C   UNL A   1      37.408  23.539  25.230  1.00  0.00     0.042 C 
BRANCH  25  26
ATOM     26  C   UNL A   1      38.302  23.910  26.410  1.00  0.00     0.118 C 
BRANCH  26  27
ATOM     27  N   UNL A   1      39.117  22.831  26.978  1.00  0.00    -0.352 N 
ATOM     28  C   UNL A   1      40.436  22.923  27.399  1.00  0.00     0.251 C 
ATOM     29  H   UNL A   1      38.683  21.952  27.069  1.00  0.00     0.163 HD
ATOM     30  O   UNL A   1      41.086  21.952  27.768  1.00  0.00    -0.269 OA
BRANCH  28  31
ATOM     31  C   UNL A   1      41.056  24.260  27.328  1.00  0.00     0.039 A 
ATOM     32  C   UNL A   1      40.462  25.249  26.546  1.00  0.00     0.014 A 
ATOM     33  C   UNL A   1      41.997  24.576  28.304  1.00  0.00     0.014 A 
ATOM     34  C   UNL A   1      40.681  26.584  26.883  1.00  0.00     0.010 A 
ATOM     35  C   UNL A   1      42.100  25.892  28.715  1.00  0.00     0.010 A 
ATOM     36  C   UNL A   1      41.426  26.910  28.031  1.00  0.00    -0.014 A 
BRANCH  36  37
ATOM     37  C   UNL A   1      41.317  28.271  28.594  1.00  0.00     0.031 A 
ATOM     38  C   UNL A   1      42.351  29.274  28.152  1.00  0.00     0.074 A 
ATOM     39  C   UNL A   1      40.263  28.759  29.284  1.00  0.00     0.049 A 
ATOM     40  N   UNL A   1      43.180  29.946  28.888  1.00  0.00    -0.248 NA
ATOM     41  C   UNL A   1      42.494  29.544  26.712  1.00  0.00     0.031 C 
ATOM     42  C   UNL A   1      38.976  28.128  29.591  1.00  0.00     0.029 A 
ATOM     43  N   UNL A   1      40.104  30.021  29.785  1.00  0.00    -0.354 N 
ATOM     44  C   UNL A   1      43.865  30.816  28.036  1.00  0.00     0.074 A 
ATOM     45  C   UNL A   1      43.460  30.467  26.698  1.00  0.00     0.031 C 
ATOM     46  C   UNL A   1      38.100  29.066  30.012  1.00  0.00     0.029 A 
ATOM     47  C   UNL A   1      38.815  30.314  30.193  1.00  0.00     0.049 A 
ATOM     48  H   UNL A   1      40.846  30.666  29.850  1.00  0.00     0.167 HD
ATOM     49  C   UNL A   1      44.611  31.860  28.507  1.00  0.00     0.037 A 
ATOM     50  C   UNL A   1      38.353  31.496  30.658  1.00  0.00     0.037 A 
ATOM     51  C   UNL A   1      44.935  31.693  29.899  1.00  0.00     0.049 A 
ATOM     52  C   UNL A   1      39.514  32.266  31.155  1.00  0.00     0.074 A 
ATOM     53  C   UNL A   1      45.614  30.742  30.638  1.00  0.00     0.029 A 
ATOM     54  N   UNL A   1      44.278  32.458  30.828  1.00  0.00    -0.354 N 
ATOM     55  N   UNL A   1      40.207  31.947  32.212  1.00  0.00    -0.248 NA
ATOM     56  C   UNL A   1      40.143  33.222  30.258  1.00  0.00     0.031 C 
ATOM     57  C   UNL A   1      44.905  30.663  31.875  1.00  0.00     0.029 A 
ATOM     58  C   UNL A   1      43.869  31.595  31.812  1.00  0.00     0.049 A 
ATOM     59  H   UNL A   1      44.131  33.430  30.797  1.00  0.00     0.167 HD
ATOM     60  C   UNL A   1      41.505  32.321  31.906  1.00  0.00     0.074 A 
ATOM     61  C   UNL A   1      41.381  33.209  30.756  1.00  0.00     0.031 C 
ATOM     62  C   UNL A   1      42.574  31.662  32.440  1.00  0.00     0.037 A 
BRANCH  49  63
ATOM     63  C   UNL A   1      44.815  33.186  27.806  1.00  0.00     0.064 A 
ATOM     64  C   UNL A   1      46.109  33.550  27.366  1.00  0.00     0.173 A 
ATOM     65  C   UNL A   1      43.870  34.233  27.824  1.00  0.00     0.173 A 
ATOM     66  F   UNL A   1      47.096  32.643  27.316  1.00  0.00    -0.203 F 
ATOM     67  C   UNL A   1      46.448  34.872  27.062  1.00  0.00     0.198 A 
ATOM     68  C   UNL A   1      44.199  35.542  27.468  1.00  0.00     0.198 A 
ATOM     69  F   UNL A   1      42.628  34.054  28.287  1.00  0.00    -0.203 F 
ATOM     70  F   UNL A   1      47.720  35.186  26.782  1.00  0.00    -0.200 F 
ATOM     71  C   UNL A   1      45.494  35.869  27.122  1.00  0.00     0.200 A 
ATOM     72  F   UNL A   1      43.264  36.500  27.543  1.00  0.00    -0.200 F 
ATOM     73  F   UNL A   1      45.829  37.146  26.896  1.00  0.00    -0.200 F 
ENDBRANCH  49  63
BRANCH  50  74
ATOM     74  C   UNL A   1      37.002  32.078  30.532  1.00  0.00     0.064 A 
ATOM     75  C   UNL A   1      36.089  32.024  31.596  1.00  0.00     0.173 A 
ATOM     76  C   UNL A   1      36.682  32.941  29.468  1.00  0.00     0.173 A 
ATOM     77  F   UNL A   1      36.339  31.251  32.663  1.00  0.00    -0.203 F 
ATOM     78  C   UNL A   1      34.939  32.817  31.610  1.00  0.00     0.198 A 
ATOM     79  C   UNL A   1      35.530  33.725  29.479  1.00  0.00     0.198 A 
ATOM     80  F   UNL A   1      37.530  33.109  28.441  1.00  0.00    -0.203 F 
ATOM     81  F   UNL A   1      34.124  32.789  32.674  1.00  0.00    -0.200 F 
ATOM     82  C   UNL A   1      34.667  33.676  30.559  1.00  0.00     0.200 A 
ATOM     83  F   UNL A   1      35.294  34.576  28.470  1.00  0.00    -0.200 F 
ATOM     84  F   UNL A   1      33.600  34.484  30.603  1.00  0.00    -0.200 F 
ENDBRANCH  50  74
BRANCH  62  85
ATOM     85  C   UNL A   1      42.323  30.723  33.584  1.00  0.00     0.064 A 
ATOM     86  C   UNL A   1      42.311  31.116  34.934  1.00  0.00     0.173 A 
ATOM     87  C   UNL A   1      41.946  29.404  33.296  1.00  0.00     0.173 A 
ATOM     88  F   UNL A   1      42.553  32.385  35.284  1.00  0.00    -0.203 F 
ATOM     89  C   UNL A   1      41.992  30.217  35.948  1.00  0.00     0.198 A 
ATOM     90  C   UNL A   1      41.590  28.517  34.308  1.00  0.00     0.198 A 
ATOM     91  F   UNL A   1      41.878  28.987  32.021  1.00  0.00    -0.203 F 
ATOM     92  F   UNL A   1      42.007  30.615  37.229  1.00  0.00    -0.200 F 
ATOM     93  C   UNL A   1      41.626  28.919  35.634  1.00  0.00     0.200 A 
ATOM     94  F   UNL A   1      41.188  27.276  33.996  1.00  0.00    -0.200 F 
ATOM     95  F   UNL A   1      41.282  28.062  36.606  1.00  0.00    -0.200 F 
ENDBRANCH  62  85
ENDBRANCH  36  37
ENDBRANCH  28  31
ENDBRANCH  26  27
ENDBRANCH  25  26
ENDBRANCH  24  25
ENDBRANCH   3  24
TORSDOF 17
ENDMDL
