MODEL 1
REMARK VINA RESULT:     -13.8      0.000      0.000
REMARK SMILES O=C(NCCCNC(=O)[C@H]1Cc2[nH]cnc2CN1C(=O)C[C@]12C[C@H]3C[C@H](C[C@H](C3)C1)C2)c1ccc(-c2c3nc(c(-c4c(F)c(F)c(F)c(F)c4F)c4ccc([nH]4)c(-c4c(F)c(F)c(F)c(F)c4F)c4nc(c(-c5c(F)c(F)c(F)c(F)c5F)c5ccc2[nH]5)C=C4)C=C3)cc1
REMARK SMILES IDX 5 1 4 2 3 3 1 4 2 5 32 7 33 8 94 9 34 10 93 11 35 12 36 13
REMARK SMILES IDX 37 14 87 15 38 16 92 17 86 18 88 19 39 20 91 21 85 22 84 23
REMARK SMILES IDX 40 25 72 26 52 27 71 28 53 29 56 30 70 31 89 32 54 33 55 34
REMARK SMILES IDX 69 36 90 37 57 38 41 39 42 40 50 41 43 42 44 43 48 44 51 45
REMARK SMILES IDX 45 46 46 47 49 48 47 49 73 50 74 51 82 52 75 53 76 54 80 55
REMARK SMILES IDX 83 56 77 57 78 58 81 59 79 60 58 61 59 62 67 63 60 64 61 65
REMARK SMILES IDX 65 66 68 67 62 68 63 69 66 70 64 71 6 72 7 73 8 74 9 76
REMARK SMILES IDX 10 77 11 78 18 79 12 80 17 81 13 82 16 83 14 84 15 86 19 87
REMARK SMILES IDX 20 88 21 89 22 90 23 91 30 92 31 93 24 94 28 95 26 96 25 97
REMARK SMILES IDX 29 98 27 99
REMARK H PARENT 3 6 88 24 56 35 7 75 13 85
REMARK Flexibility Score: inf
ROOT
ATOM      1  C   UNL A   1      38.900  22.900  26.497  1.00  0.00     0.042 C 
ENDROOT
BRANCH   1   2
ATOM      2  C   UNL A   1      40.136  22.025  26.723  1.00  0.00     0.118 C 
BRANCH   2   3
ATOM      3  N   UNL A   1      41.223  22.240  25.785  1.00  0.00    -0.352 N 
ATOM      4  O   UNL A   1      43.016  23.020  24.745  1.00  0.00    -0.269 OA
ATOM      5  C   UNL A   1      42.148  23.227  25.606  1.00  0.00     0.251 C 
ATOM      6  H   UNL A   1      41.314  21.509  25.131  1.00  0.00     0.163 HD
BRANCH   5   7
ATOM      7  C   UNL A   1      42.141  24.538  26.306  1.00  0.00     0.039 A 
ATOM      8  C   UNL A   1      42.822  24.816  27.492  1.00  0.00     0.014 A 
ATOM      9  C   UNL A   1      41.361  25.555  25.728  1.00  0.00     0.014 A 
ATOM     10  C   UNL A   1      42.620  26.018  28.159  1.00  0.00     0.010 A 
ATOM     11  C   UNL A   1      41.200  26.783  26.363  1.00  0.00     0.010 A 
ATOM     12  C   UNL A   1      41.791  26.994  27.607  1.00  0.00    -0.014 A 
BRANCH  12  13
ATOM     13  C   UNL A   1      41.651  28.251  28.338  1.00  0.00     0.031 A 
ATOM     14  C   UNL A   1      42.731  29.264  28.140  1.00  0.00     0.074 A 
ATOM     15  C   UNL A   1      40.555  28.572  29.051  1.00  0.00     0.049 A 
ATOM     16  N   UNL A   1      43.432  29.891  29.032  1.00  0.00    -0.248 NA
ATOM     17  C   UNL A   1      43.092  29.601  26.753  1.00  0.00     0.031 C 
ATOM     18  C   UNL A   1      39.280  27.858  29.115  1.00  0.00     0.029 A 
ATOM     19  N   UNL A   1      40.324  29.696  29.792  1.00  0.00    -0.354 N 
ATOM     20  C   UNL A   1      44.220  30.807  28.335  1.00  0.00     0.074 A 
ATOM     21  C   UNL A   1      44.031  30.529  26.935  1.00  0.00     0.031 C 
ATOM     22  C   UNL A   1      38.348  28.667  29.665  1.00  0.00     0.029 A 
ATOM     23  C   UNL A   1      38.991  29.896  30.101  1.00  0.00     0.049 A 
ATOM     24  H   UNL A   1      41.041  30.308  30.078  1.00  0.00     0.167 HD
ATOM     25  C   UNL A   1      44.852  31.847  28.949  1.00  0.00     0.037 A 
ATOM     26  C   UNL A   1      38.439  31.023  30.606  1.00  0.00     0.037 A 
ATOM     27  C   UNL A   1      45.034  31.618  30.354  1.00  0.00     0.049 A 
ATOM     28  C   UNL A   1      39.514  31.837  31.218  1.00  0.00     0.074 A 
ATOM     29  C   UNL A   1      45.691  30.668  31.112  1.00  0.00     0.029 A 
ATOM     30  N   UNL A   1      44.267  32.318  31.249  1.00  0.00    -0.354 N 
ATOM     31  N   UNL A   1      40.147  31.524  32.314  1.00  0.00    -0.248 NA
ATOM     32  C   UNL A   1      40.149  32.860  30.401  1.00  0.00     0.031 C 
ATOM     33  C   UNL A   1      44.912  30.530  32.299  1.00  0.00     0.029 A 
ATOM     34  C   UNL A   1      43.839  31.412  32.183  1.00  0.00     0.049 A 
ATOM     35  H   UNL A   1      44.064  33.281  31.226  1.00  0.00     0.167 HD
ATOM     36  C   UNL A   1      41.435  31.998  32.124  1.00  0.00     0.074 A 
ATOM     37  C   UNL A   1      41.344  32.912  30.992  1.00  0.00     0.031 C 
ATOM     38  C   UNL A   1      42.502  31.395  32.723  1.00  0.00     0.037 A 
BRANCH  25  39
ATOM     39  C   UNL A   1      45.042  33.211  28.328  1.00  0.00     0.064 A 
ATOM     40  C   UNL A   1      46.345  33.716  28.140  1.00  0.00     0.173 A 
ATOM     41  C   UNL A   1      44.000  34.155  28.200  1.00  0.00     0.173 A 
ATOM     42  F   UNL A   1      47.413  32.914  28.259  1.00  0.00    -0.203 F 
ATOM     43  C   UNL A   1      46.589  35.076  27.924  1.00  0.00     0.198 A 
ATOM     44  C   UNL A   1      44.243  35.502  27.930  1.00  0.00     0.198 A 
ATOM     45  F   UNL A   1      42.722  33.836  28.439  1.00  0.00    -0.203 F 
ATOM     46  F   UNL A   1      47.849  35.528  27.884  1.00  0.00    -0.200 F 
ATOM     47  C   UNL A   1      45.537  35.968  27.825  1.00  0.00     0.200 A 
ATOM     48  F   UNL A   1      43.213  36.356  27.854  1.00  0.00    -0.200 F 
ATOM     49  F   UNL A   1      45.769  37.280  27.684  1.00  0.00    -0.200 F 
ENDBRANCH  25  39
BRANCH  26  50
ATOM     50  C   UNL A   1      37.083  31.556  30.350  1.00  0.00     0.064 A 
ATOM     51  C   UNL A   1      36.164  31.743  31.393  1.00  0.00     0.173 A 
ATOM     52  C   UNL A   1      36.748  32.127  29.106  1.00  0.00     0.173 A 
ATOM     53  F   UNL A   1      36.433  31.276  32.620  1.00  0.00    -0.203 F 
ATOM     54  C   UNL A   1      34.983  32.466  31.203  1.00  0.00     0.198 A 
ATOM     55  C   UNL A   1      35.564  32.836  28.914  1.00  0.00     0.198 A 
ATOM     56  F   UNL A   1      37.607  32.086  28.076  1.00  0.00    -0.203 F 
ATOM     57  F   UNL A   1      34.154  32.673  32.236  1.00  0.00    -0.200 F 
ATOM     58  C   UNL A   1      34.686  33.016  29.966  1.00  0.00     0.200 A 
ATOM     59  F   UNL A   1      35.307  33.392  27.721  1.00  0.00    -0.200 F 
ATOM     60  F   UNL A   1      33.577  33.749  29.798  1.00  0.00    -0.200 F 
ENDBRANCH  26  50
BRANCH  38  61
ATOM     61  C   UNL A   1      42.225  30.408  33.817  1.00  0.00     0.064 A 
ATOM     62  C   UNL A   1      41.836  29.079  33.577  1.00  0.00     0.173 A 
ATOM     63  C   UNL A   1      42.493  30.779  35.141  1.00  0.00     0.173 A 
ATOM     64  F   UNL A   1      41.673  28.623  32.329  1.00  0.00    -0.203 F 
ATOM     65  C   UNL A   1      41.669  28.178  34.626  1.00  0.00     0.198 A 
ATOM     66  C   UNL A   1      42.360  29.865  36.183  1.00  0.00     0.198 A 
ATOM     67  F   UNL A   1      42.931  32.017  35.418  1.00  0.00    -0.203 F 
ATOM     68  F   UNL A   1      41.285  26.918  34.374  1.00  0.00    -0.200 F 
ATOM     69  C   UNL A   1      41.936  28.571  35.928  1.00  0.00     0.200 A 
ATOM     70  F   UNL A   1      42.671  30.232  37.435  1.00  0.00    -0.200 F 
ATOM     71  F   UNL A   1      41.814  27.693  36.933  1.00  0.00    -0.200 F 
ENDBRANCH  38  61
ENDBRANCH  12  13
ENDBRANCH   5   7
ENDBRANCH   2   3
ENDBRANCH   1   2
BRANCH   1  72
ATOM     72  C   UNL A   1      37.901  22.341  25.484  1.00  0.00     0.117 C 
BRANCH  72  73
ATOM     73  N   UNL A   1      37.343  23.381  24.641  1.00  0.00    -0.354 N 
ATOM     74  C   UNL A   1      36.365  23.094  23.723  1.00  0.00     0.243 C 
ATOM     75  H   UNL A   1      37.671  24.305  24.729  1.00  0.00     0.163 HD
ATOM     76  O   UNL A   1      36.712  22.984  22.547  1.00  0.00    -0.273 OA
BRANCH  74  77
ATOM     77  C   UNL A   1      34.934  22.795  24.223  1.00  0.00     0.180 C 
ATOM     78  C   UNL A   1      34.604  23.278  25.683  1.00  0.00     0.091 C 
ATOM     79  N   UNL A   1      33.771  23.005  23.264  1.00  0.00    -0.324 N 
ATOM     80  C   UNL A   1      33.161  23.082  25.957  1.00  0.00     0.042 A 
ATOM     81  C   UNL A   1      32.570  22.216  23.652  1.00  0.00     0.178 C 
ATOM     82  N   UNL A   1      32.466  23.372  27.094  1.00  0.00    -0.348 N 
ATOM     83  C   UNL A   1      32.234  22.598  25.060  1.00  0.00     0.081 A 
ATOM     84  C   UNL A   1      31.165  23.014  26.858  1.00  0.00     0.197 A 
ATOM     85  H   UNL A   1      32.829  23.763  27.921  1.00  0.00     0.167 HD
ATOM     86  N   UNL A   1      30.999  22.532  25.643  1.00  0.00    -0.240 NA
BRANCH  79  87
ATOM     87  C   UNL A   1      33.515  24.037  22.359  1.00  0.00     0.224 C 
ATOM     88  O   UNL A   1      33.223  23.791  21.181  1.00  0.00    -0.275 OA
BRANCH  87  89
ATOM     89  C   UNL A   1      33.641  25.514  22.721  1.00  0.00     0.107 C 
BRANCH  89  90
ATOM     90  C   UNL A   1      32.416  26.184  23.377  1.00  0.00    -0.020 C 
ATOM     91  C   UNL A   1      32.585  26.311  24.897  1.00  0.00     0.011 C 
ATOM     92  C   UNL A   1      31.107  25.405  23.096  1.00  0.00     0.011 C 
ATOM     93  C   UNL A   1      32.245  27.618  22.799  1.00  0.00     0.011 C 
ATOM     94  C   UNL A   1      31.399  27.003  25.564  1.00  0.00    -0.010 C 
ATOM     95  C   UNL A   1      29.904  26.113  23.754  1.00  0.00    -0.010 C 
ATOM     96  C   UNL A   1      31.057  28.338  23.464  1.00  0.00    -0.010 C 
ATOM     97  C   UNL A   1      31.284  28.418  24.983  1.00  0.00     0.007 C 
ATOM     98  C   UNL A   1      30.130  26.195  25.272  1.00  0.00     0.007 C 
ATOM     99  C   UNL A   1      29.772  27.541  23.193  1.00  0.00     0.007 C 
ENDBRANCH  89  90
ENDBRANCH  87  89
ENDBRANCH  79  87
ENDBRANCH  74  77
ENDBRANCH  72  73
ENDBRANCH   1  72
TORSDOF 13
ENDMDL
MODEL 2
REMARK VINA RESULT:     -13.8      0.517      1.211
REMARK SMILES O=C(NCCCNC(=O)[C@H]1Cc2[nH]cnc2CN1C(=O)C[C@]12C[C@H]3C[C@H](C[C@H](C3)C1)C2)c1ccc(-c2c3nc(c(-c4c(F)c(F)c(F)c(F)c4F)c4ccc([nH]4)c(-c4c(F)c(F)c(F)c(F)c4F)c4nc(c(-c5c(F)c(F)c(F)c(F)c5F)c5ccc2[nH]5)C=C4)C=C3)cc1
REMARK SMILES IDX 5 1 4 2 3 3 1 4 2 5 32 7 33 8 94 9 34 10 93 11 35 12 36 13
REMARK SMILES IDX 37 14 87 15 38 16 92 17 86 18 88 19 39 20 91 21 85 22 84 23
REMARK SMILES IDX 40 25 72 26 52 27 71 28 53 29 56 30 70 31 89 32 54 33 55 34
REMARK SMILES IDX 69 36 90 37 57 38 41 39 42 40 50 41 43 42 44 43 48 44 51 45
REMARK SMILES IDX 45 46 46 47 49 48 47 49 73 50 74 51 82 52 75 53 76 54 80 55
REMARK SMILES IDX 83 56 77 57 78 58 81 59 79 60 58 61 59 62 67 63 60 64 61 65
REMARK SMILES IDX 65 66 68 67 62 68 63 69 66 70 64 71 6 72 7 73 8 74 9 76
REMARK SMILES IDX 10 77 11 78 18 79 12 80 17 81 13 82 16 83 14 84 15 86 19 87
REMARK SMILES IDX 20 88 21 89 22 90 23 91 30 92 31 93 24 94 28 95 26 96 25 97
REMARK SMILES IDX 29 98 27 99
REMARK H PARENT 3 6 88 24 56 35 7 75 13 85
REMARK Flexibility Score: inf
ROOT
ATOM      1  C   UNL A   1      38.871  22.615  26.480  1.00  0.00     0.042 C 
ENDROOT
BRANCH   1   2
ATOM      2  C   UNL A   1      40.076  21.704  26.730  1.00  0.00     0.118 C 
BRANCH   2   3
ATOM      3  N   UNL A   1      41.192  21.896  25.822  1.00  0.00    -0.352 N 
ATOM      4  O   UNL A   1      43.031  22.634  24.834  1.00  0.00    -0.269 OA
ATOM      5  C   UNL A   1      42.146  22.859  25.672  1.00  0.00     0.251 C 
ATOM      6  H   UNL A   1      41.281  21.165  25.168  1.00  0.00     0.163 HD
BRANCH   5   7
ATOM      7  C   UNL A   1      42.156  24.166  26.379  1.00  0.00     0.039 A 
ATOM      8  C   UNL A   1      42.758  24.404  27.615  1.00  0.00     0.014 A 
ATOM      9  C   UNL A   1      41.476  25.225  25.752  1.00  0.00     0.014 A 
ATOM     10  C   UNL A   1      42.569  25.614  28.273  1.00  0.00     0.010 A 
ATOM     11  C   UNL A   1      41.332  26.458  26.380  1.00  0.00     0.010 A 
ATOM     12  C   UNL A   1      41.837  26.634  27.667  1.00  0.00    -0.014 A 
BRANCH  12  13
ATOM     13  C   UNL A   1      41.708  27.895  28.394  1.00  0.00     0.031 A 
ATOM     14  C   UNL A   1      42.800  28.895  28.196  1.00  0.00     0.074 A 
ATOM     15  C   UNL A   1      40.613  28.229  29.103  1.00  0.00     0.049 A 
ATOM     16  N   UNL A   1      43.504  29.517  29.090  1.00  0.00    -0.248 NA
ATOM     17  C   UNL A   1      43.168  29.224  26.810  1.00  0.00     0.031 C 
ATOM     18  C   UNL A   1      39.330  27.528  29.164  1.00  0.00     0.029 A 
ATOM     19  N   UNL A   1      40.392  29.358  29.839  1.00  0.00    -0.354 N 
ATOM     20  C   UNL A   1      44.304  30.423  28.392  1.00  0.00     0.074 A 
ATOM     21  C   UNL A   1      44.116  30.142  26.992  1.00  0.00     0.031 C 
ATOM     22  C   UNL A   1      38.405  28.349  29.709  1.00  0.00     0.029 A 
ATOM     23  C   UNL A   1      39.060  29.572  30.144  1.00  0.00     0.049 A 
ATOM     24  H   UNL A   1      41.114  29.962  30.126  1.00  0.00     0.167 HD
ATOM     25  C   UNL A   1      44.945  31.457  29.005  1.00  0.00     0.037 A 
ATOM     26  C   UNL A   1      38.518  30.707  30.644  1.00  0.00     0.037 A 
ATOM     27  C   UNL A   1      45.120  31.231  30.412  1.00  0.00     0.049 A 
ATOM     28  C   UNL A   1      39.600  31.511  31.258  1.00  0.00     0.074 A 
ATOM     29  C   UNL A   1      45.765  30.275  31.175  1.00  0.00     0.029 A 
ATOM     30  N   UNL A   1      44.358  31.941  31.302  1.00  0.00    -0.354 N 
ATOM     31  N   UNL A   1      40.226  31.194  32.356  1.00  0.00    -0.248 NA
ATOM     32  C   UNL A   1      40.248  32.525  30.439  1.00  0.00     0.031 C 
ATOM     33  C   UNL A   1      44.980  30.149  32.359  1.00  0.00     0.029 A 
ATOM     34  C   UNL A   1      43.917  31.043  32.237  1.00  0.00     0.049 A 
ATOM     35  H   UNL A   1      44.165  32.907  31.276  1.00  0.00     0.167 HD
ATOM     36  C   UNL A   1      41.519  31.654  32.169  1.00  0.00     0.074 A 
ATOM     37  C   UNL A   1      41.442  32.565  31.034  1.00  0.00     0.031 C 
ATOM     38  C   UNL A   1      42.578  31.041  32.773  1.00  0.00     0.037 A 
BRANCH  25  39
ATOM     39  C   UNL A   1      45.151  32.817  28.382  1.00  0.00     0.064 A 
ATOM     40  C   UNL A   1      44.032  33.586  27.999  1.00  0.00     0.173 A 
ATOM     41  C   UNL A   1      46.392  33.254  27.869  1.00  0.00     0.173 A 
ATOM     42  F   UNL A   1      42.800  33.252  28.409  1.00  0.00    -0.203 F 
ATOM     43  C   UNL A   1      44.140  34.657  27.105  1.00  0.00     0.198 A 
ATOM     44  C   UNL A   1      46.503  34.357  27.022  1.00  0.00     0.198 A 
ATOM     45  F   UNL A   1      47.524  32.570  28.077  1.00  0.00    -0.203 F 
ATOM     46  F   UNL A   1      43.034  35.273  26.669  1.00  0.00    -0.200 F 
ATOM     47  C   UNL A   1      45.375  35.037  26.613  1.00  0.00     0.200 A 
ATOM     48  F   UNL A   1      47.706  34.701  26.541  1.00  0.00    -0.200 F 
ATOM     49  F   UNL A   1      45.474  36.020  25.709  1.00  0.00    -0.200 F 
ENDBRANCH  25  39
BRANCH  26  50
ATOM     50  C   UNL A   1      37.169  31.254  30.382  1.00  0.00     0.064 A 
ATOM     51  C   UNL A   1      36.305  31.598  31.432  1.00  0.00     0.173 A 
ATOM     52  C   UNL A   1      36.794  31.682  29.093  1.00  0.00     0.173 A 
ATOM     53  F   UNL A   1      36.616  31.273  32.695  1.00  0.00    -0.203 F 
ATOM     54  C   UNL A   1      35.139  32.335  31.206  1.00  0.00     0.198 A 
ATOM     55  C   UNL A   1      35.625  32.405  28.866  1.00  0.00     0.198 A 
ATOM     56  F   UNL A   1      37.603  31.487  28.041  1.00  0.00    -0.203 F 
ATOM     57  F   UNL A   1      34.365  32.694  32.240  1.00  0.00    -0.200 F 
ATOM     58  C   UNL A   1      34.802  32.741  29.924  1.00  0.00     0.200 A 
ATOM     59  F   UNL A   1      35.331  32.822  27.626  1.00  0.00    -0.200 F 
ATOM     60  F   UNL A   1      33.710  33.489  29.714  1.00  0.00    -0.200 F 
ENDBRANCH  26  50
BRANCH  38  61
ATOM     61  C   UNL A   1      42.287  30.061  33.869  1.00  0.00     0.064 A 
ATOM     62  C   UNL A   1      41.857  28.744  33.632  1.00  0.00     0.173 A 
ATOM     63  C   UNL A   1      42.583  30.420  35.190  1.00  0.00     0.173 A 
ATOM     64  F   UNL A   1      41.664  28.296  32.385  1.00  0.00    -0.203 F 
ATOM     65  C   UNL A   1      41.678  27.846  34.682  1.00  0.00     0.198 A 
ATOM     66  C   UNL A   1      42.438  29.509  36.233  1.00  0.00     0.198 A 
ATOM     67  F   UNL A   1      43.061  31.645  35.463  1.00  0.00    -0.203 F 
ATOM     68  F   UNL A   1      41.253  26.598  34.432  1.00  0.00    -0.200 F 
ATOM     69  C   UNL A   1      41.973  28.228  35.980  1.00  0.00     0.200 A 
ATOM     70  F   UNL A   1      42.775  29.864  37.480  1.00  0.00    -0.200 F 
ATOM     71  F   UNL A   1      41.839  27.351  36.985  1.00  0.00    -0.200 F 
ENDBRANCH  38  61
ENDBRANCH  12  13
ENDBRANCH   5   7
ENDBRANCH   2   3
ENDBRANCH   1   2
BRANCH   1  72
ATOM     72  C   UNL A   1      37.919  22.127  25.389  1.00  0.00     0.117 C 
BRANCH  72  73
ATOM     73  N   UNL A   1      37.377  23.224  24.609  1.00  0.00    -0.354 N 
ATOM     74  C   UNL A   1      36.376  23.011  23.695  1.00  0.00     0.243 C 
ATOM     75  H   UNL A   1      37.731  24.133  24.739  1.00  0.00     0.163 HD
ATOM     76  O   UNL A   1      36.702  22.953  22.509  1.00  0.00    -0.273 OA
BRANCH  74  77
ATOM     77  C   UNL A   1      34.946  22.724  24.203  1.00  0.00     0.180 C 
ATOM     78  C   UNL A   1      34.637  23.186  25.675  1.00  0.00     0.091 C 
ATOM     79  N   UNL A   1      33.777  22.968  23.259  1.00  0.00    -0.324 N 
ATOM     80  C   UNL A   1      33.193  23.007  25.959  1.00  0.00     0.042 A 
ATOM     81  C   UNL A   1      32.569  22.191  23.645  1.00  0.00     0.178 C 
ATOM     82  N   UNL A   1      32.514  23.288  27.107  1.00  0.00    -0.348 N 
ATOM     83  C   UNL A   1      32.252  22.553  25.063  1.00  0.00     0.081 A 
ATOM     84  C   UNL A   1      31.205  22.954  26.877  1.00  0.00     0.197 A 
ATOM     85  H   UNL A   1      32.890  23.659  27.937  1.00  0.00     0.167 HD
ATOM     86  N   UNL A   1      31.021  22.495  25.656  1.00  0.00    -0.240 NA
BRANCH  79  87
ATOM     87  C   UNL A   1      33.529  24.020  22.375  1.00  0.00     0.224 C 
ATOM     88  O   UNL A   1      33.219  23.799  21.197  1.00  0.00    -0.275 OA
BRANCH  87  89
ATOM     89  C   UNL A   1      33.683  25.488  22.760  1.00  0.00     0.107 C 
BRANCH  89  90
ATOM     90  C   UNL A   1      32.477  26.166  23.443  1.00  0.00    -0.020 C 
ATOM     91  C   UNL A   1      32.673  26.275  24.961  1.00  0.00     0.011 C 
ATOM     92  C   UNL A   1      31.154  25.406  23.175  1.00  0.00     0.011 C 
ATOM     93  C   UNL A   1      32.315  27.608  22.883  1.00  0.00     0.011 C 
ATOM     94  C   UNL A   1      31.507  26.975  25.655  1.00  0.00    -0.010 C 
ATOM     95  C   UNL A   1      29.971  26.122  23.861  1.00  0.00    -0.010 C 
ATOM     96  C   UNL A   1      31.146  28.335  23.574  1.00  0.00    -0.010 C 
ATOM     97  C   UNL A   1      31.399  28.397  25.090  1.00  0.00     0.007 C 
ATOM     98  C   UNL A   1      30.223  26.185  25.376  1.00  0.00     0.007 C 
ATOM     99  C   UNL A   1      29.848  27.557  23.316  1.00  0.00     0.007 C 
ENDBRANCH  89  90
ENDBRANCH  87  89
ENDBRANCH  79  87
ENDBRANCH  74  77
ENDBRANCH  72  73
ENDBRANCH   1  72
TORSDOF 13
ENDMDL
MODEL 3
REMARK VINA RESULT:     -13.7      3.476      8.658
REMARK SMILES O=C(NCCCNC(=O)[C@H]1Cc2[nH]cnc2CN1C(=O)C[C@]12C[C@H]3C[C@H](C[C@H](C3)C1)C2)c1ccc(-c2c3nc(c(-c4c(F)c(F)c(F)c(F)c4F)c4ccc([nH]4)c(-c4c(F)c(F)c(F)c(F)c4F)c4nc(c(-c5c(F)c(F)c(F)c(F)c5F)c5ccc2[nH]5)C=C4)C=C3)cc1
REMARK SMILES IDX 5 1 4 2 3 3 1 4 2 5 32 7 33 8 94 9 34 10 93 11 35 12 36 13
REMARK SMILES IDX 37 14 87 15 38 16 92 17 86 18 88 19 39 20 91 21 85 22 84 23
REMARK SMILES IDX 40 25 72 26 52 27 71 28 53 29 56 30 70 31 89 32 54 33 55 34
REMARK SMILES IDX 69 36 90 37 57 38 41 39 42 40 50 41 43 42 44 43 48 44 51 45
REMARK SMILES IDX 45 46 46 47 49 48 47 49 73 50 74 51 82 52 75 53 76 54 80 55
REMARK SMILES IDX 83 56 77 57 78 58 81 59 79 60 58 61 59 62 67 63 60 64 61 65
REMARK SMILES IDX 65 66 68 67 62 68 63 69 66 70 64 71 6 72 7 73 8 74 9 76
REMARK SMILES IDX 10 77 11 78 18 79 12 80 17 81 13 82 16 83 14 84 15 86 19 87
REMARK SMILES IDX 20 88 21 89 22 90 23 91 30 92 31 93 24 94 28 95 26 96 25 97
REMARK SMILES IDX 29 98 27 99
REMARK H PARENT 3 6 88 24 56 35 7 75 13 85
REMARK Flexibility Score: inf
ROOT
ATOM      1  C   UNL A   1      34.675  30.458  27.497  1.00  0.00     0.042 C 
ENDROOT
BRANCH   1   2
ATOM      2  C   UNL A   1      34.666  31.922  27.944  1.00  0.00     0.118 C 
BRANCH   2   3
ATOM      3  N   UNL A   1      34.401  32.134  29.356  1.00  0.00    -0.352 N 
ATOM      4  O   UNL A   1      34.601  32.353  31.551  1.00  0.00    -0.269 OA
ATOM      5  C   UNL A   1      35.123  31.953  30.500  1.00  0.00     0.251 C 
ATOM      6  H   UNL A   1      33.499  32.488  29.526  1.00  0.00     0.163 HD
BRANCH   5   7
ATOM      7  C   UNL A   1      36.434  31.258  30.579  1.00  0.00     0.039 A 
ATOM      8  C   UNL A   1      37.678  31.890  30.563  1.00  0.00     0.014 A 
ATOM      9  C   UNL A   1      36.398  29.854  30.646  1.00  0.00     0.014 A 
ATOM     10  C   UNL A   1      38.849  31.146  30.472  1.00  0.00     0.010 A 
ATOM     11  C   UNL A   1      37.569  29.104  30.613  1.00  0.00     0.010 A 
ATOM     12  C   UNL A   1      38.795  29.753  30.473  1.00  0.00    -0.014 A 
BRANCH  12  13
ATOM     13  C   UNL A   1      40.063  29.029  30.415  1.00  0.00     0.031 A 
ATOM     14  C   UNL A   1      40.794  28.856  31.706  1.00  0.00     0.074 A 
ATOM     15  C   UNL A   1      40.513  28.417  29.303  1.00  0.00     0.049 A 
ATOM     16  N   UNL A   1      42.027  29.140  31.987  1.00  0.00    -0.248 NA
ATOM     17  C   UNL A   1      40.032  28.315  32.843  1.00  0.00     0.031 C 
ATOM     18  C   UNL A   1      39.806  28.212  28.039  1.00  0.00     0.029 A 
ATOM     19  N   UNL A   1      41.685  27.741  29.123  1.00  0.00    -0.354 N 
ATOM     20  C   UNL A   1      42.245  28.682  33.287  1.00  0.00     0.074 A 
ATOM     21  C   UNL A   1      40.965  28.259  33.793  1.00  0.00     0.031 C 
ATOM     22  C   UNL A   1      40.465  27.283  27.312  1.00  0.00     0.029 A 
ATOM     23  C   UNL A   1      41.694  26.930  28.003  1.00  0.00     0.049 A 
ATOM     24  H   UNL A   1      42.452  27.822  29.735  1.00  0.00     0.167 HD
ATOM     25  C   UNL A   1      43.494  28.524  33.808  1.00  0.00     0.037 A 
ATOM     26  C   UNL A   1      42.606  25.976  27.703  1.00  0.00     0.037 A 
ATOM     27  C   UNL A   1      44.475  29.311  33.115  1.00  0.00     0.049 A 
ATOM     28  C   UNL A   1      43.834  26.241  28.486  1.00  0.00     0.074 A 
ATOM     29  C   UNL A   1      44.657  30.661  32.882  1.00  0.00     0.029 A 
ATOM     30  N   UNL A   1      45.374  28.684  32.292  1.00  0.00    -0.354 N 
ATOM     31  N   UNL A   1      44.645  27.239  28.277  1.00  0.00    -0.248 NA
ATOM     32  C   UNL A   1      43.985  25.572  29.770  1.00  0.00     0.031 C 
ATOM     33  C   UNL A   1      45.276  30.740  31.600  1.00  0.00     0.029 A 
ATOM     34  C   UNL A   1      45.435  29.431  31.147  1.00  0.00     0.049 A 
ATOM     35  H   UNL A   1      45.877  27.859  32.486  1.00  0.00     0.167 HD
ATOM     36  C   UNL A   1      45.116  27.580  29.535  1.00  0.00     0.074 A 
ATOM     37  C   UNL A   1      44.775  26.451  30.391  1.00  0.00     0.031 C 
ATOM     38  C   UNL A   1      45.489  28.860  29.824  1.00  0.00     0.037 A 
BRANCH  25  39
ATOM     39  C   UNL A   1      43.883  27.421  34.764  1.00  0.00     0.064 A 
ATOM     40  C   UNL A   1      43.683  26.075  34.393  1.00  0.00     0.173 A 
ATOM     41  C   UNL A   1      44.150  27.641  36.132  1.00  0.00     0.173 A 
ATOM     42  F   UNL A   1      43.401  25.749  33.123  1.00  0.00    -0.203 F 
ATOM     43  C   UNL A   1      43.670  25.041  35.335  1.00  0.00     0.198 A 
ATOM     44  C   UNL A   1      44.191  26.600  37.061  1.00  0.00     0.198 A 
ATOM     45  F   UNL A   1      44.272  28.873  36.640  1.00  0.00    -0.203 F 
ATOM     46  F   UNL A   1      43.346  23.798  34.955  1.00  0.00    -0.200 F 
ATOM     47  C   UNL A   1      43.918  25.306  36.669  1.00  0.00     0.200 A 
ATOM     48  F   UNL A   1      44.417  26.878  38.353  1.00  0.00    -0.200 F 
ATOM     49  F   UNL A   1      43.843  24.330  37.583  1.00  0.00    -0.200 F 
ENDBRANCH  25  39
BRANCH  26  50
ATOM     50  C   UNL A   1      42.377  24.703  26.985  1.00  0.00     0.064 A 
ATOM     51  C   UNL A   1      43.079  24.392  25.810  1.00  0.00     0.173 A 
ATOM     52  C   UNL A   1      41.642  23.656  27.575  1.00  0.00     0.173 A 
ATOM     53  F   UNL A   1      43.844  25.320  25.217  1.00  0.00    -0.203 F 
ATOM     54  C   UNL A   1      43.053  23.106  25.265  1.00  0.00     0.198 A 
ATOM     55  C   UNL A   1      41.605  22.377  27.022  1.00  0.00     0.198 A 
ATOM     56  F   UNL A   1      41.019  23.829  28.750  1.00  0.00    -0.203 F 
ATOM     57  F   UNL A   1      43.780  22.830  24.172  1.00  0.00    -0.200 F 
ATOM     58  C   UNL A   1      42.321  22.099  25.873  1.00  0.00     0.200 A 
ATOM     59  F   UNL A   1      40.921  21.405  27.641  1.00  0.00    -0.200 F 
ATOM     60  F   UNL A   1      42.335  20.854  25.376  1.00  0.00    -0.200 F 
ENDBRANCH  26  50
BRANCH  38  61
ATOM     61  C   UNL A   1      45.663  29.813  28.679  1.00  0.00     0.064 A 
ATOM     62  C   UNL A   1      44.596  30.498  28.077  1.00  0.00     0.173 A 
ATOM     63  C   UNL A   1      46.962  30.145  28.271  1.00  0.00     0.173 A 
ATOM     64  F   UNL A   1      43.336  30.316  28.494  1.00  0.00    -0.203 F 
ATOM     65  C   UNL A   1      44.818  31.435  27.070  1.00  0.00     0.198 A 
ATOM     66  C   UNL A   1      47.183  31.108  27.290  1.00  0.00     0.198 A 
ATOM     67  F   UNL A   1      48.021  29.568  28.862  1.00  0.00    -0.203 F 
ATOM     68  F   UNL A   1      43.781  32.067  26.500  1.00  0.00    -0.200 F 
ATOM     69  C   UNL A   1      46.112  31.742  26.681  1.00  0.00     0.200 A 
ATOM     70  F   UNL A   1      48.437  31.442  26.955  1.00  0.00    -0.200 F 
ATOM     71  F   UNL A   1      46.327  32.672  25.741  1.00  0.00    -0.200 F 
ENDBRANCH  38  61
ENDBRANCH  12  13
ENDBRANCH   5   7
ENDBRANCH   2   3
ENDBRANCH   1   2
BRANCH   1  72
ATOM     72  C   UNL A   1      33.318  29.924  27.039  1.00  0.00     0.117 C 
BRANCH  72  73
ATOM     73  N   UNL A   1      33.072  28.579  27.523  1.00  0.00    -0.354 N 
ATOM     74  C   UNL A   1      31.924  27.907  27.184  1.00  0.00     0.243 C 
ATOM     75  H   UNL A   1      33.737  28.142  28.102  1.00  0.00     0.163 HD
ATOM     76  O   UNL A   1      31.028  27.867  28.027  1.00  0.00    -0.273 OA
BRANCH  74  77
ATOM     77  C   UNL A   1      31.769  27.369  25.745  1.00  0.00     0.180 C 
ATOM     78  C   UNL A   1      33.025  27.537  24.812  1.00  0.00     0.091 C 
ATOM     79  N   UNL A   1      31.066  26.034  25.540  1.00  0.00    -0.324 N 
ATOM     80  C   UNL A   1      32.793  26.825  23.533  1.00  0.00     0.042 A 
ATOM     81  C   UNL A   1      30.526  25.887  24.162  1.00  0.00     0.178 C 
ATOM     82  N   UNL A   1      33.625  26.716  22.460  1.00  0.00    -0.348 N 
ATOM     83  C   UNL A   1      31.674  26.086  23.220  1.00  0.00     0.081 A 
ATOM     84  C   UNL A   1      32.965  25.960  21.528  1.00  0.00     0.197 A 
ATOM     85  H   UNL A   1      34.525  27.105  22.372  1.00  0.00     0.167 HD
ATOM     86  N   UNL A   1      31.779  25.577  21.955  1.00  0.00    -0.240 NA
BRANCH  79  87
ATOM     87  C   UNL A   1      31.167  24.837  26.252  1.00  0.00     0.224 C 
ATOM     88  O   UNL A   1      30.169  24.132  26.451  1.00  0.00    -0.275 OA
BRANCH  87  89
ATOM     89  C   UNL A   1      32.466  24.350  26.885  1.00  0.00     0.107 C 
BRANCH  89  90
ATOM     90  C   UNL A   1      33.423  23.534  25.990  1.00  0.00    -0.020 C 
ATOM     91  C   UNL A   1      32.704  22.978  24.754  1.00  0.00     0.011 C 
ATOM     92  C   UNL A   1      34.067  22.351  26.754  1.00  0.00     0.011 C 
ATOM     93  C   UNL A   1      34.572  24.457  25.494  1.00  0.00     0.011 C 
ATOM     94  C   UNL A   1      33.639  22.196  23.834  1.00  0.00    -0.010 C 
ATOM     95  C   UNL A   1      35.026  21.569  25.831  1.00  0.00    -0.010 C 
ATOM     96  C   UNL A   1      35.524  23.690  24.558  1.00  0.00    -0.010 C 
ATOM     97  C   UNL A   1      34.739  23.148  23.351  1.00  0.00     0.007 C 
ATOM     98  C   UNL A   1      34.244  21.029  24.623  1.00  0.00     0.007 C 
ATOM     99  C   UNL A   1      36.137  22.508  25.325  1.00  0.00     0.007 C 
ENDBRANCH  89  90
ENDBRANCH  87  89
ENDBRANCH  79  87
ENDBRANCH  74  77
ENDBRANCH  72  73
ENDBRANCH   1  72
TORSDOF 13
ENDMDL
