MODEL 1
REMARK VINA RESULT:     -10.6      0.000      0.000
REMARK SMILES O=C(NCCCNC(=O)c1ccc(-c2c3nc(c(-c4c(F)c(F)c(F)c(F)c4F)c4ccc([nH]4)c(-c4c(F)c(F)c(F)c(F)c4F)c4nc(c(-c5c(F)c(F)c(F)c(F)c5F)c5ccc2[nH]5)C=C4)C=C3)cc1)c1ccc(-c2ccsc2)cc1
REMARK SMILES IDX 5 1 4 2 3 3 1 4 2 5 73 7 74 8 83 9 75 10 82 11 76 12 77 13
REMARK SMILES IDX 78 14 81 15 79 16 80 17 6 18 7 19 8 20 9 22 10 23 11 24
REMARK SMILES IDX 72 25 12 26 71 27 13 28 14 29 15 30 65 31 16 32 70 33 64 34
REMARK SMILES IDX 66 35 17 36 69 37 63 38 62 39 18 41 50 42 30 43 49 44 31 45
REMARK SMILES IDX 34 46 48 47 67 48 32 49 33 50 47 52 68 53 35 54 19 55 20 56
REMARK SMILES IDX 28 57 21 58 22 59 26 60 29 61 23 62 24 63 27 64 25 65 51 66
REMARK SMILES IDX 52 67 60 68 53 69 54 70 58 71 61 72 55 73 56 74 59 75 57 76
REMARK SMILES IDX 36 77 37 78 45 79 38 80 39 81 43 82 46 83 40 84 41 85 44 86
REMARK SMILES IDX 42 87
REMARK H PARENT 3 6 7 21 66 40 34 51
REMARK Flexibility Score: inf
ROOT
ATOM      1  C   UNL A   1      33.573  34.100  28.583  1.00  0.00     0.042 C 
ENDROOT
BRANCH   1   2
ATOM      2  C   UNL A   1      34.037  34.695  29.906  1.00  0.00     0.118 C 
BRANCH   2   3
ATOM      3  N   UNL A   1      34.162  33.691  30.952  1.00  0.00    -0.352 N 
ATOM      4  O   UNL A   1      35.154  32.058  32.143  1.00  0.00    -0.269 OA
ATOM      5  C   UNL A   1      35.275  33.027  31.397  1.00  0.00     0.251 C 
ATOM      6  H   UNL A   1      33.322  33.453  31.408  1.00  0.00     0.163 HD
BRANCH   5   7
ATOM      7  C   UNL A   1      36.621  33.459  30.970  1.00  0.00     0.039 A 
ATOM      8  C   UNL A   1      37.117  33.123  29.706  1.00  0.00     0.014 A 
ATOM      9  C   UNL A   1      37.382  34.251  31.835  1.00  0.00     0.014 A 
ATOM     10  C   UNL A   1      38.406  33.509  29.340  1.00  0.00     0.009 A 
ATOM     11  C   UNL A   1      38.667  34.649  31.460  1.00  0.00     0.009 A 
ATOM     12  C   UNL A   1      39.190  34.272  30.215  1.00  0.00    -0.018 A 
BRANCH  12  13
ATOM     13  C   UNL A   1      40.539  34.667  29.839  1.00  0.00    -0.008 A 
ATOM     14  C   UNL A   1      40.931  35.416  28.684  1.00  0.00     0.020 A 
ATOM     15  C   UNL A   1      41.635  34.326  30.609  1.00  0.00     0.073 A 
ATOM     16  C   UNL A   1      42.293  35.623  28.629  1.00  0.00     0.065 A 
ATOM     17  S   UNL A   1      43.105  34.910  29.953  1.00  0.00    -0.152 S 
ENDBRANCH  12  13
ENDBRANCH   5   7
ENDBRANCH   2   3
ENDBRANCH   1   2
BRANCH   1  18
ATOM     18  C   UNL A   1      34.507  33.047  28.001  1.00  0.00     0.118 C 
BRANCH  18  19
ATOM     19  N   UNL A   1      33.818  31.819  27.631  1.00  0.00    -0.352 N 
ATOM     20  C   UNL A   1      34.250  30.519  27.597  1.00  0.00     0.251 C 
ATOM     21  H   UNL A   1      32.880  31.944  27.358  1.00  0.00     0.163 HD
ATOM     22  O   UNL A   1      33.530  29.665  27.084  1.00  0.00    -0.269 OA
BRANCH  20  23
ATOM     23  C   UNL A   1      35.566  30.124  28.150  1.00  0.00     0.039 A 
ATOM     24  C   UNL A   1      35.631  29.723  29.489  1.00  0.00     0.014 A 
ATOM     25  C   UNL A   1      36.740  30.201  27.398  1.00  0.00     0.014 A 
ATOM     26  C   UNL A   1      36.857  29.366  30.054  1.00  0.00     0.010 A 
ATOM     27  C   UNL A   1      37.947  29.755  27.932  1.00  0.00     0.010 A 
ATOM     28  C   UNL A   1      38.023  29.355  29.274  1.00  0.00    -0.014 A 
BRANCH  28  29
ATOM     29  C   UNL A   1      39.331  28.964  29.863  1.00  0.00     0.031 A 
ATOM     30  C   UNL A   1      39.873  29.694  31.062  1.00  0.00     0.074 A 
ATOM     31  C   UNL A   1      40.049  27.976  29.297  1.00  0.00     0.049 A 
ATOM     32  N   UNL A   1      40.995  29.504  31.712  1.00  0.00    -0.248 NA
ATOM     33  C   UNL A   1      39.062  30.804  31.586  1.00  0.00     0.031 C 
ATOM     34  C   UNL A   1      39.665  27.233  28.095  1.00  0.00     0.029 A 
ATOM     35  N   UNL A   1      41.255  27.427  29.655  1.00  0.00    -0.354 N 
ATOM     36  C   UNL A   1      41.029  30.478  32.702  1.00  0.00     0.074 A 
ATOM     37  C   UNL A   1      39.848  31.295  32.532  1.00  0.00     0.031 C 
ATOM     38  C   UNL A   1      40.600  26.306  27.834  1.00  0.00     0.029 A 
ATOM     39  C   UNL A   1      41.662  26.408  28.830  1.00  0.00     0.049 A 
ATOM     40  H   UNL A   1      41.778  27.736  30.430  1.00  0.00     0.167 HD
ATOM     41  C   UNL A   1      41.947  30.660  33.682  1.00  0.00     0.037 A 
ATOM     42  C   UNL A   1      42.766  25.638  28.875  1.00  0.00     0.037 A 
ATOM     43  C   UNL A   1      43.106  29.827  33.868  1.00  0.00     0.049 A 
ATOM     44  C   UNL A   1      43.755  25.837  29.992  1.00  0.00     0.074 A 
ATOM     45  C   UNL A   1      44.061  29.885  34.868  1.00  0.00     0.029 A 
ATOM     46  N   UNL A   1      43.468  28.781  33.031  1.00  0.00    -0.354 N 
ATOM     47  N   UNL A   1      43.735  26.710  30.971  1.00  0.00    -0.248 NA
ATOM     48  C   UNL A   1      44.911  24.932  30.018  1.00  0.00     0.031 C 
ATOM     49  C   UNL A   1      45.026  28.904  34.610  1.00  0.00     0.029 A 
ATOM     50  C   UNL A   1      44.643  28.198  33.482  1.00  0.00     0.049 A 
ATOM     51  H   UNL A   1      42.965  28.495  32.234  1.00  0.00     0.167 HD
ATOM     52  C   UNL A   1      44.856  26.440  31.744  1.00  0.00     0.074 A 
ATOM     53  C   UNL A   1      45.522  25.310  31.131  1.00  0.00     0.031 C 
ATOM     54  C   UNL A   1      45.293  27.072  32.862  1.00  0.00     0.037 A 
BRANCH  41  55
ATOM     55  C   UNL A   1      41.730  31.804  34.632  1.00  0.00     0.064 A 
ATOM     56  C   UNL A   1      42.345  33.052  34.438  1.00  0.00     0.173 A 
ATOM     57  C   UNL A   1      40.878  31.660  35.737  1.00  0.00     0.173 A 
ATOM     58  F   UNL A   1      43.178  33.240  33.403  1.00  0.00    -0.203 F 
ATOM     59  C   UNL A   1      42.144  34.098  35.333  1.00  0.00     0.198 A 
ATOM     60  C   UNL A   1      40.653  32.720  36.612  1.00  0.00     0.198 A 
ATOM     61  F   UNL A   1      40.260  30.493  35.968  1.00  0.00    -0.203 F 
ATOM     62  F   UNL A   1      42.787  35.260  35.158  1.00  0.00    -0.200 F 
ATOM     63  C   UNL A   1      41.294  33.934  36.416  1.00  0.00     0.200 A 
ATOM     64  F   UNL A   1      39.820  32.565  37.651  1.00  0.00    -0.200 F 
ATOM     65  F   UNL A   1      41.097  34.944  37.275  1.00  0.00    -0.200 F 
ENDBRANCH  41  55
BRANCH  42  66
ATOM     66  C   UNL A   1      42.970  24.578  27.855  1.00  0.00     0.064 A 
ATOM     67  C   UNL A   1      42.577  23.254  28.102  1.00  0.00     0.173 A 
ATOM     68  C   UNL A   1      43.558  24.862  26.615  1.00  0.00     0.173 A 
ATOM     69  F   UNL A   1      42.027  22.928  29.281  1.00  0.00    -0.203 F 
ATOM     70  C   UNL A   1      42.785  22.253  27.156  1.00  0.00     0.198 A 
ATOM     71  C   UNL A   1      43.739  23.866  25.658  1.00  0.00     0.198 A 
ATOM     72  F   UNL A   1      43.944  26.114  26.326  1.00  0.00    -0.203 F 
ATOM     73  F   UNL A   1      42.443  20.988  27.437  1.00  0.00    -0.200 F 
ATOM     74  C   UNL A   1      43.360  22.561  25.933  1.00  0.00     0.200 A 
ATOM     75  F   UNL A   1      44.281  24.170  24.470  1.00  0.00    -0.200 F 
ATOM     76  F   UNL A   1      43.555  21.598  25.021  1.00  0.00    -0.200 F 
ENDBRANCH  42  66
BRANCH  54  77
ATOM     77  C   UNL A   1      46.532  26.528  33.515  1.00  0.00     0.064 A 
ATOM     78  C   UNL A   1      47.810  27.005  33.187  1.00  0.00     0.173 A 
ATOM     79  C   UNL A   1      46.436  25.526  34.492  1.00  0.00     0.173 A 
ATOM     80  F   UNL A   1      47.958  27.952  32.249  1.00  0.00    -0.203 F 
ATOM     81  C   UNL A   1      48.948  26.470  33.787  1.00  0.00     0.198 A 
ATOM     82  C   UNL A   1      47.573  25.018  35.114  1.00  0.00     0.198 A 
ATOM     83  F   UNL A   1      45.238  25.041  34.848  1.00  0.00    -0.203 F 
ATOM     84  F   UNL A   1      50.163  26.898  33.413  1.00  0.00    -0.200 F 
ATOM     85  C   UNL A   1      48.829  25.482  34.753  1.00  0.00     0.200 A 
ATOM     86  F   UNL A   1      47.455  24.073  36.057  1.00  0.00    -0.200 F 
ATOM     87  F   UNL A   1      49.926  24.969  35.327  1.00  0.00    -0.200 F 
ENDBRANCH  54  77
ENDBRANCH  28  29
ENDBRANCH  20  23
ENDBRANCH  18  19
ENDBRANCH   1  18
TORSDOF 11
ENDMDL
MODEL 2
REMARK VINA RESULT:     -10.6      0.061      2.020
REMARK SMILES O=C(NCCCNC(=O)c1ccc(-c2c3nc(c(-c4c(F)c(F)c(F)c(F)c4F)c4ccc([nH]4)c(-c4c(F)c(F)c(F)c(F)c4F)c4nc(c(-c5c(F)c(F)c(F)c(F)c5F)c5ccc2[nH]5)C=C4)C=C3)cc1)c1ccc(-c2ccsc2)cc1
REMARK SMILES IDX 5 1 4 2 3 3 1 4 2 5 73 7 74 8 83 9 75 10 82 11 76 12 77 13
REMARK SMILES IDX 78 14 81 15 79 16 80 17 6 18 7 19 8 20 9 22 10 23 11 24
REMARK SMILES IDX 72 25 12 26 71 27 13 28 14 29 15 30 65 31 16 32 70 33 64 34
REMARK SMILES IDX 66 35 17 36 69 37 63 38 62 39 18 41 50 42 30 43 49 44 31 45
REMARK SMILES IDX 34 46 48 47 67 48 32 49 33 50 47 52 68 53 35 54 19 55 20 56
REMARK SMILES IDX 28 57 21 58 22 59 26 60 29 61 23 62 24 63 27 64 25 65 51 66
REMARK SMILES IDX 52 67 60 68 53 69 54 70 58 71 61 72 55 73 56 74 59 75 57 76
REMARK SMILES IDX 36 77 37 78 45 79 38 80 39 81 43 82 46 83 40 84 41 85 44 86
REMARK SMILES IDX 42 87
REMARK H PARENT 3 6 7 21 66 40 34 51
REMARK Flexibility Score: inf
ROOT
ATOM      1  C   UNL A   1      33.529  34.076  28.597  1.00  0.00     0.042 C 
ENDROOT
BRANCH   1   2
ATOM      2  C   UNL A   1      34.017  34.704  29.896  1.00  0.00     0.118 C 
BRANCH   2   3
ATOM      3  N   UNL A   1      34.141  33.731  30.970  1.00  0.00    -0.352 N 
ATOM      4  O   UNL A   1      35.127  32.128  32.207  1.00  0.00    -0.269 OA
ATOM      5  C   UNL A   1      35.251  33.074  31.431  1.00  0.00     0.251 C 
ATOM      6  H   UNL A   1      33.301  33.512  31.436  1.00  0.00     0.163 HD
BRANCH   5   7
ATOM      7  C   UNL A   1      36.598  33.485  30.988  1.00  0.00     0.039 A 
ATOM      8  C   UNL A   1      37.077  33.131  29.722  1.00  0.00     0.014 A 
ATOM      9  C   UNL A   1      37.377  34.275  31.838  1.00  0.00     0.014 A 
ATOM     10  C   UNL A   1      38.368  33.497  29.340  1.00  0.00     0.009 A 
ATOM     11  C   UNL A   1      38.664  34.654  31.446  1.00  0.00     0.009 A 
ATOM     12  C   UNL A   1      39.169  34.258  30.200  1.00  0.00    -0.018 A 
BRANCH  12  13
ATOM     13  C   UNL A   1      40.520  34.633  29.807  1.00  0.00    -0.008 A 
ATOM     14  C   UNL A   1      40.905  35.427  28.681  1.00  0.00     0.020 A 
ATOM     15  C   UNL A   1      41.624  34.222  30.529  1.00  0.00     0.073 A 
ATOM     16  C   UNL A   1      42.270  35.597  28.598  1.00  0.00     0.065 A 
ATOM     17  S   UNL A   1      43.094  34.796  29.864  1.00  0.00    -0.152 S 
ENDBRANCH  12  13
ENDBRANCH   5   7
ENDBRANCH   2   3
ENDBRANCH   1   2
BRANCH   1  18
ATOM     18  C   UNL A   1      34.471  33.037  28.003  1.00  0.00     0.118 C 
BRANCH  18  19
ATOM     19  N   UNL A   1      33.792  31.807  27.622  1.00  0.00    -0.352 N 
ATOM     20  C   UNL A   1      34.234  30.510  27.582  1.00  0.00     0.251 C 
ATOM     21  H   UNL A   1      32.855  31.927  27.347  1.00  0.00     0.163 HD
ATOM     22  O   UNL A   1      33.521  29.654  27.060  1.00  0.00    -0.269 OA
BRANCH  20  23
ATOM     23  C   UNL A   1      35.550  30.121  28.137  1.00  0.00     0.039 A 
ATOM     24  C   UNL A   1      35.616  29.728  29.478  1.00  0.00     0.014 A 
ATOM     25  C   UNL A   1      36.724  30.195  27.384  1.00  0.00     0.014 A 
ATOM     26  C   UNL A   1      36.842  29.377  30.045  1.00  0.00     0.010 A 
ATOM     27  C   UNL A   1      37.931  29.754  27.922  1.00  0.00     0.010 A 
ATOM     28  C   UNL A   1      38.009  29.363  29.265  1.00  0.00    -0.014 A 
BRANCH  28  29
ATOM     29  C   UNL A   1      39.317  28.978  29.857  1.00  0.00     0.031 A 
ATOM     30  C   UNL A   1      39.853  29.710  31.059  1.00  0.00     0.074 A 
ATOM     31  C   UNL A   1      40.042  27.994  29.292  1.00  0.00     0.049 A 
ATOM     32  N   UNL A   1      40.974  29.525  31.710  1.00  0.00    -0.248 NA
ATOM     33  C   UNL A   1      39.035  30.815  31.581  1.00  0.00     0.031 C 
ATOM     34  C   UNL A   1      39.664  27.251  28.088  1.00  0.00     0.029 A 
ATOM     35  N   UNL A   1      41.250  27.452  29.651  1.00  0.00    -0.354 N 
ATOM     36  C   UNL A   1      41.001  30.498  32.701  1.00  0.00     0.074 A 
ATOM     37  C   UNL A   1      39.816  31.309  32.530  1.00  0.00     0.031 C 
ATOM     38  C   UNL A   1      40.604  26.329  27.828  1.00  0.00     0.029 A 
ATOM     39  C   UNL A   1      41.664  26.435  28.826  1.00  0.00     0.049 A 
ATOM     40  H   UNL A   1      41.770  27.762  30.428  1.00  0.00     0.167 HD
ATOM     41  C   UNL A   1      41.916  30.683  33.684  1.00  0.00     0.037 A 
ATOM     42  C   UNL A   1      42.771  25.671  28.873  1.00  0.00     0.037 A 
ATOM     43  C   UNL A   1      43.079  29.856  33.872  1.00  0.00     0.049 A 
ATOM     44  C   UNL A   1      43.756  25.874  29.993  1.00  0.00     0.074 A 
ATOM     45  C   UNL A   1      44.032  29.918  34.873  1.00  0.00     0.029 A 
ATOM     46  N   UNL A   1      43.448  28.813  33.034  1.00  0.00    -0.354 N 
ATOM     47  N   UNL A   1      43.730  26.745  30.972  1.00  0.00    -0.248 NA
ATOM     48  C   UNL A   1      44.917  24.975  30.021  1.00  0.00     0.031 C 
ATOM     49  C   UNL A   1      45.002  28.943  34.617  1.00  0.00     0.029 A 
ATOM     50  C   UNL A   1      44.625  28.235  33.487  1.00  0.00     0.049 A 
ATOM     51  H   UNL A   1      42.949  28.526  32.236  1.00  0.00     0.167 HD
ATOM     52  C   UNL A   1      44.851  26.481  31.748  1.00  0.00     0.074 A 
ATOM     53  C   UNL A   1      45.524  25.355  31.135  1.00  0.00     0.031 C 
ATOM     54  C   UNL A   1      45.283  27.113  32.867  1.00  0.00     0.037 A 
BRANCH  41  55
ATOM     55  C   UNL A   1      41.692  31.826  34.634  1.00  0.00     0.064 A 
ATOM     56  C   UNL A   1      40.863  31.698  35.760  1.00  0.00     0.173 A 
ATOM     57  C   UNL A   1      42.331  33.057  34.430  1.00  0.00     0.173 A 
ATOM     58  F   UNL A   1      40.219  30.545  35.996  1.00  0.00    -0.203 F 
ATOM     59  C   UNL A   1      40.655  32.769  36.624  1.00  0.00     0.198 A 
ATOM     60  C   UNL A   1      42.147  34.117  35.315  1.00  0.00     0.198 A 
ATOM     61  F   UNL A   1      43.139  33.235  33.374  1.00  0.00    -0.203 F 
ATOM     62  F   UNL A   1      39.814  32.639  37.659  1.00  0.00    -0.200 F 
ATOM     63  C   UNL A   1      41.302  33.976  36.405  1.00  0.00     0.200 A 
ATOM     64  F   UNL A   1      42.784  35.279  35.110  1.00  0.00    -0.200 F 
ATOM     65  F   UNL A   1      41.104  35.005  37.240  1.00  0.00    -0.200 F 
ENDBRANCH  41  55
BRANCH  42  66
ATOM     66  C   UNL A   1      42.983  24.613  27.852  1.00  0.00     0.064 A 
ATOM     67  C   UNL A   1      43.576  24.912  26.617  1.00  0.00     0.173 A 
ATOM     68  C   UNL A   1      42.599  23.285  28.087  1.00  0.00     0.173 A 
ATOM     69  F   UNL A   1      43.942  26.171  26.337  1.00  0.00    -0.203 F 
ATOM     70  C   UNL A   1      43.757  23.926  25.649  1.00  0.00     0.198 A 
ATOM     71  C   UNL A   1      42.808  22.294  27.130  1.00  0.00     0.198 A 
ATOM     72  F   UNL A   1      42.035  22.947  29.256  1.00  0.00    -0.203 F 
ATOM     73  F   UNL A   1      44.284  24.248  24.459  1.00  0.00    -0.200 F 
ATOM     74  C   UNL A   1      43.379  22.618  25.908  1.00  0.00     0.200 A 
ATOM     75  F   UNL A   1      42.456  21.028  27.391  1.00  0.00    -0.200 F 
ATOM     76  F   UNL A   1      43.559  21.670  24.979  1.00  0.00    -0.200 F 
ENDBRANCH  42  66
BRANCH  54  77
ATOM     77  C   UNL A   1      46.522  26.575  33.522  1.00  0.00     0.064 A 
ATOM     78  C   UNL A   1      46.465  25.560  34.490  1.00  0.00     0.173 A 
ATOM     79  C   UNL A   1      47.785  27.071  33.166  1.00  0.00     0.173 A 
ATOM     80  F   UNL A   1      45.281  25.061  34.877  1.00  0.00    -0.203 F 
ATOM     81  C   UNL A   1      47.624  25.091  35.104  1.00  0.00     0.198 A 
ATOM     82  C   UNL A   1      48.944  26.575  33.757  1.00  0.00     0.198 A 
ATOM     83  F   UNL A   1      47.897  28.035  32.240  1.00  0.00    -0.203 F 
ATOM     84  F   UNL A   1      47.540  24.166  36.070  1.00  0.00    -0.200 F 
ATOM     85  C   UNL A   1      48.862  25.594  34.734  1.00  0.00     0.200 A 
ATOM     86  F   UNL A   1      50.141  27.053  33.388  1.00  0.00    -0.200 F 
ATOM     87  F   UNL A   1      49.975  25.141  35.326  1.00  0.00    -0.200 F 
ENDBRANCH  54  77
ENDBRANCH  28  29
ENDBRANCH  20  23
ENDBRANCH  18  19
ENDBRANCH   1  18
TORSDOF 11
ENDMDL
MODEL 3
REMARK VINA RESULT:     -10.5      4.146     10.591
REMARK SMILES O=C(NCCCNC(=O)c1ccc(-c2c3nc(c(-c4c(F)c(F)c(F)c(F)c4F)c4ccc([nH]4)c(-c4c(F)c(F)c(F)c(F)c4F)c4nc(c(-c5c(F)c(F)c(F)c(F)c5F)c5ccc2[nH]5)C=C4)C=C3)cc1)c1ccc(-c2ccsc2)cc1
REMARK SMILES IDX 5 1 4 2 3 3 1 4 2 5 73 7 74 8 83 9 75 10 82 11 76 12 77 13
REMARK SMILES IDX 78 14 81 15 79 16 80 17 6 18 7 19 8 20 9 22 10 23 11 24
REMARK SMILES IDX 72 25 12 26 71 27 13 28 14 29 15 30 65 31 16 32 70 33 64 34
REMARK SMILES IDX 66 35 17 36 69 37 63 38 62 39 18 41 50 42 30 43 49 44 31 45
REMARK SMILES IDX 34 46 48 47 67 48 32 49 33 50 47 52 68 53 35 54 19 55 20 56
REMARK SMILES IDX 28 57 21 58 22 59 26 60 29 61 23 62 24 63 27 64 25 65 51 66
REMARK SMILES IDX 52 67 60 68 53 69 54 70 58 71 61 72 55 73 56 74 59 75 57 76
REMARK SMILES IDX 36 77 37 78 45 79 38 80 39 81 43 82 46 83 40 84 41 85 44 86
REMARK SMILES IDX 42 87
REMARK H PARENT 3 6 7 21 66 40 34 51
REMARK Flexibility Score: inf
ROOT
ATOM      1  C   UNL A   1      41.218  20.141  26.239  1.00  0.00     0.042 C 
ENDROOT
BRANCH   1   2
ATOM      2  C   UNL A   1      42.706  20.443  26.125  1.00  0.00     0.118 C 
BRANCH   2   3
ATOM      3  N   UNL A   1      42.974  21.607  25.293  1.00  0.00    -0.352 N 
ATOM      4  O   UNL A   1      43.246  23.790  24.816  1.00  0.00    -0.269 OA
ATOM      5  C   UNL A   1      43.260  22.896  25.659  1.00  0.00     0.251 C 
ATOM      6  H   UNL A   1      42.944  21.444  24.321  1.00  0.00     0.163 HD
BRANCH   5   7
ATOM      7  C   UNL A   1      43.570  23.220  27.065  1.00  0.00     0.039 A 
ATOM      8  C   UNL A   1      42.551  23.331  28.018  1.00  0.00     0.014 A 
ATOM      9  C   UNL A   1      44.907  23.372  27.444  1.00  0.00     0.014 A 
ATOM     10  C   UNL A   1      42.865  23.676  29.333  1.00  0.00     0.009 A 
ATOM     11  C   UNL A   1      45.219  23.703  28.766  1.00  0.00     0.009 A 
ATOM     12  C   UNL A   1      44.200  23.867  29.714  1.00  0.00    -0.018 A 
BRANCH  12  13
ATOM     13  C   UNL A   1      44.528  24.237  31.083  1.00  0.00    -0.008 A 
ATOM     14  C   UNL A   1      44.153  23.548  32.279  1.00  0.00     0.020 A 
ATOM     15  C   UNL A   1      45.272  25.366  31.369  1.00  0.00     0.073 A 
ATOM     16  C   UNL A   1      44.632  24.165  33.414  1.00  0.00     0.065 A 
ATOM     17  S   UNL A   1      45.522  25.578  33.049  1.00  0.00    -0.152 S 
ENDBRANCH  12  13
ENDBRANCH   5   7
ENDBRANCH   2   3
ENDBRANCH   1   2
BRANCH   1  18
ATOM     18  C   UNL A   1      40.405  21.219  26.943  1.00  0.00     0.118 C 
BRANCH  18  19
ATOM     19  N   UNL A   1      39.189  21.572  26.225  1.00  0.00    -0.352 N 
ATOM     20  C   UNL A   1      38.514  22.762  26.126  1.00  0.00     0.251 C 
ATOM     21  H   UNL A   1      38.780  20.829  25.725  1.00  0.00     0.163 HD
ATOM     22  O   UNL A   1      37.406  22.776  25.594  1.00  0.00    -0.269 OA
BRANCH  20  23
ATOM     23  C   UNL A   1      39.083  24.022  26.656  1.00  0.00     0.039 A 
ATOM     24  C   UNL A   1      39.833  24.828  25.791  1.00  0.00     0.014 A 
ATOM     25  C   UNL A   1      38.947  24.392  27.996  1.00  0.00     0.014 A 
ATOM     26  C   UNL A   1      40.405  26.012  26.259  1.00  0.00     0.010 A 
ATOM     27  C   UNL A   1      39.437  25.619  28.438  1.00  0.00     0.010 A 
ATOM     28  C   UNL A   1      40.192  26.431  27.581  1.00  0.00    -0.014 A 
BRANCH  28  29
ATOM     29  C   UNL A   1      40.788  27.697  28.085  1.00  0.00     0.031 A 
ATOM     30  C   UNL A   1      42.278  27.905  28.046  1.00  0.00     0.074 A 
ATOM     31  C   UNL A   1      39.991  28.646  28.612  1.00  0.00     0.049 A 
ATOM     32  N   UNL A   1      42.983  28.935  28.445  1.00  0.00    -0.248 NA
ATOM     33  C   UNL A   1      43.088  26.798  27.516  1.00  0.00     0.031 C 
ATOM     34  C   UNL A   1      38.539  28.540  28.766  1.00  0.00     0.029 A 
ATOM     35  N   UNL A   1      40.289  29.885  29.120  1.00  0.00    -0.354 N 
ATOM     36  C   UNL A   1      44.311  28.591  28.230  1.00  0.00     0.074 A 
ATOM     37  C   UNL A   1      44.320  27.237  27.723  1.00  0.00     0.031 C 
ATOM     38  C   UNL A   1      38.070  29.679  29.300  1.00  0.00     0.029 A 
ATOM     39  C   UNL A   1      39.188  30.582  29.553  1.00  0.00     0.049 A 
ATOM     40  H   UNL A   1      41.206  30.241  29.169  1.00  0.00     0.167 HD
ATOM     41  C   UNL A   1      45.422  29.345  28.412  1.00  0.00     0.037 A 
ATOM     42  C   UNL A   1      39.091  31.813  30.090  1.00  0.00     0.037 A 
ATOM     43  C   UNL A   1      45.409  30.703  28.888  1.00  0.00     0.049 A 
ATOM     44  C   UNL A   1      40.336  32.643  30.252  1.00  0.00     0.074 A 
ATOM     45  C   UNL A   1      46.472  31.576  29.044  1.00  0.00     0.029 A 
ATOM     46  N   UNL A   1      44.269  31.388  29.286  1.00  0.00    -0.354 N 
ATOM     47  N   UNL A   1      41.579  32.337  29.969  1.00  0.00    -0.248 NA
ATOM     48  C   UNL A   1      40.160  33.997  30.793  1.00  0.00     0.031 C 
ATOM     49  C   UNL A   1      45.983  32.772  29.580  1.00  0.00     0.029 A 
ATOM     50  C   UNL A   1      44.606  32.666  29.705  1.00  0.00     0.049 A 
ATOM     51  H   UNL A   1      43.356  31.020  29.272  1.00  0.00     0.167 HD
ATOM     52  C   UNL A   1      42.328  33.467  30.269  1.00  0.00     0.074 A 
ATOM     53  C   UNL A   1      41.395  34.472  30.736  1.00  0.00     0.031 C 
ATOM     54  C   UNL A   1      43.667  33.656  30.166  1.00  0.00     0.037 A 
BRANCH  41  55
ATOM     55  C   UNL A   1      46.748  28.714  28.091  1.00  0.00     0.064 A 
ATOM     56  C   UNL A   1      47.299  28.768  26.801  1.00  0.00     0.173 A 
ATOM     57  C   UNL A   1      47.489  28.067  29.092  1.00  0.00     0.173 A 
ATOM     58  F   UNL A   1      46.628  29.365  25.805  1.00  0.00    -0.203 F 
ATOM     59  C   UNL A   1      48.523  28.168  26.517  1.00  0.00     0.198 A 
ATOM     60  C   UNL A   1      48.729  27.496  28.811  1.00  0.00     0.198 A 
ATOM     61  F   UNL A   1      47.014  27.989  30.343  1.00  0.00    -0.203 F 
ATOM     62  F   UNL A   1      49.000  28.183  25.265  1.00  0.00    -0.200 F 
ATOM     63  C   UNL A   1      49.239  27.538  27.523  1.00  0.00     0.200 A 
ATOM     64  F   UNL A   1      49.427  26.900  29.787  1.00  0.00    -0.200 F 
ATOM     65  F   UNL A   1      50.419  26.964  27.249  1.00  0.00    -0.200 F 
ENDBRANCH  41  55
BRANCH  42  66
ATOM     66  C   UNL A   1      37.759  32.351  30.470  1.00  0.00     0.064 A 
ATOM     67  C   UNL A   1      37.208  32.085  31.732  1.00  0.00     0.173 A 
ATOM     68  C   UNL A   1      37.011  33.140  29.585  1.00  0.00     0.173 A 
ATOM     69  F   UNL A   1      37.877  31.318  32.607  1.00  0.00    -0.203 F 
ATOM     70  C   UNL A   1      35.951  32.570  32.085  1.00  0.00     0.198 A 
ATOM     71  C   UNL A   1      35.767  33.649  29.950  1.00  0.00     0.198 A 
ATOM     72  F   UNL A   1      37.498  33.429  28.369  1.00  0.00    -0.203 F 
ATOM     73  F   UNL A   1      35.429  32.262  33.280  1.00  0.00    -0.200 F 
ATOM     74  C   UNL A   1      35.234  33.356  31.197  1.00  0.00     0.200 A 
ATOM     75  F   UNL A   1      35.085  34.423  29.095  1.00  0.00    -0.200 F 
ATOM     76  F   UNL A   1      34.028  33.827  31.539  1.00  0.00    -0.200 F 
ENDBRANCH  42  66
BRANCH  54  77
ATOM     77  C   UNL A   1      44.197  35.014  30.529  1.00  0.00     0.064 A 
ATOM     78  C   UNL A   1      44.635  35.312  31.829  1.00  0.00     0.173 A 
ATOM     79  C   UNL A   1      44.280  36.025  29.560  1.00  0.00     0.173 A 
ATOM     80  F   UNL A   1      44.563  34.384  32.795  1.00  0.00    -0.203 F 
ATOM     81  C   UNL A   1      45.100  36.584  32.152  1.00  0.00     0.198 A 
ATOM     82  C   UNL A   1      44.778  37.285  29.879  1.00  0.00     0.198 A 
ATOM     83  F   UNL A   1      43.882  35.790  28.301  1.00  0.00    -0.203 F 
ATOM     84  F   UNL A   1      45.455  36.864  33.414  1.00  0.00    -0.200 F 
ATOM     85  C   UNL A   1      45.177  37.568  31.177  1.00  0.00     0.200 A 
ATOM     86  F   UNL A   1      44.864  38.230  28.933  1.00  0.00    -0.200 F 
ATOM     87  F   UNL A   1      45.624  38.791  31.491  1.00  0.00    -0.200 F 
ENDBRANCH  54  77
ENDBRANCH  28  29
ENDBRANCH  20  23
ENDBRANCH  18  19
ENDBRANCH   1  18
TORSDOF 11
ENDMDL
