MODEL 1
REMARK VINA RESULT:     -12.5      0.000      0.000
REMARK SMILES CCOC(=O)C1=NN(c2ccc(Cl)cc2[N+](=O)[O-])[C@@](C)(C(=O)NCCCNC(=O)c2ccc(-c3c4nc(c(-c5c(F)c(F)c(F)c(F)c5F)c5ccc([nH]5)c(-c5c(F)c(F)c(F)c(F)c5F)c5nc(c(-c6c(F)c(F)c(F)c(F)c6F)c6ccc3[nH]6)C=C5)C=C4)cc2)C1
REMARK SMILES IDX 24 1 23 2 21 3 22 4 19 6 6 7 7 8 93 9 8 10 20 11 4 12 5 13
REMARK SMILES IDX 3 14 2 15 1 16 9 17 10 18 15 19 11 20 14 21 12 22 13 23
REMARK SMILES IDX 16 24 17 25 18 26 25 27 26 28 27 29 28 30 29 32 30 33 31 34
REMARK SMILES IDX 92 35 32 36 91 37 33 38 34 39 35 40 85 41 36 42 90 43 84 44
REMARK SMILES IDX 86 45 37 46 89 47 83 48 82 49 38 51 70 52 50 53 69 54 51 55
REMARK SMILES IDX 54 56 68 57 87 58 52 59 53 60 67 62 88 63 55 64 39 65 40 66
REMARK SMILES IDX 48 67 41 68 42 69 46 70 49 71 43 72 44 73 47 74 45 75 71 76
REMARK SMILES IDX 72 77 80 78 73 79 74 80 78 81 81 82 75 83 76 84 79 85 77 86
REMARK SMILES IDX 56 87 57 88 65 89 58 90 59 91 63 92 66 93 60 94 61 95 64 96
REMARK SMILES IDX 62 97
REMARK H PARENT 23 5 27 31 86 50 54 61
REMARK Flexibility Score: inf
ROOT
ATOM      1  C   UNL A   1      32.829  28.186  22.609  1.00  0.00     0.117 C 
ENDROOT
BRANCH   1   2
ATOM      2  N   UNL A   1      33.339  26.849  22.368  1.00  0.00    -0.354 N 
ATOM      3  C   UNL A   1      33.274  25.665  23.034  1.00  0.00     0.248 C 
ATOM      4  O   UNL A   1      33.922  24.756  22.496  1.00  0.00    -0.272 OA
ATOM      5  H   UNL A   1      33.850  26.784  21.530  1.00  0.00     0.163 HD
BRANCH   3   6
ATOM      6  C   UNL A   1      32.444  25.401  24.328  1.00  0.00     0.145 C 
ATOM      7  C   UNL A   1      30.209  25.944  23.966  1.00  0.00     0.149 C 
ATOM      8  N   UNL A   1      30.240  24.656  23.831  1.00  0.00    -0.168 NA
ATOM      9  C   UNL A   1      31.439  26.581  24.499  1.00  0.00     0.106 C 
ATOM     10  N   UNL A   1      31.508  24.251  24.159  1.00  0.00    -0.242 N 
ATOM     11  C   UNL A   1      33.300  25.390  25.592  1.00  0.00     0.048 C 
BRANCH   7  12
ATOM     12  C   UNL A   1      28.988  26.782  23.708  1.00  0.00     0.354 C 
ATOM     13  O   UNL A   1      27.872  26.411  24.020  1.00  0.00    -0.245 OA
BRANCH  12  14
ATOM     14  O   UNL A   1      29.340  27.887  23.022  1.00  0.00    -0.461 OA
BRANCH  14  15
ATOM     15  C   UNL A   1      28.356  28.929  22.985  1.00  0.00     0.230 C 
ATOM     16  C   UNL A   1      29.025  30.291  22.995  1.00  0.00     0.049 C 
ENDBRANCH  14  15
ENDBRANCH  12  14
ENDBRANCH   7  12
BRANCH  10  17
ATOM     17  C   UNL A   1      31.735  22.885  24.168  1.00  0.00     0.138 A 
ATOM     18  C   UNL A   1      32.070  22.194  22.992  1.00  0.00     0.037 A 
ATOM     19  C   UNL A   1      31.761  22.112  25.352  1.00  0.00     0.295 A 
ATOM     20  C   UNL A   1      32.361  20.820  22.992  1.00  0.00     0.023 A 
ATOM     21  C   UNL A   1      32.055  20.737  25.375  1.00  0.00     0.108 A 
ATOM     22  C   UNL A   1      32.348  20.100  24.182  1.00  0.00     0.048 A 
ATOM     23  Cl  UNL A   1      32.685  18.415  24.170  1.00  0.00    -0.084 Cl
BRANCH  19  24
ATOM     24  N   UNL A   1      31.335  22.685  26.617  1.00  0.00     0.065 N 
ATOM     25  O   UNL A   1      32.180  22.741  27.523  1.00  0.00    -0.258 OA
ATOM     26  O   UNL A   1      30.127  22.942  26.739  1.00  0.00    -0.258 OA
ENDBRANCH  19  24
ENDBRANCH  10  17
ENDBRANCH   3   6
ENDBRANCH   1   2
BRANCH   1  27
ATOM     27  C   UNL A   1      33.843  29.083  23.315  1.00  0.00     0.042 C 
BRANCH  27  28
ATOM     28  C   UNL A   1      33.817  29.013  24.838  1.00  0.00     0.118 C 
BRANCH  28  29
ATOM     29  N   UNL A   1      33.045  30.095  25.428  1.00  0.00    -0.352 N 
ATOM     30  C   UNL A   1      33.251  30.788  26.596  1.00  0.00     0.251 C 
ATOM     31  H   UNL A   1      32.253  30.372  24.913  1.00  0.00     0.163 HD
ATOM     32  O   UNL A   1      32.372  31.532  27.022  1.00  0.00    -0.269 OA
BRANCH  30  33
ATOM     33  C   UNL A   1      34.512  30.644  27.359  1.00  0.00     0.039 A 
ATOM     34  C   UNL A   1      34.825  29.395  27.907  1.00  0.00     0.014 A 
ATOM     35  C   UNL A   1      35.350  31.737  27.602  1.00  0.00     0.014 A 
ATOM     36  C   UNL A   1      36.001  29.226  28.647  1.00  0.00     0.010 A 
ATOM     37  C   UNL A   1      36.542  31.560  28.305  1.00  0.00     0.010 A 
ATOM     38  C   UNL A   1      36.879  30.304  28.833  1.00  0.00    -0.014 A 
BRANCH  38  39
ATOM     39  C   UNL A   1      38.137  30.155  29.604  1.00  0.00     0.031 A 
ATOM     40  C   UNL A   1      39.272  29.356  29.035  1.00  0.00     0.074 A 
ATOM     41  C   UNL A   1      38.249  30.679  30.838  1.00  0.00     0.049 A 
ATOM     42  N   UNL A   1      40.337  28.890  29.637  1.00  0.00    -0.248 NA
ATOM     43  C   UNL A   1      39.189  29.021  27.605  1.00  0.00     0.031 C 
ATOM     44  C   UNL A   1      37.231  31.478  31.520  1.00  0.00     0.029 A 
ATOM     45  N   UNL A   1      39.277  30.603  31.744  1.00  0.00    -0.354 N 
ATOM     46  C   UNL A   1      41.005  28.136  28.684  1.00  0.00     0.074 A 
ATOM     47  C   UNL A   1      40.261  28.255  27.446  1.00  0.00     0.031 C 
ATOM     48  C   UNL A   1      37.693  31.833  32.732  1.00  0.00     0.029 A 
ATOM     49  C   UNL A   1      39.021  31.256  32.923  1.00  0.00     0.049 A 
ATOM     50  H   UNL A   1      40.119  30.125  31.565  1.00  0.00     0.167 HD
ATOM     51  C   UNL A   1      42.119  27.383  28.841  1.00  0.00     0.037 A 
ATOM     52  C   UNL A   1      39.767  31.362  34.037  1.00  0.00     0.037 A 
ATOM     53  C   UNL A   1      42.884  27.299  30.054  1.00  0.00     0.049 A 
ATOM     54  C   UNL A   1      41.093  30.663  34.121  1.00  0.00     0.074 A 
ATOM     55  C   UNL A   1      43.961  26.482  30.351  1.00  0.00     0.029 A 
ATOM     56  N   UNL A   1      42.672  28.101  31.163  1.00  0.00    -0.354 N 
ATOM     57  N   UNL A   1      41.645  29.842  33.264  1.00  0.00    -0.248 NA
ATOM     58  C   UNL A   1      41.893  30.897  35.333  1.00  0.00     0.031 C 
ATOM     59  C   UNL A   1      44.423  26.815  31.633  1.00  0.00     0.029 A 
ATOM     60  C   UNL A   1      43.631  27.838  32.126  1.00  0.00     0.049 A 
ATOM     61  H   UNL A   1      41.947  28.761  31.253  1.00  0.00     0.167 HD
ATOM     62  C   UNL A   1      42.839  29.438  33.840  1.00  0.00     0.074 A 
ATOM     63  C   UNL A   1      42.952  30.131  35.107  1.00  0.00     0.031 C 
ATOM     64  C   UNL A   1      43.744  28.548  33.371  1.00  0.00     0.037 A 
BRANCH  51  65
ATOM     65  C   UNL A   1      42.541  26.548  27.678  1.00  0.00     0.064 A 
ATOM     66  C   UNL A   1      41.974  25.291  27.436  1.00  0.00     0.173 A 
ATOM     67  C   UNL A   1      43.514  27.023  26.786  1.00  0.00     0.173 A 
ATOM     68  F   UNL A   1      41.053  24.794  28.275  1.00  0.00    -0.203 F 
ATOM     69  C   UNL A   1      42.372  24.532  26.338  1.00  0.00     0.198 A 
ATOM     70  C   UNL A   1      43.904  26.265  25.687  1.00  0.00     0.198 A 
ATOM     71  F   UNL A   1      44.087  28.219  26.987  1.00  0.00    -0.203 F 
ATOM     72  F   UNL A   1      41.834  23.323  26.131  1.00  0.00    -0.200 F 
ATOM     73  C   UNL A   1      43.335  25.020  25.465  1.00  0.00     0.200 A 
ATOM     74  F   UNL A   1      44.837  26.735  24.847  1.00  0.00    -0.200 F 
ATOM     75  F   UNL A   1      43.719  24.286  24.412  1.00  0.00    -0.200 F 
ENDBRANCH  51  65
BRANCH  52  76
ATOM     76  C   UNL A   1      39.266  32.163  35.175  1.00  0.00     0.064 A 
ATOM     77  C   UNL A   1      39.507  33.541  35.236  1.00  0.00     0.173 A 
ATOM     78  C   UNL A   1      38.530  31.571  36.208  1.00  0.00     0.173 A 
ATOM     79  F   UNL A   1      40.224  34.139  34.273  1.00  0.00    -0.203 F 
ATOM     80  C   UNL A   1      39.029  34.303  36.299  1.00  0.00     0.198 A 
ATOM     81  C   UNL A   1      38.047  32.336  37.267  1.00  0.00     0.198 A 
ATOM     82  F   UNL A   1      38.284  30.254  36.187  1.00  0.00    -0.203 F 
ATOM     83  F   UNL A   1      39.283  35.617  36.346  1.00  0.00    -0.200 F 
ATOM     84  C   UNL A   1      38.297  33.700  37.312  1.00  0.00     0.200 A 
ATOM     85  F   UNL A   1      37.341  31.753  38.246  1.00  0.00    -0.200 F 
ATOM     86  F   UNL A   1      37.838  34.434  38.335  1.00  0.00    -0.200 F 
ENDBRANCH  52  76
BRANCH  64  87
ATOM     87  C   UNL A   1      44.934  28.270  34.229  1.00  0.00     0.064 A 
ATOM     88  C   UNL A   1      44.902  27.248  35.188  1.00  0.00     0.173 A 
ATOM     89  C   UNL A   1      46.118  29.003  34.074  1.00  0.00     0.173 A 
ATOM     90  F   UNL A   1      43.785  26.530  35.373  1.00  0.00    -0.203 F 
ATOM     91  C   UNL A   1      46.021  26.969  35.967  1.00  0.00     0.198 A 
ATOM     92  C   UNL A   1      47.235  28.720  34.856  1.00  0.00     0.198 A 
ATOM     93  F   UNL A   1      46.184  29.997  33.177  1.00  0.00    -0.203 F 
ATOM     94  F   UNL A   1      45.971  25.992  36.884  1.00  0.00    -0.200 F 
ATOM     95  C   UNL A   1      47.186  27.704  35.799  1.00  0.00     0.200 A 
ATOM     96  F   UNL A   1      48.357  29.437  34.703  1.00  0.00    -0.200 F 
ATOM     97  F   UNL A   1      48.261  27.437  36.554  1.00  0.00    -0.200 F 
ENDBRANCH  64  87
ENDBRANCH  38  39
ENDBRANCH  30  33
ENDBRANCH  28  29
ENDBRANCH  27  28
ENDBRANCH   1  27
TORSDOF 15
ENDMDL
MODEL 2
REMARK VINA RESULT:     -12.5      1.711      3.845
REMARK SMILES CCOC(=O)C1=NN(c2ccc(Cl)cc2[N+](=O)[O-])[C@@](C)(C(=O)NCCCNC(=O)c2ccc(-c3c4nc(c(-c5c(F)c(F)c(F)c(F)c5F)c5ccc([nH]5)c(-c5c(F)c(F)c(F)c(F)c5F)c5nc(c(-c6c(F)c(F)c(F)c(F)c6F)c6ccc3[nH]6)C=C5)C=C4)cc2)C1
REMARK SMILES IDX 24 1 23 2 21 3 22 4 19 6 6 7 7 8 93 9 8 10 20 11 4 12 5 13
REMARK SMILES IDX 3 14 2 15 1 16 9 17 10 18 15 19 11 20 14 21 12 22 13 23
REMARK SMILES IDX 16 24 17 25 18 26 25 27 26 28 27 29 28 30 29 32 30 33 31 34
REMARK SMILES IDX 92 35 32 36 91 37 33 38 34 39 35 40 85 41 36 42 90 43 84 44
REMARK SMILES IDX 86 45 37 46 89 47 83 48 82 49 38 51 70 52 50 53 69 54 51 55
REMARK SMILES IDX 54 56 68 57 87 58 52 59 53 60 67 62 88 63 55 64 39 65 40 66
REMARK SMILES IDX 48 67 41 68 42 69 46 70 49 71 43 72 44 73 47 74 45 75 71 76
REMARK SMILES IDX 72 77 80 78 73 79 74 80 78 81 81 82 75 83 76 84 79 85 77 86
REMARK SMILES IDX 56 87 57 88 65 89 58 90 59 91 63 92 66 93 60 94 61 95 64 96
REMARK SMILES IDX 62 97
REMARK H PARENT 23 5 27 31 86 50 54 61
REMARK Flexibility Score: inf
ROOT
ATOM      1  C   UNL A   1      31.211  27.018  26.520  1.00  0.00     0.117 C 
ENDROOT
BRANCH   1   2
ATOM      2  N   UNL A   1      31.437  25.631  26.879  1.00  0.00    -0.354 N 
ATOM      3  C   UNL A   1      32.019  24.565  26.267  1.00  0.00     0.248 C 
ATOM      4  O   UNL A   1      31.939  23.513  26.916  1.00  0.00    -0.272 OA
ATOM      5  H   UNL A   1      31.087  25.409  27.772  1.00  0.00     0.163 HD
BRANCH   3   6
ATOM      6  C   UNL A   1      32.772  24.609  24.901  1.00  0.00     0.145 C 
ATOM      7  C   UNL A   1      32.239  22.728  23.637  1.00  0.00     0.149 C 
ATOM      8  N   UNL A   1      31.480  23.656  23.146  1.00  0.00    -0.168 NA
ATOM      9  C   UNL A   1      33.285  23.169  24.593  1.00  0.00     0.106 C 
ATOM     10  N   UNL A   1      31.836  24.828  23.761  1.00  0.00    -0.242 N 
ATOM     11  C   UNL A   1      34.011  25.500  24.933  1.00  0.00     0.048 C 
BRANCH   7  12
ATOM     12  C   UNL A   1      32.173  21.286  23.219  1.00  0.00     0.354 C 
ATOM     13  O   UNL A   1      32.072  20.955  22.052  1.00  0.00    -0.245 OA
BRANCH  12  14
ATOM     14  O   UNL A   1      32.143  20.502  24.315  1.00  0.00    -0.461 OA
BRANCH  14  15
ATOM     15  C   UNL A   1      32.658  19.176  24.138  1.00  0.00     0.230 C 
ATOM     16  C   UNL A   1      34.127  19.124  24.516  1.00  0.00     0.049 C 
ENDBRANCH  14  15
ENDBRANCH  12  14
ENDBRANCH   7  12
BRANCH  10  17
ATOM     17  C   UNL A   1      31.200  25.974  23.313  1.00  0.00     0.138 A 
ATOM     18  C   UNL A   1      29.902  26.303  23.737  1.00  0.00     0.037 A 
ATOM     19  C   UNL A   1      31.834  26.944  22.501  1.00  0.00     0.295 A 
ATOM     20  C   UNL A   1      29.266  27.490  23.341  1.00  0.00     0.023 A 
ATOM     21  C   UNL A   1      31.217  28.141  22.097  1.00  0.00     0.108 A 
ATOM     22  C   UNL A   1      29.925  28.400  22.520  1.00  0.00     0.048 A 
ATOM     23  Cl  UNL A   1      29.131  29.840  22.023  1.00  0.00    -0.084 Cl
BRANCH  19  24
ATOM     24  N   UNL A   1      33.136  26.678  21.914  1.00  0.00     0.065 N 
ATOM     25  O   UNL A   1      34.011  27.543  22.069  1.00  0.00    -0.258 OA
ATOM     26  O   UNL A   1      33.230  25.677  21.186  1.00  0.00    -0.258 OA
ENDBRANCH  19  24
ENDBRANCH  10  17
ENDBRANCH   3   6
ENDBRANCH   1   2
BRANCH   1  27
ATOM     27  C   UNL A   1      32.267  27.956  27.098  1.00  0.00     0.042 C 
BRANCH  27  28
ATOM     28  C   UNL A   1      33.017  28.798  26.071  1.00  0.00     0.118 C 
BRANCH  28  29
ATOM     29  N   UNL A   1      32.675  30.208  26.159  1.00  0.00    -0.352 N 
ATOM     30  C   UNL A   1      33.227  31.201  26.931  1.00  0.00     0.251 C 
ATOM     31  H   UNL A   1      31.934  30.496  25.578  1.00  0.00     0.163 HD
ATOM     32  O   UNL A   1      32.664  32.290  27.011  1.00  0.00    -0.269 OA
BRANCH  30  33
ATOM     33  C   UNL A   1      34.483  30.978  27.682  1.00  0.00     0.039 A 
ATOM     34  C   UNL A   1      35.355  32.057  27.868  1.00  0.00     0.014 A 
ATOM     35  C   UNL A   1      34.845  29.707  28.141  1.00  0.00     0.014 A 
ATOM     36  C   UNL A   1      36.557  31.877  28.559  1.00  0.00     0.010 A 
ATOM     37  C   UNL A   1      36.025  29.537  28.867  1.00  0.00     0.010 A 
ATOM     38  C   UNL A   1      36.891  30.620  29.083  1.00  0.00    -0.014 A 
BRANCH  38  39
ATOM     39  C   UNL A   1      38.154  30.400  29.828  1.00  0.00     0.031 A 
ATOM     40  C   UNL A   1      39.235  29.547  29.232  1.00  0.00     0.074 A 
ATOM     41  C   UNL A   1      38.317  30.908  31.064  1.00  0.00     0.049 A 
ATOM     42  N   UNL A   1      40.285  29.021  29.810  1.00  0.00    -0.248 NA
ATOM     43  C   UNL A   1      39.107  29.227  27.802  1.00  0.00     0.031 C 
ATOM     44  C   UNL A   1      37.356  31.754  31.770  1.00  0.00     0.029 A 
ATOM     45  N   UNL A   1      39.357  30.771  31.949  1.00  0.00    -0.354 N 
ATOM     46  C   UNL A   1      40.895  28.240  28.839  1.00  0.00     0.074 A 
ATOM     47  C   UNL A   1      40.134  28.408  27.617  1.00  0.00     0.031 C 
ATOM     48  C   UNL A   1      37.858  32.075  32.975  1.00  0.00     0.029 A 
ATOM     49  C   UNL A   1      39.158  31.427  33.137  1.00  0.00     0.049 A 
ATOM     50  H   UNL A   1      40.169  30.251  31.750  1.00  0.00     0.167 HD
ATOM     51  C   UNL A   1      41.971  27.430  28.970  1.00  0.00     0.037 A 
ATOM     52  C   UNL A   1      39.929  31.486  34.237  1.00  0.00     0.037 A 
ATOM     53  C   UNL A   1      42.753  27.296  30.167  1.00  0.00     0.049 A 
ATOM     54  C   UNL A   1      41.218  30.718  34.290  1.00  0.00     0.074 A 
ATOM     55  C   UNL A   1      43.791  26.421  30.437  1.00  0.00     0.029 A 
ATOM     56  N   UNL A   1      42.604  28.100  31.285  1.00  0.00    -0.354 N 
ATOM     57  N   UNL A   1      41.710  29.876  33.418  1.00  0.00    -0.248 NA
ATOM     58  C   UNL A   1      42.052  30.900  35.488  1.00  0.00     0.031 C 
ATOM     59  C   UNL A   1      44.294  26.720  31.712  1.00  0.00     0.029 A 
ATOM     60  C   UNL A   1      43.566  27.779  32.228  1.00  0.00     0.049 A 
ATOM     61  H   UNL A   1      41.917  28.796  31.393  1.00  0.00     0.167 HD
ATOM     62  C   UNL A   1      42.892  29.406  33.967  1.00  0.00     0.074 A 
ATOM     63  C   UNL A   1      43.066  30.082  35.237  1.00  0.00     0.031 C 
ATOM     64  C   UNL A   1      43.741  28.473  33.475  1.00  0.00     0.037 A 
BRANCH  51  65
ATOM     65  C   UNL A   1      42.326  26.583  27.793  1.00  0.00     0.064 A 
ATOM     66  C   UNL A   1      43.302  26.982  26.872  1.00  0.00     0.173 A 
ATOM     67  C   UNL A   1      41.692  25.347  27.598  1.00  0.00     0.173 A 
ATOM     68  F   UNL A   1      43.919  28.165  27.013  1.00  0.00    -0.203 F 
ATOM     69  C   UNL A   1      43.628  26.172  25.787  1.00  0.00     0.198 A 
ATOM     70  C   UNL A   1      42.026  24.537  26.517  1.00  0.00     0.198 A 
ATOM     71  F   UNL A   1      40.747  24.931  28.454  1.00  0.00    -0.203 F 
ATOM     72  F   UNL A   1      44.550  26.577  24.903  1.00  0.00    -0.200 F 
ATOM     73  C   UNL A   1      42.992  24.951  25.612  1.00  0.00     0.200 A 
ATOM     74  F   UNL A   1      41.407  23.361  26.346  1.00  0.00    -0.200 F 
ATOM     75  F   UNL A   1      43.304  24.175  24.565  1.00  0.00    -0.200 F 
ENDBRANCH  51  65
BRANCH  52  76
ATOM     76  C   UNL A   1      39.493  32.303  35.390  1.00  0.00     0.064 A 
ATOM     77  C   UNL A   1      38.704  31.743  36.402  1.00  0.00     0.173 A 
ATOM     78  C   UNL A   1      39.866  33.648  35.505  1.00  0.00     0.173 A 
ATOM     79  F   UNL A   1      38.313  30.463  36.315  1.00  0.00    -0.203 F 
ATOM     80  C   UNL A   1      38.299  32.505  37.495  1.00  0.00     0.198 A 
ATOM     81  C   UNL A   1      39.465  34.405  36.602  1.00  0.00     0.198 A 
ATOM     82  F   UNL A   1      40.616  34.220  34.553  1.00  0.00    -0.203 F 
ATOM     83  F   UNL A   1      37.532  31.954  38.445  1.00  0.00    -0.200 F 
ATOM     84  C   UNL A   1      38.682  33.835  37.595  1.00  0.00     0.200 A 
ATOM     85  F   UNL A   1      39.835  35.690  36.698  1.00  0.00    -0.200 F 
ATOM     86  F   UNL A   1      38.292  34.567  38.647  1.00  0.00    -0.200 F 
ENDBRANCH  52  76
BRANCH  64  87
ATOM     87  C   UNL A   1      44.931  28.127  34.308  1.00  0.00     0.064 A 
ATOM     88  C   UNL A   1      44.857  27.114  35.275  1.00  0.00     0.173 A 
ATOM     89  C   UNL A   1      46.153  28.784  34.121  1.00  0.00     0.173 A 
ATOM     90  F   UNL A   1      43.702  26.469  35.490  1.00  0.00    -0.203 F 
ATOM     91  C   UNL A   1      45.975  26.771  36.030  1.00  0.00     0.198 A 
ATOM     92  C   UNL A   1      47.269  28.437  34.879  1.00  0.00     0.198 A 
ATOM     93  F   UNL A   1      46.261  29.766  33.215  1.00  0.00    -0.203 F 
ATOM     94  F   UNL A   1      45.885  25.805  36.955  1.00  0.00    -0.200 F 
ATOM     95  C   UNL A   1      47.178  27.431  35.831  1.00  0.00     0.200 A 
ATOM     96  F   UNL A   1      48.429  29.082  34.695  1.00  0.00    -0.200 F 
ATOM     97  F   UNL A   1      48.252  27.103  36.563  1.00  0.00    -0.200 F 
ENDBRANCH  64  87
ENDBRANCH  38  39
ENDBRANCH  30  33
ENDBRANCH  28  29
ENDBRANCH  27  28
ENDBRANCH   1  27
TORSDOF 15
ENDMDL
MODEL 3
REMARK VINA RESULT:     -12.4      1.354      2.684
REMARK SMILES CCOC(=O)C1=NN(c2ccc(Cl)cc2[N+](=O)[O-])[C@@](C)(C(=O)NCCCNC(=O)c2ccc(-c3c4nc(c(-c5c(F)c(F)c(F)c(F)c5F)c5ccc([nH]5)c(-c5c(F)c(F)c(F)c(F)c5F)c5nc(c(-c6c(F)c(F)c(F)c(F)c6F)c6ccc3[nH]6)C=C5)C=C4)cc2)C1
REMARK SMILES IDX 24 1 23 2 21 3 22 4 19 6 6 7 7 8 93 9 8 10 20 11 4 12 5 13
REMARK SMILES IDX 3 14 2 15 1 16 9 17 10 18 15 19 11 20 14 21 12 22 13 23
REMARK SMILES IDX 16 24 17 25 18 26 25 27 26 28 27 29 28 30 29 32 30 33 31 34
REMARK SMILES IDX 92 35 32 36 91 37 33 38 34 39 35 40 85 41 36 42 90 43 84 44
REMARK SMILES IDX 86 45 37 46 89 47 83 48 82 49 38 51 70 52 50 53 69 54 51 55
REMARK SMILES IDX 54 56 68 57 87 58 52 59 53 60 67 62 88 63 55 64 39 65 40 66
REMARK SMILES IDX 48 67 41 68 42 69 46 70 49 71 43 72 44 73 47 74 45 75 71 76
REMARK SMILES IDX 72 77 80 78 73 79 74 80 78 81 81 82 75 83 76 84 79 85 77 86
REMARK SMILES IDX 56 87 57 88 65 89 58 90 59 91 63 92 66 93 60 94 61 95 64 96
REMARK SMILES IDX 62 97
REMARK H PARENT 23 5 27 31 86 50 54 61
REMARK Flexibility Score: inf
ROOT
ATOM      1  C   UNL A   1      31.488  27.756  26.099  1.00  0.00     0.117 C 
ENDROOT
BRANCH   1   2
ATOM      2  N   UNL A   1      31.056  26.443  26.542  1.00  0.00    -0.354 N 
ATOM      3  C   UNL A   1      30.782  25.265  25.921  1.00  0.00     0.248 C 
ATOM      4  O   UNL A   1      30.367  24.384  26.686  1.00  0.00    -0.272 OA
ATOM      5  H   UNL A   1      30.929  26.395  27.516  1.00  0.00     0.163 HD
BRANCH   3   6
ATOM      6  C   UNL A   1      30.995  24.973  24.403  1.00  0.00     0.145 C 
ATOM      7  C   UNL A   1      31.219  26.973  23.231  1.00  0.00     0.149 C 
ATOM      8  N   UNL A   1      32.439  26.568  23.388  1.00  0.00    -0.168 NA
ATOM      9  C   UNL A   1      30.152  26.008  23.596  1.00  0.00     0.106 C 
ATOM     10  N   UNL A   1      32.376  25.324  23.961  1.00  0.00    -0.242 N 
ATOM     11  C   UNL A   1      30.486  23.597  23.985  1.00  0.00     0.048 C 
BRANCH   7  12
ATOM     12  C   UNL A   1      30.849  28.297  22.623  1.00  0.00     0.354 C 
ATOM     13  O   UNL A   1      31.626  29.233  22.592  1.00  0.00    -0.245 OA
BRANCH  12  14
ATOM     14  O   UNL A   1      29.555  28.272  22.247  1.00  0.00    -0.461 OA
BRANCH  14  15
ATOM     15  C   UNL A   1      28.763  29.380  22.695  1.00  0.00     0.230 C 
ATOM     16  C   UNL A   1      27.359  28.919  23.044  1.00  0.00     0.049 C 
ENDBRANCH  14  15
ENDBRANCH  12  14
ENDBRANCH   7  12
BRANCH  10  17
ATOM     17  C   UNL A   1      33.582  24.666  24.136  1.00  0.00     0.138 A 
ATOM     18  C   UNL A   1      34.394  24.915  25.254  1.00  0.00     0.037 A 
ATOM     19  C   UNL A   1      34.029  23.630  23.283  1.00  0.00     0.295 A 
ATOM     20  C   UNL A   1      35.590  24.214  25.478  1.00  0.00     0.023 A 
ATOM     21  C   UNL A   1      35.220  22.912  23.491  1.00  0.00     0.108 A 
ATOM     22  C   UNL A   1      35.998  23.220  24.594  1.00  0.00     0.048 A 
ATOM     23  Cl  UNL A   1      37.473  22.382  24.864  1.00  0.00    -0.084 Cl
BRANCH  19  24
ATOM     24  N   UNL A   1      33.332  23.345  22.040  1.00  0.00     0.065 N 
ATOM     25  O   UNL A   1      32.797  22.231  21.937  1.00  0.00    -0.258 OA
ATOM     26  O   UNL A   1      33.448  24.179  21.128  1.00  0.00    -0.258 OA
ENDBRANCH  19  24
ENDBRANCH  10  17
ENDBRANCH   3   6
ENDBRANCH   1   2
BRANCH   1  27
ATOM     27  C   UNL A   1      32.979  27.992  26.328  1.00  0.00     0.042 C 
BRANCH  27  28
ATOM     28  C   UNL A   1      33.576  29.158  25.546  1.00  0.00     0.118 C 
BRANCH  28  29
ATOM     29  N   UNL A   1      33.026  30.439  25.959  1.00  0.00    -0.352 N 
ATOM     30  C   UNL A   1      33.395  31.262  26.995  1.00  0.00     0.251 C 
ATOM     31  H   UNL A   1      32.273  30.766  25.415  1.00  0.00     0.163 HD
ATOM     32  O   UNL A   1      32.675  32.208  27.303  1.00  0.00    -0.269 OA
BRANCH  30  33
ATOM     33  C   UNL A   1      34.641  31.021  27.759  1.00  0.00     0.039 A 
ATOM     34  C   UNL A   1      35.609  32.030  27.799  1.00  0.00     0.014 A 
ATOM     35  C   UNL A   1      34.896  29.790  28.371  1.00  0.00     0.014 A 
ATOM     36  C   UNL A   1      36.804  31.830  28.498  1.00  0.00     0.010 A 
ATOM     37  C   UNL A   1      36.070  29.605  29.103  1.00  0.00     0.010 A 
ATOM     38  C   UNL A   1      37.034  30.623  29.174  1.00  0.00    -0.014 A 
BRANCH  38  39
ATOM     39  C   UNL A   1      38.286  30.384  29.931  1.00  0.00     0.031 A 
ATOM     40  C   UNL A   1      39.364  29.522  29.340  1.00  0.00     0.074 A 
ATOM     41  C   UNL A   1      38.442  30.882  31.171  1.00  0.00     0.049 A 
ATOM     42  N   UNL A   1      40.401  28.981  29.925  1.00  0.00    -0.248 NA
ATOM     43  C   UNL A   1      39.247  29.213  27.907  1.00  0.00     0.031 C 
ATOM     44  C   UNL A   1      37.483  31.735  31.873  1.00  0.00     0.029 A 
ATOM     45  N   UNL A   1      39.472  30.728  32.066  1.00  0.00    -0.354 N 
ATOM     46  C   UNL A   1      41.012  28.199  28.957  1.00  0.00     0.074 A 
ATOM     47  C   UNL A   1      40.266  28.383  27.728  1.00  0.00     0.031 C 
ATOM     48  C   UNL A   1      37.977  32.043  33.085  1.00  0.00     0.029 A 
ATOM     49  C   UNL A   1      39.268  31.379  33.256  1.00  0.00     0.049 A 
ATOM     50  H   UNL A   1      40.279  30.200  31.872  1.00  0.00     0.167 HD
ATOM     51  C   UNL A   1      42.077  27.375  29.093  1.00  0.00     0.037 A 
ATOM     52  C   UNL A   1      40.028  31.422  34.365  1.00  0.00     0.037 A 
ATOM     53  C   UNL A   1      42.846  27.225  30.298  1.00  0.00     0.049 A 
ATOM     54  C   UNL A   1      41.307  30.639  34.426  1.00  0.00     0.074 A 
ATOM     55  C   UNL A   1      43.871  26.337  30.573  1.00  0.00     0.029 A 
ATOM     56  N   UNL A   1      42.695  28.024  31.418  1.00  0.00    -0.354 N 
ATOM     57  N   UNL A   1      41.799  29.797  33.553  1.00  0.00    -0.248 NA
ATOM     58  C   UNL A   1      42.131  30.804  35.633  1.00  0.00     0.031 C 
ATOM     59  C   UNL A   1      44.364  26.623  31.855  1.00  0.00     0.029 A 
ATOM     60  C   UNL A   1      43.643  27.687  32.369  1.00  0.00     0.049 A 
ATOM     61  H   UNL A   1      42.014  28.728  31.525  1.00  0.00     0.167 HD
ATOM     62  C   UNL A   1      42.970  29.310  34.112  1.00  0.00     0.074 A 
ATOM     63  C   UNL A   1      43.138  29.976  35.387  1.00  0.00     0.031 C 
ATOM     64  C   UNL A   1      43.812  28.370  33.622  1.00  0.00     0.037 A 
BRANCH  51  65
ATOM     65  C   UNL A   1      42.435  26.531  27.915  1.00  0.00     0.064 A 
ATOM     66  C   UNL A   1      43.407  26.938  26.992  1.00  0.00     0.173 A 
ATOM     67  C   UNL A   1      41.808  25.292  27.720  1.00  0.00     0.173 A 
ATOM     68  F   UNL A   1      44.017  28.124  27.133  1.00  0.00    -0.203 F 
ATOM     69  C   UNL A   1      43.735  26.131  25.905  1.00  0.00     0.198 A 
ATOM     70  C   UNL A   1      42.145  24.486  26.637  1.00  0.00     0.198 A 
ATOM     71  F   UNL A   1      40.868  24.870  28.578  1.00  0.00    -0.203 F 
ATOM     72  F   UNL A   1      44.653  26.542  25.020  1.00  0.00    -0.200 F 
ATOM     73  C   UNL A   1      43.106  24.906  25.731  1.00  0.00     0.200 A 
ATOM     74  F   UNL A   1      41.532  23.306  26.467  1.00  0.00    -0.200 F 
ATOM     75  F   UNL A   1      43.421  24.133  24.682  1.00  0.00    -0.200 F 
ENDBRANCH  51  65
BRANCH  52  76
ATOM     76  C   UNL A   1      39.589  32.237  35.517  1.00  0.00     0.064 A 
ATOM     77  C   UNL A   1      38.740  31.696  36.491  1.00  0.00     0.173 A 
ATOM     78  C   UNL A   1      40.018  33.561  35.673  1.00  0.00     0.173 A 
ATOM     79  F   UNL A   1      38.295  30.437  36.365  1.00  0.00    -0.203 F 
ATOM     80  C   UNL A   1      38.332  32.455  37.584  1.00  0.00     0.198 A 
ATOM     81  C   UNL A   1      39.614  34.316  36.770  1.00  0.00     0.198 A 
ATOM     82  F   UNL A   1      40.827  34.115  34.759  1.00  0.00    -0.203 F 
ATOM     83  F   UNL A   1      37.509  31.923  38.496  1.00  0.00    -0.200 F 
ATOM     84  C   UNL A   1      38.771  33.764  37.724  1.00  0.00     0.200 A 
ATOM     85  F   UNL A   1      40.038  35.580  36.904  1.00  0.00    -0.200 F 
ATOM     86  F   UNL A   1      38.378  34.494  38.777  1.00  0.00    -0.200 F 
ENDBRANCH  52  76
BRANCH  64  87
ATOM     87  C   UNL A   1      44.990  28.006  34.466  1.00  0.00     0.064 A 
ATOM     88  C   UNL A   1      44.900  26.977  35.414  1.00  0.00     0.173 A 
ATOM     89  C   UNL A   1      46.217  28.661  34.306  1.00  0.00     0.173 A 
ATOM     90  F   UNL A   1      43.739  26.333  35.602  1.00  0.00    -0.203 F 
ATOM     91  C   UNL A   1      46.005  26.617  36.178  1.00  0.00     0.198 A 
ATOM     92  C   UNL A   1      47.321  28.297  35.074  1.00  0.00     0.198 A 
ATOM     93  F   UNL A   1      46.340  29.658  33.418  1.00  0.00    -0.203 F 
ATOM     94  F   UNL A   1      45.900  25.635  37.085  1.00  0.00    -0.200 F 
ATOM     95  C   UNL A   1      47.214  27.275  36.007  1.00  0.00     0.200 A 
ATOM     96  F   UNL A   1      48.485  28.940  34.916  1.00  0.00    -0.200 F 
ATOM     97  F   UNL A   1      48.276  26.930  36.748  1.00  0.00    -0.200 F 
ENDBRANCH  64  87
ENDBRANCH  38  39
ENDBRANCH  30  33
ENDBRANCH  28  29
ENDBRANCH  27  28
ENDBRANCH   1  27
TORSDOF 15
ENDMDL
