MODEL 1
REMARK VINA RESULT:     -13.2      0.000      0.000
REMARK SMILES O=C(NCCCNC(=O)[C@@]1(Cl)C=CC=C(c2ccccc2)[C@H]1Cl)c1ccc(-c2c3nc(c(-c4c(F)c(F)c(F)c(F)c4F)c4ccc([nH]4)c(-c4c(F)c(F)c(F)c(F)c4F)c4nc(c(-c5c(F)c(F)c(F)c(F)c5F)c5ccc2[nH]5)C=C4)C=C3)cc1
REMARK SMILES IDX 4 1 3 2 1 3 2 4 24 6 25 7 86 8 26 9 85 10 27 11 28 12 29 13
REMARK SMILES IDX 79 14 30 15 84 16 78 17 80 18 31 19 83 20 77 21 76 22 32 24
REMARK SMILES IDX 64 25 44 26 63 27 45 28 48 29 62 30 81 31 46 32 47 33 61 35
REMARK SMILES IDX 82 36 49 37 33 38 34 39 42 40 35 41 36 42 40 43 43 44 37 45
REMARK SMILES IDX 38 46 41 47 39 48 65 49 66 50 74 51 67 52 68 53 72 54 75 55
REMARK SMILES IDX 69 56 70 57 73 58 71 59 50 60 51 61 59 62 52 63 53 64 57 65
REMARK SMILES IDX 60 66 54 67 55 68 58 69 56 70 5 71 6 72 7 73 8 74 9 76 10 77
REMARK SMILES IDX 11 78 12 79 22 80 13 81 15 82 23 83 14 84 16 85 17 86 21 87
REMARK SMILES IDX 18 88 20 89 19 90
REMARK H PARENT 3 5 80 23 48 34 7 75
REMARK Flexibility Score: inf
ROOT
ATOM      1  C   UNL A   1      32.816  29.513  26.170  1.00  0.00     0.118 C 
ENDROOT
BRANCH   1   2
ATOM      2  N   UNL A   1      32.629  30.932  26.431  1.00  0.00    -0.352 N 
ATOM      3  O   UNL A   1      32.885  32.910  27.473  1.00  0.00    -0.269 OA
ATOM      4  C   UNL A   1      33.325  31.791  27.251  1.00  0.00     0.251 C 
ATOM      5  H   UNL A   1      31.883  31.346  25.940  1.00  0.00     0.163 HD
BRANCH   4   6
ATOM      6  C   UNL A   1      34.589  31.358  27.888  1.00  0.00     0.039 A 
ATOM      7  C   UNL A   1      34.763  30.044  28.322  1.00  0.00     0.014 A 
ATOM      8  C   UNL A   1      35.629  32.281  28.032  1.00  0.00     0.014 A 
ATOM      9  C   UNL A   1      35.891  29.704  29.059  1.00  0.00     0.010 A 
ATOM     10  C   UNL A   1      36.811  31.906  28.679  1.00  0.00     0.010 A 
ATOM     11  C   UNL A   1      36.934  30.626  29.239  1.00  0.00    -0.014 A 
BRANCH  11  12
ATOM     12  C   UNL A   1      38.150  30.205  29.983  1.00  0.00     0.031 A 
ATOM     13  C   UNL A   1      38.369  30.615  31.413  1.00  0.00     0.074 A 
ATOM     14  C   UNL A   1      39.038  29.399  29.368  1.00  0.00     0.049 A 
ATOM     15  N   UNL A   1      39.346  30.290  32.224  1.00  0.00    -0.248 NA
ATOM     16  C   UNL A   1      37.372  31.517  32.011  1.00  0.00     0.031 C 
ATOM     17  C   UNL A   1      38.940  28.946  27.979  1.00  0.00     0.029 A 
ATOM     18  N   UNL A   1      40.177  28.794  29.835  1.00  0.00    -0.354 N 
ATOM     19  C   UNL A   1      39.096  30.966  33.413  1.00  0.00     0.074 A 
ATOM     20  C   UNL A   1      37.889  31.738  33.212  1.00  0.00     0.031 C 
ATOM     21  C   UNL A   1      39.935  28.084  27.726  1.00  0.00     0.029 A 
ATOM     22  C   UNL A   1      40.778  27.974  28.911  1.00  0.00     0.049 A 
ATOM     23  H   UNL A   1      40.530  28.934  30.743  1.00  0.00     0.167 HD
ATOM     24  C   UNL A   1      39.807  30.936  34.567  1.00  0.00     0.037 A 
ATOM     25  C   UNL A   1      41.886  27.219  29.005  1.00  0.00     0.037 A 
ATOM     26  C   UNL A   1      40.991  30.140  34.770  1.00  0.00     0.049 A 
ATOM     27  C   UNL A   1      42.653  27.206  30.296  1.00  0.00     0.074 A 
ATOM     28  C   UNL A   1      41.753  30.004  35.919  1.00  0.00     0.029 A 
ATOM     29  N   UNL A   1      41.586  29.346  33.801  1.00  0.00    -0.354 N 
ATOM     30  N   UNL A   1      42.384  27.818  31.423  1.00  0.00    -0.248 NA
ATOM     31  C   UNL A   1      43.879  26.400  30.325  1.00  0.00     0.031 C 
ATOM     32  C   UNL A   1      42.835  29.166  35.630  1.00  0.00     0.029 A 
ATOM     33  C   UNL A   1      42.719  28.736  34.319  1.00  0.00     0.049 A 
ATOM     34  H   UNL A   1      41.254  29.232  32.882  1.00  0.00     0.167 HD
ATOM     35  C   UNL A   1      43.393  27.455  32.303  1.00  0.00     0.074 A 
ATOM     36  C   UNL A   1      44.269  26.554  31.583  1.00  0.00     0.031 C 
ATOM     37  C   UNL A   1      43.579  27.838  33.590  1.00  0.00     0.037 A 
BRANCH  24  38
ATOM     38  C   UNL A   1      39.338  31.806  35.698  1.00  0.00     0.064 A 
ATOM     39  C   UNL A   1      38.382  31.366  36.626  1.00  0.00     0.173 A 
ATOM     40  C   UNL A   1      39.889  33.084  35.882  1.00  0.00     0.173 A 
ATOM     41  F   UNL A   1      37.816  30.157  36.491  1.00  0.00    -0.203 F 
ATOM     42  C   UNL A   1      37.975  32.183  37.679  1.00  0.00     0.198 A 
ATOM     43  C   UNL A   1      39.501  33.886  36.952  1.00  0.00     0.198 A 
ATOM     44  F   UNL A   1      40.812  33.552  35.029  1.00  0.00    -0.203 F 
ATOM     45  F   UNL A   1      37.028  31.758  38.527  1.00  0.00    -0.200 F 
ATOM     46  C   UNL A   1      38.540  33.439  37.845  1.00  0.00     0.200 A 
ATOM     47  F   UNL A   1      40.057  35.095  37.118  1.00  0.00    -0.200 F 
ATOM     48  F   UNL A   1      38.153  34.220  38.863  1.00  0.00    -0.200 F 
ENDBRANCH  24  38
BRANCH  25  49
ATOM     49  C   UNL A   1      42.325  26.403  27.843  1.00  0.00     0.064 A 
ATOM     50  C   UNL A   1      43.295  26.881  26.951  1.00  0.00     0.173 A 
ATOM     51  C   UNL A   1      41.796  25.126  27.609  1.00  0.00     0.173 A 
ATOM     52  F   UNL A   1      43.816  28.105  27.124  1.00  0.00    -0.203 F 
ATOM     53  C   UNL A   1      43.707  26.119  25.861  1.00  0.00     0.198 A 
ATOM     54  C   UNL A   1      42.231  24.351  26.536  1.00  0.00     0.198 A 
ATOM     55  F   UNL A   1      40.868  24.620  28.436  1.00  0.00    -0.203 F 
ATOM     56  F   UNL A   1      44.605  26.616  25.001  1.00  0.00    -0.200 F 
ATOM     57  C   UNL A   1      43.181  24.852  25.659  1.00  0.00     0.200 A 
ATOM     58  F   UNL A   1      41.732  23.122  26.354  1.00  0.00    -0.200 F 
ATOM     59  F   UNL A   1      43.584  24.116  24.615  1.00  0.00    -0.200 F 
ENDBRANCH  25  49
BRANCH  37  60
ATOM     60  C   UNL A   1      44.757  27.250  34.309  1.00  0.00     0.064 A 
ATOM     61  C   UNL A   1      46.001  27.897  34.337  1.00  0.00     0.173 A 
ATOM     62  C   UNL A   1      44.634  26.030  34.992  1.00  0.00     0.173 A 
ATOM     63  F   UNL A   1      46.173  29.056  33.685  1.00  0.00    -0.203 F 
ATOM     64  C   UNL A   1      47.088  27.328  34.995  1.00  0.00     0.198 A 
ATOM     65  C   UNL A   1      45.715  25.479  35.673  1.00  0.00     0.198 A 
ATOM     66  F   UNL A   1      43.463  25.374  35.000  1.00  0.00    -0.203 F 
ATOM     67  F   UNL A   1      48.282  27.934  34.961  1.00  0.00    -0.200 F 
ATOM     68  C   UNL A   1      46.942  26.123  35.666  1.00  0.00     0.200 A 
ATOM     69  F   UNL A   1      45.570  24.321  36.332  1.00  0.00    -0.200 F 
ATOM     70  F   UNL A   1      47.990  25.576  36.299  1.00  0.00    -0.200 F 
ENDBRANCH  37  60
ENDBRANCH  11  12
ENDBRANCH   4   6
ENDBRANCH   1   2
BRANCH   1  71
ATOM     71  C   UNL A   1      31.781  28.642  26.867  1.00  0.00     0.042 C 
BRANCH  71  72
ATOM     72  C   UNL A   1      31.321  27.440  26.048  1.00  0.00     0.117 C 
BRANCH  72  73
ATOM     73  N   UNL A   1      32.390  26.811  25.287  1.00  0.00    -0.354 N 
ATOM     74  C   UNL A   1      32.529  26.444  23.978  1.00  0.00     0.247 C 
ATOM     75  H   UNL A   1      33.183  26.605  25.833  1.00  0.00     0.163 HD
ATOM     76  O   UNL A   1      33.699  26.170  23.670  1.00  0.00    -0.273 OA
BRANCH  74  77
ATOM     77  C   UNL A   1      31.400  26.524  22.909  1.00  0.00     0.161 C 
ATOM     78  Cl  UNL A   1      31.890  25.736  21.358  1.00  0.00    -0.102 Cl
ATOM     79  C   UNL A   1      30.275  25.691  23.501  1.00  0.00     0.008 C 
ATOM     80  C   UNL A   1      30.961  27.987  22.525  1.00  0.00     0.146 C 
ATOM     81  C   UNL A   1      29.094  26.205  23.869  1.00  0.00    -0.002 C 
ATOM     82  C   UNL A   1      29.613  28.450  23.063  1.00  0.00    -0.020 C 
ATOM     83  Cl  UNL A   1      32.246  29.236  22.752  1.00  0.00    -0.115 Cl
ATOM     84  C   UNL A   1      28.773  27.595  23.677  1.00  0.00     0.006 C 
BRANCH  82  85
ATOM     85  C   UNL A   1      29.134  29.813  22.738  1.00  0.00    -0.021 A 
ATOM     86  C   UNL A   1      29.153  30.828  23.702  1.00  0.00     0.008 A 
ATOM     87  C   UNL A   1      28.674  30.120  21.447  1.00  0.00     0.008 A 
ATOM     88  C   UNL A   1      28.741  32.124  23.377  1.00  0.00     0.001 A 
ATOM     89  C   UNL A   1      28.269  31.415  21.121  1.00  0.00     0.001 A 
ATOM     90  C   UNL A   1      28.306  32.418  22.086  1.00  0.00     0.000 A 
ENDBRANCH  82  85
ENDBRANCH  74  77
ENDBRANCH  72  73
ENDBRANCH  71  72
ENDBRANCH   1  71
TORSDOF 11
ENDMDL
MODEL 2
REMARK VINA RESULT:     -13.1      0.077      1.148
REMARK SMILES O=C(NCCCNC(=O)[C@@]1(Cl)C=CC=C(c2ccccc2)[C@H]1Cl)c1ccc(-c2c3nc(c(-c4c(F)c(F)c(F)c(F)c4F)c4ccc([nH]4)c(-c4c(F)c(F)c(F)c(F)c4F)c4nc(c(-c5c(F)c(F)c(F)c(F)c5F)c5ccc2[nH]5)C=C4)C=C3)cc1
REMARK SMILES IDX 4 1 3 2 1 3 2 4 24 6 25 7 86 8 26 9 85 10 27 11 28 12 29 13
REMARK SMILES IDX 79 14 30 15 84 16 78 17 80 18 31 19 83 20 77 21 76 22 32 24
REMARK SMILES IDX 64 25 44 26 63 27 45 28 48 29 62 30 81 31 46 32 47 33 61 35
REMARK SMILES IDX 82 36 49 37 33 38 34 39 42 40 35 41 36 42 40 43 43 44 37 45
REMARK SMILES IDX 38 46 41 47 39 48 65 49 66 50 74 51 67 52 68 53 72 54 75 55
REMARK SMILES IDX 69 56 70 57 73 58 71 59 50 60 51 61 59 62 52 63 53 64 57 65
REMARK SMILES IDX 60 66 54 67 55 68 58 69 56 70 5 71 6 72 7 73 8 74 9 76 10 77
REMARK SMILES IDX 11 78 12 79 22 80 13 81 15 82 23 83 14 84 16 85 17 86 21 87
REMARK SMILES IDX 18 88 20 89 19 90
REMARK H PARENT 3 5 80 23 48 34 7 75
REMARK Flexibility Score: inf
ROOT
ATOM      1  C   UNL A   1      32.837  29.516  26.171  1.00  0.00     0.118 C 
ENDROOT
BRANCH   1   2
ATOM      2  N   UNL A   1      32.650  30.935  26.430  1.00  0.00    -0.352 N 
ATOM      3  O   UNL A   1      32.905  32.914  27.470  1.00  0.00    -0.269 OA
ATOM      4  C   UNL A   1      33.345  31.794  27.251  1.00  0.00     0.251 C 
ATOM      5  H   UNL A   1      31.906  31.349  25.937  1.00  0.00     0.163 HD
BRANCH   4   6
ATOM      6  C   UNL A   1      34.606  31.361  27.892  1.00  0.00     0.039 A 
ATOM      7  C   UNL A   1      34.774  30.052  28.341  1.00  0.00     0.014 A 
ATOM      8  C   UNL A   1      35.653  32.280  28.023  1.00  0.00     0.014 A 
ATOM      9  C   UNL A   1      35.900  29.714  29.081  1.00  0.00     0.010 A 
ATOM     10  C   UNL A   1      36.833  31.906  28.674  1.00  0.00     0.010 A 
ATOM     11  C   UNL A   1      36.949  30.632  29.249  1.00  0.00    -0.014 A 
BRANCH  11  12
ATOM     12  C   UNL A   1      38.163  30.212  29.997  1.00  0.00     0.031 A 
ATOM     13  C   UNL A   1      38.380  30.627  31.425  1.00  0.00     0.074 A 
ATOM     14  C   UNL A   1      39.052  29.403  29.386  1.00  0.00     0.049 A 
ATOM     15  N   UNL A   1      39.355  30.304  32.240  1.00  0.00    -0.248 NA
ATOM     16  C   UNL A   1      37.383  31.532  32.019  1.00  0.00     0.031 C 
ATOM     17  C   UNL A   1      38.956  28.946  27.999  1.00  0.00     0.029 A 
ATOM     18  N   UNL A   1      40.189  28.799  29.857  1.00  0.00    -0.354 N 
ATOM     19  C   UNL A   1      39.104  30.985  33.426  1.00  0.00     0.074 A 
ATOM     20  C   UNL A   1      37.897  31.757  33.220  1.00  0.00     0.031 C 
ATOM     21  C   UNL A   1      39.951  28.082  27.750  1.00  0.00     0.029 A 
ATOM     22  C   UNL A   1      40.791  27.975  28.937  1.00  0.00     0.049 A 
ATOM     23  H   UNL A   1      40.540  28.942  30.766  1.00  0.00     0.167 HD
ATOM     24  C   UNL A   1      39.812  30.958  34.581  1.00  0.00     0.037 A 
ATOM     25  C   UNL A   1      41.899  27.219  29.036  1.00  0.00     0.037 A 
ATOM     26  C   UNL A   1      40.995  30.161  34.790  1.00  0.00     0.049 A 
ATOM     27  C   UNL A   1      42.663  27.211  30.329  1.00  0.00     0.074 A 
ATOM     28  C   UNL A   1      41.755  30.029  35.940  1.00  0.00     0.029 A 
ATOM     29  N   UNL A   1      41.592  29.364  33.824  1.00  0.00    -0.354 N 
ATOM     30  N   UNL A   1      42.392  27.826  31.453  1.00  0.00    -0.248 NA
ATOM     31  C   UNL A   1      43.888  26.404  30.363  1.00  0.00     0.031 C 
ATOM     32  C   UNL A   1      42.837  29.189  35.657  1.00  0.00     0.029 A 
ATOM     33  C   UNL A   1      42.723  28.755  34.346  1.00  0.00     0.049 A 
ATOM     34  H   UNL A   1      41.260  29.247  32.905  1.00  0.00     0.167 HD
ATOM     35  C   UNL A   1      43.399  27.466  32.336  1.00  0.00     0.074 A 
ATOM     36  C   UNL A   1      44.276  26.562  31.620  1.00  0.00     0.031 C 
ATOM     37  C   UNL A   1      43.583  27.853  33.622  1.00  0.00     0.037 A 
BRANCH  24  38
ATOM     38  C   UNL A   1      39.342  31.832  35.709  1.00  0.00     0.064 A 
ATOM     39  C   UNL A   1      38.385  31.395  36.637  1.00  0.00     0.173 A 
ATOM     40  C   UNL A   1      39.892  33.112  35.887  1.00  0.00     0.173 A 
ATOM     41  F   UNL A   1      37.821  30.185  36.507  1.00  0.00    -0.203 F 
ATOM     42  C   UNL A   1      37.977  32.216  37.687  1.00  0.00     0.198 A 
ATOM     43  C   UNL A   1      39.502  33.918  36.954  1.00  0.00     0.198 A 
ATOM     44  F   UNL A   1      40.815  33.576  35.033  1.00  0.00    -0.203 F 
ATOM     45  F   UNL A   1      37.030  31.795  38.536  1.00  0.00    -0.200 F 
ATOM     46  C   UNL A   1      38.541  33.474  37.848  1.00  0.00     0.200 A 
ATOM     47  F   UNL A   1      40.058  35.128  37.115  1.00  0.00    -0.200 F 
ATOM     48  F   UNL A   1      38.153  34.259  38.863  1.00  0.00    -0.200 F 
ENDBRANCH  24  38
BRANCH  25  49
ATOM     49  C   UNL A   1      42.339  26.399  27.878  1.00  0.00     0.064 A 
ATOM     50  C   UNL A   1      41.798  25.126  27.650  1.00  0.00     0.173 A 
ATOM     51  C   UNL A   1      43.297  26.874  26.971  1.00  0.00     0.173 A 
ATOM     52  F   UNL A   1      40.893  24.622  28.501  1.00  0.00    -0.203 F 
ATOM     53  C   UNL A   1      42.210  24.354  26.566  1.00  0.00     0.198 A 
ATOM     54  C   UNL A   1      43.685  26.114  25.870  1.00  0.00     0.198 A 
ATOM     55  F   UNL A   1      43.841  28.088  27.143  1.00  0.00    -0.203 F 
ATOM     56  F   UNL A   1      41.708  23.125  26.393  1.00  0.00    -0.200 F 
ATOM     57  C   UNL A   1      43.147  24.852  25.673  1.00  0.00     0.200 A 
ATOM     58  F   UNL A   1      44.578  26.605  25.001  1.00  0.00    -0.200 F 
ATOM     59  F   UNL A   1      43.536  24.112  24.626  1.00  0.00    -0.200 F 
ENDBRANCH  25  49
BRANCH  37  60
ATOM     60  C   UNL A   1      44.760  27.267  34.346  1.00  0.00     0.064 A 
ATOM     61  C   UNL A   1      46.003  27.915  34.377  1.00  0.00     0.173 A 
ATOM     62  C   UNL A   1      44.635  26.047  35.029  1.00  0.00     0.173 A 
ATOM     63  F   UNL A   1      46.176  29.074  33.724  1.00  0.00    -0.203 F 
ATOM     64  C   UNL A   1      47.089  27.347  35.039  1.00  0.00     0.198 A 
ATOM     65  C   UNL A   1      45.714  25.497  35.714  1.00  0.00     0.198 A 
ATOM     66  F   UNL A   1      43.465  25.391  35.034  1.00  0.00    -0.203 F 
ATOM     67  F   UNL A   1      48.282  27.954  35.008  1.00  0.00    -0.200 F 
ATOM     68  C   UNL A   1      46.941  26.143  35.711  1.00  0.00     0.200 A 
ATOM     69  F   UNL A   1      45.568  24.340  36.373  1.00  0.00    -0.200 F 
ATOM     70  F   UNL A   1      47.987  25.598  36.347  1.00  0.00    -0.200 F 
ENDBRANCH  37  60
ENDBRANCH  11  12
ENDBRANCH   4   6
ENDBRANCH   1   2
BRANCH   1  71
ATOM     71  C   UNL A   1      31.779  28.649  26.837  1.00  0.00     0.042 C 
BRANCH  71  72
ATOM     72  C   UNL A   1      31.290  27.487  25.977  1.00  0.00     0.117 C 
BRANCH  72  73
ATOM     73  N   UNL A   1      32.348  26.842  25.215  1.00  0.00    -0.354 N 
ATOM     74  C   UNL A   1      32.489  26.495  23.900  1.00  0.00     0.247 C 
ATOM     75  H   UNL A   1      33.130  26.604  25.764  1.00  0.00     0.163 HD
ATOM     76  O   UNL A   1      33.653  26.194  23.597  1.00  0.00    -0.273 OA
BRANCH  74  77
ATOM     77  C   UNL A   1      31.372  26.625  22.823  1.00  0.00     0.161 C 
ATOM     78  Cl  UNL A   1      31.863  25.870  21.256  1.00  0.00    -0.102 Cl
ATOM     79  C   UNL A   1      30.226  25.799  23.381  1.00  0.00     0.008 C 
ATOM     80  C   UNL A   1      30.966  28.107  22.475  1.00  0.00     0.146 C 
ATOM     81  C   UNL A   1      29.051  26.326  23.751  1.00  0.00    -0.002 C 
ATOM     82  C   UNL A   1      29.622  28.581  23.012  1.00  0.00    -0.020 C 
ATOM     83  Cl  UNL A   1      32.272  29.323  22.747  1.00  0.00    -0.115 Cl
ATOM     84  C   UNL A   1      28.759  27.726  23.594  1.00  0.00     0.006 C 
BRANCH  82  85
ATOM     85  C   UNL A   1      29.172  29.961  22.719  1.00  0.00    -0.021 A 
ATOM     86  C   UNL A   1      29.157  30.938  23.722  1.00  0.00     0.008 A 
ATOM     87  C   UNL A   1      28.776  30.324  21.421  1.00  0.00     0.008 A 
ATOM     88  C   UNL A   1      28.773  32.250  23.430  1.00  0.00     0.001 A 
ATOM     89  C   UNL A   1      28.399  31.636  21.129  1.00  0.00     0.001 A 
ATOM     90  C   UNL A   1      28.402  32.599  22.133  1.00  0.00     0.000 A 
ENDBRANCH  82  85
ENDBRANCH  74  77
ENDBRANCH  72  73
ENDBRANCH  71  72
ENDBRANCH   1  71
TORSDOF 11
ENDMDL
MODEL 3
REMARK VINA RESULT:     -13.0      2.249      3.971
REMARK SMILES O=C(NCCCNC(=O)[C@@]1(Cl)C=CC=C(c2ccccc2)[C@H]1Cl)c1ccc(-c2c3nc(c(-c4c(F)c(F)c(F)c(F)c4F)c4ccc([nH]4)c(-c4c(F)c(F)c(F)c(F)c4F)c4nc(c(-c5c(F)c(F)c(F)c(F)c5F)c5ccc2[nH]5)C=C4)C=C3)cc1
REMARK SMILES IDX 4 1 3 2 1 3 2 4 24 6 25 7 86 8 26 9 85 10 27 11 28 12 29 13
REMARK SMILES IDX 79 14 30 15 84 16 78 17 80 18 31 19 83 20 77 21 76 22 32 24
REMARK SMILES IDX 64 25 44 26 63 27 45 28 48 29 62 30 81 31 46 32 47 33 61 35
REMARK SMILES IDX 82 36 49 37 33 38 34 39 42 40 35 41 36 42 40 43 43 44 37 45
REMARK SMILES IDX 38 46 41 47 39 48 65 49 66 50 74 51 67 52 68 53 72 54 75 55
REMARK SMILES IDX 69 56 70 57 73 58 71 59 50 60 51 61 59 62 52 63 53 64 57 65
REMARK SMILES IDX 60 66 54 67 55 68 58 69 56 70 5 71 6 72 7 73 8 74 9 76 10 77
REMARK SMILES IDX 11 78 12 79 22 80 13 81 15 82 23 83 14 84 16 85 17 86 21 87
REMARK SMILES IDX 18 88 20 89 19 90
REMARK H PARENT 3 5 80 23 48 34 7 75
REMARK Flexibility Score: inf
ROOT
ATOM      1  C   UNL A   1      33.277  28.898  25.334  1.00  0.00     0.118 C 
ENDROOT
BRANCH   1   2
ATOM      2  N   UNL A   1      32.784  30.170  25.839  1.00  0.00    -0.352 N 
ATOM      3  O   UNL A   1      32.567  31.906  27.253  1.00  0.00    -0.269 OA
ATOM      4  C   UNL A   1      33.242  30.963  26.866  1.00  0.00     0.251 C 
ATOM      5  H   UNL A   1      31.993  30.520  25.370  1.00  0.00     0.163 HD
BRANCH   4   6
ATOM      6  C   UNL A   1      34.535  30.666  27.522  1.00  0.00     0.039 A 
ATOM      7  C   UNL A   1      34.830  29.384  27.985  1.00  0.00     0.014 A 
ATOM      8  C   UNL A   1      35.482  31.687  27.652  1.00  0.00     0.014 A 
ATOM      9  C   UNL A   1      35.977  29.168  28.739  1.00  0.00     0.010 A 
ATOM     10  C   UNL A   1      36.689  31.440  28.316  1.00  0.00     0.010 A 
ATOM     11  C   UNL A   1      36.927  30.189  28.906  1.00  0.00    -0.014 A 
BRANCH  11  12
ATOM     12  C   UNL A   1      38.170  29.901  29.667  1.00  0.00     0.031 A 
ATOM     13  C   UNL A   1      38.359  30.410  31.070  1.00  0.00     0.074 A 
ATOM     14  C   UNL A   1      39.114  29.127  29.097  1.00  0.00     0.049 A 
ATOM     15  N   UNL A   1      39.357  30.205  31.895  1.00  0.00    -0.248 NA
ATOM     16  C   UNL A   1      37.300  31.271  31.618  1.00  0.00     0.031 C 
ATOM     17  C   UNL A   1      39.048  28.587  27.737  1.00  0.00     0.029 A 
ATOM     18  N   UNL A   1      40.293  28.634  29.593  1.00  0.00    -0.354 N 
ATOM     19  C   UNL A   1      39.059  30.930  33.042  1.00  0.00     0.074 A 
ATOM     20  C   UNL A   1      37.799  31.600  32.802  1.00  0.00     0.031 C 
ATOM     21  C   UNL A   1      40.103  27.786  27.531  1.00  0.00     0.029 A 
ATOM     22  C   UNL A   1      40.952  27.806  28.717  1.00  0.00     0.049 A 
ATOM     23  H   UNL A   1      40.635  28.852  30.490  1.00  0.00     0.167 HD
ATOM     24  C   UNL A   1      39.771  31.019  34.193  1.00  0.00     0.037 A 
ATOM     25  C   UNL A   1      42.112  27.140  28.850  1.00  0.00     0.037 A 
ATOM     26  C   UNL A   1      41.009  30.323  34.438  1.00  0.00     0.049 A 
ATOM     27  C   UNL A   1      42.878  27.259  30.136  1.00  0.00     0.074 A 
ATOM     28  C   UNL A   1      41.779  30.311  35.589  1.00  0.00     0.029 A 
ATOM     29  N   UNL A   1      41.660  29.519  33.514  1.00  0.00    -0.354 N 
ATOM     30  N   UNL A   1      42.565  27.915  31.227  1.00  0.00    -0.248 NA
ATOM     31  C   UNL A   1      44.159  26.546  30.208  1.00  0.00     0.031 C 
ATOM     32  C   UNL A   1      42.919  29.537  35.346  1.00  0.00     0.029 A 
ATOM     33  C   UNL A   1      42.834  29.024  34.062  1.00  0.00     0.049 A 
ATOM     34  H   UNL A   1      41.336  29.327  32.605  1.00  0.00     0.167 HD
ATOM     35  C   UNL A   1      43.598  27.678  32.122  1.00  0.00     0.074 A 
ATOM     36  C   UNL A   1      44.537  26.802  31.452  1.00  0.00     0.031 C 
ATOM     37  C   UNL A   1      43.756  28.149  33.383  1.00  0.00     0.037 A 
BRANCH  24  38
ATOM     38  C   UNL A   1      39.240  31.918  35.274  1.00  0.00     0.064 A 
ATOM     39  C   UNL A   1      38.461  31.427  36.332  1.00  0.00     0.173 A 
ATOM     40  C   UNL A   1      39.556  33.286  35.273  1.00  0.00     0.173 A 
ATOM     41  F   UNL A   1      38.122  30.129  36.375  1.00  0.00    -0.203 F 
ATOM     42  C   UNL A   1      37.995  32.276  37.334  1.00  0.00     0.198 A 
ATOM     43  C   UNL A   1      39.113  34.126  36.291  1.00  0.00     0.198 A 
ATOM     44  F   UNL A   1      40.304  33.807  34.289  1.00  0.00    -0.203 F 
ATOM     45  F   UNL A   1      37.215  31.793  38.310  1.00  0.00    -0.200 F 
ATOM     46  C   UNL A   1      38.327  33.623  37.316  1.00  0.00     0.200 A 
ATOM     47  F   UNL A   1      39.445  35.425  36.279  1.00  0.00    -0.200 F 
ATOM     48  F   UNL A   1      37.884  34.436  38.285  1.00  0.00    -0.200 F 
ENDBRANCH  24  38
BRANCH  25  49
ATOM     49  C   UNL A   1      42.608  26.291  27.737  1.00  0.00     0.064 A 
ATOM     50  C   UNL A   1      43.511  26.796  26.792  1.00  0.00     0.173 A 
ATOM     51  C   UNL A   1      42.202  24.955  27.602  1.00  0.00     0.173 A 
ATOM     52  F   UNL A   1      43.915  28.073  26.869  1.00  0.00    -0.203 F 
ATOM     53  C   UNL A   1      43.978  26.003  25.746  1.00  0.00     0.198 A 
ATOM     54  C   UNL A   1      42.692  24.153  26.574  1.00  0.00     0.198 A 
ATOM     55  F   UNL A   1      41.342  24.422  28.483  1.00  0.00    -0.203 F 
ATOM     56  F   UNL A   1      44.809  26.522  24.833  1.00  0.00    -0.200 F 
ATOM     57  C   UNL A   1      43.574  24.680  25.643  1.00  0.00     0.200 A 
ATOM     58  F   UNL A   1      42.313  22.872  26.488  1.00  0.00    -0.200 F 
ATOM     59  F   UNL A   1      44.029  23.915  24.642  1.00  0.00    -0.200 F 
ENDBRANCH  25  49
BRANCH  37  60
ATOM     60  C   UNL A   1      44.974  27.691  34.131  1.00  0.00     0.064 A 
ATOM     61  C   UNL A   1      46.172  28.418  34.103  1.00  0.00     0.173 A 
ATOM     62  C   UNL A   1      44.935  26.515  34.897  1.00  0.00     0.173 A 
ATOM     63  F   UNL A   1      46.264  29.538  33.371  1.00  0.00    -0.203 F 
ATOM     64  C   UNL A   1      47.298  27.968  34.788  1.00  0.00     0.198 A 
ATOM     65  C   UNL A   1      46.053  26.084  35.605  1.00  0.00     0.198 A 
ATOM     66  F   UNL A   1      43.810  25.786  34.961  1.00  0.00    -0.203 F 
ATOM     67  F   UNL A   1      48.449  28.648  34.702  1.00  0.00    -0.200 F 
ATOM     68  C   UNL A   1      47.235  26.806  35.542  1.00  0.00     0.200 A 
ATOM     69  F   UNL A   1      45.988  24.968  36.342  1.00  0.00    -0.200 F 
ATOM     70  F   UNL A   1      48.319  26.375  36.202  1.00  0.00    -0.200 F 
ENDBRANCH  37  60
ENDBRANCH  11  12
ENDBRANCH   4   6
ENDBRANCH   1   2
BRANCH   1  71
ATOM     71  C   UNL A   1      32.293  27.756  25.544  1.00  0.00     0.042 C 
BRANCH  71  72
ATOM     72  C   UNL A   1      32.915  26.494  26.132  1.00  0.00     0.117 C 
BRANCH  72  73
ATOM     73  N   UNL A   1      31.938  25.558  26.667  1.00  0.00    -0.354 N 
ATOM     74  C   UNL A   1      31.705  24.224  26.479  1.00  0.00     0.247 C 
ATOM     75  H   UNL A   1      31.309  25.976  27.299  1.00  0.00     0.163 HD
ATOM     76  O   UNL A   1      30.933  23.741  27.321  1.00  0.00    -0.273 OA
BRANCH  74  77
ATOM     77  C   UNL A   1      32.449  23.330  25.445  1.00  0.00     0.161 C 
ATOM     78  Cl  UNL A   1      31.563  21.786  25.135  1.00  0.00    -0.102 Cl
ATOM     79  C   UNL A   1      32.405  24.141  24.160  1.00  0.00     0.008 C 
ATOM     80  C   UNL A   1      33.906  22.908  25.870  1.00  0.00     0.146 C 
ATOM     81  C   UNL A   1      33.497  24.639  23.566  1.00  0.00    -0.002 C 
ATOM     82  C   UNL A   1      35.049  23.603  25.140  1.00  0.00    -0.020 C 
ATOM     83  Cl  UNL A   1      34.177  22.851  27.654  1.00  0.00    -0.115 Cl
ATOM     84  C   UNL A   1      34.821  24.395  24.075  1.00  0.00     0.006 C 
BRANCH  82  85
ATOM     85  C   UNL A   1      36.445  23.252  25.484  1.00  0.00    -0.021 A 
ATOM     86  C   UNL A   1      37.260  24.154  26.182  1.00  0.00     0.008 A 
ATOM     87  C   UNL A   1      36.974  21.998  25.140  1.00  0.00     0.008 A 
ATOM     88  C   UNL A   1      38.563  23.801  26.543  1.00  0.00     0.001 A 
ATOM     89  C   UNL A   1      38.273  21.643  25.505  1.00  0.00     0.001 A 
ATOM     90  C   UNL A   1      39.066  22.544  26.211  1.00  0.00     0.000 A 
ENDBRANCH  82  85
ENDBRANCH  74  77
ENDBRANCH  72  73
ENDBRANCH  71  72
ENDBRANCH   1  71
TORSDOF 11
ENDMDL
