MODEL 1
REMARK VINA RESULT:     -12.1      0.000      0.000
REMARK SMILES C[C@H]1[C@H](C(=O)NCCCNC(=O)c2ccc(-c3c4nc(c(-c5c(F)c(F)c(F)c(F)c5F)c5ccc([nH]5)c(-c5c(F)c(F)c(F)c(F)c5F)c5nc(c(-c6c(F)c(F)c(F)c(F)c6F)c6ccc3[nH]6)C=C5)C=C4)cc2)CCN1C(=O)COc1ccccc1F
REMARK SMILES IDX 7 1 6 2 4 3 5 4 3 6 1 7 2 8 78 9 76 10 77 11 79 12 80 13
REMARK SMILES IDX 81 14 82 15 83 16 84 17 88 18 85 19 87 20 89 21 86 22 8 23
REMARK SMILES IDX 9 24 10 25 11 26 12 28 13 29 14 30 75 31 15 32 74 33 16 34
REMARK SMILES IDX 17 35 18 36 68 37 19 38 73 39 67 40 69 41 20 42 72 43 66 44
REMARK SMILES IDX 65 45 21 47 53 48 33 49 52 50 34 51 37 52 51 53 70 54 35 55
REMARK SMILES IDX 36 56 50 58 71 59 38 60 22 61 23 62 31 63 24 64 25 65 29 66
REMARK SMILES IDX 32 67 26 68 27 69 30 70 28 71 54 72 55 73 63 74 56 75 57 76
REMARK SMILES IDX 61 77 64 78 58 79 59 80 62 81 60 82 39 83 40 84 48 85 41 86
REMARK SMILES IDX 42 87 46 88 49 89 43 90 44 91 47 92 45 93
REMARK H PARENT 6 5 10 27 69 46 37 57
REMARK Flexibility Score: inf
ROOT
ATOM      1  C   UNL A   1      31.537  30.688  25.997  1.00  0.00     0.117 C 
ENDROOT
BRANCH   1   2
ATOM      2  N   UNL A   1      31.559  29.748  27.105  1.00  0.00    -0.356 N 
ATOM      3  C   UNL A   1      31.690  28.398  27.142  1.00  0.00     0.225 C 
ATOM      4  O   UNL A   1      31.631  27.859  28.250  1.00  0.00    -0.275 OA
ATOM      5  H   UNL A   1      31.463  30.167  27.991  1.00  0.00     0.163 HD
BRANCH   3   6
ATOM      6  C   UNL A   1      31.889  27.551  25.898  1.00  0.00     0.102 C 
ATOM      7  C   UNL A   1      33.969  26.265  25.381  1.00  0.00     0.032 C 
ATOM      8  C   UNL A   1      32.665  26.249  26.179  1.00  0.00     0.094 C 
ATOM      9  N   UNL A   1      31.736  25.186  25.784  1.00  0.00    -0.336 N 
ATOM     10  C   UNL A   1      30.592  27.174  25.181  1.00  0.00     0.037 C 
ATOM     11  C   UNL A   1      30.704  25.690  24.898  1.00  0.00     0.121 C 
BRANCH   9  12
ATOM     12  C   UNL A   1      31.654  23.886  26.239  1.00  0.00     0.260 C 
ATOM     13  O   UNL A   1      31.420  23.641  27.429  1.00  0.00    -0.271 OA
BRANCH  12  14
ATOM     14  C   UNL A   1      31.884  22.714  25.274  1.00  0.00     0.329 C 
BRANCH  14  15
ATOM     15  O   UNL A   1      33.067  21.946  25.262  1.00  0.00    -0.481 OA
BRANCH  15  16
ATOM     16  C   UNL A   1      34.284  22.564  25.189  1.00  0.00     0.155 A 
ATOM     17  C   UNL A   1      34.804  22.646  23.891  1.00  0.00     0.049 A 
ATOM     18  C   UNL A   1      35.086  23.000  26.245  1.00  0.00     0.165 A 
ATOM     19  C   UNL A   1      36.089  23.149  23.660  1.00  0.00     0.004 A 
ATOM     20  C   UNL A   1      36.373  23.489  26.022  1.00  0.00     0.043 A 
ATOM     21  F   UNL A   1      34.691  22.923  27.517  1.00  0.00    -0.203 F 
ATOM     22  C   UNL A   1      36.879  23.564  24.728  1.00  0.00     0.003 A 
ENDBRANCH  15  16
ENDBRANCH  14  15
ENDBRANCH  12  14
ENDBRANCH   9  12
ENDBRANCH   3   6
ENDBRANCH   1   2
BRANCH   1  23
ATOM     23  C   UNL A   1      31.375  32.127  26.468  1.00  0.00     0.042 C 
BRANCH  23  24
ATOM     24  C   UNL A   1      32.615  32.700  27.141  1.00  0.00     0.118 C 
BRANCH  24  25
ATOM     25  N   UNL A   1      32.429  34.074  27.586  1.00  0.00    -0.352 N 
ATOM     26  C   UNL A   1      33.041  34.771  28.595  1.00  0.00     0.251 C 
ATOM     27  H   UNL A   1      31.756  34.585  27.080  1.00  0.00     0.163 HD
ATOM     28  O   UNL A   1      32.603  35.874  28.923  1.00  0.00    -0.269 OA
BRANCH  26  29
ATOM     29  C   UNL A   1      34.210  34.210  29.303  1.00  0.00     0.039 A 
ATOM     30  C   UNL A   1      33.991  33.361  30.393  1.00  0.00     0.014 A 
ATOM     31  C   UNL A   1      35.516  34.542  28.932  1.00  0.00     0.014 A 
ATOM     32  C   UNL A   1      35.076  32.803  31.069  1.00  0.00     0.010 A 
ATOM     33  C   UNL A   1      36.596  33.924  29.556  1.00  0.00     0.010 A 
ATOM     34  C   UNL A   1      36.388  33.054  30.636  1.00  0.00    -0.014 A 
BRANCH  34  35
ATOM     35  C   UNL A   1      37.550  32.420  31.307  1.00  0.00     0.031 A 
ATOM     36  C   UNL A   1      38.274  31.277  30.651  1.00  0.00     0.074 A 
ATOM     37  C   UNL A   1      37.914  32.834  32.535  1.00  0.00     0.049 A 
ATOM     38  N   UNL A   1      39.273  30.561  31.102  1.00  0.00    -0.248 NA
ATOM     39  C   UNL A   1      37.794  30.867  29.322  1.00  0.00     0.031 C 
ATOM     40  C   UNL A   1      37.253  33.892  33.300  1.00  0.00     0.029 A 
ATOM     41  N   UNL A   1      38.924  32.408  33.360  1.00  0.00    -0.354 N 
ATOM     42  C   UNL A   1      39.530  29.611  30.123  1.00  0.00     0.074 A 
ATOM     43  C   UNL A   1      38.548  29.805  29.077  1.00  0.00     0.031 C 
ATOM     44  C   UNL A   1      37.887  34.047  34.473  1.00  0.00     0.029 A 
ATOM     45  C   UNL A   1      38.978  33.081  34.556  1.00  0.00     0.049 A 
ATOM     46  H   UNL A   1      39.551  31.688  33.118  1.00  0.00     0.167 HD
ATOM     47  C   UNL A   1      40.512  28.679  30.086  1.00  0.00     0.037 A 
ATOM     48  C   UNL A   1      39.813  32.935  35.601  1.00  0.00     0.037 A 
ATOM     49  C   UNL A   1      41.503  28.505  31.115  1.00  0.00     0.049 A 
ATOM     50  C   UNL A   1      40.909  31.907  35.527  1.00  0.00     0.074 A 
ATOM     51  C   UNL A   1      42.572  27.627  31.147  1.00  0.00     0.029 A 
ATOM     52  N   UNL A   1      41.547  29.230  32.297  1.00  0.00    -0.354 N 
ATOM     53  N   UNL A   1      41.182  31.058  34.566  1.00  0.00    -0.248 NA
ATOM     54  C   UNL A   1      41.819  31.827  36.676  1.00  0.00     0.031 C 
ATOM     55  C   UNL A   1      43.241  27.795  32.365  1.00  0.00     0.029 A 
ATOM     56  C   UNL A   1      42.616  28.808  33.072  1.00  0.00     0.049 A 
ATOM     57  H   UNL A   1      40.912  29.939  32.548  1.00  0.00     0.167 HD
ATOM     58  C   UNL A   1      42.303  30.356  34.986  1.00  0.00     0.074 A 
ATOM     59  C   UNL A   1      42.673  30.896  36.279  1.00  0.00     0.031 C 
ATOM     60  C   UNL A   1      42.967  29.355  34.359  1.00  0.00     0.037 A 
BRANCH  47  61
ATOM     61  C   UNL A   1      40.565  27.779  28.885  1.00  0.00     0.064 A 
ATOM     62  C   UNL A   1      39.797  26.607  28.812  1.00  0.00     0.173 A 
ATOM     63  C   UNL A   1      41.372  28.104  27.784  1.00  0.00     0.173 A 
ATOM     64  F   UNL A   1      39.019  26.246  29.844  1.00  0.00    -0.203 F 
ATOM     65  C   UNL A   1      39.858  25.778  27.695  1.00  0.00     0.198 A 
ATOM     66  C   UNL A   1      41.407  27.287  26.656  1.00  0.00     0.198 A 
ATOM     67  F   UNL A   1      42.122  29.215  27.799  1.00  0.00    -0.203 F 
ATOM     68  F   UNL A   1      39.154  24.638  27.671  1.00  0.00    -0.200 F 
ATOM     69  C   UNL A   1      40.657  26.122  26.616  1.00  0.00     0.200 A 
ATOM     70  F   UNL A   1      42.172  27.627  25.609  1.00  0.00    -0.200 F 
ATOM     71  F   UNL A   1      40.711  25.325  25.541  1.00  0.00    -0.200 F 
ENDBRANCH  47  61
BRANCH  48  72
ATOM     72  C   UNL A   1      39.661  33.806  36.794  1.00  0.00     0.064 A 
ATOM     73  C   UNL A   1      40.288  35.058  36.855  1.00  0.00     0.173 A 
ATOM     74  C   UNL A   1      38.882  33.410  37.891  1.00  0.00     0.173 A 
ATOM     75  F   UNL A   1      41.059  35.470  35.838  1.00  0.00    -0.203 F 
ATOM     76  C   UNL A   1      40.156  35.875  37.976  1.00  0.00     0.198 A 
ATOM     77  C   UNL A   1      38.729  34.240  39.000  1.00  0.00     0.198 A 
ATOM     78  F   UNL A   1      38.257  32.224  37.878  1.00  0.00    -0.203 F 
ATOM     79  F   UNL A   1      40.799  37.049  38.025  1.00  0.00    -0.200 F 
ATOM     80  C   UNL A   1      39.372  35.467  39.045  1.00  0.00     0.200 A 
ATOM     81  F   UNL A   1      37.960  33.848  40.025  1.00  0.00    -0.200 F 
ATOM     82  F   UNL A   1      39.240  36.256  40.120  1.00  0.00    -0.200 F 
ENDBRANCH  48  72
BRANCH  60  83
ATOM     83  C   UNL A   1      44.170  28.792  35.055  1.00  0.00     0.064 A 
ATOM     84  C   UNL A   1      44.068  27.700  35.930  1.00  0.00     0.173 A 
ATOM     85  C   UNL A   1      45.443  29.334  34.824  1.00  0.00     0.173 A 
ATOM     86  F   UNL A   1      42.870  27.158  36.194  1.00  0.00    -0.203 F 
ATOM     87  C   UNL A   1      45.193  27.191  36.571  1.00  0.00     0.198 A 
ATOM     88  C   UNL A   1      46.571  28.804  35.447  1.00  0.00     0.198 A 
ATOM     89  F   UNL A   1      45.595  30.375  33.991  1.00  0.00    -0.203 F 
ATOM     90  F   UNL A   1      45.065  26.181  37.443  1.00  0.00    -0.200 F 
ATOM     91  C   UNL A   1      46.443  27.739  36.326  1.00  0.00     0.200 A 
ATOM     92  F   UNL A   1      47.779  29.327  35.199  1.00  0.00    -0.200 F 
ATOM     93  F   UNL A   1      47.525  27.246  36.943  1.00  0.00    -0.200 F 
ENDBRANCH  60  83
ENDBRANCH  34  35
ENDBRANCH  26  29
ENDBRANCH  24  25
ENDBRANCH  23  24
ENDBRANCH   1  23
TORSDOF 14
ENDMDL
MODEL 2
REMARK VINA RESULT:     -12.1      5.487     10.980
REMARK SMILES C[C@H]1[C@H](C(=O)NCCCNC(=O)c2ccc(-c3c4nc(c(-c5c(F)c(F)c(F)c(F)c5F)c5ccc([nH]5)c(-c5c(F)c(F)c(F)c(F)c5F)c5nc(c(-c6c(F)c(F)c(F)c(F)c6F)c6ccc3[nH]6)C=C5)C=C4)cc2)CCN1C(=O)COc1ccccc1F
REMARK SMILES IDX 7 1 6 2 4 3 5 4 3 6 1 7 2 8 78 9 76 10 77 11 79 12 80 13
REMARK SMILES IDX 81 14 82 15 83 16 84 17 88 18 85 19 87 20 89 21 86 22 8 23
REMARK SMILES IDX 9 24 10 25 11 26 12 28 13 29 14 30 75 31 15 32 74 33 16 34
REMARK SMILES IDX 17 35 18 36 68 37 19 38 73 39 67 40 69 41 20 42 72 43 66 44
REMARK SMILES IDX 65 45 21 47 53 48 33 49 52 50 34 51 37 52 51 53 70 54 35 55
REMARK SMILES IDX 36 56 50 58 71 59 38 60 22 61 23 62 31 63 24 64 25 65 29 66
REMARK SMILES IDX 32 67 26 68 27 69 30 70 28 71 54 72 55 73 63 74 56 75 57 76
REMARK SMILES IDX 61 77 64 78 58 79 59 80 62 81 60 82 39 83 40 84 48 85 41 86
REMARK SMILES IDX 42 87 46 88 49 89 43 90 44 91 47 92 45 93
REMARK H PARENT 6 5 10 27 69 46 37 57
REMARK Flexibility Score: inf
ROOT
ATOM      1  C   UNL A   1      36.751  20.533  24.917  1.00  0.00     0.117 C 
ENDROOT
BRANCH   1   2
ATOM      2  N   UNL A   1      37.028  21.619  23.992  1.00  0.00    -0.356 N 
ATOM      3  C   UNL A   1      36.282  22.682  23.598  1.00  0.00     0.225 C 
ATOM      4  O   UNL A   1      36.777  23.431  22.752  1.00  0.00    -0.275 OA
ATOM      5  H   UNL A   1      37.920  21.576  23.576  1.00  0.00     0.163 HD
BRANCH   3   6
ATOM      6  C   UNL A   1      34.893  22.965  24.141  1.00  0.00     0.102 C 
ATOM      7  C   UNL A   1      34.308  24.927  25.574  1.00  0.00     0.032 C 
ATOM      8  C   UNL A   1      34.544  24.467  24.135  1.00  0.00     0.094 C 
ATOM      9  N   UNL A   1      33.359  24.556  23.278  1.00  0.00    -0.336 N 
ATOM     10  C   UNL A   1      33.772  22.225  23.412  1.00  0.00     0.037 C 
ATOM     11  C   UNL A   1      32.706  23.268  23.145  1.00  0.00     0.121 C 
BRANCH   9  12
ATOM     12  C   UNL A   1      32.907  25.619  22.522  1.00  0.00     0.260 C 
ATOM     13  O   UNL A   1      33.531  26.001  21.524  1.00  0.00    -0.271 OA
BRANCH  12  14
ATOM     14  C   UNL A   1      31.632  26.369  22.929  1.00  0.00     0.329 C 
BRANCH  14  15
ATOM     15  O   UNL A   1      31.641  27.672  23.468  1.00  0.00    -0.481 OA
BRANCH  15  16
ATOM     16  C   UNL A   1      32.261  27.915  24.662  1.00  0.00     0.155 A 
ATOM     17  C   UNL A   1      31.422  27.780  25.776  1.00  0.00     0.049 A 
ATOM     18  C   UNL A   1      33.561  28.379  24.873  1.00  0.00     0.165 A 
ATOM     19  C   UNL A   1      31.874  28.101  27.061  1.00  0.00     0.004 A 
ATOM     20  C   UNL A   1      34.011  28.714  26.149  1.00  0.00     0.043 A 
ATOM     21  F   UNL A   1      34.417  28.576  23.868  1.00  0.00    -0.203 F 
ATOM     22  C   UNL A   1      33.168  28.578  27.247  1.00  0.00     0.003 A 
ENDBRANCH  15  16
ENDBRANCH  14  15
ENDBRANCH  12  14
ENDBRANCH   9  12
ENDBRANCH   3   6
ENDBRANCH   1   2
BRANCH   1  23
ATOM     23  C   UNL A   1      37.919  19.560  25.025  1.00  0.00     0.042 C 
BRANCH  23  24
ATOM     24  C   UNL A   1      39.085  20.084  25.855  1.00  0.00     0.118 C 
BRANCH  24  25
ATOM     25  N   UNL A   1      40.173  19.123  25.965  1.00  0.00    -0.352 N 
ATOM     26  C   UNL A   1      41.519  19.322  26.126  1.00  0.00     0.251 C 
ATOM     27  H   UNL A   1      39.898  18.179  25.916  1.00  0.00     0.163 HD
ATOM     28  O   UNL A   1      42.291  18.370  26.011  1.00  0.00    -0.269 OA
BRANCH  26  29
ATOM     29  C   UNL A   1      42.058  20.666  26.421  1.00  0.00     0.039 A 
ATOM     30  C   UNL A   1      42.381  21.509  25.352  1.00  0.00     0.014 A 
ATOM     31  C   UNL A   1      42.284  21.088  27.733  1.00  0.00     0.014 A 
ATOM     32  C   UNL A   1      42.874  22.790  25.602  1.00  0.00     0.010 A 
ATOM     33  C   UNL A   1      42.701  22.394  27.983  1.00  0.00     0.010 A 
ATOM     34  C   UNL A   1      43.009  23.255  26.920  1.00  0.00    -0.014 A 
BRANCH  34  35
ATOM     35  C   UNL A   1      43.474  24.635  27.200  1.00  0.00     0.031 A 
ATOM     36  C   UNL A   1      42.520  25.661  27.748  1.00  0.00     0.074 A 
ATOM     37  C   UNL A   1      44.741  24.981  26.905  1.00  0.00     0.049 A 
ATOM     38  N   UNL A   1      42.726  26.929  28.006  1.00  0.00    -0.248 NA
ATOM     39  C   UNL A   1      41.147  25.210  28.016  1.00  0.00     0.031 C 
ATOM     40  C   UNL A   1      45.743  24.093  26.314  1.00  0.00     0.029 A 
ATOM     41  N   UNL A   1      45.400  26.176  27.050  1.00  0.00    -0.354 N 
ATOM     42  C   UNL A   1      41.508  27.426  28.451  1.00  0.00     0.074 A 
ATOM     43  C   UNL A   1      40.555  26.339  28.376  1.00  0.00     0.031 C 
ATOM     44  C   UNL A   1      46.895  24.766  26.168  1.00  0.00     0.029 A 
ATOM     45  C   UNL A   1      46.705  26.139  26.624  1.00  0.00     0.049 A 
ATOM     46  H   UNL A   1      44.978  26.983  27.425  1.00  0.00     0.167 HD
ATOM     47  C   UNL A   1      41.217  28.668  28.905  1.00  0.00     0.037 A 
ATOM     48  C   UNL A   1      47.642  27.105  26.604  1.00  0.00     0.037 A 
ATOM     49  C   UNL A   1      42.173  29.740  29.002  1.00  0.00     0.049 A 
ATOM     50  C   UNL A   1      47.301  28.470  27.134  1.00  0.00     0.074 A 
ATOM     51  C   UNL A   1      41.992  31.019  29.500  1.00  0.00     0.029 A 
ATOM     52  N   UNL A   1      43.496  29.655  28.593  1.00  0.00    -0.354 N 
ATOM     53  N   UNL A   1      46.162  28.910  27.613  1.00  0.00    -0.248 NA
ATOM     54  C   UNL A   1      48.378  29.469  27.132  1.00  0.00     0.031 C 
ATOM     55  C   UNL A   1      43.195  31.719  29.358  1.00  0.00     0.029 A 
ATOM     56  C   UNL A   1      44.139  30.864  28.813  1.00  0.00     0.049 A 
ATOM     57  H   UNL A   1      43.916  28.854  28.203  1.00  0.00     0.167 HD
ATOM     58  C   UNL A   1      46.389  30.228  27.985  1.00  0.00     0.074 A 
ATOM     59  C   UNL A   1      47.782  30.508  27.697  1.00  0.00     0.031 C 
ATOM     60  C   UNL A   1      45.524  31.125  28.517  1.00  0.00     0.037 A 
BRANCH  47  61
ATOM     61  C   UNL A   1      39.805  28.931  29.340  1.00  0.00     0.064 A 
ATOM     62  C   UNL A   1      39.393  28.712  30.664  1.00  0.00     0.173 A 
ATOM     63  C   UNL A   1      38.858  29.433  28.434  1.00  0.00     0.173 A 
ATOM     64  F   UNL A   1      40.256  28.221  31.566  1.00  0.00    -0.203 F 
ATOM     65  C   UNL A   1      38.079  28.955  31.056  1.00  0.00     0.198 A 
ATOM     66  C   UNL A   1      37.553  29.703  28.838  1.00  0.00     0.198 A 
ATOM     67  F   UNL A   1      39.201  29.665  27.158  1.00  0.00    -0.203 F 
ATOM     68  F   UNL A   1      37.697  28.690  32.313  1.00  0.00    -0.200 F 
ATOM     69  C   UNL A   1      37.162  29.456  30.144  1.00  0.00     0.200 A 
ATOM     70  F   UNL A   1      36.671  30.198  27.958  1.00  0.00    -0.200 F 
ATOM     71  F   UNL A   1      35.900  29.694  30.525  1.00  0.00    -0.200 F 
ENDBRANCH  47  61
BRANCH  48  72
ATOM     72  C   UNL A   1      49.002  26.802  26.090  1.00  0.00     0.064 A 
ATOM     73  C   UNL A   1      49.995  26.296  26.938  1.00  0.00     0.173 A 
ATOM     74  C   UNL A   1      49.333  27.005  24.742  1.00  0.00     0.173 A 
ATOM     75  F   UNL A   1      49.731  26.105  28.239  1.00  0.00    -0.203 F 
ATOM     76  C   UNL A   1      51.275  26.019  26.462  1.00  0.00     0.198 A 
ATOM     77  C   UNL A   1      50.606  26.702  24.262  1.00  0.00     0.198 A 
ATOM     78  F   UNL A   1      48.415  27.482  23.888  1.00  0.00    -0.203 F 
ATOM     79  F   UNL A   1      52.219  25.574  27.304  1.00  0.00    -0.200 F 
ATOM     80  C   UNL A   1      51.577  26.217  25.123  1.00  0.00     0.200 A 
ATOM     81  F   UNL A   1      50.889  26.882  22.964  1.00  0.00    -0.200 F 
ATOM     82  F   UNL A   1      52.807  25.945  24.664  1.00  0.00    -0.200 F 
ENDBRANCH  48  72
BRANCH  60  83
ATOM     83  C   UNL A   1      46.064  32.487  28.837  1.00  0.00     0.064 A 
ATOM     84  C   UNL A   1      46.642  32.773  30.084  1.00  0.00     0.173 A 
ATOM     85  C   UNL A   1      46.027  33.510  27.878  1.00  0.00     0.173 A 
ATOM     86  F   UNL A   1      46.686  31.832  31.038  1.00  0.00    -0.203 F 
ATOM     87  C   UNL A   1      47.136  34.043  30.367  1.00  0.00     0.198 A 
ATOM     88  C   UNL A   1      46.547  34.772  28.157  1.00  0.00     0.198 A 
ATOM     89  F   UNL A   1      45.491  33.286  26.669  1.00  0.00    -0.203 F 
ATOM     90  F   UNL A   1      47.637  34.308  31.582  1.00  0.00    -0.200 F 
ATOM     91  C   UNL A   1      47.093  35.039  29.404  1.00  0.00     0.200 A 
ATOM     92  F   UNL A   1      46.517  35.729  27.221  1.00  0.00    -0.200 F 
ATOM     93  F   UNL A   1      47.571  36.260  29.679  1.00  0.00    -0.200 F 
ENDBRANCH  60  83
ENDBRANCH  34  35
ENDBRANCH  26  29
ENDBRANCH  24  25
ENDBRANCH  23  24
ENDBRANCH   1  23
TORSDOF 14
ENDMDL
MODEL 3
REMARK VINA RESULT:     -12.0      1.165      2.427
REMARK SMILES C[C@H]1[C@H](C(=O)NCCCNC(=O)c2ccc(-c3c4nc(c(-c5c(F)c(F)c(F)c(F)c5F)c5ccc([nH]5)c(-c5c(F)c(F)c(F)c(F)c5F)c5nc(c(-c6c(F)c(F)c(F)c(F)c6F)c6ccc3[nH]6)C=C5)C=C4)cc2)CCN1C(=O)COc1ccccc1F
REMARK SMILES IDX 7 1 6 2 4 3 5 4 3 6 1 7 2 8 78 9 76 10 77 11 79 12 80 13
REMARK SMILES IDX 81 14 82 15 83 16 84 17 88 18 85 19 87 20 89 21 86 22 8 23
REMARK SMILES IDX 9 24 10 25 11 26 12 28 13 29 14 30 75 31 15 32 74 33 16 34
REMARK SMILES IDX 17 35 18 36 68 37 19 38 73 39 67 40 69 41 20 42 72 43 66 44
REMARK SMILES IDX 65 45 21 47 53 48 33 49 52 50 34 51 37 52 51 53 70 54 35 55
REMARK SMILES IDX 36 56 50 58 71 59 38 60 22 61 23 62 31 63 24 64 25 65 29 66
REMARK SMILES IDX 32 67 26 68 27 69 30 70 28 71 54 72 55 73 63 74 56 75 57 76
REMARK SMILES IDX 61 77 64 78 58 79 59 80 62 81 60 82 39 83 40 84 48 85 41 86
REMARK SMILES IDX 42 87 46 88 49 89 43 90 44 91 47 92 45 93
REMARK H PARENT 6 5 10 27 69 46 37 57
REMARK Flexibility Score: inf
ROOT
ATOM      1  C   UNL A   1      31.463  30.885  26.310  1.00  0.00     0.117 C 
ENDROOT
BRANCH   1   2
ATOM      2  N   UNL A   1      31.020  30.527  24.972  1.00  0.00    -0.356 N 
ATOM      3  C   UNL A   1      31.110  29.369  24.271  1.00  0.00     0.225 C 
ATOM      4  O   UNL A   1      30.671  29.376  23.118  1.00  0.00    -0.275 OA
ATOM      5  H   UNL A   1      30.573  31.258  24.487  1.00  0.00     0.163 HD
BRANCH   3   6
ATOM      6  C   UNL A   1      31.726  28.103  24.838  1.00  0.00     0.102 C 
ATOM      7  C   UNL A   1      30.637  25.854  24.785  1.00  0.00     0.032 C 
ATOM      8  C   UNL A   1      31.448  26.861  23.968  1.00  0.00     0.094 C 
ATOM      9  N   UNL A   1      32.779  26.385  23.586  1.00  0.00    -0.336 N 
ATOM     10  C   UNL A   1      33.236  28.186  25.060  1.00  0.00     0.037 C 
ATOM     11  C   UNL A   1      33.801  26.909  24.472  1.00  0.00     0.121 C 
BRANCH   9  12
ATOM     12  C   UNL A   1      33.162  25.664  22.473  1.00  0.00     0.260 C 
ATOM     13  O   UNL A   1      33.613  26.230  21.470  1.00  0.00    -0.271 OA
BRANCH  12  14
ATOM     14  C   UNL A   1      33.002  24.137  22.451  1.00  0.00     0.329 C 
BRANCH  14  15
ATOM     15  O   UNL A   1      33.297  23.313  23.557  1.00  0.00    -0.481 OA
BRANCH  15  16
ATOM     16  C   UNL A   1      34.538  23.355  24.129  1.00  0.00     0.155 A 
ATOM     17  C   UNL A   1      35.574  22.968  23.269  1.00  0.00     0.049 A 
ATOM     18  C   UNL A   1      34.856  23.619  25.462  1.00  0.00     0.165 A 
ATOM     19  C   UNL A   1      36.889  22.850  23.734  1.00  0.00     0.004 A 
ATOM     20  C   UNL A   1      36.162  23.488  25.934  1.00  0.00     0.043 A 
ATOM     21  F   UNL A   1      33.929  23.954  26.362  1.00  0.00    -0.203 F 
ATOM     22  C   UNL A   1      37.183  23.102  25.071  1.00  0.00     0.003 A 
ENDBRANCH  15  16
ENDBRANCH  14  15
ENDBRANCH  12  14
ENDBRANCH   9  12
ENDBRANCH   3   6
ENDBRANCH   1   2
BRANCH   1  23
ATOM     23  C   UNL A   1      31.359  32.382  26.566  1.00  0.00     0.042 C 
BRANCH  23  24
ATOM     24  C   UNL A   1      32.628  33.001  27.138  1.00  0.00     0.118 C 
BRANCH  24  25
ATOM     25  N   UNL A   1      32.419  34.352  27.639  1.00  0.00    -0.352 N 
ATOM     26  C   UNL A   1      33.003  35.010  28.690  1.00  0.00     0.251 C 
ATOM     27  H   UNL A   1      31.749  34.878  27.143  1.00  0.00     0.163 HD
ATOM     28  O   UNL A   1      32.547  36.092  29.058  1.00  0.00    -0.269 OA
BRANCH  26  29
ATOM     29  C   UNL A   1      34.165  34.430  29.396  1.00  0.00     0.039 A 
ATOM     30  C   UNL A   1      33.946  33.735  30.590  1.00  0.00     0.014 A 
ATOM     31  C   UNL A   1      35.466  34.597  28.916  1.00  0.00     0.014 A 
ATOM     32  C   UNL A   1      35.022  33.162  31.268  1.00  0.00     0.010 A 
ATOM     33  C   UNL A   1      36.530  33.959  29.550  1.00  0.00     0.010 A 
ATOM     34  C   UNL A   1      36.320  33.242  30.736  1.00  0.00    -0.014 A 
BRANCH  34  35
ATOM     35  C   UNL A   1      37.465  32.585  31.414  1.00  0.00     0.031 A 
ATOM     36  C   UNL A   1      38.175  31.432  30.760  1.00  0.00     0.074 A 
ATOM     37  C   UNL A   1      37.827  32.990  32.646  1.00  0.00     0.049 A 
ATOM     38  N   UNL A   1      39.159  30.698  31.217  1.00  0.00    -0.248 NA
ATOM     39  C   UNL A   1      37.698  31.035  29.426  1.00  0.00     0.031 C 
ATOM     40  C   UNL A   1      37.178  34.057  33.410  1.00  0.00     0.029 A 
ATOM     41  N   UNL A   1      38.823  32.544  33.478  1.00  0.00    -0.354 N 
ATOM     42  C   UNL A   1      39.407  29.747  30.236  1.00  0.00     0.074 A 
ATOM     43  C   UNL A   1      38.436  29.961  29.184  1.00  0.00     0.031 C 
ATOM     44  C   UNL A   1      37.806  34.197  34.588  1.00  0.00     0.029 A 
ATOM     45  C   UNL A   1      38.879  33.213  34.676  1.00  0.00     0.049 A 
ATOM     46  H   UNL A   1      39.440  31.814  33.238  1.00  0.00     0.167 HD
ATOM     47  C   UNL A   1      40.373  28.798  30.204  1.00  0.00     0.037 A 
ATOM     48  C   UNL A   1      39.704  33.049  35.727  1.00  0.00     0.037 A 
ATOM     49  C   UNL A   1      41.353  28.604  31.240  1.00  0.00     0.049 A 
ATOM     50  C   UNL A   1      40.782  32.003  35.658  1.00  0.00     0.074 A 
ATOM     51  C   UNL A   1      42.407  27.708  31.278  1.00  0.00     0.029 A 
ATOM     52  N   UNL A   1      41.400  29.325  32.425  1.00  0.00    -0.354 N 
ATOM     53  N   UNL A   1      41.048  31.152  34.697  1.00  0.00    -0.248 NA
ATOM     54  C   UNL A   1      41.682  31.904  36.814  1.00  0.00     0.031 C 
ATOM     55  C   UNL A   1      43.069  27.861  32.501  1.00  0.00     0.029 A 
ATOM     56  C   UNL A   1      42.455  28.882  33.207  1.00  0.00     0.049 A 
ATOM     57  H   UNL A   1      40.775  30.044  32.674  1.00  0.00     0.167 HD
ATOM     58  C   UNL A   1      42.154  30.430  35.123  1.00  0.00     0.074 A 
ATOM     59  C   UNL A   1      42.523  30.959  36.421  1.00  0.00     0.031 C 
ATOM     60  C   UNL A   1      42.805  29.419  34.498  1.00  0.00     0.037 A 
BRANCH  47  61
ATOM     61  C   UNL A   1      40.420  27.901  29.001  1.00  0.00     0.064 A 
ATOM     62  C   UNL A   1      41.209  28.215  27.883  1.00  0.00     0.173 A 
ATOM     63  C   UNL A   1      39.693  26.702  28.974  1.00  0.00     0.173 A 
ATOM     64  F   UNL A   1      41.913  29.357  27.854  1.00  0.00    -0.203 F 
ATOM     65  C   UNL A   1      41.242  27.378  26.771  1.00  0.00     0.198 A 
ATOM     66  C   UNL A   1      39.752  25.853  27.871  1.00  0.00     0.198 A 
ATOM     67  F   UNL A   1      38.927  26.352  30.018  1.00  0.00    -0.203 F 
ATOM     68  F   UNL A   1      41.962  27.725  25.695  1.00  0.00    -0.200 F 
ATOM     69  C   UNL A   1      40.519  26.196  26.769  1.00  0.00     0.200 A 
ATOM     70  F   UNL A   1      39.061  24.704  27.875  1.00  0.00    -0.200 F 
ATOM     71  F   UNL A   1      40.556  25.389  25.699  1.00  0.00    -0.200 F 
ENDBRANCH  47  61
BRANCH  48  72
ATOM     72  C   UNL A   1      39.558  33.919  36.922  1.00  0.00     0.064 A 
ATOM     73  C   UNL A   1      38.837  33.486  38.043  1.00  0.00     0.173 A 
ATOM     74  C   UNL A   1      40.141  35.193  36.970  1.00  0.00     0.173 A 
ATOM     75  F   UNL A   1      38.246  32.283  38.034  1.00  0.00    -0.203 F 
ATOM     76  C   UNL A   1      38.690  34.302  39.162  1.00  0.00     0.198 A 
ATOM     77  C   UNL A   1      40.015  35.998  38.101  1.00  0.00     0.198 A 
ATOM     78  F   UNL A   1      40.846  35.651  35.925  1.00  0.00    -0.203 F 
ATOM     79  F   UNL A   1      37.961  33.880  40.205  1.00  0.00    -0.200 F 
ATOM     80  C   UNL A   1      39.284  35.555  39.192  1.00  0.00     0.200 A 
ATOM     81  F   UNL A   1      40.602  37.203  38.132  1.00  0.00    -0.200 F 
ATOM     82  F   UNL A   1      39.146  36.338  40.272  1.00  0.00    -0.200 F 
ENDBRANCH  48  72
BRANCH  60  83
ATOM     83  C   UNL A   1      43.993  28.834  35.201  1.00  0.00     0.064 A 
ATOM     84  C   UNL A   1      45.292  29.314  34.972  1.00  0.00     0.173 A 
ATOM     85  C   UNL A   1      43.829  27.798  36.133  1.00  0.00     0.173 A 
ATOM     86  F   UNL A   1      45.502  30.291  34.078  1.00  0.00    -0.203 F 
ATOM     87  C   UNL A   1      46.385  28.758  35.631  1.00  0.00     0.198 A 
ATOM     88  C   UNL A   1      44.922  27.264  36.811  1.00  0.00     0.198 A 
ATOM     89  F   UNL A   1      42.607  27.309  36.393  1.00  0.00    -0.203 F 
ATOM     90  F   UNL A   1      47.622  29.198  35.359  1.00  0.00    -0.200 F 
ATOM     91  C   UNL A   1      46.200  27.738  36.552  1.00  0.00     0.200 A 
ATOM     92  F   UNL A   1      44.740  26.288  37.709  1.00  0.00    -0.200 F 
ATOM     93  F   UNL A   1      47.254  27.207  37.186  1.00  0.00    -0.200 F 
ENDBRANCH  60  83
ENDBRANCH  34  35
ENDBRANCH  26  29
ENDBRANCH  24  25
ENDBRANCH  23  24
ENDBRANCH   1  23
TORSDOF 14
ENDMDL
