MODEL 1
REMARK VINA RESULT:     -11.2      0.000      0.000
REMARK SMILES C[NH2+][C@](C)(C(=O)NCCCNC(=O)c1ccc(-c2c3nc(c(-c4c(F)c(F)c(F)c(F)c4F)c4ccc([nH]4)c(-c4c(F)c(F)c(F)c(F)c4F)c4nc(c(-c5c(F)c(F)c(F)c(F)c5F)c5ccc2[nH]5)C=C4)C=C3)cc1)c1cccc(Cl)c1
REMARK SMILES IDX 9 1 8 2 7 3 5 4 6 5 3 7 4 8 2 9 1 10 77 13 78 14 83 15 79 16
REMARK SMILES IDX 81 17 80 18 82 19 10 20 11 21 12 22 13 24 14 25 15 26 76 27
REMARK SMILES IDX 16 28 75 29 17 30 18 31 19 32 69 33 20 34 74 35 68 36 70 37
REMARK SMILES IDX 21 38 73 39 67 40 66 41 22 43 54 44 34 45 53 46 35 47 38 48
REMARK SMILES IDX 52 49 71 50 36 51 37 52 51 54 72 55 39 56 23 57 24 58 32 59
REMARK SMILES IDX 25 60 26 61 30 62 33 63 27 64 28 65 31 66 29 67 55 68 56 69
REMARK SMILES IDX 64 70 57 71 58 72 62 73 65 74 59 75 60 76 63 77 61 78 40 79
REMARK SMILES IDX 41 80 49 81 42 82 43 83 47 84 50 85 44 86 45 87 48 88 46 89
REMARK H PARENT 7 6 2 11 2 12 11 23 70 42 38 53
REMARK Flexibility Score: inf
ROOT
ATOM      1  C   UNL A   1      34.279  34.536  28.397  1.00  0.00     0.042 C 
ENDROOT
BRANCH   1   2
ATOM      2  C   UNL A   1      33.252  34.777  29.496  1.00  0.00     0.118 C 
BRANCH   2   3
ATOM      3  N   UNL A   1      33.222  36.166  29.914  1.00  0.00    -0.350 N 
ATOM      4  C   UNL A   1      33.276  36.729  31.163  1.00  0.00     0.285 C 
ATOM      5  O   UNL A   1      33.215  37.964  31.187  1.00  0.00    -0.267 OA
ATOM      6  H   UNL A   1      33.150  36.814  29.177  1.00  0.00     0.163 HD
BRANCH   4   7
ATOM      7  C   UNL A   1      33.359  35.843  32.482  1.00  0.00     0.198 C 
ATOM      8  C   UNL A   1      33.674  36.832  33.631  1.00  0.00     0.096 C 
BRANCH   7   9
ATOM      9  N   UNL A   1      32.043  35.153  32.636  1.00  0.00    -0.332 N 
ATOM     10  C   UNL A   1      30.883  35.987  32.887  1.00  0.00     0.332 C 
ATOM     11  H   UNL A   1      31.867  34.632  31.777  1.00  0.00     0.347 HD
ATOM     12  H   UNL A   1      32.142  34.582  33.476  1.00  0.00     0.347 HD
ENDBRANCH   7   9
BRANCH   7  13
ATOM     13  C   UNL A   1      34.479  34.774  32.316  1.00  0.00     0.023 A 
ATOM     14  C   UNL A   1      34.148  33.400  32.311  1.00  0.00     0.011 A 
ATOM     15  C   UNL A   1      35.833  35.107  32.125  1.00  0.00     0.031 A 
ATOM     16  C   UNL A   1      35.120  32.410  32.144  1.00  0.00     0.002 A 
ATOM     17  C   UNL A   1      36.802  34.112  31.946  1.00  0.00     0.041 A 
ATOM     18  C   UNL A   1      36.452  32.767  31.961  1.00  0.00     0.020 A 
ATOM     19  Cl  UNL A   1      38.444  34.562  31.692  1.00  0.00    -0.084 Cl
ENDBRANCH   7  13
ENDBRANCH   4   7
ENDBRANCH   2   3
ENDBRANCH   1   2
BRANCH   1  20
ATOM     20  C   UNL A   1      34.962  33.182  28.501  1.00  0.00     0.118 C 
BRANCH  20  21
ATOM     21  N   UNL A   1      34.130  32.101  27.985  1.00  0.00    -0.352 N 
ATOM     22  C   UNL A   1      34.443  30.793  27.706  1.00  0.00     0.251 C 
ATOM     23  H   UNL A   1      33.195  32.350  27.807  1.00  0.00     0.163 HD
ATOM     24  O   UNL A   1      33.657  30.102  27.070  1.00  0.00    -0.269 OA
BRANCH  22  25
ATOM     25  C   UNL A   1      35.731  30.222  28.154  1.00  0.00     0.039 A 
ATOM     26  C   UNL A   1      36.802  30.183  27.258  1.00  0.00     0.014 A 
ATOM     27  C   UNL A   1      35.884  29.712  29.445  1.00  0.00     0.014 A 
ATOM     28  C   UNL A   1      38.041  29.697  27.679  1.00  0.00     0.010 A 
ATOM     29  C   UNL A   1      37.141  29.328  29.895  1.00  0.00     0.010 A 
ATOM     30  C   UNL A   1      38.232  29.305  29.015  1.00  0.00    -0.014 A 
BRANCH  30  31
ATOM     31  C   UNL A   1      39.557  28.851  29.509  1.00  0.00     0.031 A 
ATOM     32  C   UNL A   1      40.315  29.690  30.503  1.00  0.00     0.074 A 
ATOM     33  C   UNL A   1      40.103  27.721  29.019  1.00  0.00     0.049 A 
ATOM     34  N   UNL A   1      41.518  29.513  30.989  1.00  0.00    -0.248 NA
ATOM     35  C   UNL A   1      39.645  30.905  30.994  1.00  0.00     0.031 C 
ATOM     36  C   UNL A   1      39.487  26.846  28.019  1.00  0.00     0.029 A 
ATOM     37  N   UNL A   1      41.308  27.118  29.287  1.00  0.00    -0.354 N 
ATOM     38  C   UNL A   1      41.747  30.594  31.831  1.00  0.00     0.074 A 
ATOM     39  C   UNL A   1      40.591  31.457  31.739  1.00  0.00     0.031 C 
ATOM     40  C   UNL A   1      40.302  25.807  27.780  1.00  0.00     0.029 A 
ATOM     41  C   UNL A   1      41.519  25.965  28.570  1.00  0.00     0.049 A 
ATOM     42  H   UNL A   1      41.958  27.478  29.932  1.00  0.00     0.167 HD
ATOM     43  C   UNL A   1      42.814  30.831  32.631  1.00  0.00     0.037 A 
ATOM     44  C   UNL A   1      42.579  25.136  28.545  1.00  0.00     0.037 A 
ATOM     45  C   UNL A   1      43.953  29.958  32.736  1.00  0.00     0.049 A 
ATOM     46  C   UNL A   1      43.764  25.440  29.426  1.00  0.00     0.074 A 
ATOM     47  C   UNL A   1      45.065  30.086  33.549  1.00  0.00     0.029 A 
ATOM     48  N   UNL A   1      44.123  28.793  32.004  1.00  0.00    -0.354 N 
ATOM     49  N   UNL A   1      43.940  26.433  30.264  1.00  0.00    -0.248 NA
ATOM     50  C   UNL A   1      44.894  24.504  29.360  1.00  0.00     0.031 C 
ATOM     51  C   UNL A   1      45.932  29.026  33.273  1.00  0.00     0.029 A 
ATOM     52  C   UNL A   1      45.334  28.202  32.333  1.00  0.00     0.049 A 
ATOM     53  H   UNL A   1      43.481  28.437  31.348  1.00  0.00     0.167 HD
ATOM     54  C   UNL A   1      45.181  26.220  30.851  1.00  0.00     0.074 A 
ATOM     55  C   UNL A   1      45.705  24.995  30.285  1.00  0.00     0.031 C 
ATOM     56  C   UNL A   1      45.830  26.971  31.774  1.00  0.00     0.037 A 
BRANCH  43  57
ATOM     57  C   UNL A   1      42.796  32.077  33.469  1.00  0.00     0.064 A 
ATOM     58  C   UNL A   1      43.318  33.289  32.992  1.00  0.00     0.173 A 
ATOM     59  C   UNL A   1      42.200  32.076  34.739  1.00  0.00     0.173 A 
ATOM     60  F   UNL A   1      43.909  33.343  31.789  1.00  0.00    -0.203 F 
ATOM     61  C   UNL A   1      43.266  34.447  33.765  1.00  0.00     0.198 A 
ATOM     62  C   UNL A   1      42.121  33.242  35.496  1.00  0.00     0.198 A 
ATOM     63  F   UNL A   1      41.680  30.945  35.242  1.00  0.00    -0.203 F 
ATOM     64  F   UNL A   1      43.813  35.581  33.307  1.00  0.00    -0.200 F 
ATOM     65  C   UNL A   1      42.659  34.424  35.011  1.00  0.00     0.200 A 
ATOM     66  F   UNL A   1      41.519  33.222  36.693  1.00  0.00    -0.200 F 
ATOM     67  F   UNL A   1      42.596  35.543  35.747  1.00  0.00    -0.200 F 
ENDBRANCH  43  57
BRANCH  44  68
ATOM     68  C   UNL A   1      42.576  23.932  27.671  1.00  0.00     0.064 A 
ATOM     69  C   UNL A   1      42.206  22.677  28.175  1.00  0.00     0.173 A 
ATOM     70  C   UNL A   1      42.976  24.002  26.328  1.00  0.00     0.173 A 
ATOM     71  F   UNL A   1      41.834  22.554  29.458  1.00  0.00    -0.203 F 
ATOM     72  C   UNL A   1      42.273  21.532  27.382  1.00  0.00     0.198 A 
ATOM     73  C   UNL A   1      43.009  22.863  25.526  1.00  0.00     0.198 A 
ATOM     74  F   UNL A   1      43.333  25.177  25.792  1.00  0.00    -0.203 F 
ATOM     75  F   UNL A   1      41.978  20.337  27.910  1.00  0.00    -0.200 F 
ATOM     76  C   UNL A   1      42.671  21.626  26.057  1.00  0.00     0.200 A 
ATOM     77  F   UNL A   1      43.377  22.961  24.242  1.00  0.00    -0.200 F 
ATOM     78  F   UNL A   1      42.740  20.526  25.296  1.00  0.00    -0.200 F 
ENDBRANCH  44  68
BRANCH  56  79
ATOM     79  C   UNL A   1      47.153  26.464  32.271  1.00  0.00     0.064 A 
ATOM     80  C   UNL A   1      47.244  25.549  33.330  1.00  0.00     0.173 A 
ATOM     81  C   UNL A   1      48.344  26.868  31.648  1.00  0.00     0.173 A 
ATOM     82  F   UNL A   1      46.137  25.141  33.968  1.00  0.00    -0.203 F 
ATOM     83  C   UNL A   1      48.482  25.082  33.767  1.00  0.00     0.198 A 
ATOM     84  C   UNL A   1      49.576  26.372  32.064  1.00  0.00     0.198 A 
ATOM     85  F   UNL A   1      48.312  27.734  30.624  1.00  0.00    -0.203 F 
ATOM     86  F   UNL A   1      48.548  24.251  34.816  1.00  0.00    -0.200 F 
ATOM     87  C   UNL A   1      49.644  25.486  33.128  1.00  0.00     0.200 A 
ATOM     88  F   UNL A   1      50.697  26.750  31.433  1.00  0.00    -0.200 F 
ATOM     89  F   UNL A   1      50.833  25.028  33.544  1.00  0.00    -0.200 F 
ENDBRANCH  56  79
ENDBRANCH  30  31
ENDBRANCH  22  25
ENDBRANCH  20  21
ENDBRANCH   1  20
TORSDOF 12
ENDMDL
MODEL 2
REMARK VINA RESULT:     -11.0      3.896     10.006
REMARK SMILES C[NH2+][C@](C)(C(=O)NCCCNC(=O)c1ccc(-c2c3nc(c(-c4c(F)c(F)c(F)c(F)c4F)c4ccc([nH]4)c(-c4c(F)c(F)c(F)c(F)c4F)c4nc(c(-c5c(F)c(F)c(F)c(F)c5F)c5ccc2[nH]5)C=C4)C=C3)cc1)c1cccc(Cl)c1
REMARK SMILES IDX 9 1 8 2 7 3 5 4 6 5 3 7 4 8 2 9 1 10 77 13 78 14 83 15 79 16
REMARK SMILES IDX 81 17 80 18 82 19 10 20 11 21 12 22 13 24 14 25 15 26 76 27
REMARK SMILES IDX 16 28 75 29 17 30 18 31 19 32 69 33 20 34 74 35 68 36 70 37
REMARK SMILES IDX 21 38 73 39 67 40 66 41 22 43 54 44 34 45 53 46 35 47 38 48
REMARK SMILES IDX 52 49 71 50 36 51 37 52 51 54 72 55 39 56 23 57 24 58 32 59
REMARK SMILES IDX 25 60 26 61 30 62 33 63 27 64 28 65 31 66 29 67 55 68 56 69
REMARK SMILES IDX 64 70 57 71 58 72 62 73 65 74 59 75 60 76 63 77 61 78 40 79
REMARK SMILES IDX 41 80 49 81 42 82 43 83 47 84 50 85 44 86 45 87 48 88 46 89
REMARK H PARENT 7 6 2 11 2 12 11 23 70 42 38 53
REMARK Flexibility Score: inf
ROOT
ATOM      1  C   UNL A   1      31.410  32.209  26.577  1.00  0.00     0.042 C 
ENDROOT
BRANCH   1   2
ATOM      2  C   UNL A   1      31.662  30.824  25.997  1.00  0.00     0.118 C 
BRANCH   2   3
ATOM      3  N   UNL A   1      31.621  29.794  27.017  1.00  0.00    -0.350 N 
ATOM      4  C   UNL A   1      31.836  28.442  26.937  1.00  0.00     0.285 C 
ATOM      5  O   UNL A   1      31.713  27.825  28.001  1.00  0.00    -0.267 OA
ATOM      6  H   UNL A   1      31.401  30.120  27.919  1.00  0.00     0.163 HD
BRANCH   4   7
ATOM      7  C   UNL A   1      32.171  27.724  25.557  1.00  0.00     0.198 C 
ATOM      8  C   UNL A   1      30.951  27.988  24.641  1.00  0.00     0.096 C 
BRANCH   7   9
ATOM      9  N   UNL A   1      33.440  28.321  25.042  1.00  0.00    -0.332 N 
ATOM     10  C   UNL A   1      33.499  28.633  23.627  1.00  0.00     0.332 C 
ATOM     11  H   UNL A   1      33.602  29.188  25.555  1.00  0.00     0.347 HD
ATOM     12  H   UNL A   1      34.146  27.597  25.182  1.00  0.00     0.347 HD
ENDBRANCH   7   9
BRANCH   7  13
ATOM     13  C   UNL A   1      32.388  26.202  25.808  1.00  0.00     0.023 A 
ATOM     14  C   UNL A   1      33.692  25.658  25.758  1.00  0.00     0.011 A 
ATOM     15  C   UNL A   1      31.338  25.321  26.129  1.00  0.00     0.031 A 
ATOM     16  C   UNL A   1      33.932  24.302  25.997  1.00  0.00     0.002 A 
ATOM     17  C   UNL A   1      31.585  23.966  26.379  1.00  0.00     0.041 A 
ATOM     18  C   UNL A   1      32.875  23.453  26.308  1.00  0.00     0.020 A 
ATOM     19  Cl  UNL A   1      30.276  22.927  26.792  1.00  0.00    -0.084 Cl
ENDBRANCH   7  13
ENDBRANCH   4   7
ENDBRANCH   2   3
ENDBRANCH   1   2
BRANCH   1  20
ATOM     20  C   UNL A   1      32.635  32.812  27.247  1.00  0.00     0.118 C 
BRANCH  20  21
ATOM     21  N   UNL A   1      32.434  34.209  27.615  1.00  0.00    -0.352 N 
ATOM     22  C   UNL A   1      32.991  34.951  28.627  1.00  0.00     0.251 C 
ATOM     23  H   UNL A   1      31.797  34.697  27.046  1.00  0.00     0.163 HD
ATOM     24  O   UNL A   1      32.524  36.049  28.904  1.00  0.00    -0.269 OA
BRANCH  22  25
ATOM     25  C   UNL A   1      34.138  34.422  29.396  1.00  0.00     0.039 A 
ATOM     26  C   UNL A   1      33.897  33.765  30.605  1.00  0.00     0.014 A 
ATOM     27  C   UNL A   1      35.448  34.585  28.941  1.00  0.00     0.014 A 
ATOM     28  C   UNL A   1      34.963  33.212  31.318  1.00  0.00     0.010 A 
ATOM     29  C   UNL A   1      36.494  33.945  29.593  1.00  0.00     0.010 A 
ATOM     30  C   UNL A   1      36.267  33.261  30.796  1.00  0.00    -0.014 A 
BRANCH  30  31
ATOM     31  C   UNL A   1      37.408  32.620  31.497  1.00  0.00     0.031 A 
ATOM     32  C   UNL A   1      38.122  31.457  30.862  1.00  0.00     0.074 A 
ATOM     33  C   UNL A   1      37.761  33.044  32.727  1.00  0.00     0.049 A 
ATOM     34  N   UNL A   1      39.080  30.709  31.347  1.00  0.00    -0.248 NA
ATOM     35  C   UNL A   1      37.680  31.062  29.515  1.00  0.00     0.031 C 
ATOM     36  C   UNL A   1      37.118  34.132  33.465  1.00  0.00     0.029 A 
ATOM     37  N   UNL A   1      38.743  32.601  33.579  1.00  0.00    -0.354 N 
ATOM     38  C   UNL A   1      39.345  29.755  30.372  1.00  0.00     0.074 A 
ATOM     39  C   UNL A   1      38.404  29.975  29.297  1.00  0.00     0.031 C 
ATOM     40  C   UNL A   1      37.739  34.291  34.645  1.00  0.00     0.029 A 
ATOM     41  C   UNL A   1      38.791  33.287  34.769  1.00  0.00     0.049 A 
ATOM     42  H   UNL A   1      39.356  31.863  33.358  1.00  0.00     0.167 HD
ATOM     43  C   UNL A   1      40.307  28.803  30.360  1.00  0.00     0.037 A 
ATOM     44  C   UNL A   1      39.585  33.116  35.842  1.00  0.00     0.037 A 
ATOM     45  C   UNL A   1      41.257  28.602  31.423  1.00  0.00     0.049 A 
ATOM     46  C   UNL A   1      40.628  32.029  35.812  1.00  0.00     0.074 A 
ATOM     47  C   UNL A   1      42.297  27.693  31.489  1.00  0.00     0.029 A 
ATOM     48  N   UNL A   1      41.281  29.326  32.606  1.00  0.00    -0.354 N 
ATOM     49  N   UNL A   1      40.909  31.176  34.857  1.00  0.00    -0.248 NA
ATOM     50  C   UNL A   1      41.468  31.886  37.009  1.00  0.00     0.031 C 
ATOM     51  C   UNL A   1      42.920  27.831  32.733  1.00  0.00     0.029 A 
ATOM     52  C   UNL A   1      42.307  28.868  33.417  1.00  0.00     0.049 A 
ATOM     53  H   UNL A   1      40.662  30.055  32.835  1.00  0.00     0.167 HD
ATOM     54  C   UNL A   1      41.979  30.422  35.321  1.00  0.00     0.074 A 
ATOM     55  C   UNL A   1      42.308  30.931  36.636  1.00  0.00     0.031 C 
ATOM     56  C   UNL A   1      42.632  29.400  34.716  1.00  0.00     0.037 A 
BRANCH  43  57
ATOM     57  C   UNL A   1      40.392  27.910  29.156  1.00  0.00     0.064 A 
ATOM     58  C   UNL A   1      39.655  26.719  29.071  1.00  0.00     0.173 A 
ATOM     59  C   UNL A   1      41.175  28.275  28.050  1.00  0.00     0.173 A 
ATOM     60  F   UNL A   1      38.901  26.317  30.105  1.00  0.00    -0.203 F 
ATOM     61  C   UNL A   1      39.717  25.915  27.935  1.00  0.00     0.198 A 
ATOM     62  C   UNL A   1      41.208  27.486  26.903  1.00  0.00     0.198 A 
ATOM     63  F   UNL A   1      41.897  29.407  28.074  1.00  0.00    -0.203 F 
ATOM     64  F   UNL A   1      39.039  24.760  27.897  1.00  0.00    -0.200 F 
ATOM     65  C   UNL A   1      40.484  26.305  26.849  1.00  0.00     0.200 A 
ATOM     66  F   UNL A   1      41.938  27.872  25.847  1.00  0.00    -0.200 F 
ATOM     67  F   UNL A   1      40.530  25.538  25.750  1.00  0.00    -0.200 F 
ENDBRANCH  43  57
BRANCH  44  68
ATOM     68  C   UNL A   1      39.443  33.996  37.034  1.00  0.00     0.064 A 
ATOM     69  C   UNL A   1      40.076  35.246  37.086  1.00  0.00     0.173 A 
ATOM     70  C   UNL A   1      38.706  33.593  38.157  1.00  0.00     0.173 A 
ATOM     71  F   UNL A   1      40.808  35.670  36.045  1.00  0.00    -0.203 F 
ATOM     72  C   UNL A   1      40.009  36.042  38.228  1.00  0.00     0.198 A 
ATOM     73  C   UNL A   1      38.611  34.404  39.286  1.00  0.00     0.198 A 
ATOM     74  F   UNL A   1      38.075  32.410  38.159  1.00  0.00    -0.203 F 
ATOM     75  F   UNL A   1      40.679  37.201  38.274  1.00  0.00    -0.200 F 
ATOM     76  C   UNL A   1      39.274  35.622  39.326  1.00  0.00     0.200 A 
ATOM     77  F   UNL A   1      37.885  34.003  40.338  1.00  0.00    -0.200 F 
ATOM     78  F   UNL A   1      39.214  36.384  40.426  1.00  0.00    -0.200 F 
ENDBRANCH  44  68
BRANCH  56  79
ATOM     79  C   UNL A   1      43.800  28.798  35.443  1.00  0.00     0.064 A 
ATOM     80  C   UNL A   1      45.108  29.272  35.264  1.00  0.00     0.173 A 
ATOM     81  C   UNL A   1      43.598  27.760  36.365  1.00  0.00     0.173 A 
ATOM     82  F   UNL A   1      45.356  30.254  34.384  1.00  0.00    -0.203 F 
ATOM     83  C   UNL A   1      46.174  28.707  35.958  1.00  0.00     0.198 A 
ATOM     84  C   UNL A   1      44.661  27.222  37.084  1.00  0.00     0.198 A 
ATOM     85  F   UNL A   1      42.366  27.276  36.581  1.00  0.00    -0.203 F 
ATOM     86  F   UNL A   1      47.423  29.139  35.730  1.00  0.00    -0.200 F 
ATOM     87  C   UNL A   1      45.949  27.690  36.874  1.00  0.00     0.200 A 
ATOM     88  F   UNL A   1      44.439  26.251  37.982  1.00  0.00    -0.200 F 
ATOM     89  F   UNL A   1      46.976  27.155  37.548  1.00  0.00    -0.200 F 
ENDBRANCH  56  79
ENDBRANCH  30  31
ENDBRANCH  22  25
ENDBRANCH  20  21
ENDBRANCH   1  20
TORSDOF 12
ENDMDL
MODEL 3
REMARK VINA RESULT:     -11.0      4.072      6.501
REMARK SMILES C[NH2+][C@](C)(C(=O)NCCCNC(=O)c1ccc(-c2c3nc(c(-c4c(F)c(F)c(F)c(F)c4F)c4ccc([nH]4)c(-c4c(F)c(F)c(F)c(F)c4F)c4nc(c(-c5c(F)c(F)c(F)c(F)c5F)c5ccc2[nH]5)C=C4)C=C3)cc1)c1cccc(Cl)c1
REMARK SMILES IDX 9 1 8 2 7 3 5 4 6 5 3 7 4 8 2 9 1 10 77 13 78 14 83 15 79 16
REMARK SMILES IDX 81 17 80 18 82 19 10 20 11 21 12 22 13 24 14 25 15 26 76 27
REMARK SMILES IDX 16 28 75 29 17 30 18 31 19 32 69 33 20 34 74 35 68 36 70 37
REMARK SMILES IDX 21 38 73 39 67 40 66 41 22 43 54 44 34 45 53 46 35 47 38 48
REMARK SMILES IDX 52 49 71 50 36 51 37 52 51 54 72 55 39 56 23 57 24 58 32 59
REMARK SMILES IDX 25 60 26 61 30 62 33 63 27 64 28 65 31 66 29 67 55 68 56 69
REMARK SMILES IDX 64 70 57 71 58 72 62 73 65 74 59 75 60 76 63 77 61 78 40 79
REMARK SMILES IDX 41 80 49 81 42 82 43 83 47 84 50 85 44 86 45 87 48 88 46 89
REMARK H PARENT 7 6 2 11 2 12 11 23 70 42 38 53
REMARK Flexibility Score: inf
ROOT
ATOM      1  C   UNL A   1      31.778  28.943  26.524  1.00  0.00     0.042 C 
ENDROOT
BRANCH   1   2
ATOM      2  C   UNL A   1      32.295  27.519  26.674  1.00  0.00     0.118 C 
BRANCH   2   3
ATOM      3  N   UNL A   1      31.216  26.571  26.882  1.00  0.00    -0.350 N 
ATOM      4  C   UNL A   1      30.582  25.726  26.008  1.00  0.00     0.285 C 
ATOM      5  O   UNL A   1      29.678  25.041  26.500  1.00  0.00    -0.267 OA
ATOM      6  H   UNL A   1      30.883  26.526  27.807  1.00  0.00     0.163 HD
BRANCH   4   7
ATOM      7  C   UNL A   1      30.957  25.678  24.463  1.00  0.00     0.198 C 
ATOM      8  C   UNL A   1      32.502  25.596  24.409  1.00  0.00     0.096 C 
BRANCH   7   9
ATOM      9  N   UNL A   1      30.278  24.482  23.879  1.00  0.00    -0.332 N 
ATOM     10  C   UNL A   1      31.118  23.359  23.508  1.00  0.00     0.332 C 
ATOM     11  H   UNL A   1      29.602  24.147  24.565  1.00  0.00     0.347 HD
ATOM     12  H   UNL A   1      29.875  24.811  23.000  1.00  0.00     0.347 HD
ENDBRANCH   7   9
BRANCH   7  13
ATOM     13  C   UNL A   1      30.421  26.962  23.762  1.00  0.00     0.023 A 
ATOM     14  C   UNL A   1      31.307  27.790  23.036  1.00  0.00     0.011 A 
ATOM     15  C   UNL A   1      29.064  27.333  23.776  1.00  0.00     0.031 A 
ATOM     16  C   UNL A   1      30.863  28.940  22.376  1.00  0.00     0.002 A 
ATOM     17  C   UNL A   1      28.622  28.478  23.104  1.00  0.00     0.041 A 
ATOM     18  C   UNL A   1      29.516  29.285  22.410  1.00  0.00     0.020 A 
ATOM     19  Cl  UNL A   1      26.949  28.883  23.126  1.00  0.00    -0.084 Cl
ENDBRANCH   7  13
ENDBRANCH   4   7
ENDBRANCH   2   3
ENDBRANCH   1   2
BRANCH   1  20
ATOM     20  C   UNL A   1      32.781  29.880  25.870  1.00  0.00     0.118 C 
BRANCH  20  21
ATOM     21  N   UNL A   1      32.605  31.264  26.294  1.00  0.00    -0.352 N 
ATOM     22  C   UNL A   1      33.261  31.989  27.259  1.00  0.00     0.251 C 
ATOM     23  H   UNL A   1      31.903  31.757  25.813  1.00  0.00     0.163 HD
ATOM     24  O   UNL A   1      32.813  33.073  27.615  1.00  0.00    -0.269 OA
BRANCH  22  25
ATOM     25  C   UNL A   1      34.492  31.459  27.883  1.00  0.00     0.039 A 
ATOM     26  C   UNL A   1      35.596  32.303  28.024  1.00  0.00     0.014 A 
ATOM     27  C   UNL A   1      34.569  30.134  28.315  1.00  0.00     0.014 A 
ATOM     28  C   UNL A   1      36.749  31.837  28.659  1.00  0.00     0.010 A 
ATOM     29  C   UNL A   1      35.673  29.703  29.039  1.00  0.00     0.010 A 
ATOM     30  C   UNL A   1      36.781  30.545  29.210  1.00  0.00    -0.014 A 
BRANCH  30  31
ATOM     31  C   UNL A   1      37.966  30.047  29.953  1.00  0.00     0.031 A 
ATOM     32  C   UNL A   1      38.225  30.520  31.359  1.00  0.00     0.074 A 
ATOM     33  C   UNL A   1      38.841  29.222  29.344  1.00  0.00     0.049 A 
ATOM     34  N   UNL A   1      39.244  30.272  32.142  1.00  0.00    -0.248 NA
ATOM     35  C   UNL A   1      37.218  31.414  31.954  1.00  0.00     0.031 C 
ATOM     36  C   UNL A   1      38.723  28.728  27.971  1.00  0.00     0.029 A 
ATOM     37  N   UNL A   1      40.008  28.659  29.799  1.00  0.00    -0.354 N 
ATOM     38  C   UNL A   1      39.005  30.985  33.310  1.00  0.00     0.074 A 
ATOM     39  C   UNL A   1      37.780  31.727  33.111  1.00  0.00     0.031 C 
ATOM     40  C   UNL A   1      39.759  27.917  27.704  1.00  0.00     0.029 A 
ATOM     41  C   UNL A   1      40.638  27.868  28.868  1.00  0.00     0.049 A 
ATOM     42  H   UNL A   1      40.360  28.807  30.706  1.00  0.00     0.167 HD
ATOM     43  C   UNL A   1      39.725  30.995  34.457  1.00  0.00     0.037 A 
ATOM     44  C   UNL A   1      41.800  27.192  28.942  1.00  0.00     0.037 A 
ATOM     45  C   UNL A   1      40.931  30.236  34.659  1.00  0.00     0.049 A 
ATOM     46  C   UNL A   1      42.594  27.245  30.222  1.00  0.00     0.074 A 
ATOM     47  C   UNL A   1      41.711  30.144  35.798  1.00  0.00     0.029 A 
ATOM     48  N   UNL A   1      41.530  29.437  33.696  1.00  0.00    -0.354 N 
ATOM     49  N   UNL A   1      42.323  27.872  31.341  1.00  0.00    -0.248 NA
ATOM     50  C   UNL A   1      43.854  26.489  30.249  1.00  0.00     0.031 C 
ATOM     51  C   UNL A   1      42.810  29.330  35.509  1.00  0.00     0.029 A 
ATOM     52  C   UNL A   1      42.683  28.865  34.211  1.00  0.00     0.049 A 
ATOM     53  H   UNL A   1      41.188  29.298  32.784  1.00  0.00     0.167 HD
ATOM     54  C   UNL A   1      43.356  27.557  32.214  1.00  0.00     0.074 A 
ATOM     55  C   UNL A   1      44.249  26.670  31.500  1.00  0.00     0.031 C 
ATOM     56  C   UNL A   1      43.549  27.966  33.492  1.00  0.00     0.037 A 
BRANCH  43  57
ATOM     57  C   UNL A   1      39.222  31.842  35.591  1.00  0.00     0.064 A 
ATOM     58  C   UNL A   1      38.340  31.330  36.554  1.00  0.00     0.173 A 
ATOM     59  C   UNL A   1      39.670  33.162  35.749  1.00  0.00     0.173 A 
ATOM     60  F   UNL A   1      37.871  30.078  36.443  1.00  0.00    -0.203 F 
ATOM     61  C   UNL A   1      37.907  32.115  37.620  1.00  0.00     0.198 A 
ATOM     62  C   UNL A   1      39.261  33.934  36.833  1.00  0.00     0.198 A 
ATOM     63  F   UNL A   1      40.519  33.701  34.859  1.00  0.00    -0.203 F 
ATOM     64  F   UNL A   1      37.028  31.619  38.501  1.00  0.00    -0.200 F 
ATOM     65  C   UNL A   1      38.375  33.412  37.764  1.00  0.00     0.200 A 
ATOM     66  F   UNL A   1      39.727  35.181  36.980  1.00  0.00    -0.200 F 
ATOM     67  F   UNL A   1      37.969  34.161  38.799  1.00  0.00    -0.200 F 
ENDBRANCH  43  57
BRANCH  44  68
ATOM     68  C   UNL A   1      42.285  26.396  27.782  1.00  0.00     0.064 A 
ATOM     69  C   UNL A   1      41.819  25.093  27.558  1.00  0.00     0.173 A 
ATOM     70  C   UNL A   1      43.248  26.903  26.898  1.00  0.00     0.173 A 
ATOM     71  F   UNL A   1      40.912  24.555  28.387  1.00  0.00    -0.203 F 
ATOM     72  C   UNL A   1      42.325  24.314  26.519  1.00  0.00     0.198 A 
ATOM     73  C   UNL A   1      43.727  26.137  25.837  1.00  0.00     0.198 A 
ATOM     74  F   UNL A   1      43.723  28.146  27.061  1.00  0.00    -0.203 F 
ATOM     75  F   UNL A   1      41.910  23.049  26.370  1.00  0.00    -0.200 F 
ATOM     76  C   UNL A   1      43.276  24.838  25.657  1.00  0.00     0.200 A 
ATOM     77  F   UNL A   1      44.634  26.653  24.997  1.00  0.00    -0.200 F 
ATOM     78  F   UNL A   1      43.766  24.088  24.661  1.00  0.00    -0.200 F 
ENDBRANCH  44  68
BRANCH  56  79
ATOM     79  C   UNL A   1      44.743  27.418  34.220  1.00  0.00     0.064 A 
ATOM     80  C   UNL A   1      45.975  28.087  34.230  1.00  0.00     0.173 A 
ATOM     81  C   UNL A   1      44.636  26.226  34.953  1.00  0.00     0.173 A 
ATOM     82  F   UNL A   1      46.134  29.223  33.535  1.00  0.00    -0.203 F 
ATOM     83  C   UNL A   1      47.066  27.566  34.922  1.00  0.00     0.198 A 
ATOM     84  C   UNL A   1      45.717  25.727  35.673  1.00  0.00     0.198 A 
ATOM     85  F   UNL A   1      43.477  25.551  34.984  1.00  0.00    -0.203 F 
ATOM     86  F   UNL A   1      48.249  28.194  34.874  1.00  0.00    -0.200 F 
ATOM     87  C   UNL A   1      46.933  26.393  35.650  1.00  0.00     0.200 A 
ATOM     88  F   UNL A   1      45.582  24.603  36.390  1.00  0.00    -0.200 F 
ATOM     89  F   UNL A   1      47.981  25.899  36.324  1.00  0.00    -0.200 F 
ENDBRANCH  56  79
ENDBRANCH  30  31
ENDBRANCH  22  25
ENDBRANCH  20  21
ENDBRANCH   1  20
TORSDOF 12
ENDMDL
