MODEL 1
REMARK VINA RESULT:     -11.6      0.000      0.000
REMARK SMILES CC[C@@H]1CCCC[C@@H]1OCC[C@@H]1CCC[C@]1([NH2+]C)C(=O)NCCCNC(=O)c1ccc(-c2c3nc(c(-c4c(F)c(F)c(F)c(F)c4F)c4ccc([nH]4)c(-c4c(F)c(F)c(F)c(F)c4F)c4nc(c(-c5c(F)c(F)c(F)c(F)c5F)c5ccc2[nH]5)C=C4)C=C3)cc1
REMARK SMILES IDX 19 1 20 2 21 3 16 5 12 6 13 7 14 8 15 9 11 10 10 11 9 12
REMARK SMILES IDX 8 13 3 14 4 15 5 16 7 17 6 18 2 19 1 20 17 21 18 22 22 25
REMARK SMILES IDX 23 26 24 27 25 28 26 29 27 31 28 32 29 33 90 34 30 35 89 36
REMARK SMILES IDX 31 37 32 38 33 39 83 40 34 41 88 42 82 43 84 44 35 45 87 46
REMARK SMILES IDX 81 47 80 48 36 50 68 51 48 52 67 53 49 54 52 55 66 56 85 57
REMARK SMILES IDX 50 58 51 59 65 61 86 62 53 63 37 64 38 65 46 66 39 67 40 68
REMARK SMILES IDX 44 69 47 70 41 71 42 72 45 73 43 74 69 75 70 76 78 77 71 78
REMARK SMILES IDX 72 79 76 80 79 81 73 82 74 83 77 84 75 85 54 86 55 87 63 88
REMARK SMILES IDX 56 89 57 90 61 91 64 92 58 93 59 94 62 95 60 96
REMARK H PARENT 21 4 17 23 17 24 25 30 84 49 52 60
REMARK Flexibility Score: inf
ROOT
ATOM      1  C   UNL A   1      35.329  21.477  25.719  1.00  0.00     0.281 C 
ATOM      2  O   UNL A   1      34.236  21.322  26.279  1.00  0.00    -0.268 OA
ATOM      3  N   UNL A   1      35.971  20.327  25.376  1.00  0.00    -0.351 N 
ATOM      4  H   UNL A   1      35.525  19.511  25.699  1.00  0.00     0.163 HD
ENDROOT
BRANCH   1   5
ATOM      5  C   UNL A   1      35.922  22.906  25.474  1.00  0.00     0.178 C 
ATOM      6  C   UNL A   1      34.837  23.980  25.192  1.00  0.00     0.063 C 
ATOM      7  C   UNL A   1      34.335  23.596  23.796  1.00  0.00     0.011 C 
ATOM      8  C   UNL A   1      35.616  23.308  23.034  1.00  0.00     0.008 C 
ATOM      9  C   UNL A   1      36.659  22.931  24.096  1.00  0.00     0.079 C 
BRANCH   6  10
ATOM     10  C   UNL A   1      33.657  24.267  26.126  1.00  0.00     0.039 C 
BRANCH  10  11
ATOM     11  C   UNL A   1      32.301  24.574  25.469  1.00  0.00     0.161 C 
BRANCH  11  12
ATOM     12  O   UNL A   1      31.934  25.964  25.468  1.00  0.00    -0.378 OA
BRANCH  12  13
ATOM     13  C   UNL A   1      32.428  26.715  24.360  1.00  0.00     0.121 C 
ATOM     14  C   UNL A   1      32.930  28.121  24.778  1.00  0.00     0.018 C 
ATOM     15  C   UNL A   1      31.781  29.085  25.113  1.00  0.00     0.006 C 
ATOM     16  C   UNL A   1      30.757  29.161  23.988  1.00  0.00     0.000 C 
ATOM     17  C   UNL A   1      31.316  26.832  23.299  1.00  0.00     0.032 C 
ATOM     18  C   UNL A   1      30.199  27.784  23.689  1.00  0.00     0.003 C 
BRANCH  14  19
ATOM     19  C   UNL A   1      34.028  28.095  25.865  1.00  0.00     0.003 C 
ATOM     20  C   UNL A   1      33.626  28.578  27.251  1.00  0.00     0.004 C 
ENDBRANCH  14  19
ENDBRANCH  12  13
ENDBRANCH  11  12
ENDBRANCH  10  11
ENDBRANCH   6  10
BRANCH   5  21
ATOM     21  N   UNL A   1      36.845  23.308  26.564  1.00  0.00    -0.336 N 
ATOM     22  C   UNL A   1      38.172  23.707  26.094  1.00  0.00     0.331 C 
ATOM     23  H   UNL A   1      36.954  22.519  27.201  1.00  0.00     0.346 HD
ATOM     24  H   UNL A   1      36.433  24.123  27.018  1.00  0.00     0.346 HD
ENDBRANCH   5  21
ENDBRANCH   1   5
BRANCH   3  25
ATOM     25  C   UNL A   1      37.189  20.074  24.625  1.00  0.00     0.118 C 
BRANCH  25  26
ATOM     26  C   UNL A   1      38.156  19.169  25.375  1.00  0.00     0.042 C 
BRANCH  26  27
ATOM     27  C   UNL A   1      39.454  19.853  25.762  1.00  0.00     0.118 C 
BRANCH  27  28
ATOM     28  N   UNL A   1      40.521  18.892  25.974  1.00  0.00    -0.352 N 
ATOM     29  C   UNL A   1      41.862  19.132  26.125  1.00  0.00     0.251 C 
ATOM     30  H   UNL A   1      40.247  17.947  26.014  1.00  0.00     0.163 HD
ATOM     31  O   UNL A   1      42.672  18.207  26.022  1.00  0.00    -0.269 OA
BRANCH  29  32
ATOM     32  C   UNL A   1      42.341  20.504  26.400  1.00  0.00     0.039 A 
ATOM     33  C   UNL A   1      42.866  21.273  25.359  1.00  0.00     0.014 A 
ATOM     34  C   UNL A   1      42.288  21.027  27.696  1.00  0.00     0.014 A 
ATOM     35  C   UNL A   1      43.304  22.577  25.611  1.00  0.00     0.010 A 
ATOM     36  C   UNL A   1      42.620  22.356  27.922  1.00  0.00     0.010 A 
ATOM     37  C   UNL A   1      43.168  23.135  26.891  1.00  0.00    -0.014 A 
BRANCH  37  38
ATOM     38  C   UNL A   1      43.668  24.493  27.222  1.00  0.00     0.031 A 
ATOM     39  C   UNL A   1      42.697  25.522  27.737  1.00  0.00     0.074 A 
ATOM     40  C   UNL A   1      44.951  24.829  26.989  1.00  0.00     0.049 A 
ATOM     41  N   UNL A   1      42.864  26.806  27.926  1.00  0.00    -0.248 NA
ATOM     42  C   UNL A   1      41.336  25.047  28.042  1.00  0.00     0.031 C 
ATOM     43  C   UNL A   1      45.983  23.933  26.469  1.00  0.00     0.029 A 
ATOM     44  N   UNL A   1      45.600  26.030  27.142  1.00  0.00    -0.354 N 
ATOM     45  C   UNL A   1      41.625  27.290  28.329  1.00  0.00     0.074 A 
ATOM     46  C   UNL A   1      40.704  26.178  28.304  1.00  0.00     0.031 C 
ATOM     47  C   UNL A   1      47.138  24.609  26.359  1.00  0.00     0.029 A 
ATOM     48  C   UNL A   1      46.916  25.998  26.755  1.00  0.00     0.049 A 
ATOM     49  H   UNL A   1      45.162  26.837  27.497  1.00  0.00     0.167 HD
ATOM     50  C   UNL A   1      41.293  28.546  28.710  1.00  0.00     0.037 A 
ATOM     51  C   UNL A   1      47.834  26.984  26.707  1.00  0.00     0.037 A 
ATOM     52  C   UNL A   1      42.228  29.636  28.782  1.00  0.00     0.049 A 
ATOM     53  C   UNL A   1      47.441  28.373  27.138  1.00  0.00     0.074 A 
ATOM     54  C   UNL A   1      42.010  30.932  29.214  1.00  0.00     0.029 A 
ATOM     55  N   UNL A   1      43.564  29.551  28.420  1.00  0.00    -0.354 N 
ATOM     56  N   UNL A   1      46.280  28.812  27.561  1.00  0.00    -0.248 NA
ATOM     57  C   UNL A   1      48.488  29.405  27.089  1.00  0.00     0.031 C 
ATOM     58  C   UNL A   1      43.204  31.644  29.070  1.00  0.00     0.029 A 
ATOM     59  C   UNL A   1      44.180  30.776  28.605  1.00  0.00     0.049 A 
ATOM     60  H   UNL A   1      44.008  28.740  28.082  1.00  0.00     0.167 HD
ATOM     61  C   UNL A   1      46.466  30.153  27.867  1.00  0.00     0.074 A 
ATOM     62  C   UNL A   1      47.852  30.459  27.582  1.00  0.00     0.031 C 
ATOM     63  C   UNL A   1      45.570  31.050  28.348  1.00  0.00     0.037 A 
BRANCH  50  64
ATOM     64  C   UNL A   1      39.862  28.806  29.084  1.00  0.00     0.064 A 
ATOM     65  C   UNL A   1      39.406  28.673  30.405  1.00  0.00     0.173 A 
ATOM     66  C   UNL A   1      38.938  29.221  28.112  1.00  0.00     0.173 A 
ATOM     67  F   UNL A   1      40.245  28.268  31.371  1.00  0.00    -0.203 F 
ATOM     68  C   UNL A   1      38.074  28.911  30.732  1.00  0.00     0.198 A 
ATOM     69  C   UNL A   1      37.616  29.493  28.449  1.00  0.00     0.198 A 
ATOM     70  F   UNL A   1      39.320  29.371  26.835  1.00  0.00    -0.203 F 
ATOM     71  F   UNL A   1      37.651  28.721  31.989  1.00  0.00    -0.200 F 
ATOM     72  C   UNL A   1      37.182  29.329  29.756  1.00  0.00     0.200 A 
ATOM     73  F   UNL A   1      36.757  29.911  27.508  1.00  0.00    -0.200 F 
ATOM     74  F   UNL A   1      35.902  29.565  30.074  1.00  0.00    -0.200 F 
ENDBRANCH  50  64
BRANCH  51  75
ATOM     75  C   UNL A   1      49.219  26.690  26.255  1.00  0.00     0.064 A 
ATOM     76  C   UNL A   1      49.591  26.873  24.915  1.00  0.00     0.173 A 
ATOM     77  C   UNL A   1      50.196  26.215  27.142  1.00  0.00     0.173 A 
ATOM     78  F   UNL A   1      48.688  27.305  24.023  1.00  0.00    -0.203 F 
ATOM     79  C   UNL A   1      50.879  26.572  24.477  1.00  0.00     0.198 A 
ATOM     80  C   UNL A   1      51.492  25.943  26.709  1.00  0.00     0.198 A 
ATOM     81  F   UNL A   1      49.894  26.027  28.435  1.00  0.00    -0.203 F 
ATOM     82  F   UNL A   1      51.193  26.712  23.182  1.00  0.00    -0.200 F 
ATOM     83  C   UNL A   1      51.830  26.113  25.375  1.00  0.00     0.200 A 
ATOM     84  F   UNL A   1      52.412  25.513  27.582  1.00  0.00    -0.200 F 
ATOM     85  F   UNL A   1      53.070  25.827  24.954  1.00  0.00    -0.200 F 
ENDBRANCH  51  75
BRANCH  63  86
ATOM     86  C   UNL A   1      46.065  32.429  28.666  1.00  0.00     0.064 A 
ATOM     87  C   UNL A   1      45.997  33.474  27.735  1.00  0.00     0.173 A 
ATOM     88  C   UNL A   1      46.532  32.725  29.957  1.00  0.00     0.173 A 
ATOM     89  F   UNL A   1      45.569  33.239  26.486  1.00  0.00    -0.203 F 
ATOM     90  C   UNL A   1      46.390  34.765  28.081  1.00  0.00     0.198 A 
ATOM     91  C   UNL A   1      46.896  34.022  30.307  1.00  0.00     0.198 A 
ATOM     92  F   UNL A   1      46.608  31.761  30.887  1.00  0.00    -0.203 F 
ATOM     93  F   UNL A   1      46.346  35.744  27.166  1.00  0.00    -0.200 F 
ATOM     94  C   UNL A   1      46.828  35.040  29.368  1.00  0.00     0.200 A 
ATOM     95  F   UNL A   1      47.303  34.288  31.556  1.00  0.00    -0.200 F 
ATOM     96  F   UNL A   1      47.185  36.287  29.704  1.00  0.00    -0.200 F 
ENDBRANCH  63  86
ENDBRANCH  37  38
ENDBRANCH  29  32
ENDBRANCH  27  28
ENDBRANCH  26  27
ENDBRANCH  25  26
ENDBRANCH   3  25
TORSDOF 16
ENDMDL
MODEL 2
REMARK VINA RESULT:     -11.6      0.417      1.992
REMARK SMILES CC[C@@H]1CCCC[C@@H]1OCC[C@@H]1CCC[C@]1([NH2+]C)C(=O)NCCCNC(=O)c1ccc(-c2c3nc(c(-c4c(F)c(F)c(F)c(F)c4F)c4ccc([nH]4)c(-c4c(F)c(F)c(F)c(F)c4F)c4nc(c(-c5c(F)c(F)c(F)c(F)c5F)c5ccc2[nH]5)C=C4)C=C3)cc1
REMARK SMILES IDX 19 1 20 2 21 3 16 5 12 6 13 7 14 8 15 9 11 10 10 11 9 12
REMARK SMILES IDX 8 13 3 14 4 15 5 16 7 17 6 18 2 19 1 20 17 21 18 22 22 25
REMARK SMILES IDX 23 26 24 27 25 28 26 29 27 31 28 32 29 33 90 34 30 35 89 36
REMARK SMILES IDX 31 37 32 38 33 39 83 40 34 41 88 42 82 43 84 44 35 45 87 46
REMARK SMILES IDX 81 47 80 48 36 50 68 51 48 52 67 53 49 54 52 55 66 56 85 57
REMARK SMILES IDX 50 58 51 59 65 61 86 62 53 63 37 64 38 65 46 66 39 67 40 68
REMARK SMILES IDX 44 69 47 70 41 71 42 72 45 73 43 74 69 75 70 76 78 77 71 78
REMARK SMILES IDX 72 79 76 80 79 81 73 82 74 83 77 84 75 85 54 86 55 87 63 88
REMARK SMILES IDX 56 89 57 90 61 91 64 92 58 93 59 94 62 95 60 96
REMARK H PARENT 21 4 17 23 17 24 25 30 84 49 52 60
REMARK Flexibility Score: inf
ROOT
ATOM      1  C   UNL A   1      35.538  21.624  25.954  1.00  0.00     0.281 C 
ATOM      2  O   UNL A   1      34.523  21.568  26.662  1.00  0.00    -0.268 OA
ATOM      3  N   UNL A   1      36.043  20.420  25.572  1.00  0.00    -0.351 N 
ATOM      4  H   UNL A   1      35.590  19.649  25.983  1.00  0.00     0.163 HD
ENDROOT
BRANCH   1   5
ATOM      5  C   UNL A   1      36.190  22.997  25.576  1.00  0.00     0.178 C 
ATOM      6  C   UNL A   1      35.155  24.068  25.140  1.00  0.00     0.063 C 
ATOM      7  C   UNL A   1      34.684  23.549  23.776  1.00  0.00     0.011 C 
ATOM      8  C   UNL A   1      35.978  23.136  23.097  1.00  0.00     0.008 C 
ATOM      9  C   UNL A   1      36.972  22.845  24.231  1.00  0.00     0.079 C 
BRANCH   6  10
ATOM     10  C   UNL A   1      33.956  24.496  25.993  1.00  0.00     0.039 C 
BRANCH  10  11
ATOM     11  C   UNL A   1      32.572  24.465  25.325  1.00  0.00     0.161 C 
BRANCH  11  12
ATOM     12  O   UNL A   1      31.985  25.757  25.096  1.00  0.00    -0.378 OA
BRANCH  12  13
ATOM     13  C   UNL A   1      32.890  26.752  24.621  1.00  0.00     0.121 C 
ATOM     14  C   UNL A   1      32.670  28.125  25.308  1.00  0.00     0.018 C 
ATOM     15  C   UNL A   1      31.397  28.833  24.821  1.00  0.00     0.006 C 
ATOM     16  C   UNL A   1      31.356  28.947  23.302  1.00  0.00     0.000 C 
ATOM     17  C   UNL A   1      32.735  26.882  23.093  1.00  0.00     0.032 C 
ATOM     18  C   UNL A   1      31.451  27.574  22.668  1.00  0.00     0.003 C 
BRANCH  14  19
ATOM     19  C   UNL A   1      32.778  28.078  26.848  1.00  0.00     0.003 C 
ATOM     20  C   UNL A   1      31.478  28.209  27.628  1.00  0.00     0.004 C 
ENDBRANCH  14  19
ENDBRANCH  12  13
ENDBRANCH  11  12
ENDBRANCH  10  11
ENDBRANCH   6  10
BRANCH   5  21
ATOM     21  N   UNL A   1      37.092  23.486  26.648  1.00  0.00    -0.336 N 
ATOM     22  C   UNL A   1      38.343  24.057  26.149  1.00  0.00     0.331 C 
ATOM     23  H   UNL A   1      37.318  22.702  27.261  1.00  0.00     0.346 HD
ATOM     24  H   UNL A   1      36.597  24.233  27.136  1.00  0.00     0.346 HD
ENDBRANCH   5  21
ENDBRANCH   1   5
BRANCH   3  25
ATOM     25  C   UNL A   1      37.126  20.054  24.673  1.00  0.00     0.118 C 
BRANCH  25  26
ATOM     26  C   UNL A   1      38.134  19.121  25.327  1.00  0.00     0.042 C 
BRANCH  26  27
ATOM     27  C   UNL A   1      39.426  19.806  25.729  1.00  0.00     0.118 C 
BRANCH  27  28
ATOM     28  N   UNL A   1      40.488  18.845  25.966  1.00  0.00    -0.352 N 
ATOM     29  C   UNL A   1      41.828  19.084  26.128  1.00  0.00     0.251 C 
ATOM     30  H   UNL A   1      40.211  17.902  26.019  1.00  0.00     0.163 HD
ATOM     31  O   UNL A   1      42.636  18.154  26.047  1.00  0.00    -0.269 OA
BRANCH  29  32
ATOM     32  C   UNL A   1      42.309  20.458  26.387  1.00  0.00     0.039 A 
ATOM     33  C   UNL A   1      42.688  21.270  25.315  1.00  0.00     0.014 A 
ATOM     34  C   UNL A   1      42.402  20.941  27.695  1.00  0.00     0.014 A 
ATOM     35  C   UNL A   1      43.126  22.576  25.554  1.00  0.00     0.010 A 
ATOM     36  C   UNL A   1      42.732  22.271  27.922  1.00  0.00     0.010 A 
ATOM     37  C   UNL A   1      43.135  23.092  26.858  1.00  0.00    -0.014 A 
BRANCH  37  38
ATOM     38  C   UNL A   1      43.643  24.452  27.170  1.00  0.00     0.031 A 
ATOM     39  C   UNL A   1      42.685  25.485  27.702  1.00  0.00     0.074 A 
ATOM     40  C   UNL A   1      44.920  24.786  26.906  1.00  0.00     0.049 A 
ATOM     41  N   UNL A   1      42.857  26.769  27.880  1.00  0.00    -0.248 NA
ATOM     42  C   UNL A   1      41.331  25.012  28.041  1.00  0.00     0.031 C 
ATOM     43  C   UNL A   1      45.939  23.886  26.366  1.00  0.00     0.029 A 
ATOM     44  N   UNL A   1      45.573  25.987  27.036  1.00  0.00    -0.354 N 
ATOM     45  C   UNL A   1      41.629  27.257  28.309  1.00  0.00     0.074 A 
ATOM     46  C   UNL A   1      40.706  26.145  28.312  1.00  0.00     0.031 C 
ATOM     47  C   UNL A   1      47.092  24.561  26.226  1.00  0.00     0.029 A 
ATOM     48  C   UNL A   1      46.880  25.952  26.618  1.00  0.00     0.049 A 
ATOM     49  H   UNL A   1      45.144  26.797  27.396  1.00  0.00     0.167 HD
ATOM     50  C   UNL A   1      41.306  28.515  28.691  1.00  0.00     0.037 A 
ATOM     51  C   UNL A   1      47.798  26.937  26.544  1.00  0.00     0.037 A 
ATOM     52  C   UNL A   1      42.243  29.605  28.735  1.00  0.00     0.049 A 
ATOM     53  C   UNL A   1      47.415  28.329  26.976  1.00  0.00     0.074 A 
ATOM     54  C   UNL A   1      42.036  30.903  29.164  1.00  0.00     0.029 A 
ATOM     55  N   UNL A   1      43.570  29.516  28.342  1.00  0.00    -0.354 N 
ATOM     56  N   UNL A   1      46.265  28.771  27.423  1.00  0.00    -0.248 NA
ATOM     57  C   UNL A   1      48.461  29.360  26.897  1.00  0.00     0.031 C 
ATOM     58  C   UNL A   1      43.226  31.613  28.989  1.00  0.00     0.029 A 
ATOM     59  C   UNL A   1      44.191  30.742  28.506  1.00  0.00     0.049 A 
ATOM     60  H   UNL A   1      44.006  28.703  27.998  1.00  0.00     0.167 HD
ATOM     61  C   UNL A   1      46.459  30.114  27.718  1.00  0.00     0.074 A 
ATOM     62  C   UNL A   1      47.837  30.417  27.399  1.00  0.00     0.031 C 
ATOM     63  C   UNL A   1      45.575  31.013  28.215  1.00  0.00     0.037 A 
BRANCH  50  64
ATOM     64  C   UNL A   1      39.884  28.778  29.097  1.00  0.00     0.064 A 
ATOM     65  C   UNL A   1      38.919  29.207  28.172  1.00  0.00     0.173 A 
ATOM     66  C   UNL A   1      39.474  28.572  30.423  1.00  0.00     0.173 A 
ATOM     67  F   UNL A   1      39.260  29.431  26.894  1.00  0.00    -0.203 F 
ATOM     68  C   UNL A   1      37.606  29.453  28.567  1.00  0.00     0.198 A 
ATOM     69  C   UNL A   1      38.153  28.784  30.806  1.00  0.00     0.198 A 
ATOM     70  F   UNL A   1      40.352  28.157  31.347  1.00  0.00    -0.203 F 
ATOM     71  F   UNL A   1      36.718  29.917  27.678  1.00  0.00    -0.200 F 
ATOM     72  C   UNL A   1      37.222  29.233  29.880  1.00  0.00     0.200 A 
ATOM     73  F   UNL A   1      37.779  28.558  32.073  1.00  0.00    -0.200 F 
ATOM     74  F   UNL A   1      35.957  29.463  30.257  1.00  0.00    -0.200 F 
ENDBRANCH  50  64
BRANCH  51  75
ATOM     75  C   UNL A   1      49.171  26.639  26.060  1.00  0.00     0.064 A 
ATOM     76  C   UNL A   1      50.139  26.115  26.928  1.00  0.00     0.173 A 
ATOM     77  C   UNL A   1      49.549  26.877  24.731  1.00  0.00     0.173 A 
ATOM     78  F   UNL A   1      49.834  25.889  28.214  1.00  0.00    -0.203 F 
ATOM     79  C   UNL A   1      51.438  25.860  26.491  1.00  0.00     0.198 A 
ATOM     80  C   UNL A   1      50.839  26.595  24.287  1.00  0.00     0.198 A 
ATOM     81  F   UNL A   1      48.660  27.374  23.859  1.00  0.00    -0.203 F 
ATOM     82  F   UNL A   1      52.356  25.404  27.353  1.00  0.00    -0.200 F 
ATOM     83  C   UNL A   1      51.785  26.095  25.169  1.00  0.00     0.200 A 
ATOM     84  F   UNL A   1      51.167  26.809  23.006  1.00  0.00    -0.200 F 
ATOM     85  F   UNL A   1      53.033  25.847  24.748  1.00  0.00    -0.200 F 
ENDBRANCH  51  75
BRANCH  63  86
ATOM     86  C   UNL A   1      46.078  32.395  28.514  1.00  0.00     0.064 A 
ATOM     87  C   UNL A   1      46.665  32.720  29.744  1.00  0.00     0.173 A 
ATOM     88  C   UNL A   1      46.047  33.382  27.516  1.00  0.00     0.173 A 
ATOM     89  F   UNL A   1      46.707  31.814  30.733  1.00  0.00    -0.203 F 
ATOM     90  C   UNL A   1      47.195  33.988  29.969  1.00  0.00     0.198 A 
ATOM     91  C   UNL A   1      46.604  34.638  27.734  1.00  0.00     0.198 A 
ATOM     92  F   UNL A   1      45.503  33.117  26.319  1.00  0.00    -0.203 F 
ATOM     93  F   UNL A   1      47.726  34.288  31.162  1.00  0.00    -0.200 F 
ATOM     94  C   UNL A   1      47.174  34.942  28.961  1.00  0.00     0.200 A 
ATOM     95  F   UNL A   1      46.597  35.552  26.753  1.00  0.00    -0.200 F 
ATOM     96  F   UNL A   1      47.704  36.154  29.172  1.00  0.00    -0.200 F 
ENDBRANCH  63  86
ENDBRANCH  37  38
ENDBRANCH  29  32
ENDBRANCH  27  28
ENDBRANCH  26  27
ENDBRANCH  25  26
ENDBRANCH   3  25
TORSDOF 16
ENDMDL
MODEL 3
REMARK VINA RESULT:     -11.4      1.065      2.066
REMARK SMILES CC[C@@H]1CCCC[C@@H]1OCC[C@@H]1CCC[C@]1([NH2+]C)C(=O)NCCCNC(=O)c1ccc(-c2c3nc(c(-c4c(F)c(F)c(F)c(F)c4F)c4ccc([nH]4)c(-c4c(F)c(F)c(F)c(F)c4F)c4nc(c(-c5c(F)c(F)c(F)c(F)c5F)c5ccc2[nH]5)C=C4)C=C3)cc1
REMARK SMILES IDX 19 1 20 2 21 3 16 5 12 6 13 7 14 8 15 9 11 10 10 11 9 12
REMARK SMILES IDX 8 13 3 14 4 15 5 16 7 17 6 18 2 19 1 20 17 21 18 22 22 25
REMARK SMILES IDX 23 26 24 27 25 28 26 29 27 31 28 32 29 33 90 34 30 35 89 36
REMARK SMILES IDX 31 37 32 38 33 39 83 40 34 41 88 42 82 43 84 44 35 45 87 46
REMARK SMILES IDX 81 47 80 48 36 50 68 51 48 52 67 53 49 54 52 55 66 56 85 57
REMARK SMILES IDX 50 58 51 59 65 61 86 62 53 63 37 64 38 65 46 66 39 67 40 68
REMARK SMILES IDX 44 69 47 70 41 71 42 72 45 73 43 74 69 75 70 76 78 77 71 78
REMARK SMILES IDX 72 79 76 80 79 81 73 82 74 83 77 84 75 85 54 86 55 87 63 88
REMARK SMILES IDX 56 89 57 90 61 91 64 92 58 93 59 94 62 95 60 96
REMARK H PARENT 21 4 17 23 17 24 25 30 84 49 52 60
REMARK Flexibility Score: inf
ROOT
ATOM      1  C   UNL A   1      34.799  21.785  26.147  1.00  0.00     0.281 C 
ATOM      2  O   UNL A   1      34.361  21.761  27.305  1.00  0.00    -0.268 OA
ATOM      3  N   UNL A   1      35.954  21.092  25.952  1.00  0.00    -0.351 N 
ATOM      4  H   UNL A   1      36.347  20.733  26.780  1.00  0.00     0.163 HD
ENDROOT
BRANCH   1   5
ATOM      5  C   UNL A   1      34.074  22.595  25.019  1.00  0.00     0.178 C 
ATOM      6  C   UNL A   1      32.643  23.046  25.412  1.00  0.00     0.063 C 
ATOM      7  C   UNL A   1      31.860  21.728  25.415  1.00  0.00     0.011 C 
ATOM      8  C   UNL A   1      32.332  21.043  24.145  1.00  0.00     0.008 C 
ATOM      9  C   UNL A   1      33.716  21.634  23.840  1.00  0.00     0.079 C 
BRANCH   6  10
ATOM     10  C   UNL A   1      32.319  23.864  26.668  1.00  0.00     0.039 C 
BRANCH  10  11
ATOM     11  C   UNL A   1      31.365  25.058  26.500  1.00  0.00     0.161 C 
BRANCH  11  12
ATOM     12  O   UNL A   1      31.951  26.214  25.877  1.00  0.00    -0.378 OA
BRANCH  12  13
ATOM     13  C   UNL A   1      31.313  27.452  26.187  1.00  0.00     0.121 C 
ATOM     14  C   UNL A   1      31.401  28.469  25.020  1.00  0.00     0.018 C 
ATOM     15  C   UNL A   1      32.809  29.061  24.856  1.00  0.00     0.006 C 
ATOM     16  C   UNL A   1      33.333  29.649  26.161  1.00  0.00     0.000 C 
ATOM     17  C   UNL A   1      31.949  28.037  27.463  1.00  0.00     0.032 C 
ATOM     18  C   UNL A   1      33.346  28.593  27.247  1.00  0.00     0.003 C 
BRANCH  14  19
ATOM     19  C   UNL A   1      30.812  27.947  23.690  1.00  0.00     0.003 C 
ATOM     20  C   UNL A   1      29.925  28.911  22.914  1.00  0.00     0.004 C 
ENDBRANCH  14  19
ENDBRANCH  12  13
ENDBRANCH  11  12
ENDBRANCH  10  11
ENDBRANCH   6  10
BRANCH   5  21
ATOM     21  N   UNL A   1      34.909  23.721  24.535  1.00  0.00    -0.336 N 
ATOM     22  C   UNL A   1      34.261  24.534  23.505  1.00  0.00     0.331 C 
ATOM     23  H   UNL A   1      35.772  23.340  24.147  1.00  0.00     0.346 HD
ATOM     24  H   UNL A   1      35.077  24.333  25.334  1.00  0.00     0.346 HD
ENDBRANCH   5  21
ENDBRANCH   1   5
BRANCH   3  25
ATOM     25  C   UNL A   1      36.719  20.783  24.755  1.00  0.00     0.118 C 
BRANCH  25  26
ATOM     26  C   UNL A   1      37.778  19.718  25.001  1.00  0.00     0.042 C 
BRANCH  26  27
ATOM     27  C   UNL A   1      38.999  20.233  25.740  1.00  0.00     0.118 C 
BRANCH  27  28
ATOM     28  N   UNL A   1      40.038  19.222  25.822  1.00  0.00    -0.352 N 
ATOM     29  C   UNL A   1      41.385  19.402  25.996  1.00  0.00     0.251 C 
ATOM     30  H   UNL A   1      39.737  18.288  25.743  1.00  0.00     0.163 HD
ATOM     31  O   UNL A   1      42.168  18.475  25.772  1.00  0.00    -0.269 OA
BRANCH  29  32
ATOM     32  C   UNL A   1      41.905  20.713  26.441  1.00  0.00     0.039 A 
ATOM     33  C   UNL A   1      42.109  20.948  27.804  1.00  0.00     0.014 A 
ATOM     34  C   UNL A   1      42.176  21.721  25.511  1.00  0.00     0.014 A 
ATOM     35  C   UNL A   1      42.617  22.180  28.228  1.00  0.00     0.010 A 
ATOM     36  C   UNL A   1      42.782  22.901  25.923  1.00  0.00     0.010 A 
ATOM     37  C   UNL A   1      42.974  23.159  27.288  1.00  0.00    -0.014 A 
BRANCH  37  38
ATOM     38  C   UNL A   1      43.465  24.502  27.690  1.00  0.00     0.031 A 
ATOM     39  C   UNL A   1      42.463  25.558  28.077  1.00  0.00     0.074 A 
ATOM     40  C   UNL A   1      44.776  24.802  27.631  1.00  0.00     0.049 A 
ATOM     41  N   UNL A   1      42.640  26.837  28.292  1.00  0.00    -0.248 NA
ATOM     42  C   UNL A   1      41.061  25.122  28.196  1.00  0.00     0.031 C 
ATOM     43  C   UNL A   1      45.842  23.876  27.247  1.00  0.00     0.029 A 
ATOM     44  N   UNL A   1      45.433  25.983  27.874  1.00  0.00    -0.354 N 
ATOM     45  C   UNL A   1      41.374  27.356  28.530  1.00  0.00     0.074 A 
ATOM     46  C   UNL A   1      40.432  26.271  28.378  1.00  0.00     0.031 C 
ATOM     47  C   UNL A   1      47.021  24.520  27.295  1.00  0.00     0.029 A 
ATOM     48  C   UNL A   1      46.788  25.913  27.664  1.00  0.00     0.049 A 
ATOM     49  H   UNL A   1      44.975  26.802  28.171  1.00  0.00     0.167 HD
ATOM     50  C   UNL A   1      41.029  28.620  28.871  1.00  0.00     0.037 A 
ATOM     51  C   UNL A   1      47.732  26.872  27.743  1.00  0.00     0.037 A 
ATOM     52  C   UNL A   1      41.977  29.683  29.071  1.00  0.00     0.049 A 
ATOM     53  C   UNL A   1      47.324  28.272  28.126  1.00  0.00     0.074 A 
ATOM     54  C   UNL A   1      41.741  30.984  29.476  1.00  0.00     0.029 A 
ATOM     55  N   UNL A   1      43.347  29.559  28.889  1.00  0.00    -0.354 N 
ATOM     56  N   UNL A   1      46.131  28.744  28.393  1.00  0.00    -0.248 NA
ATOM     57  C   UNL A   1      48.397  29.273  28.221  1.00  0.00     0.031 C 
ATOM     58  C   UNL A   1      42.963  31.661  29.496  1.00  0.00     0.029 A 
ATOM     59  C   UNL A   1      43.967  30.766  29.160  1.00  0.00     0.049 A 
ATOM     60  H   UNL A   1      43.809  28.736  28.608  1.00  0.00     0.167 HD
ATOM     61  C   UNL A   1      46.313  30.079  28.728  1.00  0.00     0.074 A 
ATOM     62  C   UNL A   1      47.731  30.345  28.631  1.00  0.00     0.031 C 
ATOM     63  C   UNL A   1      45.386  31.000  29.091  1.00  0.00     0.037 A 
BRANCH  50  64
ATOM     64  C   UNL A   1      39.569  28.921  29.052  1.00  0.00     0.064 A 
ATOM     65  C   UNL A   1      38.947  28.833  30.307  1.00  0.00     0.173 A 
ATOM     66  C   UNL A   1      38.787  29.330  27.961  1.00  0.00     0.173 A 
ATOM     67  F   UNL A   1      39.646  28.435  31.381  1.00  0.00    -0.203 F 
ATOM     68  C   UNL A   1      37.590  29.108  30.456  1.00  0.00     0.198 A 
ATOM     69  C   UNL A   1      37.439  29.639  28.121  1.00  0.00     0.198 A 
ATOM     70  F   UNL A   1      39.331  29.437  26.740  1.00  0.00    -0.203 F 
ATOM     71  F   UNL A   1      37.006  28.961  31.654  1.00  0.00    -0.200 F 
ATOM     72  C   UNL A   1      36.840  29.519  29.366  1.00  0.00     0.200 A 
ATOM     73  F   UNL A   1      36.718  30.050  27.069  1.00  0.00    -0.200 F 
ATOM     74  F   UNL A   1      35.536  29.792  29.512  1.00  0.00    -0.200 F 
ENDBRANCH  50  64
BRANCH  51  75
ATOM     75  C   UNL A   1      49.155  26.539  27.477  1.00  0.00     0.064 A 
ATOM     76  C   UNL A   1      49.645  26.480  26.165  1.00  0.00     0.173 A 
ATOM     77  C   UNL A   1      50.053  26.267  28.519  1.00  0.00     0.173 A 
ATOM     78  F   UNL A   1      48.822  26.712  25.132  1.00  0.00    -0.203 F 
ATOM     79  C   UNL A   1      50.971  26.140  25.904  1.00  0.00     0.198 A 
ATOM     80  C   UNL A   1      51.386  25.955  28.260  1.00  0.00     0.198 A 
ATOM     81  F   UNL A   1      49.636  26.314  29.793  1.00  0.00    -0.203 F 
ATOM     82  F   UNL A   1      51.400  26.045  24.639  1.00  0.00    -0.200 F 
ATOM     83  C   UNL A   1      51.842  25.884  26.953  1.00  0.00     0.200 A 
ATOM     84  F   UNL A   1      52.228  25.722  29.276  1.00  0.00    -0.200 F 
ATOM     85  F   UNL A   1      53.118  25.560  26.703  1.00  0.00    -0.200 F 
ENDBRANCH  51  75
BRANCH  63  86
ATOM     86  C   UNL A   1      45.873  32.364  29.479  1.00  0.00     0.064 A 
ATOM     87  C   UNL A   1      46.281  32.662  30.786  1.00  0.00     0.173 A 
ATOM     88  C   UNL A   1      46.014  33.362  28.500  1.00  0.00     0.173 A 
ATOM     89  F   UNL A   1      46.156  31.746  31.758  1.00  0.00    -0.203 F 
ATOM     90  C   UNL A   1      46.804  33.913  31.103  1.00  0.00     0.198 A 
ATOM     91  C   UNL A   1      46.564  34.601  28.815  1.00  0.00     0.198 A 
ATOM     92  F   UNL A   1      45.646  33.122  27.233  1.00  0.00    -0.203 F 
ATOM     93  F   UNL A   1      47.161  34.189  32.365  1.00  0.00    -0.200 F 
ATOM     94  C   UNL A   1      46.955  34.877  30.115  1.00  0.00     0.200 A 
ATOM     95  F   UNL A   1      46.723  35.524  27.856  1.00  0.00    -0.200 F 
ATOM     96  F   UNL A   1      47.477  36.073  30.419  1.00  0.00    -0.200 F 
ENDBRANCH  63  86
ENDBRANCH  37  38
ENDBRANCH  29  32
ENDBRANCH  27  28
ENDBRANCH  26  27
ENDBRANCH  25  26
ENDBRANCH   3  25
TORSDOF 16
ENDMDL
