MODEL 1
REMARK VINA RESULT:     -12.1      0.000      0.000
REMARK SMILES COc1ccc(OC)c([C@H](C(=O)NCCCNC(=O)c2ccc(-c3c4nc(c(-c5c(F)c(F)c(F)c(F)c5F)c5ccc([nH]5)c(-c5c(F)c(F)c(F)c(F)c5F)c5nc(c(-c6c(F)c(F)c(F)c(F)c6F)c6ccc3[nH]6)C=C5)C=C4)cc2)[NH+]2CC[NH+](Cc3nccn3C)CC2)c1
REMARK SMILES IDX 14 1 13 2 11 3 12 4 10 6 9 7 3 8 4 9 96 10 5 11 6 12 2 13
REMARK SMILES IDX 1 14 7 15 8 16 83 17 84 18 95 19 85 21 94 22 86 23 87 25
REMARK SMILES IDX 88 26 89 27 92 28 90 29 91 30 93 31 15 32 16 33 17 34 18 35
REMARK SMILES IDX 19 37 20 38 21 39 82 40 22 41 81 42 23 43 24 44 25 45 75 46
REMARK SMILES IDX 26 47 80 48 74 49 76 50 27 51 79 52 73 53 72 54 28 56 60 57
REMARK SMILES IDX 40 58 59 59 41 60 44 61 58 62 77 63 42 64 43 65 57 67 78 68
REMARK SMILES IDX 45 69 29 70 30 71 38 72 31 73 32 74 36 75 39 76 33 77 34 78
REMARK SMILES IDX 37 79 35 80 61 81 62 82 70 83 63 84 64 85 68 86 71 87 65 88
REMARK SMILES IDX 66 89 69 90 67 91 46 92 47 93 55 94 48 95 49 96 53 97 56 98
REMARK SMILES IDX 50 99 51 100 54 101 52 102
REMARK H PARENT 13 5 83 20 86 24 17 36 76 55 44 66
REMARK Flexibility Score: inf
ROOT
ATOM      1  C   UNL A   1      31.837  30.190  26.427  1.00  0.00     0.118 C 
ENDROOT
BRANCH   1   2
ATOM      2  N   UNL A   1      32.558  30.140  25.172  1.00  0.00    -0.351 N 
ATOM      3  C   UNL A   1      33.011  29.088  24.437  1.00  0.00     0.283 C 
ATOM      4  O   UNL A   1      33.736  29.383  23.480  1.00  0.00    -0.268 OA
ATOM      5  H   UNL A   1      32.756  31.022  24.782  1.00  0.00     0.163 HD
BRANCH   3   6
ATOM      6  C   UNL A   1      32.612  27.630  24.795  1.00  0.00     0.309 C 
BRANCH   6   7
ATOM      7  C   UNL A   1      31.142  27.304  24.495  1.00  0.00     0.065 A 
ATOM      8  C   UNL A   1      29.125  27.786  23.161  1.00  0.00     0.119 A 
ATOM      9  C   UNL A   1      28.445  26.777  23.826  1.00  0.00     0.050 A 
ATOM     10  C   UNL A   1      30.455  28.039  23.498  1.00  0.00     0.060 A 
ATOM     11  C   UNL A   1      29.090  26.035  24.819  1.00  0.00     0.051 A 
ATOM     12  C   UNL A   1      30.427  26.291  25.159  1.00  0.00     0.128 A 
BRANCH   8  13
ATOM     13  O   UNL A   1      28.403  28.488  22.235  1.00  0.00    -0.497 OA
ATOM     14  C   UNL A   1      28.139  29.854  22.550  1.00  0.00     0.278 C 
ENDBRANCH   8  13
BRANCH  12  15
ATOM     15  O   UNL A   1      30.867  25.608  26.264  1.00  0.00    -0.496 OA
ATOM     16  C   UNL A   1      30.431  24.256  26.364  1.00  0.00     0.278 C 
ENDBRANCH  12  15
ENDBRANCH   6   7
BRANCH   6  17
ATOM     17  N   UNL A   1      33.554  26.657  24.203  1.00  0.00    -0.311 N 
ATOM     18  C   UNL A   1      34.216  25.704  25.100  1.00  0.00     0.325 C 
ATOM     19  C   UNL A   1      33.149  26.080  22.925  1.00  0.00     0.325 C 
ATOM     20  H   UNL A   1      34.318  27.294  23.979  1.00  0.00     0.349 HD
ATOM     21  C   UNL A   1      33.734  24.235  25.066  1.00  0.00     0.324 C 
ATOM     22  C   UNL A   1      32.610  24.633  22.966  1.00  0.00     0.324 C 
ATOM     23  N   UNL A   1      33.385  23.674  23.752  1.00  0.00    -0.319 N 
ATOM     24  H   UNL A   1      32.756  22.885  23.903  1.00  0.00     0.348 HD
BRANCH  23  25
ATOM     25  C   UNL A   1      34.505  23.016  23.065  1.00  0.00     0.339 C 
BRANCH  25  26
ATOM     26  C   UNL A   1      35.574  22.414  23.928  1.00  0.00     0.164 A 
ATOM     27  N   UNL A   1      36.787  22.915  24.095  1.00  0.00    -0.236 NA
ATOM     28  N   UNL A   1      35.440  21.261  24.671  1.00  0.00    -0.333 N 
ATOM     29  C   UNL A   1      37.481  22.004  24.840  1.00  0.00     0.131 A 
ATOM     30  C   UNL A   1      36.667  20.963  25.204  1.00  0.00     0.107 A 
ATOM     31  C   UNL A   1      34.267  20.447  24.867  1.00  0.00     0.151 C 
ENDBRANCH  25  26
ENDBRANCH  23  25
ENDBRANCH   6  17
ENDBRANCH   3   6
ENDBRANCH   1   2
BRANCH   1  32
ATOM     32  C   UNL A   1      31.557  31.631  26.843  1.00  0.00     0.042 C 
BRANCH  32  33
ATOM     33  C   UNL A   1      32.814  32.481  27.019  1.00  0.00     0.118 C 
BRANCH  33  34
ATOM     34  N   UNL A   1      32.519  33.839  27.457  1.00  0.00    -0.352 N 
ATOM     35  C   UNL A   1      33.046  34.569  28.488  1.00  0.00     0.251 C 
ATOM     36  H   UNL A   1      31.832  34.305  26.927  1.00  0.00     0.163 HD
ATOM     37  O   UNL A   1      32.523  35.634  28.817  1.00  0.00    -0.269 OA
BRANCH  35  38
ATOM     38  C   UNL A   1      34.225  34.075  29.222  1.00  0.00     0.039 A 
ATOM     39  C   UNL A   1      34.032  33.241  30.326  1.00  0.00     0.014 A 
ATOM     40  C   UNL A   1      35.516  34.439  28.831  1.00  0.00     0.014 A 
ATOM     41  C   UNL A   1      35.137  32.717  30.997  1.00  0.00     0.010 A 
ATOM     42  C   UNL A   1      36.615  33.851  29.448  1.00  0.00     0.010 A 
ATOM     43  C   UNL A   1      36.437  32.986  30.538  1.00  0.00    -0.014 A 
BRANCH  43  44
ATOM     44  C   UNL A   1      37.623  32.378  31.191  1.00  0.00     0.031 A 
ATOM     45  C   UNL A   1      38.362  31.257  30.513  1.00  0.00     0.074 A 
ATOM     46  C   UNL A   1      37.999  32.799  32.414  1.00  0.00     0.049 A 
ATOM     47  N   UNL A   1      39.369  30.544  30.953  1.00  0.00    -0.248 NA
ATOM     48  C   UNL A   1      37.891  30.866  29.175  1.00  0.00     0.031 C 
ATOM     49  C   UNL A   1      37.341  33.855  33.186  1.00  0.00     0.029 A 
ATOM     50  N   UNL A   1      39.024  32.386  33.227  1.00  0.00    -0.354 N 
ATOM     51  C   UNL A   1      39.648  29.627  29.949  1.00  0.00     0.074 A 
ATOM     52  C   UNL A   1      38.663  29.823  28.909  1.00  0.00     0.031 C 
ATOM     53  C   UNL A   1      37.994  34.024  34.347  1.00  0.00     0.029 A 
ATOM     54  C   UNL A   1      39.088  33.062  34.422  1.00  0.00     0.049 A 
ATOM     55  H   UNL A   1      39.655  31.672  32.978  1.00  0.00     0.167 HD
ATOM     56  C   UNL A   1      40.656  28.723  29.887  1.00  0.00     0.037 A 
ATOM     57  C   UNL A   1      39.929  32.912  35.462  1.00  0.00     0.037 A 
ATOM     58  C   UNL A   1      41.641  28.538  30.918  1.00  0.00     0.049 A 
ATOM     59  C   UNL A   1      41.011  31.867  35.382  1.00  0.00     0.074 A 
ATOM     60  C   UNL A   1      42.715  27.665  30.942  1.00  0.00     0.029 A 
ATOM     61  N   UNL A   1      41.675  29.245  32.112  1.00  0.00    -0.354 N 
ATOM     62  N   UNL A   1      41.297  31.041  34.405  1.00  0.00    -0.248 NA
ATOM     63  C   UNL A   1      41.893  31.739  36.552  1.00  0.00     0.031 C 
ATOM     64  C   UNL A   1      43.373  27.813  32.167  1.00  0.00     0.029 A 
ATOM     65  C   UNL A   1      42.741  28.815  32.885  1.00  0.00     0.049 A 
ATOM     66  H   UNL A   1      41.035  29.947  32.371  1.00  0.00     0.167 HD
ATOM     67  C   UNL A   1      42.411  30.326  34.824  1.00  0.00     0.074 A 
ATOM     68  C   UNL A   1      42.758  30.826  36.138  1.00  0.00     0.031 C 
ATOM     69  C   UNL A   1      43.085  29.342  34.181  1.00  0.00     0.037 A 
BRANCH  56  70
ATOM     70  C   UNL A   1      40.751  27.875  28.651  1.00  0.00     0.064 A 
ATOM     71  C   UNL A   1      40.057  26.660  28.541  1.00  0.00     0.173 A 
ATOM     72  C   UNL A   1      41.509  28.298  27.548  1.00  0.00     0.173 A 
ATOM     73  F   UNL A   1      39.329  26.204  29.571  1.00  0.00    -0.203 F 
ATOM     74  C   UNL A   1      40.137  25.889  27.384  1.00  0.00     0.198 A 
ATOM     75  C   UNL A   1      41.561  27.540  26.381  1.00  0.00     0.198 A 
ATOM     76  F   UNL A   1      42.188  29.454  27.597  1.00  0.00    -0.203 F 
ATOM     77  F   UNL A   1      39.503  24.710  27.322  1.00  0.00    -0.200 F 
ATOM     78  C   UNL A   1      40.882  26.333  26.303  1.00  0.00     0.200 A 
ATOM     79  F   UNL A   1      42.269  27.978  25.331  1.00  0.00    -0.200 F 
ATOM     80  F   UNL A   1      40.949  25.596  25.186  1.00  0.00    -0.200 F 
ENDBRANCH  56  70
BRANCH  57  81
ATOM     81  C   UNL A   1      39.801  33.778  36.666  1.00  0.00     0.064 A 
ATOM     82  C   UNL A   1      38.972  33.406  37.734  1.00  0.00     0.173 A 
ATOM     83  C   UNL A   1      40.466  35.009  36.758  1.00  0.00     0.173 A 
ATOM     84  F   UNL A   1      38.300  32.246  37.685  1.00  0.00    -0.203 F 
ATOM     85  C   UNL A   1      38.783  34.247  38.828  1.00  0.00     0.198 A 
ATOM     86  C   UNL A   1      40.304  35.834  37.868  1.00  0.00     0.198 A 
ATOM     87  F   UNL A   1      41.277  35.412  35.767  1.00  0.00    -0.203 F 
ATOM     88  F   UNL A   1      37.934  33.894  39.802  1.00  0.00    -0.200 F 
ATOM     89  C   UNL A   1      39.452  35.459  38.896  1.00  0.00     0.200 A 
ATOM     90  F   UNL A   1      40.965  36.999  37.937  1.00  0.00    -0.200 F 
ATOM     91  F   UNL A   1      39.266  36.272  39.944  1.00  0.00    -0.200 F 
ENDBRANCH  57  81
BRANCH  69  92
ATOM     92  C   UNL A   1      44.298  28.778  34.865  1.00  0.00     0.064 A 
ATOM     93  C   UNL A   1      45.569  29.345  34.701  1.00  0.00     0.173 A 
ATOM     94  C   UNL A   1      44.175  27.674  35.722  1.00  0.00     0.173 A 
ATOM     95  F   UNL A   1      45.742  30.392  33.880  1.00  0.00    -0.203 F 
ATOM     96  C   UNL A   1      46.680  28.808  35.348  1.00  0.00     0.198 A 
ATOM     97  C   UNL A   1      45.282  27.162  36.394  1.00  0.00     0.198 A 
ATOM     98  F   UNL A   1      42.979  27.099  35.919  1.00  0.00    -0.203 F 
ATOM     99  F   UNL A   1      47.895  29.333  35.134  1.00  0.00    -0.200 F 
ATOM    100  C   UNL A   1      46.534  27.724  36.199  1.00  0.00     0.200 A 
ATOM    101  F   UNL A   1      45.136  26.123  37.228  1.00  0.00    -0.200 F 
ATOM    102  F   UNL A   1      47.604  27.214  36.826  1.00  0.00    -0.200 F 
ENDBRANCH  69  92
ENDBRANCH  43  44
ENDBRANCH  35  38
ENDBRANCH  33  34
ENDBRANCH  32  33
ENDBRANCH   1  32
TORSDOF 16
ENDMDL
MODEL 2
REMARK VINA RESULT:     -12.1      0.869      1.773
REMARK SMILES COc1ccc(OC)c([C@H](C(=O)NCCCNC(=O)c2ccc(-c3c4nc(c(-c5c(F)c(F)c(F)c(F)c5F)c5ccc([nH]5)c(-c5c(F)c(F)c(F)c(F)c5F)c5nc(c(-c6c(F)c(F)c(F)c(F)c6F)c6ccc3[nH]6)C=C5)C=C4)cc2)[NH+]2CC[NH+](Cc3nccn3C)CC2)c1
REMARK SMILES IDX 14 1 13 2 11 3 12 4 10 6 9 7 3 8 4 9 96 10 5 11 6 12 2 13
REMARK SMILES IDX 1 14 7 15 8 16 83 17 84 18 95 19 85 21 94 22 86 23 87 25
REMARK SMILES IDX 88 26 89 27 92 28 90 29 91 30 93 31 15 32 16 33 17 34 18 35
REMARK SMILES IDX 19 37 20 38 21 39 82 40 22 41 81 42 23 43 24 44 25 45 75 46
REMARK SMILES IDX 26 47 80 48 74 49 76 50 27 51 79 52 73 53 72 54 28 56 60 57
REMARK SMILES IDX 40 58 59 59 41 60 44 61 58 62 77 63 42 64 43 65 57 67 78 68
REMARK SMILES IDX 45 69 29 70 30 71 38 72 31 73 32 74 36 75 39 76 33 77 34 78
REMARK SMILES IDX 37 79 35 80 61 81 62 82 70 83 63 84 64 85 68 86 71 87 65 88
REMARK SMILES IDX 66 89 69 90 67 91 46 92 47 93 55 94 48 95 49 96 53 97 56 98
REMARK SMILES IDX 50 99 51 100 54 101 52 102
REMARK H PARENT 13 5 83 20 86 24 17 36 76 55 44 66
REMARK Flexibility Score: inf
ROOT
ATOM      1  C   UNL A   1      31.798  30.436  26.577  1.00  0.00     0.118 C 
ENDROOT
BRANCH   1   2
ATOM      2  N   UNL A   1      32.499  30.182  25.335  1.00  0.00    -0.351 N 
ATOM      3  C   UNL A   1      32.302  29.246  24.366  1.00  0.00     0.283 C 
ATOM      4  O   UNL A   1      33.178  29.192  23.496  1.00  0.00    -0.268 OA
ATOM      5  H   UNL A   1      33.252  30.793  25.162  1.00  0.00     0.163 HD
BRANCH   3   6
ATOM      6  C   UNL A   1      31.043  28.337  24.376  1.00  0.00     0.309 C 
BRANCH   6   7
ATOM      7  C   UNL A   1      29.841  28.943  23.637  1.00  0.00     0.065 A 
ATOM      8  C   UNL A   1      28.793  30.938  22.637  1.00  0.00     0.119 A 
ATOM      9  C   UNL A   1      27.705  30.170  22.248  1.00  0.00     0.050 A 
ATOM     10  C   UNL A   1      29.841  30.324  23.322  1.00  0.00     0.060 A 
ATOM     11  C   UNL A   1      27.669  28.806  22.547  1.00  0.00     0.051 A 
ATOM     12  C   UNL A   1      28.723  28.189  23.238  1.00  0.00     0.128 A 
BRANCH   8  13
ATOM     13  O   UNL A   1      28.724  32.271  22.340  1.00  0.00    -0.497 OA
ATOM     14  C   UNL A   1      28.051  32.611  21.130  1.00  0.00     0.278 C 
ENDBRANCH   8  13
BRANCH  12  15
ATOM     15  O   UNL A   1      28.469  26.894  23.611  1.00  0.00    -0.496 OA
ATOM     16  C   UNL A   1      27.180  26.657  24.169  1.00  0.00     0.278 C 
ENDBRANCH  12  15
ENDBRANCH   6   7
BRANCH   6  17
ATOM     17  N   UNL A   1      31.369  26.967  23.928  1.00  0.00    -0.311 N 
ATOM     18  C   UNL A   1      31.789  26.778  22.536  1.00  0.00     0.325 C 
ATOM     19  C   UNL A   1      32.108  26.147  24.883  1.00  0.00     0.325 C 
ATOM     20  H   UNL A   1      30.427  26.578  23.914  1.00  0.00     0.349 HD
ATOM     21  C   UNL A   1      33.285  26.494  22.271  1.00  0.00     0.324 C 
ATOM     22  C   UNL A   1      33.616  25.959  24.602  1.00  0.00     0.324 C 
ATOM     23  N   UNL A   1      33.982  25.621  23.228  1.00  0.00    -0.319 N 
ATOM     24  H   UNL A   1      34.981  25.817  23.164  1.00  0.00     0.348 HD
BRANCH  23  25
ATOM     25  C   UNL A   1      33.949  24.195  22.872  1.00  0.00     0.339 C 
BRANCH  25  26
ATOM     26  C   UNL A   1      34.998  23.318  23.488  1.00  0.00     0.164 A 
ATOM     27  N   UNL A   1      36.252  23.228  23.074  1.00  0.00    -0.236 NA
ATOM     28  N   UNL A   1      34.806  22.488  24.570  1.00  0.00    -0.333 N 
ATOM     29  C   UNL A   1      36.830  22.232  23.809  1.00  0.00     0.131 A 
ATOM     30  C   UNL A   1      35.948  21.751  24.742  1.00  0.00     0.107 A 
ATOM     31  C   UNL A   1      33.633  22.343  25.397  1.00  0.00     0.151 C 
ENDBRANCH  25  26
ENDBRANCH  23  25
ENDBRANCH   6  17
ENDBRANCH   3   6
ENDBRANCH   1   2
BRANCH   1  32
ATOM     32  C   UNL A   1      31.547  31.929  26.771  1.00  0.00     0.042 C 
BRANCH  32  33
ATOM     33  C   UNL A   1      32.804  32.731  27.101  1.00  0.00     0.118 C 
BRANCH  33  34
ATOM     34  N   UNL A   1      32.507  34.079  27.568  1.00  0.00    -0.352 N 
ATOM     35  C   UNL A   1      33.022  34.784  28.622  1.00  0.00     0.251 C 
ATOM     36  H   UNL A   1      31.826  34.559  27.041  1.00  0.00     0.163 HD
ATOM     37  O   UNL A   1      32.496  35.842  28.969  1.00  0.00    -0.269 OA
BRANCH  35  38
ATOM     38  C   UNL A   1      34.192  34.270  29.357  1.00  0.00     0.039 A 
ATOM     39  C   UNL A   1      33.983  33.542  30.531  1.00  0.00     0.014 A 
ATOM     40  C   UNL A   1      35.489  34.514  28.899  1.00  0.00     0.014 A 
ATOM     41  C   UNL A   1      35.076  32.999  31.209  1.00  0.00     0.010 A 
ATOM     42  C   UNL A   1      36.568  33.903  29.528  1.00  0.00     0.010 A 
ATOM     43  C   UNL A   1      36.373  33.141  30.691  1.00  0.00    -0.014 A 
BRANCH  43  44
ATOM     44  C   UNL A   1      37.540  32.508  31.354  1.00  0.00     0.031 A 
ATOM     45  C   UNL A   1      38.269  31.380  30.678  1.00  0.00     0.074 A 
ATOM     46  C   UNL A   1      37.905  32.913  32.586  1.00  0.00     0.049 A 
ATOM     47  N   UNL A   1      39.258  30.647  31.126  1.00  0.00    -0.248 NA
ATOM     48  C   UNL A   1      37.810  31.009  29.330  1.00  0.00     0.031 C 
ATOM     49  C   UNL A   1      37.255  33.973  33.357  1.00  0.00     0.029 A 
ATOM     50  N   UNL A   1      38.912  32.475  33.410  1.00  0.00    -0.354 N 
ATOM     51  C   UNL A   1      39.535  29.733  30.118  1.00  0.00     0.074 A 
ATOM     52  C   UNL A   1      38.568  29.955  29.065  1.00  0.00     0.031 C 
ATOM     53  C   UNL A   1      37.894  34.122  34.529  1.00  0.00     0.029 A 
ATOM     54  C   UNL A   1      38.970  33.140  34.611  1.00  0.00     0.049 A 
ATOM     55  H   UNL A   1      39.534  31.753  33.163  1.00  0.00     0.167 HD
ATOM     56  C   UNL A   1      40.528  28.813  30.062  1.00  0.00     0.037 A 
ATOM     57  C   UNL A   1      39.795  32.968  35.662  1.00  0.00     0.037 A 
ATOM     58  C   UNL A   1      41.496  28.603  31.105  1.00  0.00     0.049 A 
ATOM     59  C   UNL A   1      40.859  31.905  35.588  1.00  0.00     0.074 A 
ATOM     60  C   UNL A   1      42.554  27.711  31.136  1.00  0.00     0.029 A 
ATOM     61  N   UNL A   1      41.524  29.299  32.305  1.00  0.00    -0.354 N 
ATOM     62  N   UNL A   1      41.145  31.083  34.608  1.00  0.00    -0.248 NA
ATOM     63  C   UNL A   1      41.722  31.753  36.768  1.00  0.00     0.031 C 
ATOM     64  C   UNL A   1      43.196  27.838  32.372  1.00  0.00     0.029 A 
ATOM     65  C   UNL A   1      42.572  28.845  33.089  1.00  0.00     0.049 A 
ATOM     66  H   UNL A   1      40.893  30.010  32.562  1.00  0.00     0.167 HD
ATOM     67  C   UNL A   1      42.240  30.345  35.036  1.00  0.00     0.074 A 
ATOM     68  C   UNL A   1      42.578  30.828  36.359  1.00  0.00     0.031 C 
ATOM     69  C   UNL A   1      42.907  29.355  34.395  1.00  0.00     0.037 A 
BRANCH  56  70
ATOM     70  C   UNL A   1      40.626  27.974  28.820  1.00  0.00     0.064 A 
ATOM     71  C   UNL A   1      39.924  26.764  28.696  1.00  0.00     0.173 A 
ATOM     72  C   UNL A   1      41.395  28.399  27.726  1.00  0.00     0.173 A 
ATOM     73  F   UNL A   1      39.185  26.306  29.718  1.00  0.00    -0.203 F 
ATOM     74  C   UNL A   1      40.008  26.001  27.534  1.00  0.00     0.198 A 
ATOM     75  C   UNL A   1      41.450  27.650  26.554  1.00  0.00     0.198 A 
ATOM     76  F   UNL A   1      42.082  29.550  27.788  1.00  0.00    -0.203 F 
ATOM     77  F   UNL A   1      39.366  24.828  27.459  1.00  0.00    -0.200 F 
ATOM     78  C   UNL A   1      40.763  26.449  26.462  1.00  0.00     0.200 A 
ATOM     79  F   UNL A   1      42.169  28.090  25.512  1.00  0.00    -0.200 F 
ATOM     80  F   UNL A   1      40.833  25.719  25.339  1.00  0.00    -0.200 F 
ENDBRANCH  56  70
BRANCH  57  81
ATOM     81  C   UNL A   1      39.664  33.825  36.871  1.00  0.00     0.064 A 
ATOM     82  C   UNL A   1      38.908  33.404  37.973  1.00  0.00     0.173 A 
ATOM     83  C   UNL A   1      40.253  35.097  36.935  1.00  0.00     0.173 A 
ATOM     84  F   UNL A   1      38.309  32.203  37.953  1.00  0.00    -0.203 F 
ATOM     85  C   UNL A   1      38.714  34.232  39.076  1.00  0.00     0.198 A 
ATOM     86  C   UNL A   1      40.087  35.912  38.052  1.00  0.00     0.198 A 
ATOM     87  F   UNL A   1      40.992  35.549  35.910  1.00  0.00    -0.203 F 
ATOM     88  F   UNL A   1      37.932  33.828  40.086  1.00  0.00    -0.200 F 
ATOM     89  C   UNL A   1      39.306  35.485  39.116  1.00  0.00     0.200 A 
ATOM     90  F   UNL A   1      40.675  37.116  38.093  1.00  0.00    -0.200 F 
ATOM     91  F   UNL A   1      39.115  36.286  40.172  1.00  0.00    -0.200 F 
ENDBRANCH  57  81
BRANCH  69  92
ATOM     92  C   UNL A   1      44.100  28.765  35.090  1.00  0.00     0.064 A 
ATOM     93  C   UNL A   1      43.991  27.637  35.915  1.00  0.00     0.173 A 
ATOM     94  C   UNL A   1      45.375  29.319  34.899  1.00  0.00     0.173 A 
ATOM     95  F   UNL A   1      42.793  27.079  36.143  1.00  0.00    -0.203 F 
ATOM     96  C   UNL A   1      45.112  27.103  36.548  1.00  0.00     0.198 A 
ATOM     97  C   UNL A   1      46.497  28.762  35.505  1.00  0.00     0.198 A 
ATOM     98  F   UNL A   1      45.535  30.395  34.113  1.00  0.00    -0.203 F 
ATOM     99  F   UNL A   1      44.976  26.058  37.375  1.00  0.00    -0.200 F 
ATOM    100  C   UNL A   1      46.363  27.660  36.335  1.00  0.00     0.200 A 
ATOM    101  F   UNL A   1      47.709  29.293  35.286  1.00  0.00    -0.200 F 
ATOM    102  F   UNL A   1      47.441  27.140  36.940  1.00  0.00    -0.200 F 
ENDBRANCH  69  92
ENDBRANCH  43  44
ENDBRANCH  35  38
ENDBRANCH  33  34
ENDBRANCH  32  33
ENDBRANCH   1  32
TORSDOF 16
ENDMDL
MODEL 3
REMARK VINA RESULT:     -12.0      2.033      3.207
REMARK SMILES COc1ccc(OC)c([C@H](C(=O)NCCCNC(=O)c2ccc(-c3c4nc(c(-c5c(F)c(F)c(F)c(F)c5F)c5ccc([nH]5)c(-c5c(F)c(F)c(F)c(F)c5F)c5nc(c(-c6c(F)c(F)c(F)c(F)c6F)c6ccc3[nH]6)C=C5)C=C4)cc2)[NH+]2CC[NH+](Cc3nccn3C)CC2)c1
REMARK SMILES IDX 14 1 13 2 11 3 12 4 10 6 9 7 3 8 4 9 96 10 5 11 6 12 2 13
REMARK SMILES IDX 1 14 7 15 8 16 83 17 84 18 95 19 85 21 94 22 86 23 87 25
REMARK SMILES IDX 88 26 89 27 92 28 90 29 91 30 93 31 15 32 16 33 17 34 18 35
REMARK SMILES IDX 19 37 20 38 21 39 82 40 22 41 81 42 23 43 24 44 25 45 75 46
REMARK SMILES IDX 26 47 80 48 74 49 76 50 27 51 79 52 73 53 72 54 28 56 60 57
REMARK SMILES IDX 40 58 59 59 41 60 44 61 58 62 77 63 42 64 43 65 57 67 78 68
REMARK SMILES IDX 45 69 29 70 30 71 38 72 31 73 32 74 36 75 39 76 33 77 34 78
REMARK SMILES IDX 37 79 35 80 61 81 62 82 70 83 63 84 64 85 68 86 71 87 65 88
REMARK SMILES IDX 66 89 69 90 67 91 46 92 47 93 55 94 48 95 49 96 53 97 56 98
REMARK SMILES IDX 50 99 51 100 54 101 52 102
REMARK H PARENT 13 5 83 20 86 24 17 36 76 55 44 66
REMARK Flexibility Score: inf
ROOT
ATOM      1  C   UNL A   1      34.249  28.126  22.892  1.00  0.00     0.118 C 
ENDROOT
BRANCH   1   2
ATOM      2  N   UNL A   1      33.635  27.345  21.838  1.00  0.00    -0.351 N 
ATOM      3  C   UNL A   1      33.288  26.029  21.780  1.00  0.00     0.283 C 
ATOM      4  O   UNL A   1      32.922  25.627  20.670  1.00  0.00    -0.268 OA
ATOM      5  H   UNL A   1      33.433  27.854  21.020  1.00  0.00     0.163 HD
BRANCH   3   6
ATOM      6  C   UNL A   1      33.347  25.130  23.044  1.00  0.00     0.309 C 
BRANCH   6   7
ATOM      7  C   UNL A   1      32.233  25.423  24.060  1.00  0.00     0.065 A 
ATOM      8  C   UNL A   1      29.926  26.193  24.466  1.00  0.00     0.119 A 
ATOM      9  C   UNL A   1      30.092  25.971  25.825  1.00  0.00     0.050 A 
ATOM     10  C   UNL A   1      30.987  25.921  23.603  1.00  0.00     0.060 A 
ATOM     11  C   UNL A   1      31.309  25.487  26.311  1.00  0.00     0.051 A 
ATOM     12  C   UNL A   1      32.378  25.214  25.443  1.00  0.00     0.128 A 
BRANCH   8  13
ATOM     13  O   UNL A   1      28.718  26.709  24.085  1.00  0.00    -0.497 OA
ATOM     14  C   UNL A   1      28.763  27.859  23.243  1.00  0.00     0.278 C 
ENDBRANCH   8  13
BRANCH  12  15
ATOM     15  O   UNL A   1      33.555  24.915  26.078  1.00  0.00    -0.496 OA
ATOM     16  C   UNL A   1      33.534  23.748  26.894  1.00  0.00     0.278 C 
ENDBRANCH  12  15
ENDBRANCH   6   7
BRANCH   6  17
ATOM     17  N   UNL A   1      33.436  23.701  22.680  1.00  0.00    -0.311 N 
ATOM     18  C   UNL A   1      34.612  22.947  23.127  1.00  0.00     0.325 C 
ATOM     19  C   UNL A   1      32.188  22.947  22.757  1.00  0.00     0.325 C 
ATOM     20  H   UNL A   1      33.625  23.804  21.683  1.00  0.00     0.349 HD
ATOM     21  C   UNL A   1      34.420  21.942  24.287  1.00  0.00     0.324 C 
ATOM     22  C   UNL A   1      32.026  22.013  23.977  1.00  0.00     0.324 C 
ATOM     23  N   UNL A   1      33.172  21.165  24.301  1.00  0.00    -0.319 N 
ATOM     24  H   UNL A   1      33.006  20.850  25.257  1.00  0.00     0.348 HD
BRANCH  23  25
ATOM     25  C   UNL A   1      33.258  19.880  23.591  1.00  0.00     0.339 C 
BRANCH  25  26
ATOM     26  C   UNL A   1      33.047  18.639  24.406  1.00  0.00     0.164 A 
ATOM     27  N   UNL A   1      32.442  18.596  25.582  1.00  0.00    -0.236 NA
ATOM     28  N   UNL A   1      33.448  17.372  24.044  1.00  0.00    -0.333 N 
ATOM     29  C   UNL A   1      32.578  17.316  26.040  1.00  0.00     0.131 A 
ATOM     30  C   UNL A   1      33.206  16.537  25.103  1.00  0.00     0.107 A 
ATOM     31  C   UNL A   1      34.049  16.936  22.808  1.00  0.00     0.151 C 
ENDBRANCH  25  26
ENDBRANCH  23  25
ENDBRANCH   6  17
ENDBRANCH   3   6
ENDBRANCH   1   2
BRANCH   1  32
ATOM     32  C   UNL A   1      33.212  28.969  23.627  1.00  0.00     0.042 C 
BRANCH  32  33
ATOM     33  C   UNL A   1      33.445  29.064  25.134  1.00  0.00     0.118 C 
BRANCH  33  34
ATOM     34  N   UNL A   1      32.885  30.278  25.716  1.00  0.00    -0.352 N 
ATOM     35  C   UNL A   1      33.270  30.988  26.820  1.00  0.00     0.251 C 
ATOM     36  H   UNL A   1      32.105  30.644  25.238  1.00  0.00     0.163 HD
ATOM     37  O   UNL A   1      32.545  31.880  27.261  1.00  0.00    -0.269 OA
BRANCH  35  38
ATOM     38  C   UNL A   1      34.541  30.674  27.499  1.00  0.00     0.039 A 
ATOM     39  C   UNL A   1      35.496  31.683  27.642  1.00  0.00     0.014 A 
ATOM     40  C   UNL A   1      34.795  29.388  27.982  1.00  0.00     0.014 A 
ATOM     41  C   UNL A   1      36.680  31.418  28.332  1.00  0.00     0.010 A 
ATOM     42  C   UNL A   1      35.936  29.149  28.740  1.00  0.00     0.010 A 
ATOM     43  C   UNL A   1      36.891  30.161  28.921  1.00  0.00    -0.014 A 
BRANCH  43  44
ATOM     44  C   UNL A   1      38.108  29.883  29.723  1.00  0.00     0.031 A 
ATOM     45  C   UNL A   1      39.155  28.939  29.200  1.00  0.00     0.074 A 
ATOM     46  C   UNL A   1      38.243  30.439  30.943  1.00  0.00     0.049 A 
ATOM     47  N   UNL A   1      40.246  28.507  29.782  1.00  0.00    -0.248 NA
ATOM     48  C   UNL A   1      38.934  28.385  27.855  1.00  0.00     0.031 C 
ATOM     49  C   UNL A   1      37.280  31.344  31.573  1.00  0.00     0.029 A 
ATOM     50  N   UNL A   1      39.242  30.320  31.876  1.00  0.00    -0.354 N 
ATOM     51  C   UNL A   1      40.836  27.635  28.876  1.00  0.00     0.074 A 
ATOM     52  C   UNL A   1      39.950  27.543  27.737  1.00  0.00     0.031 C 
ATOM     53  C   UNL A   1      37.747  31.718  32.775  1.00  0.00     0.029 A 
ATOM     54  C   UNL A   1      39.019  31.047  33.020  1.00  0.00     0.049 A 
ATOM     55  H   UNL A   1      40.044  29.765  31.739  1.00  0.00     0.167 HD
ATOM     56  C   UNL A   1      42.026  26.994  28.973  1.00  0.00     0.037 A 
ATOM     57  C   UNL A   1      39.755  31.151  34.143  1.00  0.00     0.037 A 
ATOM     58  C   UNL A   1      42.910  27.098  30.103  1.00  0.00     0.049 A 
ATOM     59  C   UNL A   1      41.051  30.390  34.239  1.00  0.00     0.074 A 
ATOM     60  C   UNL A   1      44.148  26.506  30.289  1.00  0.00     0.029 A 
ATOM     61  N   UNL A   1      42.651  27.848  31.241  1.00  0.00    -0.354 N 
ATOM     62  N   UNL A   1      41.624  29.610  33.354  1.00  0.00    -0.248 NA
ATOM     63  C   UNL A   1      41.807  30.530  35.492  1.00  0.00     0.031 C 
ATOM     64  C   UNL A   1      44.618  26.864  31.557  1.00  0.00     0.029 A 
ATOM     65  C   UNL A   1      43.698  27.721  32.139  1.00  0.00     0.049 A 
ATOM     66  H   UNL A   1      41.843  28.390  31.389  1.00  0.00     0.167 HD
ATOM     67  C   UNL A   1      42.821  29.200  33.926  1.00  0.00     0.074 A 
ATOM     68  C   UNL A   1      42.900  29.830  35.227  1.00  0.00     0.031 C 
ATOM     69  C   UNL A   1      43.770  28.375  33.421  1.00  0.00     0.037 A 
BRANCH  56  70
ATOM     70  C   UNL A   1      42.447  26.136  27.815  1.00  0.00     0.064 A 
ATOM     71  C   UNL A   1      41.936  24.840  27.640  1.00  0.00     0.173 A 
ATOM     72  C   UNL A   1      43.337  26.625  26.847  1.00  0.00     0.173 A 
ATOM     73  F   UNL A   1      41.092  24.321  28.544  1.00  0.00    -0.203 F 
ATOM     74  C   UNL A   1      42.319  24.058  26.554  1.00  0.00     0.198 A 
ATOM     75  C   UNL A   1      43.692  25.851  25.744  1.00  0.00     0.198 A 
ATOM     76  F   UNL A   1      43.852  27.858  26.962  1.00  0.00    -0.203 F 
ATOM     77  F   UNL A   1      41.853  22.807  26.434  1.00  0.00    -0.200 F 
ATOM     78  C   UNL A   1      43.189  24.567  25.603  1.00  0.00     0.200 A 
ATOM     79  F   UNL A   1      44.523  26.350  24.818  1.00  0.00    -0.200 F 
ATOM     80  F   UNL A   1      43.548  23.817  24.551  1.00  0.00    -0.200 F 
ENDBRANCH  56  70
BRANCH  57  81
ATOM     81  C   UNL A   1      39.302  32.017  35.265  1.00  0.00     0.064 A 
ATOM     82  C   UNL A   1      38.530  31.493  36.312  1.00  0.00     0.173 A 
ATOM     83  C   UNL A   1      39.590  33.390  35.294  1.00  0.00     0.173 A 
ATOM     84  F   UNL A   1      38.212  30.190  36.319  1.00  0.00    -0.203 F 
ATOM     85  C   UNL A   1      38.034  32.312  37.323  1.00  0.00     0.198 A 
ATOM     86  C   UNL A   1      39.122  34.202  36.324  1.00  0.00     0.198 A 
ATOM     87  F   UNL A   1      40.329  33.943  34.321  1.00  0.00    -0.203 F 
ATOM     88  F   UNL A   1      37.245  31.795  38.274  1.00  0.00    -0.200 F 
ATOM     89  C   UNL A   1      38.333  33.666  37.330  1.00  0.00     0.200 A 
ATOM     90  F   UNL A   1      39.427  35.508  36.335  1.00  0.00    -0.200 F 
ATOM     91  F   UNL A   1      37.850  34.456  38.298  1.00  0.00    -0.200 F 
ENDBRANCH  57  81
BRANCH  69  92
ATOM     92  C   UNL A   1      44.999  28.147  34.253  1.00  0.00     0.064 A 
ATOM     93  C   UNL A   1      45.089  27.086  35.164  1.00  0.00     0.173 A 
ATOM     94  C   UNL A   1      46.114  28.987  34.110  1.00  0.00     0.173 A 
ATOM     95  F   UNL A   1      44.045  26.264  35.349  1.00  0.00    -0.203 F 
ATOM     96  C   UNL A   1      46.240  26.890  35.924  1.00  0.00     0.198 A 
ATOM     97  C   UNL A   1      47.275  28.768  34.845  1.00  0.00     0.198 A 
ATOM     98  F   UNL A   1      46.082  30.014  33.246  1.00  0.00    -0.203 F 
ATOM     99  F   UNL A   1      46.283  25.902  36.827  1.00  0.00    -0.200 F 
ATOM    100  C   UNL A   1      47.334  27.726  35.757  1.00  0.00     0.200 A 
ATOM    101  F   UNL A   1      48.337  29.568  34.673  1.00  0.00    -0.200 F 
ATOM    102  F   UNL A   1      48.443  27.531  36.484  1.00  0.00    -0.200 F 
ENDBRANCH  69  92
ENDBRANCH  43  44
ENDBRANCH  35  38
ENDBRANCH  33  34
ENDBRANCH  32  33
ENDBRANCH   1  32
TORSDOF 16
ENDMDL
