MODEL 1
REMARK VINA RESULT:     -11.4      0.000      0.000
REMARK SMILES COC[C@@H](C)N(C)C(=O)N1CCC(CC(=O)NCCCNC(=O)c2ccc(-c3c4nc(c(-c5c(F)c(F)c(F)c(F)c5F)c5ccc([nH]5)c(-c5c(F)c(F)c(F)c(F)c5F)c5nc(c(-c6c(F)c(F)c(F)c(F)c6F)c6ccc3[nH]6)C=C5)C=C4)cc2)CC1
REMARK SMILES IDX 15 1 16 2 17 3 14 5 13 6 8 7 9 8 10 9 11 10 88 11 12 12
REMARK SMILES IDX 87 13 6 14 7 15 4 16 5 17 3 18 2 19 1 20 18 21 19 22 20 23
REMARK SMILES IDX 21 24 22 25 23 27 24 28 25 29 86 30 26 31 85 32 27 33 28 34
REMARK SMILES IDX 29 35 79 36 30 37 84 38 78 39 80 40 31 41 83 42 77 43 76 44
REMARK SMILES IDX 32 46 64 47 44 48 63 49 45 50 48 51 62 52 81 53 46 54 47 55
REMARK SMILES IDX 61 57 82 58 49 59 33 60 34 61 42 62 35 63 36 64 40 65 43 66
REMARK SMILES IDX 37 67 38 68 41 69 39 70 65 71 66 72 74 73 67 74 68 75 72 76
REMARK SMILES IDX 75 77 69 78 70 79 73 80 71 81 50 82 51 83 59 84 52 85 53 86
REMARK SMILES IDX 57 87 60 88 54 89 55 90 58 91 56 92
REMARK H PARENT 17 4 21 26 80 45 48 56
REMARK Flexibility Score: inf
ROOT
ATOM      1  C   UNL A   1      33.570  29.088  26.394  1.00  0.00     0.220 C 
ATOM      2  O   UNL A   1      34.314  28.615  27.255  1.00  0.00    -0.275 OA
ATOM      3  N   UNL A   1      32.622  29.986  26.789  1.00  0.00    -0.356 N 
ATOM      4  H   UNL A   1      32.624  30.180  27.755  1.00  0.00     0.163 HD
ENDROOT
BRANCH   1   5
ATOM      5  C   UNL A   1      33.686  28.653  24.943  1.00  0.00     0.103 C 
BRANCH   5   6
ATOM      6  C   UNL A   1      32.795  27.441  24.606  1.00  0.00     0.002 C 
ATOM      7  C   UNL A   1      33.681  23.778  23.421  1.00  0.00     0.320 C 
ATOM      8  O   UNL A   1      34.654  24.149  22.767  1.00  0.00    -0.248 OA
ATOM      9  N   UNL A   1      32.668  24.658  23.760  1.00  0.00    -0.325 N 
ATOM     10  C   UNL A   1      32.310  25.695  22.818  1.00  0.00     0.121 C 
ATOM     11  C   UNL A   1      32.383  24.970  25.156  1.00  0.00     0.121 C 
ATOM     12  C   UNL A   1      33.013  26.993  23.159  1.00  0.00     0.026 C 
ATOM     13  C   UNL A   1      33.081  26.273  25.575  1.00  0.00     0.026 C 
BRANCH   7  14
ATOM     14  N   UNL A   1      33.490  22.459  23.806  1.00  0.00    -0.323 N 
ATOM     15  C   UNL A   1      32.385  21.647  23.312  1.00  0.00     0.149 C 
BRANCH  14  16
ATOM     16  C   UNL A   1      34.530  21.754  24.587  1.00  0.00     0.109 C 
ATOM     17  C   UNL A   1      34.153  20.285  24.793  1.00  0.00     0.033 C 
BRANCH  16  18
ATOM     18  C   UNL A   1      34.867  22.483  25.910  1.00  0.00     0.184 C 
BRANCH  18  19
ATOM     19  O   UNL A   1      34.547  21.717  27.077  1.00  0.00    -0.383 OA
ATOM     20  C   UNL A   1      33.455  22.234  27.824  1.00  0.00     0.194 C 
ENDBRANCH  18  19
ENDBRANCH  16  18
ENDBRANCH  14  16
ENDBRANCH   7  14
ENDBRANCH   5   6
ENDBRANCH   1   5
BRANCH   3  21
ATOM     21  C   UNL A   1      31.604  30.709  26.034  1.00  0.00     0.117 C 
BRANCH  21  22
ATOM     22  C   UNL A   1      31.424  32.155  26.497  1.00  0.00     0.042 C 
BRANCH  22  23
ATOM     23  C   UNL A   1      32.537  32.682  27.394  1.00  0.00     0.118 C 
BRANCH  23  24
ATOM     24  N   UNL A   1      32.414  34.111  27.614  1.00  0.00    -0.352 N 
ATOM     25  C   UNL A   1      32.971  34.906  28.584  1.00  0.00     0.251 C 
ATOM     26  H   UNL A   1      31.842  34.583  26.967  1.00  0.00     0.163 HD
ATOM     27  O   UNL A   1      32.525  36.039  28.747  1.00  0.00    -0.269 OA
BRANCH  25  28
ATOM     28  C   UNL A   1      34.102  34.444  29.432  1.00  0.00     0.039 A 
ATOM     29  C   UNL A   1      35.392  34.471  28.887  1.00  0.00     0.014 A 
ATOM     30  C   UNL A   1      33.909  33.873  30.694  1.00  0.00     0.014 A 
ATOM     31  C   UNL A   1      36.471  33.927  29.593  1.00  0.00     0.010 A 
ATOM     32  C   UNL A   1      34.997  33.404  31.433  1.00  0.00     0.010 A 
ATOM     33  C   UNL A   1      36.283  33.382  30.872  1.00  0.00    -0.014 A 
BRANCH  33  34
ATOM     34  C   UNL A   1      37.396  32.690  31.578  1.00  0.00     0.031 A 
ATOM     35  C   UNL A   1      38.124  31.557  30.898  1.00  0.00     0.074 A 
ATOM     36  C   UNL A   1      37.754  33.062  32.821  1.00  0.00     0.049 A 
ATOM     37  N   UNL A   1      39.104  30.810  31.344  1.00  0.00    -0.248 NA
ATOM     38  C   UNL A   1      37.673  31.199  29.544  1.00  0.00     0.031 C 
ATOM     39  C   UNL A   1      37.114  34.115  33.608  1.00  0.00     0.029 A 
ATOM     40  N   UNL A   1      38.751  32.592  33.641  1.00  0.00    -0.354 N 
ATOM     41  C   UNL A   1      39.364  29.885  30.341  1.00  0.00     0.074 A 
ATOM     42  C   UNL A   1      38.407  30.129  29.283  1.00  0.00     0.031 C 
ATOM     43  C   UNL A   1      37.750  34.232  34.785  1.00  0.00     0.029 A 
ATOM     44  C   UNL A   1      38.829  33.248  34.845  1.00  0.00     0.049 A 
ATOM     45  H   UNL A   1      39.353  31.856  33.389  1.00  0.00     0.167 HD
ATOM     46  C   UNL A   1      40.330  28.936  30.286  1.00  0.00     0.037 A 
ATOM     47  C   UNL A   1      39.679  33.079  35.876  1.00  0.00     0.037 A 
ATOM     48  C   UNL A   1      41.315  28.719  31.312  1.00  0.00     0.049 A 
ATOM     49  C   UNL A   1      40.769  32.045  35.775  1.00  0.00     0.074 A 
ATOM     50  C   UNL A   1      42.360  27.812  31.333  1.00  0.00     0.029 A 
ATOM     51  N   UNL A   1      41.381  29.432  32.500  1.00  0.00    -0.354 N 
ATOM     52  N   UNL A   1      41.032  31.210  34.800  1.00  0.00    -0.248 NA
ATOM     53  C   UNL A   1      41.689  31.943  36.917  1.00  0.00     0.031 C 
ATOM     54  C   UNL A   1      43.045  27.959  32.544  1.00  0.00     0.029 A 
ATOM     55  C   UNL A   1      42.448  28.984  33.261  1.00  0.00     0.049 A 
ATOM     56  H   UNL A   1      40.761  30.150  32.763  1.00  0.00     0.167 HD
ATOM     57  C   UNL A   1      42.163  30.507  35.195  1.00  0.00     0.074 A 
ATOM     58  C   UNL A   1      42.545  31.024  36.493  1.00  0.00     0.031 C 
ATOM     59  C   UNL A   1      42.825  29.520  34.543  1.00  0.00     0.037 A 
BRANCH  46  60
ATOM     60  C   UNL A   1      40.373  28.065  29.063  1.00  0.00     0.064 A 
ATOM     61  C   UNL A   1      41.127  28.421  27.934  1.00  0.00     0.173 A 
ATOM     62  C   UNL A   1      39.671  26.851  29.026  1.00  0.00     0.173 A 
ATOM     63  F   UNL A   1      41.806  29.579  27.914  1.00  0.00    -0.203 F 
ATOM     64  C   UNL A   1      41.149  27.611  26.802  1.00  0.00     0.198 A 
ATOM     65  C   UNL A   1      39.720  26.030  27.903  1.00  0.00     0.198 A 
ATOM     66  F   UNL A   1      38.940  26.460  30.080  1.00  0.00    -0.203 F 
ATOM     67  F   UNL A   1      41.833  27.999  25.716  1.00  0.00    -0.200 F 
ATOM     68  C   UNL A   1      40.450  26.414  26.789  1.00  0.00     0.200 A 
ATOM     69  F   UNL A   1      39.053  24.867  27.896  1.00  0.00    -0.200 F 
ATOM     70  F   UNL A   1      40.474  25.635  25.699  1.00  0.00    -0.200 F 
ENDBRANCH  46  60
BRANCH  47  71
ATOM     71  C   UNL A   1      39.569  33.945  37.078  1.00  0.00     0.064 A 
ATOM     72  C   UNL A   1      38.841  33.525  38.200  1.00  0.00     0.173 A 
ATOM     73  C   UNL A   1      40.171  35.210  37.125  1.00  0.00     0.173 A 
ATOM     74  F   UNL A   1      38.227  32.333  38.190  1.00  0.00    -0.203 F 
ATOM     75  C   UNL A   1      38.700  34.347  39.316  1.00  0.00     0.198 A 
ATOM     76  C   UNL A   1      40.050  36.021  38.251  1.00  0.00     0.198 A 
ATOM     77  F   UNL A   1      40.879  35.656  36.077  1.00  0.00    -0.203 F 
ATOM     78  F   UNL A   1      37.958  33.941  40.355  1.00  0.00    -0.200 F 
ATOM     79  C   UNL A   1      39.308  35.594  39.342  1.00  0.00     0.200 A 
ATOM     80  F   UNL A   1      40.646  37.221  38.277  1.00  0.00    -0.200 F 
ATOM     81  F   UNL A   1      39.171  36.385  40.414  1.00  0.00    -0.200 F 
ENDBRANCH  47  71
BRANCH  59  82
ATOM     82  C   UNL A   1      44.052  28.967  35.203  1.00  0.00     0.064 A 
ATOM     83  C   UNL A   1      43.991  27.867  36.070  1.00  0.00     0.173 A 
ATOM     84  C   UNL A   1      45.311  29.533  34.945  1.00  0.00     0.173 A 
ATOM     85  F   UNL A   1      42.809  27.300  36.358  1.00  0.00    -0.203 F 
ATOM     86  C   UNL A   1      45.140  27.374  36.682  1.00  0.00     0.198 A 
ATOM     87  C   UNL A   1      46.461  29.020  35.538  1.00  0.00     0.198 A 
ATOM     88  F   UNL A   1      45.424  30.582  34.117  1.00  0.00    -0.203 F 
ATOM     89  F   UNL A   1      45.051  26.356  37.548  1.00  0.00    -0.200 F 
ATOM     90  C   UNL A   1      46.374  27.947  36.412  1.00  0.00     0.200 A 
ATOM     91  F   UNL A   1      47.654  29.568  35.268  1.00  0.00    -0.200 F 
ATOM     92  F   UNL A   1      47.478  27.471  37.004  1.00  0.00    -0.200 F 
ENDBRANCH  59  82
ENDBRANCH  33  34
ENDBRANCH  25  28
ENDBRANCH  23  24
ENDBRANCH  22  23
ENDBRANCH  21  22
ENDBRANCH   3  21
TORSDOF 15
ENDMDL
MODEL 2
REMARK VINA RESULT:     -11.4      5.657     10.068
REMARK SMILES COC[C@@H](C)N(C)C(=O)N1CCC(CC(=O)NCCCNC(=O)c2ccc(-c3c4nc(c(-c5c(F)c(F)c(F)c(F)c5F)c5ccc([nH]5)c(-c5c(F)c(F)c(F)c(F)c5F)c5nc(c(-c6c(F)c(F)c(F)c(F)c6F)c6ccc3[nH]6)C=C5)C=C4)cc2)CC1
REMARK SMILES IDX 15 1 16 2 17 3 14 5 13 6 8 7 9 8 10 9 11 10 88 11 12 12
REMARK SMILES IDX 87 13 6 14 7 15 4 16 5 17 3 18 2 19 1 20 18 21 19 22 20 23
REMARK SMILES IDX 21 24 22 25 23 27 24 28 25 29 86 30 26 31 85 32 27 33 28 34
REMARK SMILES IDX 29 35 79 36 30 37 84 38 78 39 80 40 31 41 83 42 77 43 76 44
REMARK SMILES IDX 32 46 64 47 44 48 63 49 45 50 48 51 62 52 81 53 46 54 47 55
REMARK SMILES IDX 61 57 82 58 49 59 33 60 34 61 42 62 35 63 36 64 40 65 43 66
REMARK SMILES IDX 37 67 38 68 41 69 39 70 65 71 66 72 74 73 67 74 68 75 72 76
REMARK SMILES IDX 75 77 69 78 70 79 73 80 71 81 50 82 51 83 59 84 52 85 53 86
REMARK SMILES IDX 57 87 60 88 54 89 55 90 58 91 56 92
REMARK H PARENT 17 4 21 26 80 45 48 56
REMARK Flexibility Score: inf
ROOT
ATOM      1  C   UNL A   1      37.447  23.095  25.787  1.00  0.00     0.220 C 
ATOM      2  O   UNL A   1      38.115  24.024  26.247  1.00  0.00    -0.275 OA
ATOM      3  N   UNL A   1      38.113  22.023  25.269  1.00  0.00    -0.356 N 
ATOM      4  H   UNL A   1      39.094  22.093  25.316  1.00  0.00     0.163 HD
ENDROOT
BRANCH   1   5
ATOM      5  C   UNL A   1      35.929  23.164  25.769  1.00  0.00     0.103 C 
BRANCH   5   6
ATOM      6  C   UNL A   1      35.391  24.330  24.916  1.00  0.00     0.002 C 
ATOM      7  C   UNL A   1      31.818  25.037  23.389  1.00  0.00     0.320 C 
ATOM      8  O   UNL A   1      31.589  23.846  23.191  1.00  0.00    -0.248 OA
ATOM      9  N   UNL A   1      33.113  25.504  23.536  1.00  0.00    -0.325 N 
ATOM     10  C   UNL A   1      34.162  24.885  22.758  1.00  0.00     0.121 C 
ATOM     11  C   UNL A   1      33.553  26.112  24.787  1.00  0.00     0.121 C 
ATOM     12  C   UNL A   1      34.875  23.822  23.568  1.00  0.00     0.026 C 
ATOM     13  C   UNL A   1      34.272  25.081  25.669  1.00  0.00     0.026 C 
BRANCH   7  14
ATOM     14  N   UNL A   1      30.822  26.002  23.414  1.00  0.00    -0.323 N 
ATOM     15  C   UNL A   1      30.733  27.068  22.424  1.00  0.00     0.149 C 
BRANCH  14  16
ATOM     16  C   UNL A   1      29.676  25.865  24.341  1.00  0.00     0.109 C 
ATOM     17  C   UNL A   1      28.483  26.692  23.857  1.00  0.00     0.033 C 
BRANCH  16  18
ATOM     18  C   UNL A   1      30.068  26.170  25.808  1.00  0.00     0.184 C 
BRANCH  18  19
ATOM     19  O   UNL A   1      29.702  25.129  26.720  1.00  0.00    -0.383 OA
ATOM     20  C   UNL A   1      30.285  23.869  26.421  1.00  0.00     0.194 C 
ENDBRANCH  18  19
ENDBRANCH  16  18
ENDBRANCH  14  16
ENDBRANCH   7  14
ENDBRANCH   5   6
ENDBRANCH   1   5
BRANCH   3  21
ATOM     21  C   UNL A   1      37.627  20.790  24.658  1.00  0.00     0.117 C 
BRANCH  21  22
ATOM     22  C   UNL A   1      38.485  19.570  24.997  1.00  0.00     0.042 C 
BRANCH  22  23
ATOM     23  C   UNL A   1      39.492  19.790  26.119  1.00  0.00     0.118 C 
BRANCH  23  24
ATOM     24  N   UNL A   1      40.620  18.885  26.008  1.00  0.00    -0.352 N 
ATOM     25  C   UNL A   1      41.967  19.151  25.981  1.00  0.00     0.251 C 
ATOM     26  H   UNL A   1      40.383  17.932  25.943  1.00  0.00     0.163 HD
ATOM     27  O   UNL A   1      42.736  18.266  25.615  1.00  0.00    -0.269 OA
BRANCH  25  28
ATOM     28  C   UNL A   1      42.520  20.468  26.393  1.00  0.00     0.039 A 
ATOM     29  C   UNL A   1      42.313  20.890  27.713  1.00  0.00     0.014 A 
ATOM     30  C   UNL A   1      43.126  21.344  25.486  1.00  0.00     0.014 A 
ATOM     31  C   UNL A   1      42.699  22.173  28.115  1.00  0.00     0.010 A 
ATOM     32  C   UNL A   1      43.584  22.594  25.908  1.00  0.00     0.010 A 
ATOM     33  C   UNL A   1      43.333  23.041  27.214  1.00  0.00    -0.014 A 
BRANCH  33  34
ATOM     34  C   UNL A   1      43.634  24.449  27.594  1.00  0.00     0.031 A 
ATOM     35  C   UNL A   1      45.060  24.939  27.585  1.00  0.00     0.074 A 
ATOM     36  C   UNL A   1      42.643  25.288  27.952  1.00  0.00     0.049 A 
ATOM     37  N   UNL A   1      45.539  26.118  27.901  1.00  0.00    -0.248 NA
ATOM     38  C   UNL A   1      46.091  23.965  27.192  1.00  0.00     0.031 C 
ATOM     39  C   UNL A   1      41.226  24.937  28.038  1.00  0.00     0.029 A 
ATOM     40  N   UNL A   1      42.681  26.614  28.309  1.00  0.00    -0.354 N 
ATOM     41  C   UNL A   1      46.918  26.016  27.771  1.00  0.00     0.074 A 
ATOM     42  C   UNL A   1      47.207  24.648  27.396  1.00  0.00     0.031 C 
ATOM     43  C   UNL A   1      40.525  26.026  28.396  1.00  0.00     0.029 A 
ATOM     44  C   UNL A   1      41.445  27.145  28.585  1.00  0.00     0.049 A 
ATOM     45  H   UNL A   1      43.515  27.134  28.361  1.00  0.00     0.167 HD
ATOM     46  C   UNL A   1      47.861  26.977  27.918  1.00  0.00     0.037 A 
ATOM     47  C   UNL A   1      41.095  28.396  28.941  1.00  0.00     0.037 A 
ATOM     48  C   UNL A   1      47.577  28.350  28.242  1.00  0.00     0.049 A 
ATOM     49  C   UNL A   1      42.157  29.457  29.060  1.00  0.00     0.074 A 
ATOM     50  C   UNL A   1      48.459  29.410  28.373  1.00  0.00     0.029 A 
ATOM     51  N   UNL A   1      46.308  28.856  28.477  1.00  0.00    -0.354 N 
ATOM     52  N   UNL A   1      43.452  29.357  28.887  1.00  0.00    -0.248 NA
ATOM     53  C   UNL A   1      41.702  30.811  29.410  1.00  0.00     0.031 C 
ATOM     54  C   UNL A   1      47.725  30.552  28.709  1.00  0.00     0.029 A 
ATOM     55  C   UNL A   1      46.382  30.211  28.752  1.00  0.00     0.049 A 
ATOM     56  H   UNL A   1      45.477  28.328  28.451  1.00  0.00     0.167 HD
ATOM     57  C   UNL A   1      43.962  30.635  29.075  1.00  0.00     0.074 A 
ATOM     58  C   UNL A   1      42.834  31.497  29.362  1.00  0.00     0.031 C 
ATOM     59  C   UNL A   1      45.249  31.058  29.019  1.00  0.00     0.037 A 
BRANCH  46  60
ATOM     60  C   UNL A   1      49.294  26.576  27.715  1.00  0.00     0.064 A 
ATOM     61  C   UNL A   1      49.842  26.432  26.431  1.00  0.00     0.173 A 
ATOM     62  C   UNL A   1      50.135  26.353  28.816  1.00  0.00     0.173 A 
ATOM     63  F   UNL A   1      49.076  26.621  25.346  1.00  0.00    -0.203 F 
ATOM     64  C   UNL A   1      51.169  26.046  26.257  1.00  0.00     0.198 A 
ATOM     65  C   UNL A   1      51.469  25.997  28.637  1.00  0.00     0.198 A 
ATOM     66  F   UNL A   1      49.664  26.483  30.065  1.00  0.00    -0.203 F 
ATOM     67  F   UNL A   1      51.654  25.862  25.021  1.00  0.00    -0.200 F 
ATOM     68  C   UNL A   1      51.982  25.834  27.360  1.00  0.00     0.200 A 
ATOM     69  F   UNL A   1      52.258  25.803  29.703  1.00  0.00    -0.200 F 
ATOM     70  F   UNL A   1      53.260  25.466  27.190  1.00  0.00    -0.200 F 
ENDBRANCH  46  60
BRANCH  47  71
ATOM     71  C   UNL A   1      39.665  28.731  29.164  1.00  0.00     0.064 A 
ATOM     72  C   UNL A   1      38.861  29.186  28.108  1.00  0.00     0.173 A 
ATOM     73  C   UNL A   1      39.079  28.621  30.432  1.00  0.00     0.173 A 
ATOM     74  F   UNL A   1      39.387  29.329  26.883  1.00  0.00    -0.203 F 
ATOM     75  C   UNL A   1      37.531  29.539  28.317  1.00  0.00     0.198 A 
ATOM     76  C   UNL A   1      37.740  28.951  30.635  1.00  0.00     0.198 A 
ATOM     77  F   UNL A   1      39.805  28.191  31.474  1.00  0.00    -0.203 F 
ATOM     78  F   UNL A   1      36.799  30.016  27.301  1.00  0.00    -0.200 F 
ATOM     79  C   UNL A   1      36.969  29.417  29.580  1.00  0.00     0.200 A 
ATOM     80  F   UNL A   1      37.198  28.825  31.854  1.00  0.00    -0.200 F 
ATOM     81  F   UNL A   1      35.690  29.759  29.781  1.00  0.00    -0.200 F 
ENDBRANCH  47  71
BRANCH  59  82
ATOM     82  C   UNL A   1      45.499  32.521  29.228  1.00  0.00     0.064 A 
ATOM     83  C   UNL A   1      45.446  33.437  28.167  1.00  0.00     0.173 A 
ATOM     84  C   UNL A   1      45.774  33.017  30.512  1.00  0.00     0.173 A 
ATOM     85  F   UNL A   1      45.200  33.010  26.919  1.00  0.00    -0.203 F 
ATOM     86  C   UNL A   1      45.691  34.791  28.378  1.00  0.00     0.198 A 
ATOM     87  C   UNL A   1      45.992  34.375  30.724  1.00  0.00     0.198 A 
ATOM     88  F   UNL A   1      45.829  32.183  31.561  1.00  0.00    -0.203 F 
ATOM     89  F   UNL A   1      45.686  35.640  27.342  1.00  0.00    -0.200 F 
ATOM     90  C   UNL A   1      45.959  35.260  29.656  1.00  0.00     0.200 A 
ATOM     91  F   UNL A   1      46.241  34.828  31.960  1.00  0.00    -0.200 F 
ATOM     92  F   UNL A   1      46.195  36.563  29.856  1.00  0.00    -0.200 F 
ENDBRANCH  59  82
ENDBRANCH  33  34
ENDBRANCH  25  28
ENDBRANCH  23  24
ENDBRANCH  22  23
ENDBRANCH  21  22
ENDBRANCH   3  21
TORSDOF 15
ENDMDL
MODEL 3
REMARK VINA RESULT:     -11.4      0.714      7.548
REMARK SMILES COC[C@@H](C)N(C)C(=O)N1CCC(CC(=O)NCCCNC(=O)c2ccc(-c3c4nc(c(-c5c(F)c(F)c(F)c(F)c5F)c5ccc([nH]5)c(-c5c(F)c(F)c(F)c(F)c5F)c5nc(c(-c6c(F)c(F)c(F)c(F)c6F)c6ccc3[nH]6)C=C5)C=C4)cc2)CC1
REMARK SMILES IDX 15 1 16 2 17 3 14 5 13 6 8 7 9 8 10 9 11 10 88 11 12 12
REMARK SMILES IDX 87 13 6 14 7 15 4 16 5 17 3 18 2 19 1 20 18 21 19 22 20 23
REMARK SMILES IDX 21 24 22 25 23 27 24 28 25 29 86 30 26 31 85 32 27 33 28 34
REMARK SMILES IDX 29 35 79 36 30 37 84 38 78 39 80 40 31 41 83 42 77 43 76 44
REMARK SMILES IDX 32 46 64 47 44 48 63 49 45 50 48 51 62 52 81 53 46 54 47 55
REMARK SMILES IDX 61 57 82 58 49 59 33 60 34 61 42 62 35 63 36 64 40 65 43 66
REMARK SMILES IDX 37 67 38 68 41 69 39 70 65 71 66 72 74 73 67 74 68 75 72 76
REMARK SMILES IDX 75 77 69 78 70 79 73 80 71 81 50 82 51 83 59 84 52 85 53 86
REMARK SMILES IDX 57 87 60 88 54 89 55 90 58 91 56 92
REMARK H PARENT 17 4 21 26 80 45 48 56
REMARK Flexibility Score: inf
ROOT
ATOM      1  C   UNL A   1      33.805  29.310  26.761  1.00  0.00     0.220 C 
ATOM      2  O   UNL A   1      34.738  28.996  27.503  1.00  0.00    -0.275 OA
ATOM      3  N   UNL A   1      32.802  30.073  27.283  1.00  0.00    -0.356 N 
ATOM      4  H   UNL A   1      32.923  30.311  28.231  1.00  0.00     0.163 HD
ENDROOT
BRANCH   1   5
ATOM      5  C   UNL A   1      33.762  28.829  25.321  1.00  0.00     0.103 C 
BRANCH   5   6
ATOM      6  C   UNL A   1      32.856  27.597  25.126  1.00  0.00     0.002 C 
ATOM      7  C   UNL A   1      33.637  23.934  23.872  1.00  0.00     0.320 C 
ATOM      8  O   UNL A   1      34.503  24.312  23.085  1.00  0.00    -0.248 OA
ATOM      9  N   UNL A   1      32.665  24.801  24.338  1.00  0.00    -0.325 N 
ATOM     10  C   UNL A   1      32.160  25.818  23.444  1.00  0.00     0.121 C 
ATOM     11  C   UNL A   1      32.570  25.128  25.757  1.00  0.00     0.121 C 
ATOM     12  C   UNL A   1      32.878  27.133  23.668  1.00  0.00     0.026 C 
ATOM     13  C   UNL A   1      33.296  26.448  26.059  1.00  0.00     0.026 C 
BRANCH   7  14
ATOM     14  N   UNL A   1      33.527  22.618  24.295  1.00  0.00    -0.323 N 
ATOM     15  C   UNL A   1      32.324  21.822  24.086  1.00  0.00     0.149 C 
BRANCH  14  16
ATOM     16  C   UNL A   1      34.715  21.897  24.803  1.00  0.00     0.109 C 
ATOM     17  C   UNL A   1      34.507  20.382  24.724  1.00  0.00     0.033 C 
BRANCH  16  18
ATOM     18  C   UNL A   1      35.136  22.377  26.214  1.00  0.00     0.184 C 
BRANCH  18  19
ATOM     19  O   UNL A   1      34.539  21.618  27.272  1.00  0.00    -0.383 OA
ATOM     20  C   UNL A   1      33.356  22.199  27.802  1.00  0.00     0.194 C 
ENDBRANCH  18  19
ENDBRANCH  16  18
ENDBRANCH  14  16
ENDBRANCH   7  14
ENDBRANCH   5   6
ENDBRANCH   1   5
BRANCH   3  21
ATOM     21  C   UNL A   1      31.579  30.599  26.684  1.00  0.00     0.117 C 
BRANCH  21  22
ATOM     22  C   UNL A   1      31.434  32.113  26.842  1.00  0.00     0.042 C 
BRANCH  22  23
ATOM     23  C   UNL A   1      32.742  32.860  27.070  1.00  0.00     0.118 C 
BRANCH  23  24
ATOM     24  N   UNL A   1      32.509  34.205  27.561  1.00  0.00    -0.352 N 
ATOM     25  C   UNL A   1      33.013  34.841  28.668  1.00  0.00     0.251 C 
ATOM     26  H   UNL A   1      31.895  34.746  27.014  1.00  0.00     0.163 HD
ATOM     27  O   UNL A   1      32.482  35.883  29.044  1.00  0.00    -0.269 OA
BRANCH  25  28
ATOM     28  C   UNL A   1      34.187  34.315  29.416  1.00  0.00     0.039 A 
ATOM     29  C   UNL A   1      35.466  34.573  28.906  1.00  0.00     0.014 A 
ATOM     30  C   UNL A   1      34.054  33.478  30.528  1.00  0.00     0.014 A 
ATOM     31  C   UNL A   1      36.594  33.993  29.497  1.00  0.00     0.010 A 
ATOM     32  C   UNL A   1      35.185  32.965  31.167  1.00  0.00     0.010 A 
ATOM     33  C   UNL A   1      36.464  33.177  30.630  1.00  0.00    -0.014 A 
BRANCH  33  34
ATOM     34  C   UNL A   1      37.639  32.456  31.190  1.00  0.00     0.031 A 
ATOM     35  C   UNL A   1      38.142  32.801  32.570  1.00  0.00     0.074 A 
ATOM     36  C   UNL A   1      38.262  31.502  30.473  1.00  0.00     0.049 A 
ATOM     37  N   UNL A   1      39.161  32.309  33.233  1.00  0.00    -0.248 NA
ATOM     38  C   UNL A   1      37.418  33.859  33.292  1.00  0.00     0.031 C 
ATOM     39  C   UNL A   1      37.905  31.094  29.115  1.00  0.00     0.029 A 
ATOM     40  N   UNL A   1      39.331  30.700  30.792  1.00  0.00    -0.354 N 
ATOM     41  C   UNL A   1      39.211  33.014  34.429  1.00  0.00     0.074 A 
ATOM     42  C   UNL A   1      38.155  34.001  34.383  1.00  0.00     0.031 C 
ATOM     43  C   UNL A   1      38.720  30.099  28.727  1.00  0.00     0.029 A 
ATOM     44  C   UNL A   1      39.671  29.814  29.799  1.00  0.00     0.049 A 
ATOM     45  H   UNL A   1      39.808  30.754  31.651  1.00  0.00     0.167 HD
ATOM     46  C   UNL A   1      40.040  32.838  35.487  1.00  0.00     0.037 A 
ATOM     47  C   UNL A   1      40.635  28.874  29.762  1.00  0.00     0.037 A 
ATOM     48  C   UNL A   1      41.061  31.826  35.560  1.00  0.00     0.049 A 
ATOM     49  C   UNL A   1      41.518  28.672  30.964  1.00  0.00     0.074 A 
ATOM     50  C   UNL A   1      41.924  31.540  36.604  1.00  0.00     0.029 A 
ATOM     51  N   UNL A   1      41.347  30.924  34.546  1.00  0.00    -0.354 N 
ATOM     52  N   UNL A   1      41.523  29.313  32.107  1.00  0.00    -0.248 NA
ATOM     53  C   UNL A   1      42.520  27.600  30.875  1.00  0.00     0.031 C 
ATOM     54  C   UNL A   1      42.749  30.480  36.212  1.00  0.00     0.029 A 
ATOM     55  C   UNL A   1      42.373  30.082  34.939  1.00  0.00     0.049 A 
ATOM     56  H   UNL A   1      40.887  30.889  33.676  1.00  0.00     0.167 HD
ATOM     57  C   UNL A   1      42.502  28.706  32.882  1.00  0.00     0.074 A 
ATOM     58  C   UNL A   1      43.062  27.634  32.084  1.00  0.00     0.031 C 
ATOM     59  C   UNL A   1      42.906  29.010  34.140  1.00  0.00     0.037 A 
BRANCH  46  60
ATOM     60  C   UNL A   1      39.866  33.759  36.660  1.00  0.00     0.064 A 
ATOM     61  C   UNL A   1      38.987  33.453  37.710  1.00  0.00     0.173 A 
ATOM     62  C   UNL A   1      40.602  34.951  36.748  1.00  0.00     0.173 A 
ATOM     63  F   UNL A   1      38.250  32.332  37.668  1.00  0.00    -0.203 F 
ATOM     64  C   UNL A   1      38.825  34.321  38.787  1.00  0.00     0.198 A 
ATOM     65  C   UNL A   1      40.459  35.802  37.840  1.00  0.00     0.198 A 
ATOM     66  F   UNL A   1      41.461  35.288  35.775  1.00  0.00    -0.203 F 
ATOM     67  F   UNL A   1      37.939  34.033  39.750  1.00  0.00    -0.200 F 
ATOM     68  C   UNL A   1      39.565  35.492  38.853  1.00  0.00     0.200 A 
ATOM     69  F   UNL A   1      41.183  36.927  37.910  1.00  0.00    -0.200 F 
ATOM     70  F   UNL A   1      39.409  36.325  39.891  1.00  0.00    -0.200 F 
ENDBRANCH  46  60
BRANCH  47  71
ATOM     71  C   UNL A   1      40.786  28.013  28.561  1.00  0.00     0.064 A 
ATOM     72  C   UNL A   1      41.574  28.426  27.477  1.00  0.00     0.173 A 
ATOM     73  C   UNL A   1      40.138  26.775  28.463  1.00  0.00     0.173 A 
ATOM     74  F   UNL A   1      42.194  29.615  27.517  1.00  0.00    -0.203 F 
ATOM     75  C   UNL A   1      41.690  27.643  26.331  1.00  0.00     0.198 A 
ATOM     76  C   UNL A   1      40.274  25.981  27.327  1.00  0.00     0.198 A 
ATOM     77  F   UNL A   1      39.373  26.335  29.474  1.00  0.00    -0.203 F 
ATOM     78  F   UNL A   1      42.409  28.084  25.290  1.00  0.00    -0.200 F 
ATOM     79  C   UNL A   1      41.042  26.418  26.258  1.00  0.00     0.200 A 
ATOM     80  F   UNL A   1      39.655  24.794  27.262  1.00  0.00    -0.200 F 
ATOM     81  F   UNL A   1      41.152  25.666  25.155  1.00  0.00    -0.200 F 
ENDBRANCH  47  71
BRANCH  59  82
ATOM     82  C   UNL A   1      43.972  28.145  34.745  1.00  0.00     0.064 A 
ATOM     83  C   UNL A   1      45.329  28.487  34.668  1.00  0.00     0.173 A 
ATOM     84  C   UNL A   1      43.626  26.969  35.429  1.00  0.00     0.173 A 
ATOM     85  F   UNL A   1      45.711  29.593  34.013  1.00  0.00    -0.203 F 
ATOM     86  C   UNL A   1      46.305  27.666  35.226  1.00  0.00     0.198 A 
ATOM     87  C   UNL A   1      44.603  26.165  36.009  1.00  0.00     0.198 A 
ATOM     88  F   UNL A   1      42.340  26.602  35.536  1.00  0.00    -0.203 F 
ATOM     89  F   UNL A   1      47.600  27.985  35.096  1.00  0.00    -0.200 F 
ATOM     90  C   UNL A   1      45.942  26.509  35.901  1.00  0.00     0.200 A 
ATOM     91  F   UNL A   1      44.249  25.053  36.669  1.00  0.00    -0.200 F 
ATOM     92  F   UNL A   1      46.883  25.721  36.436  1.00  0.00    -0.200 F 
ENDBRANCH  59  82
ENDBRANCH  33  34
ENDBRANCH  25  28
ENDBRANCH  23  24
ENDBRANCH  22  23
ENDBRANCH  21  22
ENDBRANCH   3  21
TORSDOF 15
ENDMDL
