MODEL 1
REMARK VINA RESULT:     -13.9      0.000      0.000
REMARK SMILES O=C(NCCCNC(=O)[C@@H]1CC2(CCN(C(=O)C3(c4ccccc4F)CC3)CC2)C[NH2+]1)c1ccc(-c2c3nc(c(-c4c(F)c(F)c(F)c(F)c4F)c4ccc([nH]4)c(-c4c(F)c(F)c(F)c(F)c4F)c4nc(c(-c5c(F)c(F)c(F)c(F)c5F)c5ccc2[nH]5)C=C4)C=C3)cc1
REMARK SMILES IDX 5 1 4 2 3 3 1 4 2 5 32 7 33 8 94 9 34 10 93 11 35 12 36 13
REMARK SMILES IDX 37 14 87 15 38 16 92 17 86 18 88 19 39 20 91 21 85 22 84 23
REMARK SMILES IDX 40 25 72 26 52 27 71 28 53 29 56 30 70 31 89 32 54 33 55 34
REMARK SMILES IDX 69 36 90 37 57 38 41 39 42 40 50 41 43 42 44 43 48 44 51 45
REMARK SMILES IDX 45 46 46 47 49 48 47 49 73 50 74 51 82 52 75 53 76 54 80 55
REMARK SMILES IDX 83 56 77 57 78 58 81 59 79 60 58 61 59 62 67 63 60 64 61 65
REMARK SMILES IDX 65 66 68 67 62 68 63 69 66 70 64 71 6 72 7 73 8 74 9 76
REMARK SMILES IDX 10 77 11 78 31 79 12 80 30 81 13 84 29 85 14 86 28 87 15 88
REMARK SMILES IDX 16 89 17 90 18 91 26 92 27 93 19 94 20 95 24 96 21 97 23 98
REMARK SMILES IDX 25 99 22 100
REMARK H PARENT 3 6 88 24 56 35 7 75 31 82 31 83
REMARK Flexibility Score: inf
ROOT
ATOM      1  C   UNL A   1      37.673  19.958  24.773  1.00  0.00     0.042 C 
ENDROOT
BRANCH   1   2
ATOM      2  C   UNL A   1      38.752  20.319  25.776  1.00  0.00     0.118 C 
BRANCH   2   3
ATOM      3  N   UNL A   1      39.858  19.363  25.768  1.00  0.00    -0.352 N 
ATOM      4  O   UNL A   1      41.919  18.489  25.758  1.00  0.00    -0.269 OA
ATOM      5  C   UNL A   1      41.213  19.477  25.988  1.00  0.00     0.251 C 
ATOM      6  H   UNL A   1      39.574  18.443  25.560  1.00  0.00     0.163 HD
BRANCH   5   7
ATOM      7  C   UNL A   1      41.863  20.715  26.495  1.00  0.00     0.039 A 
ATOM      8  C   UNL A   1      42.161  21.778  25.654  1.00  0.00     0.014 A 
ATOM      9  C   UNL A   1      42.089  20.880  27.873  1.00  0.00     0.014 A 
ATOM     10  C   UNL A   1      42.838  22.894  26.126  1.00  0.00     0.010 A 
ATOM     11  C   UNL A   1      42.609  22.087  28.378  1.00  0.00     0.010 A 
ATOM     12  C   UNL A   1      43.001  23.108  27.503  1.00  0.00    -0.014 A 
BRANCH  12  13
ATOM     13  C   UNL A   1      43.450  24.464  27.937  1.00  0.00     0.031 A 
ATOM     14  C   UNL A   1      44.891  24.885  27.884  1.00  0.00     0.074 A 
ATOM     15  C   UNL A   1      42.499  25.363  28.282  1.00  0.00     0.049 A 
ATOM     16  N   UNL A   1      45.403  26.070  28.109  1.00  0.00    -0.248 NA
ATOM     17  C   UNL A   1      45.888  23.858  27.549  1.00  0.00     0.031 C 
ATOM     18  C   UNL A   1      41.067  25.064  28.395  1.00  0.00     0.029 A 
ATOM     19  N   UNL A   1      42.565  26.711  28.531  1.00  0.00    -0.354 N 
ATOM     20  C   UNL A   1      46.777  25.929  27.958  1.00  0.00     0.074 A 
ATOM     21  C   UNL A   1      47.024  24.538  27.645  1.00  0.00     0.031 C 
ATOM     22  C   UNL A   1      40.385  26.202  28.563  1.00  0.00     0.029 A 
ATOM     23  C   UNL A   1      41.332  27.303  28.685  1.00  0.00     0.049 A 
ATOM     24  H   UNL A   1      43.413  27.208  28.595  1.00  0.00     0.167 HD
ATOM     25  C   UNL A   1      47.735  26.881  28.062  1.00  0.00     0.037 A 
ATOM     26  C   UNL A   1      40.990  28.585  28.912  1.00  0.00     0.037 A 
ATOM     27  C   UNL A   1      47.477  28.270  28.352  1.00  0.00     0.049 A 
ATOM     28  C   UNL A   1      42.081  29.607  29.040  1.00  0.00     0.074 A 
ATOM     29  C   UNL A   1      48.387  29.309  28.459  1.00  0.00     0.029 A 
ATOM     30  N   UNL A   1      46.221  28.817  28.576  1.00  0.00    -0.354 N 
ATOM     31  N   UNL A   1      43.372  29.457  28.880  1.00  0.00    -0.248 NA
ATOM     32  C   UNL A   1      41.671  30.970  29.401  1.00  0.00     0.031 C 
ATOM     33  C   UNL A   1      47.689  30.471  28.799  1.00  0.00     0.029 A 
ATOM     34  C   UNL A   1      46.338  30.172  28.844  1.00  0.00     0.049 A 
ATOM     35  H   UNL A   1      45.375  28.316  28.549  1.00  0.00     0.167 HD
ATOM     36  C   UNL A   1      43.931  30.704  29.113  1.00  0.00     0.074 A 
ATOM     37  C   UNL A   1      42.833  31.609  29.390  1.00  0.00     0.031 C 
ATOM     38  C   UNL A   1      45.237  31.062  29.114  1.00  0.00     0.037 A 
BRANCH  25  39
ATOM     39  C   UNL A   1      49.168  26.475  27.866  1.00  0.00     0.064 A 
ATOM     40  C   UNL A   1      50.012  26.297  28.973  1.00  0.00     0.173 A 
ATOM     41  C   UNL A   1      49.737  26.388  26.587  1.00  0.00     0.173 A 
ATOM     42  F   UNL A   1      49.521  26.380  30.219  1.00  0.00    -0.203 F 
ATOM     43  C   UNL A   1      51.377  26.074  28.807  1.00  0.00     0.198 A 
ATOM     44  C   UNL A   1      51.098  26.139  26.425  1.00  0.00     0.198 A 
ATOM     45  F   UNL A   1      48.973  26.544  25.496  1.00  0.00    -0.203 F 
ATOM     46  F   UNL A   1      52.171  25.957  29.881  1.00  0.00    -0.200 F 
ATOM     47  C   UNL A   1      51.919  25.996  27.534  1.00  0.00     0.200 A 
ATOM     48  F   UNL A   1      51.619  26.048  25.193  1.00  0.00    -0.200 F 
ATOM     49  F   UNL A   1      53.233  25.792  27.375  1.00  0.00    -0.200 F 
ENDBRANCH  25  39
BRANCH  26  50
ATOM     50  C   UNL A   1      39.556  28.963  29.052  1.00  0.00     0.064 A 
ATOM     51  C   UNL A   1      38.906  28.916  30.295  1.00  0.00     0.173 A 
ATOM     52  C   UNL A   1      38.801  29.373  27.943  1.00  0.00     0.173 A 
ATOM     53  F   UNL A   1      39.579  28.531  31.390  1.00  0.00    -0.203 F 
ATOM     54  C   UNL A   1      37.556  29.233  30.419  1.00  0.00     0.198 A 
ATOM     55  C   UNL A   1      37.461  29.730  28.075  1.00  0.00     0.198 A 
ATOM     56  F   UNL A   1      39.377  29.458  26.735  1.00  0.00    -0.203 F 
ATOM     57  F   UNL A   1      36.953  29.131  31.611  1.00  0.00    -0.200 F 
ATOM     58  C   UNL A   1      36.836  29.648  29.311  1.00  0.00     0.200 A 
ATOM     59  F   UNL A   1      36.775  30.161  27.007  1.00  0.00    -0.200 F 
ATOM     60  F   UNL A   1      35.543  29.977  29.435  1.00  0.00    -0.200 F 
ENDBRANCH  26  50
BRANCH  38  61
ATOM     61  C   UNL A   1      45.553  32.499  29.408  1.00  0.00     0.064 A 
ATOM     62  C   UNL A   1      45.622  33.439  28.368  1.00  0.00     0.173 A 
ATOM     63  C   UNL A   1      45.832  32.938  30.711  1.00  0.00     0.173 A 
ATOM     64  F   UNL A   1      45.370  33.070  27.104  1.00  0.00    -0.203 F 
ATOM     65  C   UNL A   1      45.968  34.763  28.622  1.00  0.00     0.198 A 
ATOM     66  C   UNL A   1      46.144  34.269  30.965  1.00  0.00     0.198 A 
ATOM     67  F   UNL A   1      45.764  32.080  31.741  1.00  0.00    -0.203 F 
ATOM     68  F   UNL A   1      46.058  35.637  27.609  1.00  0.00    -0.200 F 
ATOM     69  C   UNL A   1      46.221  35.179  29.920  1.00  0.00     0.200 A 
ATOM     70  F   UNL A   1      46.359  34.677  32.224  1.00  0.00    -0.200 F 
ATOM     71  F   UNL A   1      46.534  36.458  30.166  1.00  0.00    -0.200 F 
ENDBRANCH  38  61
ENDBRANCH  12  13
ENDBRANCH   5   7
ENDBRANCH   2   3
ENDBRANCH   1   2
BRANCH   1  72
ATOM     72  C   UNL A   1      36.252  20.354  25.197  1.00  0.00     0.118 C 
BRANCH  72  73
ATOM     73  N   UNL A   1      35.268  19.499  24.555  1.00  0.00    -0.351 N 
ATOM     74  C   UNL A   1      33.963  19.201  24.732  1.00  0.00     0.278 C 
ATOM     75  H   UNL A   1      35.654  19.010  23.792  1.00  0.00     0.163 HD
ATOM     76  O   UNL A   1      33.591  18.229  24.050  1.00  0.00    -0.268 OA
BRANCH  74  77
ATOM     77  C   UNL A   1      32.894  19.894  25.635  1.00  0.00     0.273 C 
ATOM     78  C   UNL A   1      32.073  21.132  25.332  1.00  0.00     0.088 C 
ATOM     79  N   UNL A   1      33.468  20.188  26.966  1.00  0.00    -0.336 N 
ATOM     80  C   UNL A   1      32.794  22.313  26.018  1.00  0.00     0.029 C 
ATOM     81  C   UNL A   1      33.597  21.631  27.143  1.00  0.00     0.268 C 
ATOM     82  H   UNL A   1      34.388  19.756  27.040  1.00  0.00     0.346 HD
ATOM     83  H   UNL A   1      32.852  19.815  27.688  1.00  0.00     0.346 HD
ATOM     84  C   UNL A   1      31.855  23.429  26.534  1.00  0.00     0.034 C 
ATOM     85  C   UNL A   1      33.770  23.009  25.082  1.00  0.00     0.034 C 
ATOM     86  C   UNL A   1      31.247  24.344  25.441  1.00  0.00     0.120 C 
ATOM     87  C   UNL A   1      33.034  23.649  23.921  1.00  0.00     0.120 C 
ATOM     88  N   UNL A   1      32.194  24.730  24.389  1.00  0.00    -0.342 N 
ATOM     89  C   UNL A   1      32.300  25.895  23.617  1.00  0.00     0.233 C 
ATOM     90  O   UNL A   1      33.130  25.915  22.701  1.00  0.00    -0.274 OA
BRANCH  89  91
ATOM     91  C   UNL A   1      31.508  27.179  23.802  1.00  0.00     0.077 C 
ATOM     92  C   UNL A   1      30.834  28.031  22.742  1.00  0.00     0.023 C 
ATOM     93  C   UNL A   1      30.010  27.059  23.526  1.00  0.00     0.023 C 
BRANCH  91  94
ATOM     94  C   UNL A   1      31.983  27.967  25.048  1.00  0.00     0.003 A 
ATOM     95  C   UNL A   1      31.391  27.763  26.308  1.00  0.00     0.008 A 
ATOM     96  C   UNL A   1      32.889  29.038  24.938  1.00  0.00     0.127 A 
ATOM     97  C   UNL A   1      31.669  28.605  27.390  1.00  0.00     0.001 A 
ATOM     98  C   UNL A   1      33.156  29.897  26.004  1.00  0.00     0.039 A 
ATOM     99  F   UNL A   1      33.479  29.290  23.757  1.00  0.00    -0.207 F 
ATOM    100  C   UNL A   1      32.539  29.682  27.232  1.00  0.00     0.003 A 
ENDBRANCH  91  94
ENDBRANCH  89  91
ENDBRANCH  74  77
ENDBRANCH  72  73
ENDBRANCH   1  72
TORSDOF 12
ENDMDL
MODEL 2
REMARK VINA RESULT:     -13.9      5.174     10.566
REMARK SMILES O=C(NCCCNC(=O)[C@@H]1CC2(CCN(C(=O)C3(c4ccccc4F)CC3)CC2)C[NH2+]1)c1ccc(-c2c3nc(c(-c4c(F)c(F)c(F)c(F)c4F)c4ccc([nH]4)c(-c4c(F)c(F)c(F)c(F)c4F)c4nc(c(-c5c(F)c(F)c(F)c(F)c5F)c5ccc2[nH]5)C=C4)C=C3)cc1
REMARK SMILES IDX 5 1 4 2 3 3 1 4 2 5 32 7 33 8 94 9 34 10 93 11 35 12 36 13
REMARK SMILES IDX 37 14 87 15 38 16 92 17 86 18 88 19 39 20 91 21 85 22 84 23
REMARK SMILES IDX 40 25 72 26 52 27 71 28 53 29 56 30 70 31 89 32 54 33 55 34
REMARK SMILES IDX 69 36 90 37 57 38 41 39 42 40 50 41 43 42 44 43 48 44 51 45
REMARK SMILES IDX 45 46 46 47 49 48 47 49 73 50 74 51 82 52 75 53 76 54 80 55
REMARK SMILES IDX 83 56 77 57 78 58 81 59 79 60 58 61 59 62 67 63 60 64 61 65
REMARK SMILES IDX 65 66 68 67 62 68 63 69 66 70 64 71 6 72 7 73 8 74 9 76
REMARK SMILES IDX 10 77 11 78 31 79 12 80 30 81 13 84 29 85 14 86 28 87 15 88
REMARK SMILES IDX 16 89 17 90 18 91 26 92 27 93 19 94 20 95 24 96 21 97 23 98
REMARK SMILES IDX 25 99 22 100
REMARK H PARENT 3 6 88 24 56 35 7 75 31 82 31 83
REMARK Flexibility Score: inf
ROOT
ATOM      1  C   UNL A   1      31.407  31.423  26.499  1.00  0.00     0.042 C 
ENDROOT
BRANCH   1   2
ATOM      2  C   UNL A   1      32.699  32.118  26.882  1.00  0.00     0.118 C 
BRANCH   2   3
ATOM      3  N   UNL A   1      32.472  33.475  27.376  1.00  0.00    -0.352 N 
ATOM      4  O   UNL A   1      32.528  35.318  28.646  1.00  0.00    -0.269 OA
ATOM      5  C   UNL A   1      33.054  34.234  28.367  1.00  0.00     0.251 C 
ATOM      6  H   UNL A   1      31.751  33.946  26.899  1.00  0.00     0.163 HD
BRANCH   5   7
ATOM      7  C   UNL A   1      34.278  33.824  29.107  1.00  0.00     0.039 A 
ATOM      8  C   UNL A   1      34.280  32.730  29.960  1.00  0.00     0.014 A 
ATOM      9  C   UNL A   1      35.499  34.477  28.866  1.00  0.00     0.014 A 
ATOM     10  C   UNL A   1      35.409  32.407  30.703  1.00  0.00     0.010 A 
ATOM     11  C   UNL A   1      36.686  34.035  29.481  1.00  0.00     0.010 A 
ATOM     12  C   UNL A   1      36.650  32.996  30.420  1.00  0.00    -0.014 A 
BRANCH  12  13
ATOM     13  C   UNL A   1      37.859  32.375  31.037  1.00  0.00     0.031 A 
ATOM     14  C   UNL A   1      38.269  32.658  32.454  1.00  0.00     0.074 A 
ATOM     15  C   UNL A   1      38.531  31.448  30.315  1.00  0.00     0.049 A 
ATOM     16  N   UNL A   1      39.220  32.092  33.157  1.00  0.00    -0.248 NA
ATOM     17  C   UNL A   1      37.537  33.706  33.178  1.00  0.00     0.031 C 
ATOM     18  C   UNL A   1      38.242  31.106  28.918  1.00  0.00     0.029 A 
ATOM     19  N   UNL A   1      39.534  30.577  30.657  1.00  0.00    -0.354 N 
ATOM     20  C   UNL A   1      39.210  32.723  34.394  1.00  0.00     0.074 A 
ATOM     21  C   UNL A   1      38.175  33.732  34.342  1.00  0.00     0.031 C 
ATOM     22  C   UNL A   1      38.951  30.028  28.566  1.00  0.00     0.029 A 
ATOM     23  C   UNL A   1      39.832  29.666  29.668  1.00  0.00     0.049 A 
ATOM     24  H   UNL A   1      39.998  30.600  31.526  1.00  0.00     0.167 HD
ATOM     25  C   UNL A   1      39.990  32.470  35.472  1.00  0.00     0.037 A 
ATOM     26  C   UNL A   1      40.722  28.656  29.637  1.00  0.00     0.037 A 
ATOM     27  C   UNL A   1      41.005  31.446  35.522  1.00  0.00     0.049 A 
ATOM     28  C   UNL A   1      41.581  28.419  30.844  1.00  0.00     0.074 A 
ATOM     29  C   UNL A   1      41.832  31.107  36.581  1.00  0.00     0.029 A 
ATOM     30  N   UNL A   1      41.329  30.594  34.476  1.00  0.00    -0.354 N 
ATOM     31  N   UNL A   1      41.547  29.017  32.009  1.00  0.00    -0.248 NA
ATOM     32  C   UNL A   1      42.615  27.383  30.727  1.00  0.00     0.031 C 
ATOM     33  C   UNL A   1      42.690  30.089  36.158  1.00  0.00     0.029 A 
ATOM     34  C   UNL A   1      42.359  29.748  34.858  1.00  0.00     0.049 A 
ATOM     35  H   UNL A   1      40.893  30.592  33.594  1.00  0.00     0.167 HD
ATOM     36  C   UNL A   1      42.548  28.428  32.767  1.00  0.00     0.074 A 
ATOM     37  C   UNL A   1      43.148  27.400  31.941  1.00  0.00     0.031 C 
ATOM     38  C   UNL A   1      42.944  28.726  34.027  1.00  0.00     0.037 A 
BRANCH  25  39
ATOM     39  C   UNL A   1      39.796  33.305  36.705  1.00  0.00     0.064 A 
ATOM     40  C   UNL A   1      38.829  32.948  37.659  1.00  0.00     0.173 A 
ATOM     41  C   UNL A   1      40.471  34.522  36.880  1.00  0.00     0.173 A 
ATOM     42  F   UNL A   1      38.147  31.799  37.532  1.00  0.00    -0.203 F 
ATOM     43  C   UNL A   1      38.527  33.791  38.726  1.00  0.00     0.198 A 
ATOM     44  C   UNL A   1      40.183  35.350  37.963  1.00  0.00     0.198 A 
ATOM     45  F   UNL A   1      41.407  34.907  36.001  1.00  0.00    -0.203 F 
ATOM     46  F   UNL A   1      37.564  33.450  39.595  1.00  0.00    -0.200 F 
ATOM     47  C   UNL A   1      39.203  34.991  38.876  1.00  0.00     0.200 A 
ATOM     48  F   UNL A   1      40.849  36.504  38.117  1.00  0.00    -0.200 F 
ATOM     49  F   UNL A   1      38.905  35.805  39.898  1.00  0.00    -0.200 F 
ENDBRANCH  25  39
BRANCH  26  50
ATOM     50  C   UNL A   1      40.855  27.813  28.417  1.00  0.00     0.064 A 
ATOM     51  C   UNL A   1      40.136  26.616  28.274  1.00  0.00     0.173 A 
ATOM     52  C   UNL A   1      41.711  28.182  27.369  1.00  0.00     0.173 A 
ATOM     53  F   UNL A   1      39.303  26.214  29.245  1.00  0.00    -0.203 F 
ATOM     54  C   UNL A   1      40.288  25.810  27.149  1.00  0.00     0.198 A 
ATOM     55  C   UNL A   1      41.832  27.395  26.225  1.00  0.00     0.198 A 
ATOM     56  F   UNL A   1      42.405  29.327  27.441  1.00  0.00    -0.203 F 
ATOM     57  F   UNL A   1      39.624  24.649  27.066  1.00  0.00    -0.200 F 
ATOM     58  C   UNL A   1      41.129  26.203  26.122  1.00  0.00     0.200 A 
ATOM     59  F   UNL A   1      42.622  27.794  25.219  1.00  0.00    -0.200 F 
ATOM     60  F   UNL A   1      41.258  25.438  25.029  1.00  0.00    -0.200 F 
ENDBRANCH  26  50
BRANCH  38  61
ATOM     61  C   UNL A   1      44.071  27.918  34.600  1.00  0.00     0.064 A 
ATOM     62  C   UNL A   1      43.812  26.717  35.277  1.00  0.00     0.173 A 
ATOM     63  C   UNL A   1      45.402  28.354  34.518  1.00  0.00     0.173 A 
ATOM     64  F   UNL A   1      42.556  26.259  35.388  1.00  0.00    -0.203 F 
ATOM     65  C   UNL A   1      44.844  25.987  35.860  1.00  0.00     0.198 A 
ATOM     66  C   UNL A   1      46.435  27.604  35.072  1.00  0.00     0.198 A 
ATOM     67  F   UNL A   1      45.703  29.488  33.868  1.00  0.00    -0.203 F 
ATOM     68  F   UNL A   1      44.570  24.858  36.528  1.00  0.00    -0.200 F 
ATOM     69  C   UNL A   1      46.154  26.426  35.751  1.00  0.00     0.200 A 
ATOM     70  F   UNL A   1      47.704  28.013  34.940  1.00  0.00    -0.200 F 
ATOM     71  F   UNL A   1      47.149  25.711  36.294  1.00  0.00    -0.200 F 
ENDBRANCH  38  61
ENDBRANCH  12  13
ENDBRANCH   5   7
ENDBRANCH   2   3
ENDBRANCH   1   2
BRANCH   1  72
ATOM     72  C   UNL A   1      31.539  30.430  25.336  1.00  0.00     0.118 C 
BRANCH  72  73
ATOM     73  N   UNL A   1      30.277  30.295  24.630  1.00  0.00    -0.351 N 
ATOM     74  C   UNL A   1      29.870  29.836  23.427  1.00  0.00     0.278 C 
ATOM     75  H   UNL A   1      29.522  30.625  25.169  1.00  0.00     0.163 HD
ATOM     76  O   UNL A   1      28.686  30.124  23.174  1.00  0.00    -0.268 OA
BRANCH  74  77
ATOM     77  C   UNL A   1      30.652  29.013  22.355  1.00  0.00     0.273 C 
ATOM     78  C   UNL A   1      30.896  27.517  22.319  1.00  0.00     0.088 C 
ATOM     79  N   UNL A   1      32.006  29.579  22.170  1.00  0.00    -0.336 N 
ATOM     80  C   UNL A   1      32.307  27.289  22.902  1.00  0.00     0.029 C 
ATOM     81  C   UNL A   1      33.008  28.642  22.668  1.00  0.00     0.268 C 
ATOM     82  H   UNL A   1      32.079  30.456  22.684  1.00  0.00     0.346 HD
ATOM     83  H   UNL A   1      32.167  29.746  21.177  1.00  0.00     0.346 HD
ATOM     84  C   UNL A   1      33.074  26.095  22.286  1.00  0.00     0.034 C 
ATOM     85  C   UNL A   1      32.271  27.017  24.397  1.00  0.00     0.034 C 
ATOM     86  C   UNL A   1      32.588  24.692  22.731  1.00  0.00     0.120 C 
ATOM     87  C   UNL A   1      31.538  25.722  24.687  1.00  0.00     0.120 C 
ATOM     88  N   UNL A   1      32.277  24.593  24.161  1.00  0.00    -0.342 N 
ATOM     89  C   UNL A   1      32.385  23.527  25.064  1.00  0.00     0.233 C 
ATOM     90  O   UNL A   1      31.934  23.679  26.205  1.00  0.00    -0.274 OA
BRANCH  89  91
ATOM     91  C   UNL A   1      33.037  22.180  24.799  1.00  0.00     0.077 C 
ATOM     92  C   UNL A   1      32.515  20.797  25.143  1.00  0.00     0.023 C 
ATOM     93  C   UNL A   1      32.334  21.317  23.752  1.00  0.00     0.023 C 
BRANCH  91  94
ATOM     94  C   UNL A   1      34.582  22.290  24.769  1.00  0.00     0.003 A 
ATOM     95  C   UNL A   1      35.263  22.670  23.597  1.00  0.00     0.008 A 
ATOM     96  C   UNL A   1      35.372  21.844  25.846  1.00  0.00     0.127 A 
ATOM     97  C   UNL A   1      36.655  22.578  23.500  1.00  0.00     0.001 A 
ATOM     98  C   UNL A   1      36.757  21.728  25.751  1.00  0.00     0.039 A 
ATOM     99  F   UNL A   1      34.778  21.458  26.988  1.00  0.00    -0.207 F 
ATOM    100  C   UNL A   1      37.401  22.091  24.572  1.00  0.00     0.003 A 
ENDBRANCH  91  94
ENDBRANCH  89  91
ENDBRANCH  74  77
ENDBRANCH  72  73
ENDBRANCH   1  72
TORSDOF 12
ENDMDL
MODEL 3
REMARK VINA RESULT:     -13.3      1.649      7.128
REMARK SMILES O=C(NCCCNC(=O)[C@@H]1CC2(CCN(C(=O)C3(c4ccccc4F)CC3)CC2)C[NH2+]1)c1ccc(-c2c3nc(c(-c4c(F)c(F)c(F)c(F)c4F)c4ccc([nH]4)c(-c4c(F)c(F)c(F)c(F)c4F)c4nc(c(-c5c(F)c(F)c(F)c(F)c5F)c5ccc2[nH]5)C=C4)C=C3)cc1
REMARK SMILES IDX 5 1 4 2 3 3 1 4 2 5 32 7 33 8 94 9 34 10 93 11 35 12 36 13
REMARK SMILES IDX 37 14 87 15 38 16 92 17 86 18 88 19 39 20 91 21 85 22 84 23
REMARK SMILES IDX 40 25 72 26 52 27 71 28 53 29 56 30 70 31 89 32 54 33 55 34
REMARK SMILES IDX 69 36 90 37 57 38 41 39 42 40 50 41 43 42 44 43 48 44 51 45
REMARK SMILES IDX 45 46 46 47 49 48 47 49 73 50 74 51 82 52 75 53 76 54 80 55
REMARK SMILES IDX 83 56 77 57 78 58 81 59 79 60 58 61 59 62 67 63 60 64 61 65
REMARK SMILES IDX 65 66 68 67 62 68 63 69 66 70 64 71 6 72 7 73 8 74 9 76
REMARK SMILES IDX 10 77 11 78 31 79 12 80 30 81 13 84 29 85 14 86 28 87 15 88
REMARK SMILES IDX 16 89 17 90 18 91 26 92 27 93 19 94 20 95 24 96 21 97 23 98
REMARK SMILES IDX 25 99 22 100
REMARK H PARENT 3 6 88 24 56 35 7 75 31 82 31 83
REMARK Flexibility Score: inf
ROOT
ATOM      1  C   UNL A   1      37.574  19.489  25.001  1.00  0.00     0.042 C 
ENDROOT
BRANCH   1   2
ATOM      2  C   UNL A   1      38.776  20.377  25.258  1.00  0.00     0.118 C 
BRANCH   2   3
ATOM      3  N   UNL A   1      39.718  19.773  26.199  1.00  0.00    -0.352 N 
ATOM      4  O   UNL A   1      41.454  19.477  27.582  1.00  0.00    -0.269 OA
ATOM      5  C   UNL A   1      40.719  20.282  26.998  1.00  0.00     0.251 C 
ATOM      6  H   UNL A   1      39.617  18.797  26.277  1.00  0.00     0.163 HD
BRANCH   5   7
ATOM      7  C   UNL A   1      40.951  21.737  27.199  1.00  0.00     0.039 A 
ATOM      8  C   UNL A   1      42.006  22.206  27.969  1.00  0.00     0.014 A 
ATOM      9  C   UNL A   1      40.164  22.679  26.513  1.00  0.00     0.014 A 
ATOM     10  C   UNL A   1      42.163  23.565  28.212  1.00  0.00     0.010 A 
ATOM     11  C   UNL A   1      40.437  24.056  26.614  1.00  0.00     0.010 A 
ATOM     12  C   UNL A   1      41.439  24.516  27.477  1.00  0.00    -0.014 A 
BRANCH  12  13
ATOM     13  C   UNL A   1      41.887  25.937  27.569  1.00  0.00     0.031 A 
ATOM     14  C   UNL A   1      41.140  26.961  28.375  1.00  0.00     0.074 A 
ATOM     15  C   UNL A   1      43.064  26.266  26.988  1.00  0.00     0.049 A 
ATOM     16  N   UNL A   1      41.485  28.197  28.645  1.00  0.00    -0.248 NA
ATOM     17  C   UNL A   1      39.845  26.566  28.945  1.00  0.00     0.031 C 
ATOM     18  C   UNL A   1      43.868  25.363  26.157  1.00  0.00     0.029 A 
ATOM     19  N   UNL A   1      43.828  27.404  27.056  1.00  0.00    -0.354 N 
ATOM     20  C   UNL A   1      40.448  28.729  29.399  1.00  0.00     0.074 A 
ATOM     21  C   UNL A   1      39.447  27.691  29.527  1.00  0.00     0.031 C 
ATOM     22  C   UNL A   1      45.054  25.927  25.902  1.00  0.00     0.029 A 
ATOM     23  C   UNL A   1      45.058  27.277  26.450  1.00  0.00     0.049 A 
ATOM     24  H   UNL A   1      43.527  28.232  27.496  1.00  0.00     0.167 HD
ATOM     25  C   UNL A   1      40.352  29.966  29.940  1.00  0.00     0.037 A 
ATOM     26  C   UNL A   1      46.078  28.148  26.331  1.00  0.00     0.037 A 
ATOM     27  C   UNL A   1      41.365  30.987  29.826  1.00  0.00     0.049 A 
ATOM     28  C   UNL A   1      45.926  29.516  26.928  1.00  0.00     0.074 A 
ATOM     29  C   UNL A   1      41.359  32.266  30.359  1.00  0.00     0.029 A 
ATOM     30  N   UNL A   1      42.563  30.847  29.141  1.00  0.00    -0.354 N 
ATOM     31  N   UNL A   1      44.944  29.996  27.649  1.00  0.00    -0.248 NA
ATOM     32  C   UNL A   1      47.013  30.472  26.677  1.00  0.00     0.031 C 
ATOM     33  C   UNL A   1      42.527  32.916  29.952  1.00  0.00     0.029 A 
ATOM     34  C   UNL A   1      43.291  32.024  29.218  1.00  0.00     0.049 A 
ATOM     35  H   UNL A   1      42.852  30.033  28.670  1.00  0.00     0.167 HD
ATOM     36  C   UNL A   1      45.294  31.304  27.945  1.00  0.00     0.074 A 
ATOM     37  C   UNL A   1      46.597  31.532  27.356  1.00  0.00     0.031 C 
ATOM     38  C   UNL A   1      44.589  32.236  28.629  1.00  0.00     0.037 A 
BRANCH  25  39
ATOM     39  C   UNL A   1      39.111  30.313  30.712  1.00  0.00     0.064 A 
ATOM     40  C   UNL A   1      38.033  30.948  30.074  1.00  0.00     0.173 A 
ATOM     41  C   UNL A   1      39.037  30.136  32.101  1.00  0.00     0.173 A 
ATOM     42  F   UNL A   1      38.057  31.151  28.748  1.00  0.00    -0.203 F 
ATOM     43  C   UNL A   1      36.942  31.416  30.803  1.00  0.00     0.198 A 
ATOM     44  C   UNL A   1      37.933  30.583  32.823  1.00  0.00     0.198 A 
ATOM     45  F   UNL A   1      40.037  29.530  32.758  1.00  0.00    -0.203 F 
ATOM     46  F   UNL A   1      35.948  32.063  30.177  1.00  0.00    -0.200 F 
ATOM     47  C   UNL A   1      36.893  31.234  32.175  1.00  0.00     0.200 A 
ATOM     48  F   UNL A   1      37.878  30.392  34.149  1.00  0.00    -0.200 F 
ATOM     49  F   UNL A   1      35.848  31.693  32.877  1.00  0.00    -0.200 F 
ENDBRANCH  25  39
BRANCH  26  50
ATOM     50  C   UNL A   1      47.316  27.756  25.602  1.00  0.00     0.064 A 
ATOM     51  C   UNL A   1      48.459  27.316  26.288  1.00  0.00     0.173 A 
ATOM     52  C   UNL A   1      47.386  27.820  24.203  1.00  0.00     0.173 A 
ATOM     53  F   UNL A   1      48.449  27.235  27.627  1.00  0.00    -0.203 F 
ATOM     54  C   UNL A   1      49.628  26.985  25.609  1.00  0.00     0.198 A 
ATOM     55  C   UNL A   1      48.544  27.449  23.521  1.00  0.00     0.198 A 
ATOM     56  F   UNL A   1      46.317  28.211  23.495  1.00  0.00    -0.203 F 
ATOM     57  F   UNL A   1      50.717  26.616  26.297  1.00  0.00    -0.200 F 
ATOM     58  C   UNL A   1      49.668  27.043  24.226  1.00  0.00     0.200 A 
ATOM     59  F   UNL A   1      48.569  27.477  22.182  1.00  0.00    -0.200 F 
ATOM     60  F   UNL A   1      50.786  26.702  23.571  1.00  0.00    -0.200 F 
ENDBRANCH  26  50
BRANCH  38  61
ATOM     61  C   UNL A   1      45.220  33.588  28.794  1.00  0.00     0.064 A 
ATOM     62  C   UNL A   1      44.996  34.597  27.845  1.00  0.00     0.173 A 
ATOM     63  C   UNL A   1      46.082  33.870  29.863  1.00  0.00     0.173 A 
ATOM     64  F   UNL A   1      44.185  34.377  26.800  1.00  0.00    -0.203 F 
ATOM     65  C   UNL A   1      45.620  35.836  27.958  1.00  0.00     0.198 A 
ATOM     66  C   UNL A   1      46.677  35.121  29.992  1.00  0.00     0.198 A 
ATOM     67  F   UNL A   1      46.316  32.942  30.805  1.00  0.00    -0.203 F 
ATOM     68  F   UNL A   1      45.416  36.776  27.024  1.00  0.00    -0.200 F 
ATOM     69  C   UNL A   1      46.453  36.100  29.034  1.00  0.00     0.200 A 
ATOM     70  F   UNL A   1      47.458  35.385  31.049  1.00  0.00    -0.200 F 
ATOM     71  F   UNL A   1      47.037  37.301  29.153  1.00  0.00    -0.200 F 
ENDBRANCH  38  61
ENDBRANCH  12  13
ENDBRANCH   5   7
ENDBRANCH   2   3
ENDBRANCH   1   2
BRANCH   1  72
ATOM     72  C   UNL A   1      36.219  20.197  25.140  1.00  0.00     0.118 C 
BRANCH  72  73
ATOM     73  N   UNL A   1      35.174  19.442  24.470  1.00  0.00    -0.351 N 
ATOM     74  C   UNL A   1      33.857  19.211  24.658  1.00  0.00     0.278 C 
ATOM     75  H   UNL A   1      35.516  18.978  23.671  1.00  0.00     0.163 HD
ATOM     76  O   UNL A   1      33.415  18.305  23.927  1.00  0.00    -0.268 OA
BRANCH  74  77
ATOM     77  C   UNL A   1      32.848  19.908  25.624  1.00  0.00     0.273 C 
ATOM     78  C   UNL A   1      32.012  21.147  25.368  1.00  0.00     0.088 C 
ATOM     79  N   UNL A   1      33.505  20.206  26.915  1.00  0.00    -0.336 N 
ATOM     80  C   UNL A   1      32.776  22.329  26.003  1.00  0.00     0.029 C 
ATOM     81  C   UNL A   1      33.647  21.650  27.078  1.00  0.00     0.268 C 
ATOM     82  H   UNL A   1      34.427  19.772  26.933  1.00  0.00     0.346 HD
ATOM     83  H   UNL A   1      32.934  19.837  27.675  1.00  0.00     0.346 HD
ATOM     84  C   UNL A   1      31.873  23.448  26.574  1.00  0.00     0.034 C 
ATOM     85  C   UNL A   1      33.692  23.020  25.005  1.00  0.00     0.034 C 
ATOM     86  C   UNL A   1      31.198  24.361  25.517  1.00  0.00     0.120 C 
ATOM     87  C   UNL A   1      32.886  23.657  23.891  1.00  0.00     0.120 C 
ATOM     88  N   UNL A   1      32.078  24.742  24.407  1.00  0.00    -0.342 N 
ATOM     89  C   UNL A   1      32.137  25.903  23.626  1.00  0.00     0.233 C 
ATOM     90  O   UNL A   1      32.909  25.919  22.659  1.00  0.00    -0.274 OA
BRANCH  89  91
ATOM     91  C   UNL A   1      31.361  27.189  23.855  1.00  0.00     0.077 C 
ATOM     92  C   UNL A   1      30.638  28.048  22.834  1.00  0.00     0.023 C 
ATOM     93  C   UNL A   1      29.851  27.076  23.654  1.00  0.00     0.023 C 
BRANCH  91  94
ATOM     94  C   UNL A   1      31.900  27.971  25.079  1.00  0.00     0.003 A 
ATOM     95  C   UNL A   1      31.404  27.729  26.374  1.00  0.00     0.008 A 
ATOM     96  C   UNL A   1      32.767  29.069  24.926  1.00  0.00     0.127 A 
ATOM     97  C   UNL A   1      31.735  28.560  27.449  1.00  0.00     0.001 A 
ATOM     98  C   UNL A   1      33.085  29.917  25.986  1.00  0.00     0.039 A 
ATOM     99  F   UNL A   1      33.265  29.356  23.712  1.00  0.00    -0.207 F 
ATOM    100  C   UNL A   1      32.562  29.665  27.251  1.00  0.00     0.003 A 
ENDBRANCH  91  94
ENDBRANCH  89  91
ENDBRANCH  74  77
ENDBRANCH  72  73
ENDBRANCH   1  72
TORSDOF 12
ENDMDL
