MODEL 1
REMARK VINA RESULT:     -14.1      0.000      0.000
REMARK SMILES Cc1ccnc(C(=O)c2[nH]c3cc(Cl)c(F)cc3c2CC(=O)NCCCNC(=O)c2ccc(-c3c4nc(c(-c5c(F)c(F)c(F)c(F)c5F)c5ccc([nH]5)c(-c5c(F)c(F)c(F)c(F)c5F)c5nc(c(-c6c(F)c(F)c(F)c(F)c6F)c6ccc3[nH]6)C=C5)C=C4)cc2)c1
REMARK SMILES IDX 24 1 23 2 21 3 22 4 20 6 19 7 9 8 10 9 11 10 18 12 12 13
REMARK SMILES IDX 17 14 13 15 15 16 14 17 16 18 7 19 8 20 6 21 1 22 2 23 3 24
REMARK SMILES IDX 93 25 4 26 5 27 25 28 26 29 27 30 28 31 29 33 30 34 31 35
REMARK SMILES IDX 92 36 32 37 91 38 33 39 34 40 35 41 85 42 36 43 90 44 84 45
REMARK SMILES IDX 86 46 37 47 89 48 83 49 82 50 38 52 70 53 50 54 69 55 51 56
REMARK SMILES IDX 54 57 68 58 87 59 52 60 53 61 67 63 88 64 55 65 39 66 40 67
REMARK SMILES IDX 48 68 41 69 42 70 46 71 49 72 43 73 44 74 47 75 45 76 71 77
REMARK SMILES IDX 72 78 80 79 73 80 74 81 78 82 81 83 75 84 76 85 79 86 77 87
REMARK SMILES IDX 56 88 57 89 65 90 58 91 59 92 63 93 66 94 60 95 61 96 64 97
REMARK SMILES IDX 62 98
REMARK H PARENT 23 5 10 11 27 32 86 51 54 62
REMARK Flexibility Score: inf
ROOT
ATOM      1  C   UNL A   1      35.493  23.657  24.799  1.00  0.00     0.117 C 
ENDROOT
BRANCH   1   2
ATOM      2  N   UNL A   1      34.824  24.063  23.577  1.00  0.00    -0.356 N 
ATOM      3  C   UNL A   1      33.998  25.104  23.285  1.00  0.00     0.224 C 
ATOM      4  O   UNL A   1      33.752  25.289  22.089  1.00  0.00    -0.275 OA
ATOM      5  H   UNL A   1      35.003  23.470  22.812  1.00  0.00     0.163 HD
BRANCH   3   6
ATOM      6  C   UNL A   1      33.436  26.045  24.329  1.00  0.00     0.138 C 
BRANCH   6   7
ATOM      7  C   UNL A   1      31.943  26.067  24.498  1.00  0.00    -0.002 A 
ATOM      8  C   UNL A   1      31.104  25.182  25.186  1.00  0.00     0.093 A 
ATOM      9  N   UNL A   1      29.807  25.564  24.895  1.00  0.00    -0.351 N 
ATOM     10  C   UNL A   1      29.768  26.695  24.125  1.00  0.00     0.048 A 
ATOM     11  H   UNL A   1      29.007  25.080  25.204  1.00  0.00     0.167 HD
ATOM     12  C   UNL A   1      31.085  26.999  23.798  1.00  0.00     0.007 A 
ATOM     13  C   UNL A   1      28.671  27.446  23.674  1.00  0.00     0.050 A 
ATOM     14  C   UNL A   1      31.317  28.080  22.920  1.00  0.00     0.051 A 
ATOM     15  C   UNL A   1      28.937  28.548  22.856  1.00  0.00     0.078 A 
ATOM     16  C   UNL A   1      30.239  28.849  22.475  1.00  0.00     0.142 A 
ATOM     17  Cl  UNL A   1      27.624  29.531  22.327  1.00  0.00    -0.081 Cl
ATOM     18  F   UNL A   1      30.495  29.900  21.682  1.00  0.00    -0.205 F 
BRANCH   8  19
ATOM     19  C   UNL A   1      31.298  23.967  25.980  1.00  0.00     0.227 C 
ATOM     20  O   UNL A   1      31.130  24.024  27.205  1.00  0.00    -0.285 OA
BRANCH  19  21
ATOM     21  C   UNL A   1      31.854  22.695  25.406  1.00  0.00     0.113 A 
ATOM     22  C   UNL A   1      32.036  20.757  22.140  1.00  0.00     0.044 C 
ATOM     23  C   UNL A   1      32.249  21.195  23.557  1.00  0.00    -0.047 A 
ATOM     24  C   UNL A   1      33.044  20.428  24.403  1.00  0.00     0.023 A 
ATOM     25  C   UNL A   1      31.690  22.374  24.065  1.00  0.00     0.036 A 
ATOM     26  C   UNL A   1      33.202  20.842  25.715  1.00  0.00     0.112 A 
ATOM     27  N   UNL A   1      32.627  21.948  26.234  1.00  0.00    -0.253 NA
ENDBRANCH  19  21
ENDBRANCH   8  19
ENDBRANCH   6   7
ENDBRANCH   3   6
ENDBRANCH   1   2
BRANCH   1  28
ATOM     28  C   UNL A   1      36.949  23.221  24.639  1.00  0.00     0.042 C 
BRANCH  28  29
ATOM     29  C   UNL A   1      37.785  23.113  25.907  1.00  0.00     0.118 C 
BRANCH  29  30
ATOM     30  N   UNL A   1      39.017  22.357  25.819  1.00  0.00    -0.352 N 
ATOM     31  C   UNL A   1      40.288  22.557  26.267  1.00  0.00     0.251 C 
ATOM     32  H   UNL A   1      38.914  21.511  25.326  1.00  0.00     0.163 HD
ATOM     33  O   UNL A   1      41.091  21.622  26.145  1.00  0.00    -0.269 OA
BRANCH  31  34
ATOM     34  C   UNL A   1      40.774  23.860  26.758  1.00  0.00     0.039 A 
ATOM     35  C   UNL A   1      41.659  24.022  27.821  1.00  0.00     0.014 A 
ATOM     36  C   UNL A   1      40.249  24.995  26.127  1.00  0.00     0.014 A 
ATOM     37  C   UNL A   1      41.805  25.267  28.416  1.00  0.00     0.010 A 
ATOM     38  C   UNL A   1      40.474  26.256  26.659  1.00  0.00     0.010 A 
ATOM     39  C   UNL A   1      41.156  26.376  27.872  1.00  0.00    -0.014 A 
BRANCH  39  40
ATOM     40  C   UNL A   1      41.222  27.639  28.611  1.00  0.00     0.031 A 
ATOM     41  C   UNL A   1      42.362  28.561  28.304  1.00  0.00     0.074 A 
ATOM     42  C   UNL A   1      40.241  28.025  29.451  1.00  0.00     0.049 A 
ATOM     43  N   UNL A   1      43.164  29.173  29.124  1.00  0.00    -0.248 NA
ATOM     44  C   UNL A   1      42.659  28.807  26.884  1.00  0.00     0.031 C 
ATOM     45  C   UNL A   1      38.933  27.399  29.674  1.00  0.00     0.029 A 
ATOM     46  N   UNL A   1      40.165  29.166  30.194  1.00  0.00    -0.354 N 
ATOM     47  C   UNL A   1      43.986  29.976  28.335  1.00  0.00     0.074 A 
ATOM     48  C   UNL A   1      43.676  29.663  26.961  1.00  0.00     0.031 C 
ATOM     49  C   UNL A   1      38.112  28.291  30.268  1.00  0.00     0.029 A 
ATOM     50  C   UNL A   1      38.878  29.481  30.591  1.00  0.00     0.049 A 
ATOM     51  H   UNL A   1      40.951  29.712  30.425  1.00  0.00     0.167 HD
ATOM     52  C   UNL A   1      44.795  30.952  28.831  1.00  0.00     0.037 A 
ATOM     53  C   UNL A   1      38.450  30.679  31.048  1.00  0.00     0.037 A 
ATOM     54  C   UNL A   1      45.067  30.804  30.229  1.00  0.00     0.049 A 
ATOM     55  C   UNL A   1      39.630  31.446  31.511  1.00  0.00     0.074 A 
ATOM     56  C   UNL A   1      45.725  29.865  30.996  1.00  0.00     0.029 A 
ATOM     57  N   UNL A   1      44.411  31.607  31.127  1.00  0.00    -0.354 N 
ATOM     58  N   UNL A   1      40.340  31.147  32.562  1.00  0.00    -0.248 NA
ATOM     59  C   UNL A   1      40.260  32.356  30.567  1.00  0.00     0.031 C 
ATOM     60  C   UNL A   1      45.035  29.850  32.244  1.00  0.00     0.029 A 
ATOM     61  C   UNL A   1      44.005  30.784  32.146  1.00  0.00     0.049 A 
ATOM     62  H   UNL A   1      44.262  32.578  31.055  1.00  0.00     0.167 HD
ATOM     63  C   UNL A   1      41.637  31.504  32.228  1.00  0.00     0.074 A 
ATOM     64  C   UNL A   1      41.509  32.337  31.038  1.00  0.00     0.031 C 
ATOM     65  C   UNL A   1      42.713  30.871  32.780  1.00  0.00     0.037 A 
BRANCH  52  66
ATOM     66  C   UNL A   1      45.175  32.185  28.063  1.00  0.00     0.064 A 
ATOM     67  C   UNL A   1      44.215  33.161  27.740  1.00  0.00     0.173 A 
ATOM     68  C   UNL A   1      46.425  32.308  27.420  1.00  0.00     0.173 A 
ATOM     69  F   UNL A   1      42.980  33.102  28.261  1.00  0.00    -0.203 F 
ATOM     70  C   UNL A   1      44.487  34.182  26.825  1.00  0.00     0.198 A 
ATOM     71  C   UNL A   1      46.708  33.355  26.544  1.00  0.00     0.198 A 
ATOM     72  F   UNL A   1      47.371  31.368  27.552  1.00  0.00    -0.203 F 
ATOM     73  F   UNL A   1      43.520  35.044  26.482  1.00  0.00    -0.200 F 
ATOM     74  C   UNL A   1      45.734  34.281  26.232  1.00  0.00     0.200 A 
ATOM     75  F   UNL A   1      47.914  33.421  25.961  1.00  0.00    -0.200 F 
ATOM     76  F   UNL A   1      45.984  35.239  25.329  1.00  0.00    -0.200 F 
ENDBRANCH  52  66
BRANCH  53  77
ATOM     77  C   UNL A   1      37.143  31.308  30.758  1.00  0.00     0.064 A 
ATOM     78  C   UNL A   1      36.239  31.606  31.787  1.00  0.00     0.173 A 
ATOM     79  C   UNL A   1      36.860  31.859  29.491  1.00  0.00     0.173 A 
ATOM     80  F   UNL A   1      36.470  31.166  33.033  1.00  0.00    -0.203 F 
ATOM     81  C   UNL A   1      35.119  32.410  31.562  1.00  0.00     0.198 A 
ATOM     82  C   UNL A   1      35.734  32.649  29.265  1.00  0.00     0.198 A 
ATOM     83  F   UNL A   1      37.717  31.716  28.469  1.00  0.00    -0.203 F 
ATOM     84  F   UNL A   1      34.305  32.721  32.581  1.00  0.00    -0.200 F 
ATOM     85  C   UNL A   1      34.869  32.934  30.303  1.00  0.00     0.200 A 
ATOM     86  F   UNL A   1      35.527  33.178  28.050  1.00  0.00    -0.200 F 
ATOM     87  F   UNL A   1      33.822  33.745  30.100  1.00  0.00    -0.200 F 
ENDBRANCH  53  77
BRANCH  65  88
ATOM     88  C   UNL A   1      42.465  29.953  33.942  1.00  0.00     0.064 A 
ATOM     89  C   UNL A   1      41.986  28.640  33.792  1.00  0.00     0.173 A 
ATOM     90  C   UNL A   1      42.866  30.352  35.222  1.00  0.00     0.173 A 
ATOM     91  F   UNL A   1      41.691  28.151  32.581  1.00  0.00    -0.203 F 
ATOM     92  C   UNL A   1      41.866  27.785  34.885  1.00  0.00     0.198 A 
ATOM     93  C   UNL A   1      42.779  29.484  36.308  1.00  0.00     0.198 A 
ATOM     94  F   UNL A   1      43.395  31.572  35.412  1.00  0.00    -0.203 F 
ATOM     95  F   UNL A   1      41.394  26.540  34.715  1.00  0.00    -0.200 F 
ATOM     96  C   UNL A   1      42.268  28.206  36.142  1.00  0.00     0.200 A 
ATOM     97  F   UNL A   1      43.217  29.876  37.513  1.00  0.00    -0.200 F 
ATOM     98  F   UNL A   1      42.190  27.371  37.188  1.00  0.00    -0.200 F 
ENDBRANCH  65  88
ENDBRANCH  39  40
ENDBRANCH  31  34
ENDBRANCH  29  30
ENDBRANCH  28  29
ENDBRANCH   1  28
TORSDOF 13
ENDMDL
MODEL 2
REMARK VINA RESULT:     -14.0      4.808      8.189
REMARK SMILES Cc1ccnc(C(=O)c2[nH]c3cc(Cl)c(F)cc3c2CC(=O)NCCCNC(=O)c2ccc(-c3c4nc(c(-c5c(F)c(F)c(F)c(F)c5F)c5ccc([nH]5)c(-c5c(F)c(F)c(F)c(F)c5F)c5nc(c(-c6c(F)c(F)c(F)c(F)c6F)c6ccc3[nH]6)C=C5)C=C4)cc2)c1
REMARK SMILES IDX 24 1 23 2 21 3 22 4 20 6 19 7 9 8 10 9 11 10 18 12 12 13
REMARK SMILES IDX 17 14 13 15 15 16 14 17 16 18 7 19 8 20 6 21 1 22 2 23 3 24
REMARK SMILES IDX 93 25 4 26 5 27 25 28 26 29 27 30 28 31 29 33 30 34 31 35
REMARK SMILES IDX 92 36 32 37 91 38 33 39 34 40 35 41 85 42 36 43 90 44 84 45
REMARK SMILES IDX 86 46 37 47 89 48 83 49 82 50 38 52 70 53 50 54 69 55 51 56
REMARK SMILES IDX 54 57 68 58 87 59 52 60 53 61 67 63 88 64 55 65 39 66 40 67
REMARK SMILES IDX 48 68 41 69 42 70 46 71 49 72 43 73 44 74 47 75 45 76 71 77
REMARK SMILES IDX 72 78 80 79 73 80 74 81 78 82 81 83 75 84 76 85 79 86 77 87
REMARK SMILES IDX 56 88 57 89 65 90 58 91 59 92 63 93 66 94 60 95 61 96 64 97
REMARK SMILES IDX 62 98
REMARK H PARENT 23 5 10 11 27 32 86 51 54 62
REMARK Flexibility Score: inf
ROOT
ATOM      1  C   UNL A   1      43.392  20.565  25.699  1.00  0.00     0.117 C 
ENDROOT
BRANCH   1   2
ATOM      2  N   UNL A   1      43.068  21.924  25.309  1.00  0.00    -0.356 N 
ATOM      3  C   UNL A   1      43.707  23.111  25.499  1.00  0.00     0.224 C 
ATOM      4  O   UNL A   1      43.270  24.077  24.865  1.00  0.00    -0.275 OA
ATOM      5  H   UNL A   1      42.223  22.003  24.811  1.00  0.00     0.163 HD
BRANCH   3   6
ATOM      6  C   UNL A   1      44.926  23.274  26.384  1.00  0.00     0.138 C 
BRANCH   6   7
ATOM      7  C   UNL A   1      44.984  24.500  27.250  1.00  0.00    -0.002 A 
ATOM      8  C   UNL A   1      45.347  25.813  26.924  1.00  0.00     0.093 A 
ATOM      9  N   UNL A   1      45.386  26.516  28.114  1.00  0.00    -0.351 N 
ATOM     10  C   UNL A   1      44.987  25.748  29.175  1.00  0.00     0.048 A 
ATOM     11  H   UNL A   1      45.667  27.456  28.191  1.00  0.00     0.167 HD
ATOM     12  C   UNL A   1      44.795  24.461  28.684  1.00  0.00     0.007 A 
ATOM     13  C   UNL A   1      44.813  26.089  30.525  1.00  0.00     0.050 A 
ATOM     14  C   UNL A   1      44.468  23.442  29.605  1.00  0.00     0.051 A 
ATOM     15  C   UNL A   1      44.429  25.071  31.404  1.00  0.00     0.078 A 
ATOM     16  C   UNL A   1      44.274  23.767  30.950  1.00  0.00     0.142 A 
ATOM     17  Cl  UNL A   1      44.149  25.457  33.060  1.00  0.00    -0.081 Cl
ATOM     18  F   UNL A   1      43.916  22.786  31.793  1.00  0.00    -0.205 F 
BRANCH   8  19
ATOM     19  C   UNL A   1      45.778  26.503  25.707  1.00  0.00     0.227 C 
ATOM     20  O   UNL A   1      44.917  26.997  24.967  1.00  0.00    -0.285 OA
BRANCH  19  21
ATOM     21  C   UNL A   1      47.200  26.498  25.223  1.00  0.00     0.113 A 
ATOM     22  C   UNL A   1      50.708  25.578  26.365  1.00  0.00     0.044 C 
ATOM     23  C   UNL A   1      49.543  26.002  25.524  1.00  0.00    -0.047 A 
ATOM     24  C   UNL A   1      49.748  26.372  24.199  1.00  0.00     0.023 A 
ATOM     25  C   UNL A   1      48.233  26.023  26.020  1.00  0.00     0.036 A 
ATOM     26  C   UNL A   1      48.659  26.785  23.452  1.00  0.00     0.112 A 
ATOM     27  N   UNL A   1      47.398  26.861  23.930  1.00  0.00    -0.253 NA
ENDBRANCH  19  21
ENDBRANCH   8  19
ENDBRANCH   6   7
ENDBRANCH   3   6
ENDBRANCH   1   2
BRANCH   1  28
ATOM     28  C   UNL A   1      42.308  19.830  26.488  1.00  0.00     0.042 C 
BRANCH  28  29
ATOM     29  C   UNL A   1      41.423  20.669  27.401  1.00  0.00     0.118 C 
BRANCH  29  30
ATOM     30  N   UNL A   1      40.147  21.096  26.867  1.00  0.00    -0.352 N 
ATOM     31  C   UNL A   1      39.610  22.306  26.545  1.00  0.00     0.251 C 
ATOM     32  H   UNL A   1      39.532  20.347  26.698  1.00  0.00     0.163 HD
ATOM     33  O   UNL A   1      38.519  22.309  25.959  1.00  0.00    -0.269 OA
BRANCH  31  34
ATOM     34  C   UNL A   1      40.194  23.589  26.979  1.00  0.00     0.039 A 
ATOM     35  C   UNL A   1      41.131  23.723  28.001  1.00  0.00     0.014 A 
ATOM     36  C   UNL A   1      39.713  24.738  26.338  1.00  0.00     0.014 A 
ATOM     37  C   UNL A   1      41.378  24.971  28.554  1.00  0.00     0.010 A 
ATOM     38  C   UNL A   1      40.037  25.995  26.825  1.00  0.00     0.010 A 
ATOM     39  C   UNL A   1      40.775  26.104  28.006  1.00  0.00    -0.014 A 
BRANCH  39  40
ATOM     40  C   UNL A   1      40.949  27.379  28.706  1.00  0.00     0.031 A 
ATOM     41  C   UNL A   1      42.101  28.243  28.293  1.00  0.00     0.074 A 
ATOM     42  C   UNL A   1      40.051  27.826  29.605  1.00  0.00     0.049 A 
ATOM     43  N   UNL A   1      42.986  28.837  29.036  1.00  0.00    -0.248 NA
ATOM     44  C   UNL A   1      42.301  28.444  26.848  1.00  0.00     0.031 C 
ATOM     45  C   UNL A   1      38.737  27.263  29.939  1.00  0.00     0.029 A 
ATOM     46  N   UNL A   1      40.078  28.985  30.323  1.00  0.00    -0.354 N 
ATOM     47  C   UNL A   1      43.781  29.585  28.168  1.00  0.00     0.074 A 
ATOM     48  C   UNL A   1      43.357  29.256  26.829  1.00  0.00     0.031 C 
ATOM     49  C   UNL A   1      38.001  28.203  30.568  1.00  0.00     0.029 A 
ATOM     50  C   UNL A   1      38.839  29.365  30.805  1.00  0.00     0.049 A 
ATOM     51  H   UNL A   1      40.901  29.501  30.481  1.00  0.00     0.167 HD
ATOM     52  C   UNL A   1      44.665  30.536  28.579  1.00  0.00     0.037 A 
ATOM     53  C   UNL A   1      38.497  30.591  31.261  1.00  0.00     0.037 A 
ATOM     54  C   UNL A   1      45.034  30.407  29.956  1.00  0.00     0.049 A 
ATOM     55  C   UNL A   1      39.738  31.316  31.617  1.00  0.00     0.074 A 
ATOM     56  C   UNL A   1      45.707  29.458  30.697  1.00  0.00     0.029 A 
ATOM     57  N   UNL A   1      44.480  31.257  30.879  1.00  0.00    -0.354 N 
ATOM     58  N   UNL A   1      40.511  31.009  32.621  1.00  0.00    -0.248 NA
ATOM     59  C   UNL A   1      40.335  32.176  30.607  1.00  0.00     0.031 C 
ATOM     60  C   UNL A   1      45.111  29.500  31.992  1.00  0.00     0.029 A 
ATOM     61  C   UNL A   1      44.117  30.476  31.946  1.00  0.00     0.049 A 
ATOM     62  H   UNL A   1      44.368  32.232  30.794  1.00  0.00     0.167 HD
ATOM     63  C   UNL A   1      41.794  31.301  32.183  1.00  0.00     0.074 A 
ATOM     64  C   UNL A   1      41.613  32.113  30.985  1.00  0.00     0.031 C 
ATOM     65  C   UNL A   1      42.880  30.634  32.671  1.00  0.00     0.037 A 
BRANCH  52  66
ATOM     66  C   UNL A   1      45.039  31.733  27.754  1.00  0.00     0.064 A 
ATOM     67  C   UNL A   1      46.312  31.836  27.163  1.00  0.00     0.173 A 
ATOM     68  C   UNL A   1      44.252  32.903  27.737  1.00  0.00     0.173 A 
ATOM     69  F   UNL A   1      47.155  30.793  27.173  1.00  0.00    -0.203 F 
ATOM     70  C   UNL A   1      46.766  33.035  26.606  1.00  0.00     0.198 A 
ATOM     71  C   UNL A   1      44.689  34.083  27.138  1.00  0.00     0.198 A 
ATOM     72  F   UNL A   1      43.076  32.960  28.380  1.00  0.00    -0.203 F 
ATOM     73  F   UNL A   1      48.015  33.116  26.126  1.00  0.00    -0.200 F 
ATOM     74  C   UNL A   1      45.952  34.156  26.589  1.00  0.00     0.200 A 
ATOM     75  F   UNL A   1      43.897  35.165  27.153  1.00  0.00    -0.200 F 
ATOM     76  F   UNL A   1      46.401  35.314  26.086  1.00  0.00    -0.200 F 
ENDBRANCH  52  66
BRANCH  53  77
ATOM     77  C   UNL A   1      37.199  31.270  31.052  1.00  0.00     0.064 A 
ATOM     78  C   UNL A   1      36.378  31.613  32.135  1.00  0.00     0.173 A 
ATOM     79  C   UNL A   1      36.854  31.822  29.800  1.00  0.00     0.173 A 
ATOM     80  F   UNL A   1      36.674  31.174  33.368  1.00  0.00    -0.203 F 
ATOM     81  C   UNL A   1      35.279  32.460  31.977  1.00  0.00     0.198 A 
ATOM     82  C   UNL A   1      35.749  32.655  29.641  1.00  0.00     0.198 A 
ATOM     83  F   UNL A   1      37.634  31.636  28.725  1.00  0.00    -0.203 F 
ATOM     84  F   UNL A   1      34.547  32.811  33.043  1.00  0.00    -0.200 F 
ATOM     85  C   UNL A   1      34.967  32.983  30.731  1.00  0.00     0.200 A 
ATOM     86  F   UNL A   1      35.482  33.182  28.437  1.00  0.00    -0.200 F 
ATOM     87  F   UNL A   1      33.942  33.835  30.589  1.00  0.00    -0.200 F 
ENDBRANCH  53  77
BRANCH  65  88
ATOM     88  C   UNL A   1      42.681  29.754  33.870  1.00  0.00     0.064 A 
ATOM     89  C   UNL A   1      42.135  28.461  33.790  1.00  0.00     0.173 A 
ATOM     90  C   UNL A   1      43.195  30.162  35.107  1.00  0.00     0.173 A 
ATOM     91  F   UNL A   1      41.727  27.960  32.617  1.00  0.00    -0.203 F 
ATOM     92  C   UNL A   1      42.060  27.637  34.910  1.00  0.00     0.198 A 
ATOM     93  C   UNL A   1      43.152  29.322  36.218  1.00  0.00     0.198 A 
ATOM     94  F   UNL A   1      43.790  31.360  35.226  1.00  0.00    -0.203 F 
ATOM     95  F   UNL A   1      41.522  26.412  34.807  1.00  0.00    -0.200 F 
ATOM     96  C   UNL A   1      42.574  28.066  36.122  1.00  0.00     0.200 A 
ATOM     97  F   UNL A   1      43.698  29.720  37.376  1.00  0.00    -0.200 F 
ATOM     98  F   UNL A   1      42.540  27.258  37.191  1.00  0.00    -0.200 F 
ENDBRANCH  65  88
ENDBRANCH  39  40
ENDBRANCH  31  34
ENDBRANCH  29  30
ENDBRANCH  28  29
ENDBRANCH   1  28
TORSDOF 13
ENDMDL
MODEL 3
REMARK VINA RESULT:     -14.0      3.445      8.677
REMARK SMILES Cc1ccnc(C(=O)c2[nH]c3cc(Cl)c(F)cc3c2CC(=O)NCCCNC(=O)c2ccc(-c3c4nc(c(-c5c(F)c(F)c(F)c(F)c5F)c5ccc([nH]5)c(-c5c(F)c(F)c(F)c(F)c5F)c5nc(c(-c6c(F)c(F)c(F)c(F)c6F)c6ccc3[nH]6)C=C5)C=C4)cc2)c1
REMARK SMILES IDX 24 1 23 2 21 3 22 4 20 6 19 7 9 8 10 9 11 10 18 12 12 13
REMARK SMILES IDX 17 14 13 15 15 16 14 17 16 18 7 19 8 20 6 21 1 22 2 23 3 24
REMARK SMILES IDX 93 25 4 26 5 27 25 28 26 29 27 30 28 31 29 33 30 34 31 35
REMARK SMILES IDX 92 36 32 37 91 38 33 39 34 40 35 41 85 42 36 43 90 44 84 45
REMARK SMILES IDX 86 46 37 47 89 48 83 49 82 50 38 52 70 53 50 54 69 55 51 56
REMARK SMILES IDX 54 57 68 58 87 59 52 60 53 61 67 63 88 64 55 65 39 66 40 67
REMARK SMILES IDX 48 68 41 69 42 70 46 71 49 72 43 73 44 74 47 75 45 76 71 77
REMARK SMILES IDX 72 78 80 79 73 80 74 81 78 82 81 83 75 84 76 85 79 86 77 87
REMARK SMILES IDX 56 88 57 89 65 90 58 91 59 92 63 93 66 94 60 95 61 96 64 97
REMARK SMILES IDX 62 98
REMARK H PARENT 23 5 10 11 27 32 86 51 54 62
REMARK Flexibility Score: inf
ROOT
ATOM      1  C   UNL A   1      31.756  27.707  26.192  1.00  0.00     0.117 C 
ENDROOT
BRANCH   1   2
ATOM      2  N   UNL A   1      31.260  26.421  26.644  1.00  0.00    -0.356 N 
ATOM      3  C   UNL A   1      31.749  25.157  26.529  1.00  0.00     0.224 C 
ATOM      4  O   UNL A   1      31.186  24.287  27.201  1.00  0.00    -0.275 OA
ATOM      5  H   UNL A   1      30.403  26.474  27.126  1.00  0.00     0.163 HD
BRANCH   3   6
ATOM      6  C   UNL A   1      32.952  24.798  25.681  1.00  0.00     0.138 C 
BRANCH   6   7
ATOM      7  C   UNL A   1      32.700  23.975  24.450  1.00  0.00    -0.002 A 
ATOM      8  C   UNL A   1      32.357  24.380  23.154  1.00  0.00     0.093 A 
ATOM      9  N   UNL A   1      32.085  23.227  22.441  1.00  0.00    -0.351 N 
ATOM     10  C   UNL A   1      32.314  22.100  23.185  1.00  0.00     0.048 A 
ATOM     11  H   UNL A   1      31.763  23.216  21.511  1.00  0.00     0.167 HD
ATOM     12  C   UNL A   1      32.633  22.530  24.469  1.00  0.00     0.007 A 
ATOM     13  C   UNL A   1      32.234  20.746  22.826  1.00  0.00     0.050 A 
ATOM     14  C   UNL A   1      32.824  21.550  25.467  1.00  0.00     0.051 A 
ATOM     15  C   UNL A   1      32.490  19.798  23.821  1.00  0.00     0.078 A 
ATOM     16  C   UNL A   1      32.766  20.197  25.123  1.00  0.00     0.142 A 
ATOM     17  Cl  UNL A   1      32.458  18.125  23.410  1.00  0.00    -0.081 Cl
ATOM     18  F   UNL A   1      33.001  19.289  26.082  1.00  0.00    -0.205 F 
BRANCH   8  19
ATOM     19  C   UNL A   1      32.127  25.665  22.491  1.00  0.00     0.227 C 
ATOM     20  O   UNL A   1      32.994  26.103  21.723  1.00  0.00    -0.285 OA
BRANCH  19  21
ATOM     21  C   UNL A   1      30.967  26.560  22.822  1.00  0.00     0.113 A 
ATOM     22  C   UNL A   1      29.647  30.061  22.146  1.00  0.00     0.044 C 
ATOM     23  C   UNL A   1      29.762  28.641  22.608  1.00  0.00    -0.047 A 
ATOM     24  C   UNL A   1      28.730  28.071  23.347  1.00  0.00     0.023 A 
ATOM     25  C   UNL A   1      30.874  27.846  22.304  1.00  0.00     0.036 A 
ATOM     26  C   UNL A   1      28.874  26.766  23.784  1.00  0.00     0.112 A 
ATOM     27  N   UNL A   1      29.962  26.003  23.544  1.00  0.00    -0.253 NA
ENDBRANCH  19  21
ENDBRANCH   8  19
ENDBRANCH   6   7
ENDBRANCH   3   6
ENDBRANCH   1   2
BRANCH   1  28
ATOM     28  C   UNL A   1      32.576  28.494  27.215  1.00  0.00     0.042 C 
BRANCH  28  29
ATOM     29  C   UNL A   1      33.827  29.199  26.709  1.00  0.00     0.118 C 
BRANCH  29  30
ATOM     30  N   UNL A   1      33.949  30.611  27.006  1.00  0.00    -0.352 N 
ATOM     31  C   UNL A   1      34.944  31.391  27.515  1.00  0.00     0.251 C 
ATOM     32  H   UNL A   1      33.135  31.120  26.792  1.00  0.00     0.163 HD
ATOM     33  O   UNL A   1      34.770  32.618  27.504  1.00  0.00    -0.269 OA
BRANCH  31  34
ATOM     34  C   UNL A   1      36.134  30.841  28.191  1.00  0.00     0.039 A 
ATOM     35  C   UNL A   1      37.103  31.610  28.830  1.00  0.00     0.014 A 
ATOM     36  C   UNL A   1      36.301  29.453  28.119  1.00  0.00     0.014 A 
ATOM     37  C   UNL A   1      38.332  31.051  29.148  1.00  0.00     0.010 A 
ATOM     38  C   UNL A   1      37.492  28.872  28.528  1.00  0.00     0.010 A 
ATOM     39  C   UNL A   1      38.550  29.689  28.933  1.00  0.00    -0.014 A 
BRANCH  39  40
ATOM     40  C   UNL A   1      39.902  29.170  29.148  1.00  0.00     0.031 A 
ATOM     41  C   UNL A   1      40.334  28.927  30.562  1.00  0.00     0.074 A 
ATOM     42  C   UNL A   1      40.698  28.807  28.122  1.00  0.00     0.049 A 
ATOM     43  N   UNL A   1      41.435  29.283  31.154  1.00  0.00    -0.248 NA
ATOM     44  C   UNL A   1      39.389  28.213  31.436  1.00  0.00     0.031 C 
ATOM     45  C   UNL A   1      40.360  28.712  26.697  1.00  0.00     0.029 A 
ATOM     46  N   UNL A   1      41.965  28.307  28.170  1.00  0.00    -0.354 N 
ATOM     47  C   UNL A   1      41.380  28.735  32.435  1.00  0.00     0.074 A 
ATOM     48  C   UNL A   1      40.072  28.142  32.577  1.00  0.00     0.031 C 
ATOM     49  C   UNL A   1      41.282  27.947  26.076  1.00  0.00     0.029 A 
ATOM     50  C   UNL A   1      42.335  27.629  27.023  1.00  0.00     0.049 A 
ATOM     51  H   UNL A   1      42.559  28.418  28.948  1.00  0.00     0.167 HD
ATOM     52  C   UNL A   1      42.445  28.676  33.281  1.00  0.00     0.037 A 
ATOM     53  C   UNL A   1      43.374  26.773  26.897  1.00  0.00     0.037 A 
ATOM     54  C   UNL A   1      43.490  29.592  32.939  1.00  0.00     0.049 A 
ATOM     55  C   UNL A   1      44.326  27.034  28.001  1.00  0.00     0.074 A 
ATOM     56  C   UNL A   1      43.600  30.967  32.893  1.00  0.00     0.029 A 
ATOM     57  N   UNL A   1      44.616  29.121  32.314  1.00  0.00    -0.354 N 
ATOM     58  N   UNL A   1      45.051  28.111  28.114  1.00  0.00    -0.248 NA
ATOM     59  C   UNL A   1      44.193  26.239  29.212  1.00  0.00     0.031 C 
ATOM     60  C   UNL A   1      44.506  31.235  31.825  1.00  0.00     0.029 A 
ATOM     61  C   UNL A   1      44.884  30.002  31.297  1.00  0.00     0.049 A 
ATOM     62  H   UNL A   1      45.129  28.313  32.547  1.00  0.00     0.167 HD
ATOM     63  C   UNL A   1      45.136  28.341  29.478  1.00  0.00     0.074 A 
ATOM     64  C   UNL A   1      44.684  27.103  30.103  1.00  0.00     0.031 C 
ATOM     65  C   UNL A   1      45.304  29.600  29.978  1.00  0.00     0.037 A 
BRANCH  52  66
ATOM     66  C   UNL A   1      42.620  27.608  34.322  1.00  0.00     0.064 A 
ATOM     67  C   UNL A   1      43.281  26.403  34.018  1.00  0.00     0.173 A 
ATOM     68  C   UNL A   1      41.929  27.643  35.551  1.00  0.00     0.173 A 
ATOM     69  F   UNL A   1      43.923  26.253  32.851  1.00  0.00    -0.203 F 
ATOM     70  C   UNL A   1      43.239  25.307  34.885  1.00  0.00     0.198 A 
ATOM     71  C   UNL A   1      41.930  26.565  36.434  1.00  0.00     0.198 A 
ATOM     72  F   UNL A   1      41.162  28.690  35.888  1.00  0.00    -0.203 F 
ATOM     73  F   UNL A   1      43.812  24.150  34.523  1.00  0.00    -0.200 F 
ATOM     74  C   UNL A   1      42.569  25.390  36.094  1.00  0.00     0.200 A 
ATOM     75  F   UNL A   1      41.255  26.655  37.589  1.00  0.00    -0.200 F 
ATOM     76  F   UNL A   1      42.500  24.328  36.907  1.00  0.00    -0.200 F 
ENDBRANCH  52  66
BRANCH  53  77
ATOM     77  C   UNL A   1      43.388  25.528  26.098  1.00  0.00     0.064 A 
ATOM     78  C   UNL A   1      44.462  25.224  25.249  1.00  0.00     0.173 A 
ATOM     79  C   UNL A   1      42.463  24.491  26.341  1.00  0.00     0.173 A 
ATOM     80  F   UNL A   1      45.413  26.140  25.015  1.00  0.00    -0.203 F 
ATOM     81  C   UNL A   1      44.604  23.956  24.681  1.00  0.00     0.198 A 
ATOM     82  C   UNL A   1      42.598  23.231  25.762  1.00  0.00     0.198 A 
ATOM     83  F   UNL A   1      41.461  24.652  27.218  1.00  0.00    -0.203 F 
ATOM     84  F   UNL A   1      45.671  23.682  23.919  1.00  0.00    -0.200 F 
ATOM     85  C   UNL A   1      43.675  22.960  24.940  1.00  0.00     0.200 A 
ATOM     86  F   UNL A   1      41.712  22.268  26.052  1.00  0.00    -0.200 F 
ATOM     87  F   UNL A   1      43.839  21.730  24.434  1.00  0.00    -0.200 F 
ENDBRANCH  53  77
BRANCH  65  88
ATOM     88  C   UNL A   1      45.644  30.697  29.011  1.00  0.00     0.064 A 
ATOM     89  C   UNL A   1      46.964  31.023  28.655  1.00  0.00     0.173 A 
ATOM     90  C   UNL A   1      44.611  31.330  28.310  1.00  0.00     0.173 A 
ATOM     91  F   UNL A   1      48.002  30.377  29.202  1.00  0.00    -0.203 F 
ATOM     92  C   UNL A   1      47.235  31.978  27.678  1.00  0.00     0.198 A 
ATOM     93  C   UNL A   1      44.884  32.259  27.308  1.00  0.00     0.198 A 
ATOM     94  F   UNL A   1      43.331  31.007  28.560  1.00  0.00    -0.203 F 
ATOM     95  F   UNL A   1      48.505  32.279  27.367  1.00  0.00    -0.200 F 
ATOM     96  C   UNL A   1      46.194  32.591  27.001  1.00  0.00     0.200 A 
ATOM     97  F   UNL A   1      43.876  32.812  26.619  1.00  0.00    -0.200 F 
ATOM     98  F   UNL A   1      46.453  33.482  26.034  1.00  0.00    -0.200 F 
ENDBRANCH  65  88
ENDBRANCH  39  40
ENDBRANCH  31  34
ENDBRANCH  29  30
ENDBRANCH  28  29
ENDBRANCH   1  28
TORSDOF 13
ENDMDL
