MODEL 1
REMARK VINA RESULT:     -10.7      0.000      0.000
REMARK SMILES Cc1cc2occ(CC(=O)NCCC(=O)NCCCNC(=O)c3ccc(-c4c5nc(c(-c6c(F)c(F)c(F)c(F)c6F)c6ccc([nH]6)c(-c6c(F)c(F)c(F)c(F)c6F)c6nc(c(-c7c(F)c(F)c(F)c(F)c7F)c7ccc4[nH]7)C=C6)C=C5)cc3)c2cc1C
REMARK SMILES IDX 17 1 16 2 14 3 15 4 13 6 12 7 11 8 9 9 10 10 8 12 7 13 1 14
REMARK SMILES IDX 2 15 3 16 88 17 4 18 87 19 89 20 5 21 86 22 6 23 18 24 19 25
REMARK SMILES IDX 20 26 21 27 22 29 23 30 24 31 85 32 25 33 84 34 26 35 27 36
REMARK SMILES IDX 28 37 78 38 29 39 83 40 77 41 79 42 30 43 82 44 76 45 75 46
REMARK SMILES IDX 31 48 63 49 43 50 62 51 44 52 47 53 61 54 80 55 45 56 46 57
REMARK SMILES IDX 60 59 81 60 48 61 32 62 33 63 41 64 34 65 35 66 39 67 42 68
REMARK SMILES IDX 36 69 37 70 40 71 38 72 64 73 65 74 73 75 66 76 67 77 71 78
REMARK SMILES IDX 74 79 68 80 69 81 72 82 70 83 49 84 50 85 58 86 51 87 52 88
REMARK SMILES IDX 56 89 59 90 53 91 54 92 57 93 55 94
REMARK H PARENT 16 5 11 11 20 28 79 47 47 58
REMARK Flexibility Score: inf
ROOT
ATOM      1  C   UNL A   1      42.454  20.959  25.790  1.00  0.00     0.117 C 
ENDROOT
BRANCH   1   2
ATOM      2  N   UNL A   1      43.026  19.664  26.135  1.00  0.00    -0.356 N 
ATOM      3  C   UNL A   1      44.034  18.957  25.555  1.00  0.00     0.221 C 
ATOM      4  O   UNL A   1      44.277  17.828  25.986  1.00  0.00    -0.275 OA
ATOM      5  H   UNL A   1      42.616  19.228  26.917  1.00  0.00     0.163 HD
BRANCH   3   6
ATOM      6  C   UNL A   1      44.827  19.531  24.403  1.00  0.00     0.121 C 
BRANCH   6   7
ATOM      7  C   UNL A   1      46.168  20.095  24.862  1.00  0.00     0.125 C 
BRANCH   7   8
ATOM      8  N   UNL A   1      46.443  21.399  24.285  1.00  0.00    -0.355 N 
ATOM      9  C   UNL A   1      46.062  22.643  24.689  1.00  0.00     0.224 C 
ATOM     10  O   UNL A   1      46.176  23.568  23.879  1.00  0.00    -0.275 OA
ATOM     11  H   UNL A   1      46.995  21.381  23.469  1.00  0.00     0.163 HD
BRANCH   9  12
ATOM     12  C   UNL A   1      45.636  22.910  26.120  1.00  0.00     0.139 C 
BRANCH  12  13
ATOM     13  C   UNL A   1      46.037  24.225  26.688  1.00  0.00     0.008 A 
ATOM     14  C   UNL A   1      44.566  29.749  26.761  1.00  0.00     0.045 C 
ATOM     15  C   UNL A   1      44.829  28.269  26.674  1.00  0.00    -0.044 A 
ATOM     16  C   UNL A   1      45.953  27.762  27.349  1.00  0.00     0.051 A 
ATOM     17  C   UNL A   1      43.998  27.402  25.928  1.00  0.00    -0.047 A 
ATOM     18  C   UNL A   1      46.205  26.399  27.242  1.00  0.00     0.134 A 
ATOM     19  C   UNL A   1      44.288  26.016  25.862  1.00  0.00     0.016 A 
ATOM     20  C   UNL A   1      42.795  27.892  25.164  1.00  0.00     0.044 C 
ATOM     21  O   UNL A   1      47.259  25.758  27.811  1.00  0.00    -0.464 OA
ATOM     22  C   UNL A   1      45.418  25.505  26.529  1.00  0.00     0.024 A 
ATOM     23  C   UNL A   1      47.168  24.457  27.451  1.00  0.00     0.200 A 
ENDBRANCH  12  13
ENDBRANCH   9  12
ENDBRANCH   7   8
ENDBRANCH   6   7
ENDBRANCH   3   6
ENDBRANCH   1   2
BRANCH   1  24
ATOM     24  C   UNL A   1      42.165  21.799  27.031  1.00  0.00     0.042 C 
BRANCH  24  25
ATOM     25  C   UNL A   1      40.752  21.650  27.579  1.00  0.00     0.118 C 
BRANCH  25  26
ATOM     26  N   UNL A   1      39.734  21.985  26.598  1.00  0.00    -0.352 N 
ATOM     27  C   UNL A   1      39.052  23.158  26.398  1.00  0.00     0.251 C 
ATOM     28  H   UNL A   1      39.496  21.256  25.980  1.00  0.00     0.163 HD
ATOM     29  O   UNL A   1      38.081  23.166  25.637  1.00  0.00    -0.269 OA
BRANCH  27  30
ATOM     30  C   UNL A   1      39.442  24.412  27.086  1.00  0.00     0.039 A 
ATOM     31  C   UNL A   1      38.975  24.638  28.386  1.00  0.00     0.014 A 
ATOM     32  C   UNL A   1      40.207  25.393  26.452  1.00  0.00     0.014 A 
ATOM     33  C   UNL A   1      39.318  25.813  29.062  1.00  0.00     0.010 A 
ATOM     34  C   UNL A   1      40.620  26.526  27.155  1.00  0.00     0.010 A 
ATOM     35  C   UNL A   1      40.168  26.757  28.463  1.00  0.00    -0.014 A 
BRANCH  35  36
ATOM     36  C   UNL A   1      40.570  28.000  29.175  1.00  0.00     0.031 A 
ATOM     37  C   UNL A   1      41.963  28.139  29.730  1.00  0.00     0.074 A 
ATOM     38  C   UNL A   1      39.670  28.981  29.376  1.00  0.00     0.049 A 
ATOM     39  N   UNL A   1      42.479  29.105  30.448  1.00  0.00    -0.248 NA
ATOM     40  C   UNL A   1      42.891  27.028  29.468  1.00  0.00     0.031 C 
ATOM     41  C   UNL A   1      38.277  28.956  28.931  1.00  0.00     0.029 A 
ATOM     42  N   UNL A   1      39.791  30.190  30.017  1.00  0.00    -0.354 N 
ATOM     43  C   UNL A   1      43.776  28.708  30.743  1.00  0.00     0.074 A 
ATOM     44  C   UNL A   1      43.956  27.393  30.166  1.00  0.00     0.031 C 
ATOM     45  C   UNL A   1      37.679  30.102  29.293  1.00  0.00     0.029 A 
ATOM     46  C   UNL A   1      38.633  30.928  30.026  1.00  0.00     0.049 A 
ATOM     47  H   UNL A   1      40.630  30.498  30.432  1.00  0.00     0.167 HD
ATOM     48  C   UNL A   1      44.740  29.387  31.412  1.00  0.00     0.037 A 
ATOM     49  C   UNL A   1      38.369  32.131  30.571  1.00  0.00     0.037 A 
ATOM     50  C   UNL A   1      44.577  30.711  31.948  1.00  0.00     0.049 A 
ATOM     51  C   UNL A   1      39.459  32.872  31.294  1.00  0.00     0.074 A 
ATOM     52  C   UNL A   1      45.514  31.508  32.582  1.00  0.00     0.029 A 
ATOM     53  N   UNL A   1      43.395  31.437  31.912  1.00  0.00    -0.354 N 
ATOM     54  N   UNL A   1      40.699  32.511  31.514  1.00  0.00    -0.248 NA
ATOM     55  C   UNL A   1      39.113  34.191  31.842  1.00  0.00     0.031 C 
ATOM     56  C   UNL A   1      44.891  32.702  32.962  1.00  0.00     0.029 A 
ATOM     57  C   UNL A   1      43.576  32.665  32.527  1.00  0.00     0.049 A 
ATOM     58  H   UNL A   1      42.553  31.125  31.509  1.00  0.00     0.167 HD
ATOM     59  C   UNL A   1      41.288  33.565  32.200  1.00  0.00     0.074 A 
ATOM     60  C   UNL A   1      40.273  34.586  32.350  1.00  0.00     0.031 C 
ATOM     61  C   UNL A   1      42.558  33.675  32.662  1.00  0.00     0.037 A 
BRANCH  48  62
ATOM     62  C   UNL A   1      46.065  28.704  31.598  1.00  0.00     0.064 A 
ATOM     63  C   UNL A   1      47.139  28.933  30.725  1.00  0.00     0.173 A 
ATOM     64  C   UNL A   1      46.272  27.836  32.680  1.00  0.00     0.173 A 
ATOM     65  F   UNL A   1      46.990  29.747  29.669  1.00  0.00    -0.203 F 
ATOM     66  C   UNL A   1      48.361  28.292  30.909  1.00  0.00     0.198 A 
ATOM     67  C   UNL A   1      47.505  27.219  32.877  1.00  0.00     0.198 A 
ATOM     68  F   UNL A   1      45.281  27.588  33.549  1.00  0.00    -0.203 F 
ATOM     69  F   UNL A   1      49.356  28.485  30.033  1.00  0.00    -0.200 F 
ATOM     70  C   UNL A   1      48.545  27.440  31.988  1.00  0.00     0.200 A 
ATOM     71  F   UNL A   1      47.685  26.406  33.929  1.00  0.00    -0.200 F 
ATOM     72  F   UNL A   1      49.724  26.827  32.167  1.00  0.00    -0.200 F 
ENDBRANCH  48  62
BRANCH  49  73
ATOM     73  C   UNL A   1      37.015  32.725  30.423  1.00  0.00     0.064 A 
ATOM     74  C   UNL A   1      36.668  33.441  29.269  1.00  0.00     0.173 A 
ATOM     75  C   UNL A   1      36.042  32.585  31.423  1.00  0.00     0.173 A 
ATOM     76  F   UNL A   1      37.573  33.621  28.296  1.00  0.00    -0.203 F 
ATOM     77  C   UNL A   1      35.404  34.008  29.127  1.00  0.00     0.198 A 
ATOM     78  C   UNL A   1      34.770  33.130  31.269  1.00  0.00     0.198 A 
ATOM     79  F   UNL A   1      36.325  31.907  32.545  1.00  0.00    -0.203 F 
ATOM     80  F   UNL A   1      35.111  34.722  28.032  1.00  0.00    -0.200 F 
ATOM     81  C   UNL A   1      34.453  33.846  30.125  1.00  0.00     0.200 A 
ATOM     82  F   UNL A   1      33.850  32.964  32.229  1.00  0.00    -0.200 F 
ATOM     83  F   UNL A   1      33.236  34.388  29.985  1.00  0.00    -0.200 F 
ENDBRANCH  49  73
BRANCH  61  84
ATOM     84  C   UNL A   1      42.932  34.958  33.346  1.00  0.00     0.064 A 
ATOM     85  C   UNL A   1      42.863  35.094  34.740  1.00  0.00     0.173 A 
ATOM     86  C   UNL A   1      43.407  36.047  32.600  1.00  0.00     0.173 A 
ATOM     87  F   UNL A   1      42.402  34.085  35.495  1.00  0.00    -0.203 F 
ATOM     88  C   UNL A   1      43.236  36.283  35.361  1.00  0.00     0.198 A 
ATOM     89  C   UNL A   1      43.804  37.225  33.226  1.00  0.00     0.198 A 
ATOM     90  F   UNL A   1      43.496  35.964  31.264  1.00  0.00    -0.203 F 
ATOM     91  F   UNL A   1      43.125  36.407  36.691  1.00  0.00    -0.200 F 
ATOM     92  C   UNL A   1      43.713  37.345  34.604  1.00  0.00     0.200 A 
ATOM     93  F   UNL A   1      44.274  38.245  32.495  1.00  0.00    -0.200 F 
ATOM     94  F   UNL A   1      44.078  38.485  35.205  1.00  0.00    -0.200 F 
ENDBRANCH  61  84
ENDBRANCH  35  36
ENDBRANCH  27  30
ENDBRANCH  25  26
ENDBRANCH  24  25
ENDBRANCH   1  24
TORSDOF 14
ENDMDL
MODEL 2
REMARK VINA RESULT:     -10.7      4.452     11.463
REMARK SMILES Cc1cc2occ(CC(=O)NCCC(=O)NCCCNC(=O)c3ccc(-c4c5nc(c(-c6c(F)c(F)c(F)c(F)c6F)c6ccc([nH]6)c(-c6c(F)c(F)c(F)c(F)c6F)c6nc(c(-c7c(F)c(F)c(F)c(F)c7F)c7ccc4[nH]7)C=C6)C=C5)cc3)c2cc1C
REMARK SMILES IDX 17 1 16 2 14 3 15 4 13 6 12 7 11 8 9 9 10 10 8 12 7 13 1 14
REMARK SMILES IDX 2 15 3 16 88 17 4 18 87 19 89 20 5 21 86 22 6 23 18 24 19 25
REMARK SMILES IDX 20 26 21 27 22 29 23 30 24 31 85 32 25 33 84 34 26 35 27 36
REMARK SMILES IDX 28 37 78 38 29 39 83 40 77 41 79 42 30 43 82 44 76 45 75 46
REMARK SMILES IDX 31 48 63 49 43 50 62 51 44 52 47 53 61 54 80 55 45 56 46 57
REMARK SMILES IDX 60 59 81 60 48 61 32 62 33 63 41 64 34 65 35 66 39 67 42 68
REMARK SMILES IDX 36 69 37 70 40 71 38 72 64 73 65 74 73 75 66 76 67 77 71 78
REMARK SMILES IDX 74 79 68 80 69 81 72 82 70 83 49 84 50 85 58 86 51 87 52 88
REMARK SMILES IDX 56 89 59 90 53 91 54 92 57 93 55 94
REMARK H PARENT 16 5 11 11 20 28 79 47 47 58
REMARK Flexibility Score: inf
ROOT
ATOM      1  C   UNL A   1      33.631  35.234  29.345  1.00  0.00     0.117 C 
ENDROOT
BRANCH   1   2
ATOM      2  N   UNL A   1      32.545  35.450  30.292  1.00  0.00    -0.356 N 
ATOM      3  C   UNL A   1      32.529  36.093  31.491  1.00  0.00     0.221 C 
ATOM      4  O   UNL A   1      31.491  36.061  32.155  1.00  0.00    -0.275 OA
ATOM      5  H   UNL A   1      31.680  35.067  30.019  1.00  0.00     0.163 HD
BRANCH   3   6
ATOM      6  C   UNL A   1      33.754  36.813  32.007  1.00  0.00     0.121 C 
BRANCH   6   7
ATOM      7  C   UNL A   1      34.373  36.095  33.202  1.00  0.00     0.125 C 
BRANCH   7   8
ATOM      8  N   UNL A   1      34.283  34.651  33.084  1.00  0.00    -0.355 N 
ATOM      9  C   UNL A   1      35.104  33.673  33.560  1.00  0.00     0.224 C 
ATOM     10  O   UNL A   1      34.977  32.539  33.087  1.00  0.00    -0.275 OA
ATOM     11  H   UNL A   1      33.503  34.325  32.579  1.00  0.00     0.163 HD
BRANCH   9  12
ATOM     12  C   UNL A   1      36.050  33.932  34.717  1.00  0.00     0.139 C 
BRANCH  12  13
ATOM     13  C   UNL A   1      37.468  34.204  34.355  1.00  0.00     0.008 A 
ATOM     14  C   UNL A   1      41.024  34.420  29.884  1.00  0.00     0.045 C 
ATOM     15  C   UNL A   1      39.979  34.350  30.967  1.00  0.00    -0.044 A 
ATOM     16  C   UNL A   1      40.391  34.580  32.291  1.00  0.00     0.051 A 
ATOM     17  C   UNL A   1      38.628  34.045  30.687  1.00  0.00    -0.047 A 
ATOM     18  C   UNL A   1      39.428  34.487  33.289  1.00  0.00     0.134 A 
ATOM     19  C   UNL A   1      37.678  33.977  31.737  1.00  0.00     0.016 A 
ATOM     20  C   UNL A   1      38.133  33.765  29.291  1.00  0.00     0.044 C 
ATOM     21  O   UNL A   1      39.665  34.656  34.615  1.00  0.00    -0.464 OA
ATOM     22  C   UNL A   1      38.088  34.197  33.066  1.00  0.00     0.024 A 
ATOM     23  C   UNL A   1      38.489  34.457  35.253  1.00  0.00     0.200 A 
ENDBRANCH  12  13
ENDBRANCH   9  12
ENDBRANCH   7   8
ENDBRANCH   6   7
ENDBRANCH   3   6
ENDBRANCH   1   2
BRANCH   1  24
ATOM     24  C   UNL A   1      34.331  33.897  29.580  1.00  0.00     0.042 C 
BRANCH  24  25
ATOM     25  C   UNL A   1      34.936  33.273  28.330  1.00  0.00     0.118 C 
BRANCH  25  26
ATOM     26  N   UNL A   1      34.185  32.120  27.862  1.00  0.00    -0.352 N 
ATOM     27  C   UNL A   1      34.573  30.812  27.723  1.00  0.00     0.251 C 
ATOM     28  H   UNL A   1      33.253  32.307  27.606  1.00  0.00     0.163 HD
ATOM     29  O   UNL A   1      33.837  30.029  27.115  1.00  0.00    -0.269 OA
BRANCH  27  30
ATOM     30  C   UNL A   1      35.859  30.319  28.270  1.00  0.00     0.039 A 
ATOM     31  C   UNL A   1      35.863  29.701  29.525  1.00  0.00     0.014 A 
ATOM     32  C   UNL A   1      37.068  30.508  27.595  1.00  0.00     0.014 A 
ATOM     33  C   UNL A   1      37.061  29.231  30.074  1.00  0.00     0.010 A 
ATOM     34  C   UNL A   1      38.249  29.965  28.102  1.00  0.00     0.010 A 
ATOM     35  C   UNL A   1      38.262  29.332  29.354  1.00  0.00    -0.014 A 
BRANCH  35  36
ATOM     36  C   UNL A   1      39.542  28.812  29.906  1.00  0.00     0.031 A 
ATOM     37  C   UNL A   1      40.196  29.495  31.078  1.00  0.00     0.074 A 
ATOM     38  C   UNL A   1      40.149  27.762  29.321  1.00  0.00     0.049 A 
ATOM     39  N   UNL A   1      41.347  29.244  31.649  1.00  0.00    -0.248 NA
ATOM     40  C   UNL A   1      39.472  30.632  31.667  1.00  0.00     0.031 C 
ATOM     41  C   UNL A   1      39.648  27.036  28.153  1.00  0.00     0.029 A 
ATOM     42  N   UNL A   1      41.330  27.128  29.623  1.00  0.00    -0.354 N 
ATOM     43  C   UNL A   1      41.495  30.203  32.642  1.00  0.00     0.074 A 
ATOM     44  C   UNL A   1      40.339  31.070  32.567  1.00  0.00     0.031 C 
ATOM     45  C   UNL A   1      40.501  26.045  27.852  1.00  0.00     0.029 A 
ATOM     46  C   UNL A   1      41.628  26.086  28.780  1.00  0.00     0.049 A 
ATOM     47  H   UNL A   1      41.908  27.395  30.374  1.00  0.00     0.167 HD
ATOM     48  C   UNL A   1      42.492  30.337  33.551  1.00  0.00     0.037 A 
ATOM     49  C   UNL A   1      42.692  25.261  28.753  1.00  0.00     0.037 A 
ATOM     50  C   UNL A   1      43.620  29.451  33.655  1.00  0.00     0.049 A 
ATOM     51  C   UNL A   1      43.777  25.419  29.782  1.00  0.00     0.074 A 
ATOM     52  C   UNL A   1      44.645  29.463  34.585  1.00  0.00     0.029 A 
ATOM     53  N   UNL A   1      43.871  28.389  32.798  1.00  0.00    -0.354 N 
ATOM     54  N   UNL A   1      43.876  26.293  30.753  1.00  0.00    -0.248 NA
ATOM     55  C   UNL A   1      44.899  24.471  29.713  1.00  0.00     0.031 C 
ATOM     56  C   UNL A   1      45.537  28.432  34.269  1.00  0.00     0.029 A 
ATOM     57  C   UNL A   1      45.044  27.751  33.168  1.00  0.00     0.049 A 
ATOM     58  H   UNL A   1      43.301  28.129  32.039  1.00  0.00     0.167 HD
ATOM     59  C   UNL A   1      45.050  25.986  31.426  1.00  0.00     0.074 A 
ATOM     60  C   UNL A   1      45.626  24.837  30.760  1.00  0.00     0.031 C 
ATOM     61  C   UNL A   1      45.601  26.602  32.500  1.00  0.00     0.037 A 
BRANCH  48  62
ATOM     62  C   UNL A   1      42.402  31.487  34.513  1.00  0.00     0.064 A 
ATOM     63  C   UNL A   1      41.732  31.369  35.740  1.00  0.00     0.173 A 
ATOM     64  C   UNL A   1      43.020  32.711  34.218  1.00  0.00     0.173 A 
ATOM     65  F   UNL A   1      41.115  30.223  36.065  1.00  0.00    -0.203 F 
ATOM     66  C   UNL A   1      41.655  32.445  36.620  1.00  0.00     0.198 A 
ATOM     67  C   UNL A   1      42.966  33.776  35.115  1.00  0.00     0.198 A 
ATOM     68  F   UNL A   1      43.681  32.875  33.062  1.00  0.00    -0.203 F 
ATOM     69  F   UNL A   1      40.965  32.325  37.763  1.00  0.00    -0.200 F 
ATOM     70  C   UNL A   1      42.277  33.645  36.311  1.00  0.00     0.200 A 
ATOM     71  F   UNL A   1      43.580  34.931  34.819  1.00  0.00    -0.200 F 
ATOM     72  F   UNL A   1      42.206  34.678  37.161  1.00  0.00    -0.200 F 
ENDBRANCH  48  62
BRANCH  49  73
ATOM     73  C   UNL A   1      42.767  24.189  27.727  1.00  0.00     0.064 A 
ATOM     74  C   UNL A   1      42.337  22.887  28.019  1.00  0.00     0.173 A 
ATOM     75  C   UNL A   1      43.262  24.440  26.440  1.00  0.00     0.173 A 
ATOM     76  F   UNL A   1      41.878  22.592  29.245  1.00  0.00    -0.203 F 
ATOM     77  C   UNL A   1      42.412  21.873  27.067  1.00  0.00     0.198 A 
ATOM     78  C   UNL A   1      43.312  23.432  25.480  1.00  0.00     0.198 A 
ATOM     79  F   UNL A   1      43.684  25.670  26.111  1.00  0.00    -0.203 F 
ATOM     80  F   UNL A   1      42.031  20.629  27.384  1.00  0.00    -0.200 F 
ATOM     81  C   UNL A   1      42.893  22.149  25.795  1.00  0.00     0.200 A 
ATOM     82  F   UNL A   1      43.768  23.703  24.249  1.00  0.00    -0.200 F 
ATOM     83  F   UNL A   1      42.961  21.175  24.878  1.00  0.00    -0.200 F 
ENDBRANCH  49  73
BRANCH  61  84
ATOM     84  C   UNL A   1      46.875  26.027  33.046  1.00  0.00     0.064 A 
ATOM     85  C   UNL A   1      46.868  24.981  33.981  1.00  0.00     0.173 A 
ATOM     86  C   UNL A   1      48.117  26.497  32.594  1.00  0.00     0.173 A 
ATOM     87  F   UNL A   1      45.705  24.507  34.454  1.00  0.00    -0.203 F 
ATOM     88  C   UNL A   1      48.059  24.443  34.460  1.00  0.00     0.198 A 
ATOM     89  C   UNL A   1      49.305  25.939  33.055  1.00  0.00     0.198 A 
ATOM     90  F   UNL A   1      48.176  27.492  31.696  1.00  0.00    -0.203 F 
ATOM     91  F   UNL A   1      48.031  23.473  35.383  1.00  0.00    -0.200 F 
ATOM     92  C   UNL A   1      49.276  24.917  33.991  1.00  0.00     0.200 A 
ATOM     93  F   UNL A   1      50.480  26.390  32.592  1.00  0.00    -0.200 F 
ATOM     94  F   UNL A   1      50.421  24.392  34.448  1.00  0.00    -0.200 F 
ENDBRANCH  61  84
ENDBRANCH  35  36
ENDBRANCH  27  30
ENDBRANCH  25  26
ENDBRANCH  24  25
ENDBRANCH   1  24
TORSDOF 14
ENDMDL
MODEL 3
REMARK VINA RESULT:     -10.7      4.285     11.231
REMARK SMILES Cc1cc2occ(CC(=O)NCCC(=O)NCCCNC(=O)c3ccc(-c4c5nc(c(-c6c(F)c(F)c(F)c(F)c6F)c6ccc([nH]6)c(-c6c(F)c(F)c(F)c(F)c6F)c6nc(c(-c7c(F)c(F)c(F)c(F)c7F)c7ccc4[nH]7)C=C6)C=C5)cc3)c2cc1C
REMARK SMILES IDX 17 1 16 2 14 3 15 4 13 6 12 7 11 8 9 9 10 10 8 12 7 13 1 14
REMARK SMILES IDX 2 15 3 16 88 17 4 18 87 19 89 20 5 21 86 22 6 23 18 24 19 25
REMARK SMILES IDX 20 26 21 27 22 29 23 30 24 31 85 32 25 33 84 34 26 35 27 36
REMARK SMILES IDX 28 37 78 38 29 39 83 40 77 41 79 42 30 43 82 44 76 45 75 46
REMARK SMILES IDX 31 48 63 49 43 50 62 51 44 52 47 53 61 54 80 55 45 56 46 57
REMARK SMILES IDX 60 59 81 60 48 61 32 62 33 63 41 64 34 65 35 66 39 67 42 68
REMARK SMILES IDX 36 69 37 70 40 71 38 72 64 73 65 74 73 75 66 76 67 77 71 78
REMARK SMILES IDX 74 79 68 80 69 81 72 82 70 83 49 84 50 85 58 86 51 87 52 88
REMARK SMILES IDX 56 89 59 90 53 91 54 92 57 93 55 94
REMARK H PARENT 16 5 11 11 20 28 79 47 47 58
REMARK Flexibility Score: inf
ROOT
ATOM      1  C   UNL A   1      32.892  34.500  28.745  1.00  0.00     0.117 C 
ENDROOT
BRANCH   1   2
ATOM      2  N   UNL A   1      32.925  35.874  29.229  1.00  0.00    -0.356 N 
ATOM      3  C   UNL A   1      32.976  36.366  30.496  1.00  0.00     0.221 C 
ATOM      4  O   UNL A   1      32.904  37.587  30.650  1.00  0.00    -0.275 OA
ATOM      5  H   UNL A   1      32.909  36.559  28.522  1.00  0.00     0.163 HD
BRANCH   3   6
ATOM      6  C   UNL A   1      33.100  35.444  31.688  1.00  0.00     0.121 C 
BRANCH   6   7
ATOM      7  C   UNL A   1      34.531  34.948  31.874  1.00  0.00     0.125 C 
BRANCH   7   8
ATOM      8  N   UNL A   1      34.890  34.815  33.274  1.00  0.00    -0.355 N 
ATOM      9  C   UNL A   1      35.345  33.736  33.971  1.00  0.00     0.224 C 
ATOM     10  O   UNL A   1      35.305  33.794  35.204  1.00  0.00    -0.275 OA
ATOM     11  H   UNL A   1      34.789  35.637  33.807  1.00  0.00     0.163 HD
BRANCH   9  12
ATOM     12  C   UNL A   1      35.997  32.562  33.268  1.00  0.00     0.139 C 
BRANCH  12  13
ATOM     13  C   UNL A   1      37.423  32.304  33.608  1.00  0.00     0.008 A 
ATOM     14  C   UNL A   1      41.399  28.196  33.576  1.00  0.00     0.045 C 
ATOM     15  C   UNL A   1      40.267  29.188  33.509  1.00  0.00    -0.044 A 
ATOM     16  C   UNL A   1      40.505  30.487  33.990  1.00  0.00     0.051 A 
ATOM     17  C   UNL A   1      38.995  28.841  33.002  1.00  0.00    -0.047 A 
ATOM     18  C   UNL A   1      39.449  31.390  33.951  1.00  0.00     0.134 A 
ATOM     19  C   UNL A   1      37.953  29.802  32.968  1.00  0.00     0.016 A 
ATOM     20  C   UNL A   1      38.674  27.458  32.495  1.00  0.00     0.044 C 
ATOM     21  O   UNL A   1      39.506  32.671  34.398  1.00  0.00    -0.464 OA
ATOM     22  C   UNL A   1      38.184  31.102  33.458  1.00  0.00     0.024 A 
ATOM     23  C   UNL A   1      38.278  33.206  34.215  1.00  0.00     0.200 A 
ENDBRANCH  12  13
ENDBRANCH   9  12
ENDBRANCH   7   8
ENDBRANCH   6   7
ENDBRANCH   3   6
ENDBRANCH   1   2
BRANCH   1  24
ATOM     24  C   UNL A   1      34.272  34.023  28.298  1.00  0.00     0.042 C 
BRANCH  24  25
ATOM     25  C   UNL A   1      34.712  32.701  28.913  1.00  0.00     0.118 C 
BRANCH  25  26
ATOM     26  N   UNL A   1      34.042  31.558  28.319  1.00  0.00    -0.352 N 
ATOM     27  C   UNL A   1      34.552  30.353  27.904  1.00  0.00     0.251 C 
ATOM     28  H   UNL A   1      33.071  31.662  28.195  1.00  0.00     0.163 HD
ATOM     29  O   UNL A   1      33.839  29.597  27.238  1.00  0.00    -0.269 OA
BRANCH  27  30
ATOM     30  C   UNL A   1      35.942  29.946  28.220  1.00  0.00     0.039 A 
ATOM     31  C   UNL A   1      36.930  30.114  27.243  1.00  0.00     0.014 A 
ATOM     32  C   UNL A   1      36.275  29.347  29.437  1.00  0.00     0.014 A 
ATOM     33  C   UNL A   1      38.250  29.734  27.506  1.00  0.00     0.010 A 
ATOM     34  C   UNL A   1      37.605  29.045  29.730  1.00  0.00     0.010 A 
ATOM     35  C   UNL A   1      38.607  29.222  28.763  1.00  0.00    -0.014 A 
BRANCH  35  36
ATOM     36  C   UNL A   1      40.010  28.839  29.074  1.00  0.00     0.031 A 
ATOM     37  C   UNL A   1      40.905  29.786  29.830  1.00  0.00     0.074 A 
ATOM     38  C   UNL A   1      40.502  27.667  28.630  1.00  0.00     0.049 A 
ATOM     39  N   UNL A   1      42.175  29.671  30.126  1.00  0.00    -0.248 NA
ATOM     40  C   UNL A   1      40.297  31.046  30.286  1.00  0.00     0.031 C 
ATOM     41  C   UNL A   1      39.759  26.678  27.849  1.00  0.00     0.029 A 
ATOM     42  N   UNL A   1      41.752  27.113  28.763  1.00  0.00    -0.354 N 
ATOM     43  C   UNL A   1      42.521  30.847  30.778  1.00  0.00     0.074 A 
ATOM     44  C   UNL A   1      41.340  31.684  30.793  1.00  0.00     0.031 C 
ATOM     45  C   UNL A   1      40.558  25.630  27.591  1.00  0.00     0.029 A 
ATOM     46  C   UNL A   1      41.879  25.888  28.155  1.00  0.00     0.049 A 
ATOM     47  H   UNL A   1      42.488  27.552  29.248  1.00  0.00     0.167 HD
ATOM     48  C   UNL A   1      43.708  31.191  31.335  1.00  0.00     0.037 A 
ATOM     49  C   UNL A   1      42.943  25.067  28.057  1.00  0.00     0.037 A 
ATOM     50  C   UNL A   1      44.870  30.344  31.358  1.00  0.00     0.049 A 
ATOM     51  C   UNL A   1      44.245  25.464  28.698  1.00  0.00     0.074 A 
ATOM     52  C   UNL A   1      46.096  30.576  31.957  1.00  0.00     0.029 A 
ATOM     53  N   UNL A   1      44.949  29.097  30.755  1.00  0.00    -0.354 N 
ATOM     54  N   UNL A   1      44.542  26.553  29.363  1.00  0.00    -0.248 NA
ATOM     55  C   UNL A   1      45.359  24.513  28.576  1.00  0.00     0.031 C 
ATOM     56  C   UNL A   1      46.930  29.485  31.686  1.00  0.00     0.029 A 
ATOM     57  C   UNL A   1      46.209  28.556  30.954  1.00  0.00     0.049 A 
ATOM     58  H   UNL A   1      44.219  28.662  30.259  1.00  0.00     0.167 HD
ATOM     59  C   UNL A   1      45.863  26.409  29.762  1.00  0.00     0.074 A 
ATOM     60  C   UNL A   1      46.309  25.121  29.274  1.00  0.00     0.031 C 
ATOM     61  C   UNL A   1      46.636  27.268  30.470  1.00  0.00     0.037 A 
BRANCH  48  62
ATOM     62  C   UNL A   1      43.806  32.548  31.971  1.00  0.00     0.064 A 
ATOM     63  C   UNL A   1      44.029  33.705  31.208  1.00  0.00     0.173 A 
ATOM     64  C   UNL A   1      43.645  32.697  33.357  1.00  0.00     0.173 A 
ATOM     65  F   UNL A   1      44.200  33.615  29.881  1.00  0.00    -0.203 F 
ATOM     66  C   UNL A   1      44.120  34.955  31.813  1.00  0.00     0.198 A 
ATOM     67  C   UNL A   1      43.707  33.954  33.954  1.00  0.00     0.198 A 
ATOM     68  F   UNL A   1      43.422  31.626  34.132  1.00  0.00    -0.203 F 
ATOM     69  F   UNL A   1      44.385  36.039  31.070  1.00  0.00    -0.200 F 
ATOM     70  C   UNL A   1      43.953  35.081  33.184  1.00  0.00     0.200 A 
ATOM     71  F   UNL A   1      43.532  34.074  35.278  1.00  0.00    -0.200 F 
ATOM     72  F   UNL A   1      44.036  36.286  33.764  1.00  0.00    -0.200 F 
ENDBRANCH  48  62
BRANCH  49  73
ATOM     73  C   UNL A   1      42.810  23.770  27.346  1.00  0.00     0.064 A 
ATOM     74  C   UNL A   1      42.287  22.645  27.998  1.00  0.00     0.173 A 
ATOM     75  C   UNL A   1      43.195  23.628  26.005  1.00  0.00     0.173 A 
ATOM     76  F   UNL A   1      41.928  22.726  29.288  1.00  0.00    -0.203 F 
ATOM     77  C   UNL A   1      42.168  21.423  27.341  1.00  0.00     0.198 A 
ATOM     78  C   UNL A   1      43.050  22.412  25.341  1.00  0.00     0.198 A 
ATOM     79  F   UNL A   1      43.699  24.675  25.336  1.00  0.00    -0.203 F 
ATOM     80  F   UNL A   1      41.702  20.353  28.000  1.00  0.00    -0.200 F 
ATOM     81  C   UNL A   1      42.543  21.309  26.011  1.00  0.00     0.200 A 
ATOM     82  F   UNL A   1      43.404  22.308  24.053  1.00  0.00    -0.200 F 
ATOM     83  F   UNL A   1      42.423  20.135  25.378  1.00  0.00    -0.200 F 
ENDBRANCH  49  73
BRANCH  61  84
ATOM     84  C   UNL A   1      48.036  26.831  30.790  1.00  0.00     0.064 A 
ATOM     85  C   UNL A   1      48.326  26.082  31.940  1.00  0.00     0.173 A 
ATOM     86  C   UNL A   1      49.090  27.127  29.914  1.00  0.00     0.173 A 
ATOM     87  F   UNL A   1      47.354  25.786  32.816  1.00  0.00    -0.203 F 
ATOM     88  C   UNL A   1      49.626  25.664  32.211  1.00  0.00     0.198 A 
ATOM     89  C   UNL A   1      50.384  26.685  30.174  1.00  0.00     0.198 A 
ATOM     90  F   UNL A   1      48.863  27.836  28.798  1.00  0.00    -0.203 F 
ATOM     91  F   UNL A   1      49.889  24.984  33.336  1.00  0.00    -0.200 F 
ATOM     92  C   UNL A   1      50.652  25.959  31.325  1.00  0.00     0.200 A 
ATOM     93  F   UNL A   1      51.372  26.961  29.312  1.00  0.00    -0.200 F 
ATOM     94  F   UNL A   1      51.901  25.549  31.585  1.00  0.00    -0.200 F 
ENDBRANCH  61  84
ENDBRANCH  35  36
ENDBRANCH  27  30
ENDBRANCH  25  26
ENDBRANCH  24  25
ENDBRANCH   1  24
TORSDOF 14
ENDMDL
