MODEL 1
REMARK VINA RESULT:     -13.4      0.000      0.000
REMARK SMILES Cc1ccc(C)c(N2C(=O)S[C@H](CC(=O)Nc3ccc(C(=O)NCCCNC(=O)c4ccc(-c5c6nc(c(-c7c(F)c(F)c(F)c(F)c7F)c7ccc([nH]7)c(-c7c(F)c(F)c(F)c(F)c7F)c7nc(c(-c8c(F)c(F)c(F)c(F)c8F)c8ccc5[nH]8)C=C7)C=C6)cc4)c(O)c3)C2=O)c1
REMARK SMILES IDX 24 1 23 2 21 3 22 4 20 6 17 7 18 8 95 9 19 10 93 11 16 12
REMARK SMILES IDX 14 13 15 14 13 16 12 17 8 18 9 19 96 20 10 21 11 22 97 23
REMARK SMILES IDX 7 24 1 25 2 26 3 27 98 28 4 29 5 30 6 31 94 32 25 34 26 35
REMARK SMILES IDX 27 36 28 37 29 39 30 40 31 41 92 42 32 43 91 44 33 45 34 46
REMARK SMILES IDX 35 47 85 48 36 49 90 50 84 51 86 52 37 53 89 54 83 55 82 56
REMARK SMILES IDX 38 58 70 59 50 60 69 61 51 62 54 63 68 64 87 65 52 66 53 67
REMARK SMILES IDX 67 69 88 70 55 71 39 72 40 73 48 74 41 75 42 76 46 77 49 78
REMARK SMILES IDX 43 79 44 80 47 81 45 82 71 83 72 84 80 85 73 86 74 87 78 88
REMARK SMILES IDX 81 89 75 90 76 91 79 92 77 93 56 94 57 95 65 96 58 97 59 98
REMARK SMILES IDX 63 99 66 100 60 101 61 102 64 103 62 104
REMARK H PARENT 23 5 16 15 94 33 27 38 86 57 54 68
REMARK Flexibility Score: inf
ROOT
ATOM      1  C   UNL A   1      36.670  21.138  25.274  1.00  0.00     0.118 C 
ENDROOT
BRANCH   1   2
ATOM      2  N   UNL A   1      35.786  20.014  25.042  1.00  0.00    -0.352 N 
ATOM      3  C   UNL A   1      34.416  19.972  24.939  1.00  0.00     0.255 C 
ATOM      4  O   UNL A   1      33.896  18.901  24.631  1.00  0.00    -0.269 OA
ATOM      5  H   UNL A   1      36.237  19.143  24.942  1.00  0.00     0.163 HD
BRANCH   3   6
ATOM      6  C   UNL A   1      33.550  21.130  25.303  1.00  0.00     0.081 A 
ATOM      7  C   UNL A   1      31.408  22.868  25.831  1.00  0.00     0.044 A 
ATOM      8  C   UNL A   1      31.790  22.575  24.530  1.00  0.00     0.027 A 
ATOM      9  C   UNL A   1      32.270  22.512  26.859  1.00  0.00     0.073 A 
ATOM     10  C   UNL A   1      32.805  21.667  24.257  1.00  0.00     0.020 A 
ATOM     11  C   UNL A   1      33.375  21.697  26.572  1.00  0.00     0.130 A 
BRANCH   7  12
ATOM     12  N   UNL A   1      30.219  23.567  26.091  1.00  0.00    -0.326 N 
ATOM     13  C   UNL A   1      30.044  24.931  26.195  1.00  0.00     0.226 C 
ATOM     14  O   UNL A   1      29.039  25.380  26.747  1.00  0.00    -0.275 OA
ATOM     15  H   UNL A   1      29.412  23.017  26.213  1.00  0.00     0.169 HD
BRANCH  13  16
ATOM     16  C   UNL A   1      30.989  25.857  25.437  1.00  0.00     0.125 C 
BRANCH  16  17
ATOM     17  C   UNL A   1      32.362  26.053  26.075  1.00  0.00     0.156 C 
ATOM     18  N   UNL A   1      32.916  28.386  26.046  1.00  0.00    -0.240 N 
ATOM     19  C   UNL A   1      33.532  28.005  24.891  1.00  0.00     0.293 C 
ATOM     20  C   UNL A   1      32.353  27.382  26.818  1.00  0.00     0.248 C 
ATOM     21  O   UNL A   1      33.920  28.704  23.956  1.00  0.00    -0.261 OA
ATOM     22  S   UNL A   1      33.713  26.261  24.876  1.00  0.00    -0.050 SA
ATOM     23  O   UNL A   1      31.873  27.505  27.939  1.00  0.00    -0.273 OA
BRANCH  18  24
ATOM     24  C   UNL A   1      33.070  29.699  26.546  1.00  0.00     0.056 A 
ATOM     25  C   UNL A   1      31.209  33.039  26.501  1.00  0.00     0.044 C 
ATOM     26  C   UNL A   1      32.216  31.967  26.798  1.00  0.00    -0.049 A 
ATOM     27  C   UNL A   1      33.350  32.291  27.553  1.00  0.00     0.004 A 
ATOM     28  C   UNL A   1      32.068  30.657  26.317  1.00  0.00     0.030 A 
ATOM     29  C   UNL A   1      34.346  31.343  27.779  1.00  0.00     0.006 A 
ATOM     30  C   UNL A   1      34.227  30.042  27.271  1.00  0.00    -0.027 A 
ATOM     31  C   UNL A   1      35.358  29.086  27.543  1.00  0.00     0.046 C 
ENDBRANCH  18  24
ENDBRANCH  16  17
ENDBRANCH  13  16
ENDBRANCH   7  12
BRANCH  11  32
ATOM     32  O   UNL A   1      34.277  21.550  27.590  1.00  0.00    -0.507 OA
ATOM     33  H   UNL A   1      34.446  20.700  27.946  1.00  0.00     0.293 HD
ENDBRANCH  11  32
ENDBRANCH   3   6
ENDBRANCH   1   2
BRANCH   1  34
ATOM     34  C   UNL A   1      38.150  20.849  25.145  1.00  0.00     0.042 C 
BRANCH  34  35
ATOM     35  C   UNL A   1      39.043  21.609  26.105  1.00  0.00     0.118 C 
BRANCH  35  36
ATOM     36  N   UNL A   1      40.417  21.840  25.661  1.00  0.00    -0.352 N 
ATOM     37  C   UNL A   1      41.262  22.854  26.094  1.00  0.00     0.251 C 
ATOM     38  H   UNL A   1      40.779  21.217  24.990  1.00  0.00     0.163 HD
ATOM     39  O   UNL A   1      42.431  22.927  25.741  1.00  0.00    -0.269 OA
BRANCH  37  40
ATOM     40  C   UNL A   1      40.704  23.807  27.076  1.00  0.00     0.039 A 
ATOM     41  C   UNL A   1      39.753  24.730  26.640  1.00  0.00     0.014 A 
ATOM     42  C   UNL A   1      41.409  24.003  28.254  1.00  0.00     0.014 A 
ATOM     43  C   UNL A   1      39.711  25.984  27.246  1.00  0.00     0.010 A 
ATOM     44  C   UNL A   1      41.418  25.272  28.798  1.00  0.00     0.010 A 
ATOM     45  C   UNL A   1      40.640  26.301  28.242  1.00  0.00    -0.014 A 
BRANCH  45  46
ATOM     46  C   UNL A   1      40.795  27.681  28.721  1.00  0.00     0.031 A 
ATOM     47  C   UNL A   1      41.946  28.450  28.189  1.00  0.00     0.074 A 
ATOM     48  C   UNL A   1      39.877  28.407  29.390  1.00  0.00     0.049 A 
ATOM     49  N   UNL A   1      43.119  28.590  28.712  1.00  0.00    -0.248 NA
ATOM     50  C   UNL A   1      41.812  29.017  26.838  1.00  0.00     0.031 C 
ATOM     51  C   UNL A   1      38.472  28.104  29.656  1.00  0.00     0.029 A 
ATOM     52  N   UNL A   1      40.035  29.662  29.914  1.00  0.00    -0.354 N 
ATOM     53  C   UNL A   1      43.834  29.366  27.806  1.00  0.00     0.074 A 
ATOM     54  C   UNL A   1      43.085  29.315  26.581  1.00  0.00     0.031 C 
ATOM     55  C   UNL A   1      37.871  29.205  30.168  1.00  0.00     0.029 A 
ATOM     56  C   UNL A   1      38.866  30.250  30.370  1.00  0.00     0.049 A 
ATOM     57  H   UNL A   1      40.910  30.111  29.962  1.00  0.00     0.167 HD
ATOM     58  C   UNL A   1      44.835  30.208  28.190  1.00  0.00     0.037 A 
ATOM     59  C   UNL A   1      38.739  31.512  30.852  1.00  0.00     0.037 A 
ATOM     60  C   UNL A   1      45.134  30.042  29.593  1.00  0.00     0.049 A 
ATOM     61  C   UNL A   1      40.094  31.997  31.223  1.00  0.00     0.074 A 
ATOM     62  C   UNL A   1      45.610  29.030  30.403  1.00  0.00     0.029 A 
ATOM     63  N   UNL A   1      44.623  30.991  30.444  1.00  0.00    -0.354 N 
ATOM     64  N   UNL A   1      40.774  31.567  32.248  1.00  0.00    -0.248 NA
ATOM     65  C   UNL A   1      40.854  32.793  30.268  1.00  0.00     0.031 C 
ATOM     66  C   UNL A   1      45.007  29.242  31.682  1.00  0.00     0.029 A 
ATOM     67  C   UNL A   1      44.194  30.371  31.585  1.00  0.00     0.049 A 
ATOM     68  H   UNL A   1      44.572  31.957  30.261  1.00  0.00     0.167 HD
ATOM     69  C   UNL A   1      42.100  31.680  31.866  1.00  0.00     0.074 A 
ATOM     70  C   UNL A   1      42.090  32.585  30.727  1.00  0.00     0.031 C 
ATOM     71  C   UNL A   1      43.028  30.793  32.326  1.00  0.00     0.037 A 
BRANCH  58  72
ATOM     72  C   UNL A   1      45.300  31.445  27.432  1.00  0.00     0.064 A 
ATOM     73  C   UNL A   1      46.651  31.511  27.021  1.00  0.00     0.173 A 
ATOM     74  C   UNL A   1      44.586  32.657  27.300  1.00  0.00     0.173 A 
ATOM     75  F   UNL A   1      47.442  30.428  27.085  1.00  0.00    -0.203 F 
ATOM     76  C   UNL A   1      47.253  32.705  26.615  1.00  0.00     0.198 A 
ATOM     77  C   UNL A   1      45.174  33.832  26.832  1.00  0.00     0.198 A 
ATOM     78  F   UNL A   1      43.324  32.807  27.706  1.00  0.00    -0.203 F 
ATOM     79  F   UNL A   1      48.569  32.736  26.370  1.00  0.00    -0.200 F 
ATOM     80  C   UNL A   1      46.515  33.868  26.527  1.00  0.00     0.200 A 
ATOM     81  F   UNL A   1      44.436  34.949  26.759  1.00  0.00    -0.200 F 
ATOM     82  F   UNL A   1      47.098  35.026  26.198  1.00  0.00    -0.200 F 
ENDBRANCH  58  72
BRANCH  59  83
ATOM     83  C   UNL A   1      37.554  32.394  30.946  1.00  0.00     0.064 A 
ATOM     84  C   UNL A   1      37.198  33.253  29.888  1.00  0.00     0.173 A 
ATOM     85  C   UNL A   1      36.607  32.250  31.972  1.00  0.00     0.173 A 
ATOM     86  F   UNL A   1      38.019  33.418  28.841  1.00  0.00    -0.203 F 
ATOM     87  C   UNL A   1      35.962  33.903  29.851  1.00  0.00     0.198 A 
ATOM     88  C   UNL A   1      35.387  32.927  31.949  1.00  0.00     0.198 A 
ATOM     89  F   UNL A   1      36.799  31.374  32.969  1.00  0.00    -0.203 F 
ATOM     90  F   UNL A   1      35.632  34.651  28.788  1.00  0.00    -0.200 F 
ATOM     91  C   UNL A   1      35.053  33.736  30.880  1.00  0.00     0.200 A 
ATOM     92  F   UNL A   1      34.515  32.743  32.946  1.00  0.00    -0.200 F 
ATOM     93  F   UNL A   1      33.844  34.312  30.820  1.00  0.00    -0.200 F 
ENDBRANCH  59  83
BRANCH  71  94
ATOM     94  C   UNL A   1      42.659  30.015  33.554  1.00  0.00     0.064 A 
ATOM     95  C   UNL A   1      42.834  30.497  34.861  1.00  0.00     0.173 A 
ATOM     96  C   UNL A   1      42.053  28.763  33.397  1.00  0.00     0.173 A 
ATOM     97  F   UNL A   1      43.317  31.727  35.082  1.00  0.00    -0.203 F 
ATOM     98  C   UNL A   1      42.478  29.726  35.965  1.00  0.00     0.198 A 
ATOM     99  C   UNL A   1      41.661  28.011  34.501  1.00  0.00     0.198 A 
ATOM    100  F   UNL A   1      41.814  28.279  32.168  1.00  0.00    -0.203 F 
ATOM    101  F   UNL A   1      42.685  30.193  37.205  1.00  0.00    -0.200 F 
ATOM    102  C   UNL A   1      41.889  28.486  35.784  1.00  0.00     0.200 A 
ATOM    103  F   UNL A   1      41.050  26.832  34.322  1.00  0.00    -0.200 F 
ATOM    104  F   UNL A   1      41.521  27.754  36.845  1.00  0.00    -0.200 F 
ENDBRANCH  71  94
ENDBRANCH  45  46
ENDBRANCH  37  40
ENDBRANCH  35  36
ENDBRANCH  34  35
ENDBRANCH   1  34
TORSDOF 15
ENDMDL
MODEL 2
REMARK VINA RESULT:     -13.4      3.049      4.966
REMARK SMILES Cc1ccc(C)c(N2C(=O)S[C@H](CC(=O)Nc3ccc(C(=O)NCCCNC(=O)c4ccc(-c5c6nc(c(-c7c(F)c(F)c(F)c(F)c7F)c7ccc([nH]7)c(-c7c(F)c(F)c(F)c(F)c7F)c7nc(c(-c8c(F)c(F)c(F)c(F)c8F)c8ccc5[nH]8)C=C7)C=C6)cc4)c(O)c3)C2=O)c1
REMARK SMILES IDX 24 1 23 2 21 3 22 4 20 6 17 7 18 8 95 9 19 10 93 11 16 12
REMARK SMILES IDX 14 13 15 14 13 16 12 17 8 18 9 19 96 20 10 21 11 22 97 23
REMARK SMILES IDX 7 24 1 25 2 26 3 27 98 28 4 29 5 30 6 31 94 32 25 34 26 35
REMARK SMILES IDX 27 36 28 37 29 39 30 40 31 41 92 42 32 43 91 44 33 45 34 46
REMARK SMILES IDX 35 47 85 48 36 49 90 50 84 51 86 52 37 53 89 54 83 55 82 56
REMARK SMILES IDX 38 58 70 59 50 60 69 61 51 62 54 63 68 64 87 65 52 66 53 67
REMARK SMILES IDX 67 69 88 70 55 71 39 72 40 73 48 74 41 75 42 76 46 77 49 78
REMARK SMILES IDX 43 79 44 80 47 81 45 82 71 83 72 84 80 85 73 86 74 87 78 88
REMARK SMILES IDX 81 89 75 90 76 91 79 92 77 93 56 94 57 95 65 96 58 97 59 98
REMARK SMILES IDX 63 99 66 100 60 101 61 102 64 103 62 104
REMARK H PARENT 23 5 16 15 94 33 27 38 86 57 54 68
REMARK Flexibility Score: inf
ROOT
ATOM      1  C   UNL A   1      40.230  20.264  26.506  1.00  0.00     0.118 C 
ENDROOT
BRANCH   1   2
ATOM      2  N   UNL A   1      40.096  21.706  26.434  1.00  0.00    -0.352 N 
ATOM      3  C   UNL A   1      38.997  22.478  26.142  1.00  0.00     0.255 C 
ATOM      4  O   UNL A   1      39.110  23.699  26.248  1.00  0.00    -0.269 OA
ATOM      5  H   UNL A   1      40.921  22.210  26.625  1.00  0.00     0.163 HD
BRANCH   3   6
ATOM      6  C   UNL A   1      37.737  21.903  25.591  1.00  0.00     0.081 A 
ATOM      7  C   UNL A   1      35.447  20.363  25.069  1.00  0.00     0.044 A 
ATOM      8  C   UNL A   1      36.712  19.906  24.727  1.00  0.00     0.027 A 
ATOM      9  C   UNL A   1      35.309  21.700  25.415  1.00  0.00     0.073 A 
ATOM     10  C   UNL A   1      37.855  20.630  25.039  1.00  0.00     0.020 A 
ATOM     11  C   UNL A   1      36.459  22.478  25.610  1.00  0.00     0.130 A 
BRANCH   7  12
ATOM     12  N   UNL A   1      34.332  19.513  24.996  1.00  0.00    -0.326 N 
ATOM     13  C   UNL A   1      33.002  19.867  24.902  1.00  0.00     0.226 C 
ATOM     14  O   UNL A   1      32.128  19.045  25.180  1.00  0.00    -0.275 OA
ATOM     15  H   UNL A   1      34.523  18.547  25.015  1.00  0.00     0.169 HD
BRANCH  13  16
ATOM     16  C   UNL A   1      32.636  21.195  24.249  1.00  0.00     0.125 C 
BRANCH  16  17
ATOM     17  C   UNL A   1      31.569  22.008  24.977  1.00  0.00     0.156 C 
ATOM     18  N   UNL A   1      32.064  24.342  24.743  1.00  0.00    -0.240 N 
ATOM     19  C   UNL A   1      32.675  24.113  25.940  1.00  0.00     0.293 C 
ATOM     20  C   UNL A   1      31.339  23.295  24.196  1.00  0.00     0.248 C 
ATOM     21  O   UNL A   1      33.520  24.795  26.518  1.00  0.00    -0.261 OA
ATOM     22  S   UNL A   1      32.085  22.607  26.616  1.00  0.00    -0.050 SA
ATOM     23  O   UNL A   1      30.622  23.341  23.203  1.00  0.00    -0.273 OA
BRANCH  18  24
ATOM     24  C   UNL A   1      31.967  25.653  24.221  1.00  0.00     0.056 A 
ATOM     25  C   UNL A   1      34.003  28.046  22.042  1.00  0.00     0.044 C 
ATOM     26  C   UNL A   1      32.901  27.452  22.870  1.00  0.00    -0.049 A 
ATOM     27  C   UNL A   1      31.776  28.231  23.161  1.00  0.00     0.004 A 
ATOM     28  C   UNL A   1      32.981  26.148  23.383  1.00  0.00     0.030 A 
ATOM     29  C   UNL A   1      30.771  27.743  23.994  1.00  0.00     0.006 A 
ATOM     30  C   UNL A   1      30.857  26.456  24.544  1.00  0.00    -0.027 A 
ATOM     31  C   UNL A   1      29.739  26.013  25.449  1.00  0.00     0.046 C 
ENDBRANCH  18  24
ENDBRANCH  16  17
ENDBRANCH  13  16
ENDBRANCH   7  12
BRANCH  11  32
ATOM     32  O   UNL A   1      36.243  23.820  25.758  1.00  0.00    -0.507 OA
ATOM     33  H   UNL A   1      35.846  24.309  25.064  1.00  0.00     0.293 HD
ENDBRANCH  11  32
ENDBRANCH   3   6
ENDBRANCH   1   2
BRANCH   1  34
ATOM     34  C   UNL A   1      41.622  19.747  26.793  1.00  0.00     0.042 C 
BRANCH  34  35
ATOM     35  C   UNL A   1      42.743  20.472  26.077  1.00  0.00     0.118 C 
BRANCH  35  36
ATOM     36  N   UNL A   1      43.465  19.703  25.065  1.00  0.00    -0.352 N 
ATOM     37  C   UNL A   1      44.583  20.124  24.354  1.00  0.00     0.251 C 
ATOM     38  H   UNL A   1      43.128  18.799  24.868  1.00  0.00     0.163 HD
ATOM     39  O   UNL A   1      45.186  19.386  23.588  1.00  0.00    -0.269 OA
BRANCH  37  40
ATOM     40  C   UNL A   1      45.065  21.493  24.629  1.00  0.00     0.039 A 
ATOM     41  C   UNL A   1      45.797  21.718  25.795  1.00  0.00     0.014 A 
ATOM     42  C   UNL A   1      44.456  22.538  23.949  1.00  0.00     0.014 A 
ATOM     43  C   UNL A   1      45.686  22.955  26.427  1.00  0.00     0.010 A 
ATOM     44  C   UNL A   1      44.286  23.733  24.620  1.00  0.00     0.010 A 
ATOM     45  C   UNL A   1      44.819  23.921  25.906  1.00  0.00    -0.014 A 
BRANCH  45  46
ATOM     46  C   UNL A   1      44.480  25.127  26.674  1.00  0.00     0.031 A 
ATOM     47  C   UNL A   1      45.382  26.293  26.525  1.00  0.00     0.074 A 
ATOM     48  C   UNL A   1      43.311  25.378  27.299  1.00  0.00     0.049 A 
ATOM     49  N   UNL A   1      46.387  26.622  27.269  1.00  0.00    -0.248 NA
ATOM     50  C   UNL A   1      45.229  27.115  25.315  1.00  0.00     0.031 C 
ATOM     51  C   UNL A   1      42.052  24.639  27.240  1.00  0.00     0.029 A 
ATOM     52  N   UNL A   1      43.009  26.457  28.085  1.00  0.00    -0.354 N 
ATOM     53  C   UNL A   1      46.918  27.765  26.683  1.00  0.00     0.074 A 
ATOM     54  C   UNL A   1      46.364  27.812  25.358  1.00  0.00     0.031 C 
ATOM     55  C   UNL A   1      41.083  25.366  27.847  1.00  0.00     0.029 A 
ATOM     56  C   UNL A   1      41.672  26.563  28.432  1.00  0.00     0.049 A 
ATOM     57  H   UNL A   1      43.687  27.106  28.380  1.00  0.00     0.167 HD
ATOM     58  C   UNL A   1      47.555  28.732  27.403  1.00  0.00     0.037 A 
ATOM     59  C   UNL A   1      41.103  27.579  29.128  1.00  0.00     0.037 A 
ATOM     60  C   UNL A   1      47.734  28.314  28.774  1.00  0.00     0.049 A 
ATOM     61  C   UNL A   1      42.186  28.316  29.828  1.00  0.00     0.074 A 
ATOM     62  C   UNL A   1      48.410  27.308  29.435  1.00  0.00     0.029 A 
ATOM     63  N   UNL A   1      46.859  28.842  29.692  1.00  0.00    -0.354 N 
ATOM     64  N   UNL A   1      42.849  27.854  30.850  1.00  0.00    -0.248 NA
ATOM     65  C   UNL A   1      42.760  29.503  29.206  1.00  0.00     0.031 C 
ATOM     66  C   UNL A   1      47.633  27.020  30.600  1.00  0.00     0.029 A 
ATOM     67  C   UNL A   1      46.523  27.864  30.589  1.00  0.00     0.049 A 
ATOM     68  H   UNL A   1      46.528  29.769  29.703  1.00  0.00     0.167 HD
ATOM     69  C   UNL A   1      44.106  28.424  30.745  1.00  0.00     0.074 A 
ATOM     70  C   UNL A   1      43.939  29.542  29.829  1.00  0.00     0.031 C 
ATOM     71  C   UNL A   1      45.209  27.746  31.177  1.00  0.00     0.037 A 
BRANCH  58  72
ATOM     72  C   UNL A   1      47.690  30.196  27.008  1.00  0.00     0.064 A 
ATOM     73  C   UNL A   1      48.968  30.797  27.088  1.00  0.00     0.173 A 
ATOM     74  C   UNL A   1      46.627  31.102  26.796  1.00  0.00     0.173 A 
ATOM     75  F   UNL A   1      50.067  30.052  27.278  1.00  0.00    -0.203 F 
ATOM     76  C   UNL A   1      49.146  32.183  27.061  1.00  0.00     0.198 A 
ATOM     77  C   UNL A   1      46.817  32.481  26.704  1.00  0.00     0.198 A 
ATOM     78  F   UNL A   1      45.346  30.728  26.768  1.00  0.00    -0.203 F 
ATOM     79  F   UNL A   1      50.361  32.701  27.280  1.00  0.00    -0.200 F 
ATOM     80  C   UNL A   1      48.068  33.026  26.876  1.00  0.00     0.200 A 
ATOM     81  F   UNL A   1      45.753  33.277  26.528  1.00  0.00    -0.200 F 
ATOM     82  F   UNL A   1      48.224  34.355  26.911  1.00  0.00    -0.200 F 
ENDBRANCH  58  72
BRANCH  59  83
ATOM     83  C   UNL A   1      39.697  28.044  29.182  1.00  0.00     0.064 A 
ATOM     84  C   UNL A   1      38.979  28.055  30.394  1.00  0.00     0.173 A 
ATOM     85  C   UNL A   1      39.098  28.709  28.101  1.00  0.00     0.173 A 
ATOM     86  F   UNL A   1      39.492  27.485  31.493  1.00  0.00    -0.203 F 
ATOM     87  C   UNL A   1      37.752  28.712  30.517  1.00  0.00     0.198 A 
ATOM     88  C   UNL A   1      37.858  29.336  28.217  1.00  0.00     0.198 A 
ATOM     89  F   UNL A   1      39.747  28.851  26.935  1.00  0.00    -0.203 F 
ATOM     90  F   UNL A   1      37.138  28.764  31.707  1.00  0.00    -0.200 F 
ATOM     91  C   UNL A   1      37.193  29.358  29.429  1.00  0.00     0.200 A 
ATOM     92  F   UNL A   1      37.339  29.966  27.158  1.00  0.00    -0.200 F 
ATOM     93  F   UNL A   1      36.045  30.038  29.558  1.00  0.00    -0.200 F 
ENDBRANCH  59  83
BRANCH  71  94
ATOM     94  C   UNL A   1      44.968  26.618  32.134  1.00  0.00     0.064 A 
ATOM     95  C   UNL A   1      44.681  25.304  31.730  1.00  0.00     0.173 A 
ATOM     96  C   UNL A   1      45.093  26.865  33.506  1.00  0.00     0.173 A 
ATOM     97  F   UNL A   1      44.645  24.976  30.432  1.00  0.00    -0.203 F 
ATOM     98  C   UNL A   1      44.461  24.297  32.666  1.00  0.00     0.198 A 
ATOM     99  C   UNL A   1      44.911  25.848  34.439  1.00  0.00     0.198 A 
ATOM    100  F   UNL A   1      45.418  28.092  33.943  1.00  0.00    -0.203 F 
ATOM    101  F   UNL A   1      44.154  23.056  32.259  1.00  0.00    -0.200 F 
ATOM    102  C   UNL A   1      44.579  24.568  34.019  1.00  0.00     0.200 A 
ATOM    103  F   UNL A   1      45.071  26.103  35.745  1.00  0.00    -0.200 F 
ATOM    104  F   UNL A   1      44.394  23.594  34.920  1.00  0.00    -0.200 F 
ENDBRANCH  71  94
ENDBRANCH  45  46
ENDBRANCH  37  40
ENDBRANCH  35  36
ENDBRANCH  34  35
ENDBRANCH   1  34
TORSDOF 15
ENDMDL
MODEL 3
REMARK VINA RESULT:     -13.3      1.404      2.523
REMARK SMILES Cc1ccc(C)c(N2C(=O)S[C@H](CC(=O)Nc3ccc(C(=O)NCCCNC(=O)c4ccc(-c5c6nc(c(-c7c(F)c(F)c(F)c(F)c7F)c7ccc([nH]7)c(-c7c(F)c(F)c(F)c(F)c7F)c7nc(c(-c8c(F)c(F)c(F)c(F)c8F)c8ccc5[nH]8)C=C7)C=C6)cc4)c(O)c3)C2=O)c1
REMARK SMILES IDX 24 1 23 2 21 3 22 4 20 6 17 7 18 8 95 9 19 10 93 11 16 12
REMARK SMILES IDX 14 13 15 14 13 16 12 17 8 18 9 19 96 20 10 21 11 22 97 23
REMARK SMILES IDX 7 24 1 25 2 26 3 27 98 28 4 29 5 30 6 31 94 32 25 34 26 35
REMARK SMILES IDX 27 36 28 37 29 39 30 40 31 41 92 42 32 43 91 44 33 45 34 46
REMARK SMILES IDX 35 47 85 48 36 49 90 50 84 51 86 52 37 53 89 54 83 55 82 56
REMARK SMILES IDX 38 58 70 59 50 60 69 61 51 62 54 63 68 64 87 65 52 66 53 67
REMARK SMILES IDX 67 69 88 70 55 71 39 72 40 73 48 74 41 75 42 76 46 77 49 78
REMARK SMILES IDX 43 79 44 80 47 81 45 82 71 83 72 84 80 85 73 86 74 87 78 88
REMARK SMILES IDX 81 89 75 90 76 91 79 92 77 93 56 94 57 95 65 96 58 97 59 98
REMARK SMILES IDX 63 99 66 100 60 101 61 102 64 103 62 104
REMARK H PARENT 23 5 16 15 94 33 27 38 86 57 54 68
REMARK Flexibility Score: inf
ROOT
ATOM      1  C   UNL A   1      36.765  21.570  25.759  1.00  0.00     0.118 C 
ENDROOT
BRANCH   1   2
ATOM      2  N   UNL A   1      35.894  20.427  25.572  1.00  0.00    -0.352 N 
ATOM      3  C   UNL A   1      34.726  20.313  24.856  1.00  0.00     0.255 C 
ATOM      4  O   UNL A   1      34.218  19.197  24.762  1.00  0.00    -0.269 OA
ATOM      5  H   UNL A   1      36.184  19.603  26.029  1.00  0.00     0.163 HD
BRANCH   3   6
ATOM      6  C   UNL A   1      34.004  21.497  24.307  1.00  0.00     0.081 A 
ATOM      7  C   UNL A   1      32.892  23.489  22.671  1.00  0.00     0.044 A 
ATOM      8  C   UNL A   1      34.242  23.495  22.991  1.00  0.00     0.027 A 
ATOM      9  C   UNL A   1      32.055  22.650  23.392  1.00  0.00     0.073 A 
ATOM     10  C   UNL A   1      34.815  22.480  23.745  1.00  0.00     0.020 A 
ATOM     11  C   UNL A   1      32.619  21.701  24.257  1.00  0.00     0.130 A 
BRANCH   7  12
ATOM     12  N   UNL A   1      32.382  24.359  21.695  1.00  0.00    -0.326 N 
ATOM     13  C   UNL A   1      31.978  25.668  21.855  1.00  0.00     0.226 C 
ATOM     14  O   UNL A   1      31.253  26.194  21.009  1.00  0.00    -0.275 OA
ATOM     15  H   UNL A   1      32.302  23.990  20.785  1.00  0.00     0.169 HD
BRANCH  13  16
ATOM     16  C   UNL A   1      32.610  26.506  22.961  1.00  0.00     0.125 C 
BRANCH  16  17
ATOM     17  C   UNL A   1      31.778  27.694  23.436  1.00  0.00     0.156 C 
ATOM     18  N   UNL A   1      32.699  28.527  25.488  1.00  0.00    -0.240 N 
ATOM     19  C   UNL A   1      31.755  27.689  26.002  1.00  0.00     0.293 C 
ATOM     20  C   UNL A   1      32.715  28.687  24.111  1.00  0.00     0.248 C 
ATOM     21  O   UNL A   1      31.665  27.232  27.141  1.00  0.00    -0.261 OA
ATOM     22  S   UNL A   1      30.591  27.287  24.753  1.00  0.00    -0.050 SA
ATOM     23  O   UNL A   1      33.395  29.485  23.476  1.00  0.00    -0.273 OA
BRANCH  18  24
ATOM     24  C   UNL A   1      33.449  29.375  26.335  1.00  0.00     0.056 A 
ATOM     25  C   UNL A   1      36.868  29.455  28.044  1.00  0.00     0.044 C 
ATOM     26  C   UNL A   1      35.503  29.845  27.557  1.00  0.00    -0.049 A 
ATOM     27  C   UNL A   1      34.950  31.057  27.986  1.00  0.00     0.004 A 
ATOM     28  C   UNL A   1      34.755  29.017  26.706  1.00  0.00     0.030 A 
ATOM     29  C   UNL A   1      33.653  31.414  27.621  1.00  0.00     0.006 A 
ATOM     30  C   UNL A   1      32.882  30.576  26.803  1.00  0.00    -0.027 A 
ATOM     31  C   UNL A   1      31.484  31.026  26.473  1.00  0.00     0.046 C 
ENDBRANCH  18  24
ENDBRANCH  16  17
ENDBRANCH  13  16
ENDBRANCH   7  12
BRANCH  11  32
ATOM     32  O   UNL A   1      31.734  21.048  25.070  1.00  0.00    -0.507 OA
ATOM     33  H   UNL A   1      32.040  20.623  25.847  1.00  0.00     0.293 HD
ENDBRANCH  11  32
ENDBRANCH   3   6
ENDBRANCH   1   2
BRANCH   1  34
ATOM     34  C   UNL A   1      38.141  21.457  25.139  1.00  0.00     0.042 C 
BRANCH  34  35
ATOM     35  C   UNL A   1      39.293  21.421  26.122  1.00  0.00     0.118 C 
BRANCH  35  36
ATOM     36  N   UNL A   1      40.611  21.752  25.584  1.00  0.00    -0.352 N 
ATOM     37  C   UNL A   1      41.456  22.759  26.035  1.00  0.00     0.251 C 
ATOM     38  H   UNL A   1      40.932  21.209  24.828  1.00  0.00     0.163 HD
ATOM     39  O   UNL A   1      42.584  22.914  25.589  1.00  0.00    -0.269 OA
BRANCH  37  40
ATOM     40  C   UNL A   1      40.956  23.592  27.147  1.00  0.00     0.039 A 
ATOM     41  C   UNL A   1      39.915  24.486  26.894  1.00  0.00     0.014 A 
ATOM     42  C   UNL A   1      41.773  23.737  28.259  1.00  0.00     0.014 A 
ATOM     43  C   UNL A   1      39.870  25.682  27.607  1.00  0.00     0.010 A 
ATOM     44  C   UNL A   1      41.772  24.957  28.907  1.00  0.00     0.010 A 
ATOM     45  C   UNL A   1      40.883  25.976  28.526  1.00  0.00    -0.014 A 
BRANCH  45  46
ATOM     46  C   UNL A   1      41.014  27.320  29.104  1.00  0.00     0.031 A 
ATOM     47  C   UNL A   1      42.051  28.203  28.519  1.00  0.00     0.074 A 
ATOM     48  C   UNL A   1      40.139  27.928  29.929  1.00  0.00     0.049 A 
ATOM     49  N   UNL A   1      43.267  28.378  28.920  1.00  0.00    -0.248 NA
ATOM     50  C   UNL A   1      41.733  28.867  27.245  1.00  0.00     0.031 C 
ATOM     51  C   UNL A   1      38.793  27.513  30.319  1.00  0.00     0.029 A 
ATOM     52  N   UNL A   1      40.285  29.144  30.540  1.00  0.00    -0.354 N 
ATOM     53  C   UNL A   1      43.829  29.269  28.013  1.00  0.00     0.074 A 
ATOM     54  C   UNL A   1      42.949  29.268  26.877  1.00  0.00     0.031 C 
ATOM     55  C   UNL A   1      38.193  28.528  30.988  1.00  0.00     0.029 A 
ATOM     56  C   UNL A   1      39.145  29.616  31.171  1.00  0.00     0.049 A 
ATOM     57  H   UNL A   1      41.132  29.645  30.532  1.00  0.00     0.167 HD
ATOM     58  C   UNL A   1      44.818  30.142  28.358  1.00  0.00     0.037 A 
ATOM     59  C   UNL A   1      39.003  30.824  31.772  1.00  0.00     0.037 A 
ATOM     60  C   UNL A   1      45.285  29.883  29.701  1.00  0.00     0.049 A 
ATOM     61  C   UNL A   1      40.361  31.365  32.034  1.00  0.00     0.074 A 
ATOM     62  C   UNL A   1      45.906  28.842  30.362  1.00  0.00     0.029 A 
ATOM     63  N   UNL A   1      44.821  30.725  30.681  1.00  0.00    -0.354 N 
ATOM     64  N   UNL A   1      41.177  30.900  32.937  1.00  0.00    -0.248 NA
ATOM     65  C   UNL A   1      40.961  32.284  31.074  1.00  0.00     0.031 C 
ATOM     66  C   UNL A   1      45.442  28.911  31.713  1.00  0.00     0.029 A 
ATOM     67  C   UNL A   1      44.561  29.988  31.804  1.00  0.00     0.049 A 
ATOM     68  H   UNL A   1      44.695  31.697  30.590  1.00  0.00     0.167 HD
ATOM     69  C   UNL A   1      42.443  31.130  32.425  1.00  0.00     0.074 A 
ATOM     70  C   UNL A   1      42.251  32.121  31.376  1.00  0.00     0.031 C 
ATOM     71  C   UNL A   1      43.465  30.272  32.702  1.00  0.00     0.037 A 
BRANCH  58  72
ATOM     72  C   UNL A   1      45.124  31.463  27.665  1.00  0.00     0.064 A 
ATOM     73  C   UNL A   1      46.383  31.617  27.040  1.00  0.00     0.173 A 
ATOM     74  C   UNL A   1      44.376  32.656  27.782  1.00  0.00     0.173 A 
ATOM     75  F   UNL A   1      47.192  30.563  26.856  1.00  0.00    -0.203 F 
ATOM     76  C   UNL A   1      46.884  32.867  26.664  1.00  0.00     0.198 A 
ATOM     77  C   UNL A   1      44.853  33.892  27.346  1.00  0.00     0.198 A 
ATOM     78  F   UNL A   1      43.200  32.720  28.409  1.00  0.00    -0.203 F 
ATOM     79  F   UNL A   1      48.138  32.969  26.204  1.00  0.00    -0.200 F 
ATOM     80  C   UNL A   1      46.121  34.006  26.824  1.00  0.00     0.200 A 
ATOM     81  F   UNL A   1      44.094  34.983  27.515  1.00  0.00    -0.200 F 
ATOM     82  F   UNL A   1      46.618  35.211  26.522  1.00  0.00    -0.200 F 
ENDBRANCH  58  72
BRANCH  59  83
ATOM     83  C   UNL A   1      37.788  31.616  32.071  1.00  0.00     0.064 A 
ATOM     84  C   UNL A   1      37.397  31.880  33.398  1.00  0.00     0.173 A 
ATOM     85  C   UNL A   1      37.112  32.334  31.071  1.00  0.00     0.173 A 
ATOM     86  F   UNL A   1      38.017  31.275  34.421  1.00  0.00    -0.203 F 
ATOM     87  C   UNL A   1      36.409  32.821  33.702  1.00  0.00     0.198 A 
ATOM     88  C   UNL A   1      36.103  33.249  31.376  1.00  0.00     0.198 A 
ATOM     89  F   UNL A   1      37.482  32.240  29.786  1.00  0.00    -0.203 F 
ATOM     90  F   UNL A   1      36.121  33.096  34.982  1.00  0.00    -0.200 F 
ATOM     91  C   UNL A   1      35.766  33.510  32.690  1.00  0.00     0.200 A 
ATOM     92  F   UNL A   1      35.501  33.915  30.386  1.00  0.00    -0.200 F 
ATOM     93  F   UNL A   1      34.859  34.454  32.981  1.00  0.00    -0.200 F 
ENDBRANCH  59  83
BRANCH  71  94
ATOM     94  C   UNL A   1      43.283  29.375  33.890  1.00  0.00     0.064 A 
ATOM     95  C   UNL A   1      42.619  28.139  33.835  1.00  0.00     0.173 A 
ATOM     96  C   UNL A   1      43.854  29.755  35.110  1.00  0.00     0.173 A 
ATOM     97  F   UNL A   1      42.136  27.668  32.678  1.00  0.00    -0.203 F 
ATOM     98  C   UNL A   1      42.475  27.350  34.974  1.00  0.00     0.198 A 
ATOM     99  C   UNL A   1      43.742  28.946  36.238  1.00  0.00     0.198 A 
ATOM    100  F   UNL A   1      44.544  30.902  35.203  1.00  0.00    -0.203 F 
ATOM    101  F   UNL A   1      41.807  26.189  34.906  1.00  0.00    -0.200 F 
ATOM    102  C   UNL A   1      43.039  27.752  36.173  1.00  0.00     0.200 A 
ATOM    103  F   UNL A   1      44.328  29.316  37.385  1.00  0.00    -0.200 F 
ATOM    104  F   UNL A   1      42.925  26.982  37.263  1.00  0.00    -0.200 F 
ENDBRANCH  71  94
ENDBRANCH  45  46
ENDBRANCH  37  40
ENDBRANCH  35  36
ENDBRANCH  34  35
ENDBRANCH   1  34
TORSDOF 15
ENDMDL
