MODEL 1
REMARK VINA RESULT:     -13.6      0.000      0.000
REMARK SMILES O=C(NCCCNC(=O)c1sccc1S(=O)(=O)Nc1ccc(-c2nc3ccccc3n2C(F)F)cc1)c1ccc(-c2c3nc(c(-c4c(F)c(F)c(F)c(F)c4F)c4ccc([nH]4)c(-c4c(F)c(F)c(F)c(F)c4F)c4nc(c(-c5c(F)c(F)c(F)c(F)c5F)c5ccc2[nH]5)C=C4)C=C3)cc1
REMARK SMILES IDX 7 1 8 2 9 3 6 5 5 6 4 7 3 8 1 9 2 10 37 12 38 13 99 14 39 15
REMARK SMILES IDX 98 16 40 17 41 18 42 19 92 20 43 21 97 22 91 23 93 24 44 25
REMARK SMILES IDX 96 26 90 27 89 28 45 30 77 31 57 32 76 33 58 34 61 35 75 36
REMARK SMILES IDX 94 37 59 38 60 39 74 41 95 42 62 43 46 44 47 45 55 46 48 47
REMARK SMILES IDX 49 48 53 49 56 50 50 51 51 52 54 53 52 54 78 55 79 56 87 57
REMARK SMILES IDX 80 58 81 59 85 60 88 61 82 62 83 63 86 64 84 65 63 66 64 67
REMARK SMILES IDX 72 68 65 69 66 70 70 71 73 72 67 73 68 74 71 75 69 76 10 77
REMARK SMILES IDX 11 78 14 79 12 80 13 81 15 82 16 83 17 84 18 85 19 87 20 88
REMARK SMILES IDX 36 89 21 90 35 91 22 92 23 93 24 94 31 95 25 96 30 97 26 98
REMARK SMILES IDX 29 99 27 100 28 101 32 102 33 103 34 104
REMARK H PARENT 7 4 3 11 93 29 61 40 18 86
REMARK Flexibility Score: inf
ROOT
ATOM      1  N   UNL A   1      32.195  26.136  26.673  1.00  0.00    -0.351 N 
ATOM      2  C   UNL A   1      31.183  25.749  25.844  1.00  0.00     0.262 C 
ATOM      3  O   UNL A   1      30.223  25.199  26.387  1.00  0.00    -0.268 OA
ATOM      4  H   UNL A   1      32.137  25.778  27.588  1.00  0.00     0.163 HD
ENDROOT
BRANCH   1   5
ATOM      5  C   UNL A   1      33.341  26.984  26.428  1.00  0.00     0.118 C 
BRANCH   5   6
ATOM      6  C   UNL A   1      33.241  28.270  27.235  1.00  0.00     0.042 C 
BRANCH   6   7
ATOM      7  C   UNL A   1      33.802  29.492  26.500  1.00  0.00     0.118 C 
BRANCH   7   8
ATOM      8  N   UNL A   1      33.889  30.698  27.299  1.00  0.00    -0.352 N 
ATOM      9  O   UNL A   1      34.679  32.486  28.335  1.00  0.00    -0.269 OA
ATOM     10  C   UNL A   1      34.930  31.369  27.880  1.00  0.00     0.251 C 
ATOM     11  H   UNL A   1      33.015  31.123  27.458  1.00  0.00     0.163 HD
BRANCH  10  12
ATOM     12  C   UNL A   1      36.293  30.805  28.065  1.00  0.00     0.039 A 
ATOM     13  C   UNL A   1      36.713  29.541  27.650  1.00  0.00     0.014 A 
ATOM     14  C   UNL A   1      37.207  31.625  28.752  1.00  0.00     0.014 A 
ATOM     15  C   UNL A   1      37.961  29.056  28.019  1.00  0.00     0.010 A 
ATOM     16  C   UNL A   1      38.471  31.162  29.090  1.00  0.00     0.010 A 
ATOM     17  C   UNL A   1      38.831  29.861  28.756  1.00  0.00    -0.014 A 
BRANCH  17  18
ATOM     18  C   UNL A   1      40.189  29.370  28.973  1.00  0.00     0.031 A 
ATOM     19  C   UNL A   1      40.499  29.064  30.403  1.00  0.00     0.074 A 
ATOM     20  C   UNL A   1      41.045  29.073  27.976  1.00  0.00     0.049 A 
ATOM     21  N   UNL A   1      41.451  29.538  31.140  1.00  0.00    -0.248 NA
ATOM     22  C   UNL A   1      39.556  28.198  31.133  1.00  0.00     0.031 C 
ATOM     23  C   UNL A   1      40.788  29.055  26.535  1.00  0.00     0.029 A 
ATOM     24  N   UNL A   1      42.329  28.624  28.060  1.00  0.00    -0.354 N 
ATOM     25  C   UNL A   1      41.326  28.914  32.381  1.00  0.00     0.074 A 
ATOM     26  C   UNL A   1      40.078  28.198  32.359  1.00  0.00     0.031 C 
ATOM     27  C   UNL A   1      41.798  28.408  25.907  1.00  0.00     0.029 A 
ATOM     28  C   UNL A   1      42.830  28.089  26.879  1.00  0.00     0.049 A 
ATOM     29  H   UNL A   1      42.859  28.675  28.889  1.00  0.00     0.167 HD
ATOM     30  C   UNL A   1      42.356  28.869  33.270  1.00  0.00     0.037 A 
ATOM     31  C   UNL A   1      43.982  27.384  26.732  1.00  0.00     0.037 A 
ATOM     32  C   UNL A   1      43.321  29.902  33.012  1.00  0.00     0.049 A 
ATOM     33  C   UNL A   1      44.837  27.672  27.909  1.00  0.00     0.074 A 
ATOM     34  C   UNL A   1      43.283  31.283  33.023  1.00  0.00     0.029 A 
ATOM     35  N   UNL A   1      44.465  29.572  32.334  1.00  0.00    -0.354 N 
ATOM     36  N   UNL A   1      45.388  28.829  28.142  1.00  0.00    -0.248 NA
ATOM     37  C   UNL A   1      44.715  26.790  29.060  1.00  0.00     0.031 C 
ATOM     38  C   UNL A   1      44.111  31.681  31.932  1.00  0.00     0.029 A 
ATOM     39  C   UNL A   1      44.649  30.526  31.366  1.00  0.00     0.049 A 
ATOM     40  H   UNL A   1      45.046  28.795  32.509  1.00  0.00     0.167 HD
ATOM     41  C   UNL A   1      45.277  28.997  29.513  1.00  0.00     0.074 A 
ATOM     42  C   UNL A   1      44.930  27.677  30.034  1.00  0.00     0.031 C 
ATOM     43  C   UNL A   1      45.199  30.244  30.063  1.00  0.00     0.037 A 
BRANCH  30  44
ATOM     44  C   UNL A   1      42.648  27.685  34.158  1.00  0.00     0.064 A 
ATOM     45  C   UNL A   1      43.255  26.536  33.614  1.00  0.00     0.173 A 
ATOM     46  C   UNL A   1      42.087  27.526  35.444  1.00  0.00     0.173 A 
ATOM     47  F   UNL A   1      43.794  26.565  32.386  1.00  0.00    -0.203 F 
ATOM     48  C   UNL A   1      43.242  25.308  34.282  1.00  0.00     0.198 A 
ATOM     49  C   UNL A   1      42.121  26.313  36.129  1.00  0.00     0.198 A 
ATOM     50  F   UNL A   1      41.386  28.499  36.038  1.00  0.00    -0.203 F 
ATOM     51  F   UNL A   1      43.725  24.215  33.677  1.00  0.00    -0.200 F 
ATOM     52  C   UNL A   1      42.672  25.197  35.537  1.00  0.00     0.200 A 
ATOM     53  F   UNL A   1      41.542  26.222  37.334  1.00  0.00    -0.200 F 
ATOM     54  F   UNL A   1      42.606  24.010  36.154  1.00  0.00    -0.200 F 
ENDBRANCH  30  44
BRANCH  31  55
ATOM     55  C   UNL A   1      44.254  26.237  25.833  1.00  0.00     0.064 A 
ATOM     56  C   UNL A   1      45.556  25.962  25.376  1.00  0.00     0.173 A 
ATOM     57  C   UNL A   1      43.299  25.220  25.643  1.00  0.00     0.173 A 
ATOM     58  F   UNL A   1      46.538  26.854  25.563  1.00  0.00    -0.203 F 
ATOM     59  C   UNL A   1      45.884  24.734  24.790  1.00  0.00     0.198 A 
ATOM     60  C   UNL A   1      43.626  23.998  25.054  1.00  0.00     0.198 A 
ATOM     61  F   UNL A   1      42.053  25.352  26.120  1.00  0.00    -0.203 F 
ATOM     62  F   UNL A   1      47.150  24.483  24.427  1.00  0.00    -0.200 F 
ATOM     63  C   UNL A   1      44.922  23.750  24.640  1.00  0.00     0.200 A 
ATOM     64  F   UNL A   1      42.695  23.039  24.952  1.00  0.00    -0.200 F 
ATOM     65  F   UNL A   1      45.249  22.551  24.138  1.00  0.00    -0.200 F 
ENDBRANCH  31  55
BRANCH  43  66
ATOM     66  C   UNL A   1      45.483  31.420  29.170  1.00  0.00     0.064 A 
ATOM     67  C   UNL A   1      46.771  31.924  28.915  1.00  0.00     0.173 A 
ATOM     68  C   UNL A   1      44.422  31.972  28.441  1.00  0.00     0.173 A 
ATOM     69  F   UNL A   1      47.852  31.384  29.490  1.00  0.00    -0.203 F 
ATOM     70  C   UNL A   1      46.976  32.964  28.008  1.00  0.00     0.198 A 
ATOM     71  C   UNL A   1      44.633  32.983  27.507  1.00  0.00     0.198 A 
ATOM     72  F   UNL A   1      43.177  31.493  28.598  1.00  0.00    -0.203 F 
ATOM     73  F   UNL A   1      48.214  33.435  27.792  1.00  0.00    -0.200 F 
ATOM     74  C   UNL A   1      45.907  33.486  27.300  1.00  0.00     0.200 A 
ATOM     75  F   UNL A   1      43.604  33.448  26.786  1.00  0.00    -0.200 F 
ATOM     76  F   UNL A   1      46.109  34.455  26.396  1.00  0.00    -0.200 F 
ENDBRANCH  43  66
ENDBRANCH  17  18
ENDBRANCH  10  12
ENDBRANCH   7   8
ENDBRANCH   6   7
ENDBRANCH   5   6
ENDBRANCH   1   5
BRANCH   2  77
ATOM     77  C   UNL A   1      31.244  26.048  24.436  1.00  0.00     0.112 A 
ATOM     78  S   UNL A   1      30.759  27.656  24.020  1.00  0.00    -0.137 S 
ATOM     79  C   UNL A   1      31.559  25.315  23.305  1.00  0.00     0.111 A 
ATOM     80  C   UNL A   1      31.093  27.416  22.371  1.00  0.00     0.067 A 
ATOM     81  C   UNL A   1      31.518  26.134  22.121  1.00  0.00     0.035 A 
BRANCH  79  82
ATOM     82  S   UNL A   1      31.960  23.630  23.140  1.00  0.00     0.263 S 
ATOM     83  O   UNL A   1      30.673  22.980  23.109  1.00  0.00    -0.201 OA
ATOM     84  O   UNL A   1      32.816  23.631  21.964  1.00  0.00    -0.201 OA
BRANCH  82  85
ATOM     85  N   UNL A   1      32.872  22.928  24.338  1.00  0.00    -0.280 N 
ATOM     86  H   UNL A   1      32.444  22.219  24.870  1.00  0.00     0.180 HD
BRANCH  85  87
ATOM     87  C   UNL A   1      34.209  23.256  24.658  1.00  0.00     0.049 A 
ATOM     88  C   UNL A   1      34.464  23.552  26.001  1.00  0.00     0.027 A 
ATOM     89  C   UNL A   1      35.264  23.136  23.773  1.00  0.00     0.027 A 
ATOM     90  C   UNL A   1      35.772  23.528  26.501  1.00  0.00     0.014 A 
ATOM     91  C   UNL A   1      36.568  23.121  24.276  1.00  0.00     0.014 A 
ATOM     92  C   UNL A   1      36.844  23.238  25.657  1.00  0.00     0.018 A 
BRANCH  92  93
ATOM     93  C   UNL A   1      38.237  22.977  26.076  1.00  0.00     0.145 A 
ATOM     94  N   UNL A   1      38.842  21.841  25.762  1.00  0.00    -0.228 NA
ATOM     95  N   UNL A   1      39.067  23.712  26.911  1.00  0.00    -0.266 N 
ATOM     96  C   UNL A   1      39.990  21.778  26.487  1.00  0.00     0.089 A 
ATOM     97  C   UNL A   1      40.159  22.927  27.246  1.00  0.00     0.074 A 
ATOM     98  C   UNL A   1      40.935  20.746  26.548  1.00  0.00     0.030 A 
ATOM     99  C   UNL A   1      41.257  23.092  28.105  1.00  0.00     0.029 A 
ATOM    100  C   UNL A   1      42.042  20.897  27.386  1.00  0.00     0.002 A 
ATOM    101  C   UNL A   1      42.194  22.051  28.155  1.00  0.00     0.002 A 
BRANCH  95 102
ATOM    102  C   UNL A   1      38.896  25.075  27.358  1.00  0.00     0.451 C 
ATOM    103  F   UNL A   1      39.030  25.174  28.710  1.00  0.00    -0.185 F 
ATOM    104  F   UNL A   1      39.806  25.923  26.807  1.00  0.00    -0.185 F 
ENDBRANCH  95 102
ENDBRANCH  92  93
ENDBRANCH  85  87
ENDBRANCH  82  85
ENDBRANCH  79  82
ENDBRANCH   2  77
TORSDOF 15
ENDMDL
MODEL 2
REMARK VINA RESULT:     -13.5      0.995      2.198
REMARK SMILES O=C(NCCCNC(=O)c1sccc1S(=O)(=O)Nc1ccc(-c2nc3ccccc3n2C(F)F)cc1)c1ccc(-c2c3nc(c(-c4c(F)c(F)c(F)c(F)c4F)c4ccc([nH]4)c(-c4c(F)c(F)c(F)c(F)c4F)c4nc(c(-c5c(F)c(F)c(F)c(F)c5F)c5ccc2[nH]5)C=C4)C=C3)cc1
REMARK SMILES IDX 7 1 8 2 9 3 6 5 5 6 4 7 3 8 1 9 2 10 37 12 38 13 99 14 39 15
REMARK SMILES IDX 98 16 40 17 41 18 42 19 92 20 43 21 97 22 91 23 93 24 44 25
REMARK SMILES IDX 96 26 90 27 89 28 45 30 77 31 57 32 76 33 58 34 61 35 75 36
REMARK SMILES IDX 94 37 59 38 60 39 74 41 95 42 62 43 46 44 47 45 55 46 48 47
REMARK SMILES IDX 49 48 53 49 56 50 50 51 51 52 54 53 52 54 78 55 79 56 87 57
REMARK SMILES IDX 80 58 81 59 85 60 88 61 82 62 83 63 86 64 84 65 63 66 64 67
REMARK SMILES IDX 72 68 65 69 66 70 70 71 73 72 67 73 68 74 71 75 69 76 10 77
REMARK SMILES IDX 11 78 14 79 12 80 13 81 15 82 16 83 17 84 18 85 19 87 20 88
REMARK SMILES IDX 36 89 21 90 35 91 22 92 23 93 24 94 31 95 25 96 30 97 26 98
REMARK SMILES IDX 29 99 27 100 28 101 32 102 33 103 34 104
REMARK H PARENT 7 4 3 11 93 29 61 40 18 86
REMARK Flexibility Score: inf
ROOT
ATOM      1  N   UNL A   1      30.907  26.566  25.962  1.00  0.00    -0.351 N 
ATOM      2  C   UNL A   1      30.535  26.310  24.674  1.00  0.00     0.262 C 
ATOM      3  O   UNL A   1      29.322  26.291  24.458  1.00  0.00    -0.268 OA
ATOM      4  H   UNL A   1      30.173  26.531  26.616  1.00  0.00     0.163 HD
ENDROOT
BRANCH   1   5
ATOM      5  C   UNL A   1      32.203  26.878  26.523  1.00  0.00     0.118 C 
BRANCH   5   6
ATOM      6  C   UNL A   1      32.442  28.381  26.523  1.00  0.00     0.042 C 
BRANCH   6   7
ATOM      7  C   UNL A   1      33.627  28.807  27.395  1.00  0.00     0.118 C 
BRANCH   7   8
ATOM      8  N   UNL A   1      33.697  30.226  27.680  1.00  0.00    -0.352 N 
ATOM      9  O   UNL A   1      34.454  32.290  27.931  1.00  0.00    -0.269 OA
ATOM     10  C   UNL A   1      34.731  31.089  27.916  1.00  0.00     0.251 C 
ATOM     11  H   UNL A   1      32.813  30.660  27.710  1.00  0.00     0.163 HD
BRANCH  10  12
ATOM     12  C   UNL A   1      36.121  30.666  28.232  1.00  0.00     0.039 A 
ATOM     13  C   UNL A   1      37.090  31.455  28.852  1.00  0.00     0.014 A 
ATOM     14  C   UNL A   1      36.472  29.365  27.827  1.00  0.00     0.014 A 
ATOM     15  C   UNL A   1      38.403  31.013  28.951  1.00  0.00     0.010 A 
ATOM     16  C   UNL A   1      37.773  28.900  27.959  1.00  0.00     0.010 A 
ATOM     17  C   UNL A   1      38.746  29.742  28.487  1.00  0.00    -0.014 A 
BRANCH  17  18
ATOM     18  C   UNL A   1      40.096  29.261  28.765  1.00  0.00     0.031 A 
ATOM     19  C   UNL A   1      40.330  28.917  30.201  1.00  0.00     0.074 A 
ATOM     20  C   UNL A   1      41.010  29.003  27.810  1.00  0.00     0.049 A 
ATOM     21  N   UNL A   1      41.234  29.381  31.003  1.00  0.00    -0.248 NA
ATOM     22  C   UNL A   1      39.360  28.020  30.853  1.00  0.00     0.031 C 
ATOM     23  C   UNL A   1      40.833  29.023  26.356  1.00  0.00     0.029 A 
ATOM     24  N   UNL A   1      42.293  28.566  27.952  1.00  0.00    -0.354 N 
ATOM     25  C   UNL A   1      41.049  28.720  32.217  1.00  0.00     0.074 A 
ATOM     26  C   UNL A   1      39.814  27.990  32.105  1.00  0.00     0.031 C 
ATOM     27  C   UNL A   1      41.885  28.407  25.768  1.00  0.00     0.029 A 
ATOM     28  C   UNL A   1      42.866  28.072  26.787  1.00  0.00     0.049 A 
ATOM     29  H   UNL A   1      42.775  28.599  28.810  1.00  0.00     0.167 HD
ATOM     30  C   UNL A   1      42.028  28.661  33.160  1.00  0.00     0.037 A 
ATOM     31  C   UNL A   1      44.033  27.385  26.684  1.00  0.00     0.037 A 
ATOM     32  C   UNL A   1      42.992  29.712  32.986  1.00  0.00     0.049 A 
ATOM     33  C   UNL A   1      44.818  27.649  27.914  1.00  0.00     0.074 A 
ATOM     34  C   UNL A   1      42.936  31.091  33.034  1.00  0.00     0.029 A 
ATOM     35  N   UNL A   1      44.177  29.415  32.364  1.00  0.00    -0.354 N 
ATOM     36  N   UNL A   1      45.340  28.805  28.210  1.00  0.00    -0.248 NA
ATOM     37  C   UNL A   1      44.644  26.732  29.031  1.00  0.00     0.031 C 
ATOM     38  C   UNL A   1      43.817  31.531  32.002  1.00  0.00     0.029 A 
ATOM     39  C   UNL A   1      44.402  30.399  31.435  1.00  0.00     0.049 A 
ATOM     40  H   UNL A   1      44.757  28.640  32.548  1.00  0.00     0.167 HD
ATOM     41  C   UNL A   1      45.151  28.931  29.577  1.00  0.00     0.074 A 
ATOM     42  C   UNL A   1      44.793  27.593  30.041  1.00  0.00     0.031 C 
ATOM     43  C   UNL A   1      45.026  30.161  30.157  1.00  0.00     0.037 A 
BRANCH  30  44
ATOM     44  C   UNL A   1      42.286  27.455  34.029  1.00  0.00     0.064 A 
ATOM     45  C   UNL A   1      41.956  27.497  35.399  1.00  0.00     0.173 A 
ATOM     46  C   UNL A   1      43.112  26.380  33.635  1.00  0.00     0.173 A 
ATOM     47  F   UNL A   1      41.202  28.491  35.889  1.00  0.00    -0.203 F 
ATOM     48  C   UNL A   1      42.469  26.568  36.309  1.00  0.00     0.198 A 
ATOM     49  C   UNL A   1      43.579  25.426  34.537  1.00  0.00     0.198 A 
ATOM     50  F   UNL A   1      43.593  26.273  32.390  1.00  0.00    -0.203 F 
ATOM     51  F   UNL A   1      42.225  26.715  37.618  1.00  0.00    -0.200 F 
ATOM     52  C   UNL A   1      43.283  25.536  35.878  1.00  0.00     0.200 A 
ATOM     53  F   UNL A   1      44.385  24.448  34.102  1.00  0.00    -0.200 F 
ATOM     54  F   UNL A   1      43.822  24.681  36.757  1.00  0.00    -0.200 F 
ENDBRANCH  30  44
BRANCH  31  55
ATOM     55  C   UNL A   1      44.370  26.268  25.769  1.00  0.00     0.064 A 
ATOM     56  C   UNL A   1      45.706  25.961  25.454  1.00  0.00     0.173 A 
ATOM     57  C   UNL A   1      43.409  25.298  25.422  1.00  0.00     0.173 A 
ATOM     58  F   UNL A   1      46.690  26.805  25.796  1.00  0.00    -0.203 F 
ATOM     59  C   UNL A   1      46.059  24.747  24.853  1.00  0.00     0.198 A 
ATOM     60  C   UNL A   1      43.762  24.091  24.817  1.00  0.00     0.198 A 
ATOM     61  F   UNL A   1      42.121  25.459  25.757  1.00  0.00    -0.203 F 
ATOM     62  F   UNL A   1      47.350  24.462  24.627  1.00  0.00    -0.200 F 
ATOM     63  C   UNL A   1      45.087  23.809  24.545  1.00  0.00     0.200 A 
ATOM     64  F   UNL A   1      42.816  23.175  24.563  1.00  0.00    -0.200 F 
ATOM     65  F   UNL A   1      45.430  22.621  24.029  1.00  0.00    -0.200 F 
ENDBRANCH  31  55
BRANCH  43  66
ATOM     66  C   UNL A   1      45.343  31.366  29.315  1.00  0.00     0.064 A 
ATOM     67  C   UNL A   1      44.413  32.011  28.479  1.00  0.00     0.173 A 
ATOM     68  C   UNL A   1      46.598  31.969  29.464  1.00  0.00     0.173 A 
ATOM     69  F   UNL A   1      43.159  31.560  28.362  1.00  0.00    -0.203 F 
ATOM     70  C   UNL A   1      44.745  33.177  27.789  1.00  0.00     0.198 A 
ATOM     71  C   UNL A   1      46.915  33.154  28.806  1.00  0.00     0.198 A 
ATOM     72  F   UNL A   1      47.508  31.432  30.293  1.00  0.00    -0.203 F 
ATOM     73  F   UNL A   1      43.844  33.765  26.989  1.00  0.00    -0.200 F 
ATOM     74  C   UNL A   1      45.994  33.751  27.960  1.00  0.00     0.200 A 
ATOM     75  F   UNL A   1      48.105  33.734  29.015  1.00  0.00    -0.200 F 
ATOM     76  F   UNL A   1      46.299  34.895  27.332  1.00  0.00    -0.200 F 
ENDBRANCH  43  66
ENDBRANCH  17  18
ENDBRANCH  10  12
ENDBRANCH   7   8
ENDBRANCH   6   7
ENDBRANCH   5   6
ENDBRANCH   1   5
BRANCH   2  77
ATOM     77  C   UNL A   1      31.534  26.147  23.649  1.00  0.00     0.112 A 
ATOM     78  S   UNL A   1      31.811  27.555  22.684  1.00  0.00    -0.137 S 
ATOM     79  C   UNL A   1      32.307  25.084  23.213  1.00  0.00     0.111 A 
ATOM     80  C   UNL A   1      33.038  26.797  21.786  1.00  0.00     0.067 A 
ATOM     81  C   UNL A   1      33.212  25.489  22.167  1.00  0.00     0.035 A 
BRANCH  79  82
ATOM     82  S   UNL A   1      32.315  23.422  23.726  1.00  0.00     0.263 S 
ATOM     83  O   UNL A   1      32.373  23.514  25.163  1.00  0.00    -0.201 OA
ATOM     84  O   UNL A   1      31.131  22.891  23.067  1.00  0.00    -0.201 OA
BRANCH  82  85
ATOM     85  N   UNL A   1      33.565  22.457  23.212  1.00  0.00    -0.280 N 
ATOM     86  H   UNL A   1      33.428  21.950  22.380  1.00  0.00     0.180 HD
BRANCH  85  87
ATOM     87  C   UNL A   1      34.810  22.301  23.863  1.00  0.00     0.049 A 
ATOM     88  C   UNL A   1      35.889  22.989  23.299  1.00  0.00     0.027 A 
ATOM     89  C   UNL A   1      34.968  21.664  25.080  1.00  0.00     0.027 A 
ATOM     90  C   UNL A   1      37.058  23.212  24.039  1.00  0.00     0.014 A 
ATOM     91  C   UNL A   1      36.139  21.883  25.809  1.00  0.00     0.014 A 
ATOM     92  C   UNL A   1      37.173  22.723  25.340  1.00  0.00     0.018 A 
BRANCH  92  93
ATOM     93  C   UNL A   1      38.247  23.051  26.302  1.00  0.00     0.145 A 
ATOM     94  N   UNL A   1      38.266  24.218  26.929  1.00  0.00    -0.228 NA
ATOM     95  N   UNL A   1      39.405  22.354  26.614  1.00  0.00    -0.266 N 
ATOM     96  C   UNL A   1      39.478  24.335  27.532  1.00  0.00     0.089 A 
ATOM     97  C   UNL A   1      40.239  23.192  27.337  1.00  0.00     0.074 A 
ATOM     98  C   UNL A   1      39.997  25.412  28.261  1.00  0.00     0.030 A 
ATOM     99  C   UNL A   1      41.545  23.076  27.840  1.00  0.00     0.029 A 
ATOM    100  C   UNL A   1      41.289  25.312  28.780  1.00  0.00     0.002 A 
ATOM    101  C   UNL A   1      42.051  24.163  28.566  1.00  0.00     0.002 A 
BRANCH  95 102
ATOM    102  C   UNL A   1      39.728  20.981  26.300  1.00  0.00     0.451 C 
ATOM    103  F   UNL A   1      38.884  20.476  25.358  1.00  0.00    -0.185 F 
ATOM    104  F   UNL A   1      40.991  20.840  25.816  1.00  0.00    -0.185 F 
ENDBRANCH  95 102
ENDBRANCH  92  93
ENDBRANCH  85  87
ENDBRANCH  82  85
ENDBRANCH  79  82
ENDBRANCH   2  77
TORSDOF 15
ENDMDL
MODEL 3
REMARK VINA RESULT:     -13.3      2.328      3.437
REMARK SMILES O=C(NCCCNC(=O)c1sccc1S(=O)(=O)Nc1ccc(-c2nc3ccccc3n2C(F)F)cc1)c1ccc(-c2c3nc(c(-c4c(F)c(F)c(F)c(F)c4F)c4ccc([nH]4)c(-c4c(F)c(F)c(F)c(F)c4F)c4nc(c(-c5c(F)c(F)c(F)c(F)c5F)c5ccc2[nH]5)C=C4)C=C3)cc1
REMARK SMILES IDX 7 1 8 2 9 3 6 5 5 6 4 7 3 8 1 9 2 10 37 12 38 13 99 14 39 15
REMARK SMILES IDX 98 16 40 17 41 18 42 19 92 20 43 21 97 22 91 23 93 24 44 25
REMARK SMILES IDX 96 26 90 27 89 28 45 30 77 31 57 32 76 33 58 34 61 35 75 36
REMARK SMILES IDX 94 37 59 38 60 39 74 41 95 42 62 43 46 44 47 45 55 46 48 47
REMARK SMILES IDX 49 48 53 49 56 50 50 51 51 52 54 53 52 54 78 55 79 56 87 57
REMARK SMILES IDX 80 58 81 59 85 60 88 61 82 62 83 63 86 64 84 65 63 66 64 67
REMARK SMILES IDX 72 68 65 69 66 70 70 71 73 72 67 73 68 74 71 75 69 76 10 77
REMARK SMILES IDX 11 78 14 79 12 80 13 81 15 82 16 83 17 84 18 85 19 87 20 88
REMARK SMILES IDX 36 89 21 90 35 91 22 92 23 93 24 94 31 95 25 96 30 97 26 98
REMARK SMILES IDX 29 99 27 100 28 101 32 102 33 103 34 104
REMARK H PARENT 7 4 3 11 93 29 61 40 18 86
REMARK Flexibility Score: inf
ROOT
ATOM      1  N   UNL A   1      32.785  27.865  26.883  1.00  0.00    -0.351 N 
ATOM      2  C   UNL A   1      33.051  27.248  25.696  1.00  0.00     0.262 C 
ATOM      3  O   UNL A   1      33.808  26.278  25.751  1.00  0.00    -0.268 OA
ATOM      4  H   UNL A   1      33.362  27.586  27.630  1.00  0.00     0.163 HD
ENDROOT
BRANCH   1   5
ATOM      5  C   UNL A   1      31.795  28.863  27.225  1.00  0.00     0.118 C 
BRANCH   5   6
ATOM      6  C   UNL A   1      32.298  30.258  26.884  1.00  0.00     0.042 C 
BRANCH   6   7
ATOM      7  C   UNL A   1      33.764  30.484  27.266  1.00  0.00     0.118 C 
BRANCH   7   8
ATOM      8  N   UNL A   1      33.979  31.456  28.318  1.00  0.00    -0.352 N 
ATOM      9  O   UNL A   1      34.955  32.853  29.729  1.00  0.00    -0.269 OA
ATOM     10  C   UNL A   1      35.080  31.847  29.029  1.00  0.00     0.251 C 
ATOM     11  H   UNL A   1      33.159  31.937  28.576  1.00  0.00     0.163 HD
BRANCH  10  12
ATOM     12  C   UNL A   1      36.362  31.095  29.070  1.00  0.00     0.039 A 
ATOM     13  C   UNL A   1      36.505  29.721  28.876  1.00  0.00     0.014 A 
ATOM     14  C   UNL A   1      37.508  31.854  29.368  1.00  0.00     0.014 A 
ATOM     15  C   UNL A   1      37.727  29.100  29.098  1.00  0.00     0.010 A 
ATOM     16  C   UNL A   1      38.743  31.247  29.552  1.00  0.00     0.010 A 
ATOM     17  C   UNL A   1      38.841  29.862  29.454  1.00  0.00    -0.014 A 
BRANCH  17  18
ATOM     18  C   UNL A   1      40.134  29.188  29.511  1.00  0.00     0.031 A 
ATOM     19  C   UNL A   1      40.634  28.958  30.901  1.00  0.00     0.074 A 
ATOM     20  C   UNL A   1      40.761  28.680  28.433  1.00  0.00     0.049 A 
ATOM     21  N   UNL A   1      41.754  29.339  31.428  1.00  0.00    -0.248 NA
ATOM     22  C   UNL A   1      39.717  28.311  31.857  1.00  0.00     0.031 C 
ATOM     23  C   UNL A   1      40.264  28.581  27.058  1.00  0.00     0.029 A 
ATOM     24  N   UNL A   1      41.966  28.047  28.365  1.00  0.00    -0.354 N 
ATOM     25  C   UNL A   1      41.754  28.847  32.732  1.00  0.00     0.074 A 
ATOM     26  C   UNL A   1      40.433  28.333  32.980  1.00  0.00     0.031 C 
ATOM     27  C   UNL A   1      41.055  27.737  26.355  1.00  0.00     0.029 A 
ATOM     28  C   UNL A   1      42.182  27.345  27.185  1.00  0.00     0.049 A 
ATOM     29  H   UNL A   1      42.629  28.084  29.092  1.00  0.00     0.167 HD
ATOM     30  C   UNL A   1      42.902  28.718  33.452  1.00  0.00     0.037 A 
ATOM     31  C   UNL A   1      43.183  26.461  26.939  1.00  0.00     0.037 A 
ATOM     32  C   UNL A   1      43.944  29.565  32.939  1.00  0.00     0.049 A 
ATOM     33  C   UNL A   1      44.256  26.710  27.932  1.00  0.00     0.074 A 
ATOM     34  C   UNL A   1      44.101  30.931  32.807  1.00  0.00     0.029 A 
ATOM     35  N   UNL A   1      44.901  29.007  32.132  1.00  0.00    -0.354 N 
ATOM     36  N   UNL A   1      44.994  27.784  27.952  1.00  0.00    -0.248 NA
ATOM     37  C   UNL A   1      44.208  25.957  29.176  1.00  0.00     0.031 C 
ATOM     38  C   UNL A   1      44.780  31.105  31.565  1.00  0.00     0.029 A 
ATOM     39  C   UNL A   1      45.050  29.837  31.051  1.00  0.00     0.049 A 
ATOM     40  H   UNL A   1      45.389  28.167  32.298  1.00  0.00     0.167 HD
ATOM     41  C   UNL A   1      45.139  28.080  29.298  1.00  0.00     0.074 A 
ATOM     42  C   UNL A   1      44.705  26.878  30.005  1.00  0.00     0.031 C 
ATOM     43  C   UNL A   1      45.328  29.366  29.717  1.00  0.00     0.037 A 
BRANCH  30  44
ATOM     44  C   UNL A   1      43.172  27.582  34.406  1.00  0.00     0.064 A 
ATOM     45  C   UNL A   1      43.500  26.308  33.901  1.00  0.00     0.173 A 
ATOM     46  C   UNL A   1      42.832  27.624  35.776  1.00  0.00     0.173 A 
ATOM     47  F   UNL A   1      43.811  26.146  32.606  1.00  0.00    -0.203 F 
ATOM     48  C   UNL A   1      43.428  25.159  34.694  1.00  0.00     0.198 A 
ATOM     49  C   UNL A   1      42.811  26.484  36.576  1.00  0.00     0.198 A 
ATOM     50  F   UNL A   1      42.396  28.745  36.365  1.00  0.00    -0.203 F 
ATOM     51  F   UNL A   1      43.633  23.955  34.143  1.00  0.00    -0.200 F 
ATOM     52  C   UNL A   1      43.080  25.248  36.030  1.00  0.00     0.200 A 
ATOM     53  F   UNL A   1      42.448  26.589  37.862  1.00  0.00    -0.200 F 
ATOM     54  F   UNL A   1      42.953  24.143  36.776  1.00  0.00    -0.200 F 
ENDBRANCH  30  44
BRANCH  31  55
ATOM     55  C   UNL A   1      43.139  25.214  26.137  1.00  0.00     0.064 A 
ATOM     56  C   UNL A   1      44.116  24.938  25.165  1.00  0.00     0.173 A 
ATOM     57  C   UNL A   1      42.311  24.138  26.512  1.00  0.00     0.173 A 
ATOM     58  F   UNL A   1      44.980  25.892  24.788  1.00  0.00    -0.203 F 
ATOM     59  C   UNL A   1      44.271  23.657  24.621  1.00  0.00     0.198 A 
ATOM     60  C   UNL A   1      42.462  22.864  25.965  1.00  0.00     0.198 A 
ATOM     61  F   UNL A   1      41.406  24.279  27.491  1.00  0.00    -0.203 F 
ATOM     62  F   UNL A   1      45.257  23.417  23.744  1.00  0.00    -0.200 F 
ATOM     63  C   UNL A   1      43.451  22.619  25.030  1.00  0.00     0.200 A 
ATOM     64  F   UNL A   1      41.690  21.858  26.401  1.00  0.00    -0.200 F 
ATOM     65  F   UNL A   1      43.639  21.379  24.559  1.00  0.00    -0.200 F 
ENDBRANCH  31  55
BRANCH  43  66
ATOM     66  C   UNL A   1      45.618  30.406  28.669  1.00  0.00     0.064 A 
ATOM     67  C   UNL A   1      44.627  31.101  27.953  1.00  0.00     0.173 A 
ATOM     68  C   UNL A   1      46.946  30.808  28.482  1.00  0.00     0.173 A 
ATOM     69  F   UNL A   1      43.327  30.852  28.151  1.00  0.00    -0.203 F 
ATOM     70  C   UNL A   1      44.959  32.117  27.057  1.00  0.00     0.198 A 
ATOM     71  C   UNL A   1      47.272  31.848  27.616  1.00  0.00     0.198 A 
ATOM     72  F   UNL A   1      47.931  30.221  29.180  1.00  0.00    -0.203 F 
ATOM     73  F   UNL A   1      43.995  32.756  26.376  1.00  0.00    -0.200 F 
ATOM     74  C   UNL A   1      46.282  32.494  26.895  1.00  0.00     0.200 A 
ATOM     75  F   UNL A   1      48.547  32.244  27.503  1.00  0.00    -0.200 F 
ATOM     76  F   UNL A   1      46.598  33.499  26.067  1.00  0.00    -0.200 F 
ENDBRANCH  43  66
ENDBRANCH  17  18
ENDBRANCH  10  12
ENDBRANCH   7   8
ENDBRANCH   6   7
ENDBRANCH   5   6
ENDBRANCH   1   5
BRANCH   2  77
ATOM     77  C   UNL A   1      32.408  27.695  24.486  1.00  0.00     0.112 A 
ATOM     78  S   UNL A   1      33.276  28.912  23.617  1.00  0.00    -0.137 S 
ATOM     79  C   UNL A   1      31.203  27.405  23.869  1.00  0.00     0.111 A 
ATOM     80  C   UNL A   1      32.125  28.955  22.368  1.00  0.00     0.067 A 
ATOM     81  C   UNL A   1      31.075  28.104  22.615  1.00  0.00     0.035 A 
BRANCH  79  82
ATOM     82  S   UNL A   1      29.897  26.380  24.389  1.00  0.00     0.263 S 
ATOM     83  O   UNL A   1      30.021  26.381  25.825  1.00  0.00    -0.201 OA
ATOM     84  O   UNL A   1      28.747  26.996  23.745  1.00  0.00    -0.201 OA
BRANCH  82  85
ATOM     85  N   UNL A   1      29.892  24.804  23.865  1.00  0.00    -0.280 N 
ATOM     86  H   UNL A   1      29.080  24.484  23.410  1.00  0.00     0.180 HD
BRANCH  85  87
ATOM     87  C   UNL A   1      30.952  23.880  24.014  1.00  0.00     0.049 A 
ATOM     88  C   UNL A   1      31.019  23.214  25.242  1.00  0.00     0.027 A 
ATOM     89  C   UNL A   1      31.789  23.496  22.983  1.00  0.00     0.027 A 
ATOM     90  C   UNL A   1      31.772  22.040  25.376  1.00  0.00     0.014 A 
ATOM     91  C   UNL A   1      32.545  22.330  23.126  1.00  0.00     0.014 A 
ATOM     92  C   UNL A   1      32.492  21.536  24.293  1.00  0.00     0.018 A 
BRANCH  92  93
ATOM     93  C   UNL A   1      33.155  20.217  24.226  1.00  0.00     0.145 A 
ATOM     94  N   UNL A   1      32.494  19.142  23.824  1.00  0.00    -0.228 NA
ATOM     95  N   UNL A   1      34.419  19.834  24.654  1.00  0.00    -0.266 N 
ATOM     96  C   UNL A   1      33.266  18.060  24.110  1.00  0.00     0.089 A 
ATOM     97  C   UNL A   1      34.479  18.450  24.659  1.00  0.00     0.074 A 
ATOM     98  C   UNL A   1      32.976  16.701  23.931  1.00  0.00     0.030 A 
ATOM     99  C   UNL A   1      35.443  17.513  25.066  1.00  0.00     0.029 A 
ATOM    100  C   UNL A   1      33.927  15.755  24.318  1.00  0.00     0.002 A 
ATOM    101  C   UNL A   1      35.138  16.158  24.882  1.00  0.00     0.002 A 
BRANCH  95 102
ATOM    102  C   UNL A   1      35.532  20.684  25.010  1.00  0.00     0.451 C 
ATOM    103  F   UNL A   1      35.646  21.737  24.154  1.00  0.00    -0.185 F 
ATOM    104  F   UNL A   1      35.414  21.201  26.262  1.00  0.00    -0.185 F 
ENDBRANCH  95 102
ENDBRANCH  92  93
ENDBRANCH  85  87
ENDBRANCH  82  85
ENDBRANCH  79  82
ENDBRANCH   2  77
TORSDOF 15
ENDMDL
