MODEL 1
REMARK VINA RESULT:     -12.2      0.000      0.000
REMARK SMILES COc1cc(C(=O)N[C@H]2CCCC[C@H]2C(=O)NCCCNC(=O)c2ccc(-c3c4nc(c(-c5c(F)c(F)c(F)c(F)c5F)c5ccc([nH]5)c(-c5c(F)c(F)c(F)c(F)c5F)c5nc(c(-c6c(F)c(F)c(F)c(F)c6F)c6ccc3[nH]6)C=C5)C=C4)cc2)cc(Cl)c1OC
REMARK SMILES IDX 18 1 17 2 15 3 16 4 14 6 9 7 10 8 11 9 13 10 12 11 8 12 6 13
REMARK SMILES IDX 7 14 5 16 3 17 4 18 90 19 88 20 87 21 89 22 2 23 1 24 91 25
REMARK SMILES IDX 92 26 19 27 20 28 21 29 22 30 23 32 24 33 25 34 86 35 26 36
REMARK SMILES IDX 85 37 27 38 28 39 29 40 79 41 30 42 84 43 78 44 80 45 31 46
REMARK SMILES IDX 83 47 77 48 76 49 32 51 64 52 44 53 63 54 45 55 48 56 62 57
REMARK SMILES IDX 81 58 46 59 47 60 61 62 82 63 49 64 33 65 34 66 42 67 35 68
REMARK SMILES IDX 36 69 40 70 43 71 37 72 38 73 41 74 39 75 65 76 66 77 74 78
REMARK SMILES IDX 67 79 68 80 72 81 75 82 69 83 70 84 73 85 71 86 50 87 51 88
REMARK SMILES IDX 59 89 52 90 53 91 57 92 60 93 54 94 55 95 58 96 56 97
REMARK H PARENT 17 5 8 15 21 31 80 50 48 61
REMARK Flexibility Score: inf
ROOT
ATOM      1  C   UNL A   1      36.502  19.843  25.001  1.00  0.00     0.117 C 
ENDROOT
BRANCH   1   2
ATOM      2  N   UNL A   1      36.245  21.090  25.709  1.00  0.00    -0.356 N 
ATOM      3  C   UNL A   1      35.442  22.150  25.435  1.00  0.00     0.225 C 
ATOM      4  O   UNL A   1      35.514  23.113  26.206  1.00  0.00    -0.275 OA
ATOM      5  H   UNL A   1      36.751  21.182  26.549  1.00  0.00     0.163 HD
BRANCH   3   6
ATOM      6  C   UNL A   1      34.475  22.202  24.256  1.00  0.00     0.101 C 
ATOM      7  C   UNL A   1      33.068  21.600  24.511  1.00  0.00     0.094 C 
ATOM      8  C   UNL A   1      32.067  21.930  23.385  1.00  0.00     0.026 C 
ATOM      9  C   UNL A   1      32.151  23.367  22.889  1.00  0.00     0.002 C 
ATOM     10  C   UNL A   1      34.565  23.539  23.501  1.00  0.00     0.015 C 
ATOM     11  C   UNL A   1      33.550  23.659  22.375  1.00  0.00     0.001 C 
BRANCH   7  12
ATOM     12  N   UNL A   1      32.454  21.904  25.799  1.00  0.00    -0.349 N 
ATOM     13  C   UNL A   1      32.044  23.063  26.419  1.00  0.00     0.251 C 
ATOM     14  O   UNL A   1      31.805  22.955  27.626  1.00  0.00    -0.269 OA
ATOM     15  H   UNL A   1      32.297  21.101  26.347  1.00  0.00     0.164 HD
BRANCH  13  16
ATOM     16  C   UNL A   1      31.801  24.395  25.770  1.00  0.00     0.045 A 
ATOM     17  C   UNL A   1      32.752  26.617  25.295  1.00  0.00     0.163 A 
ATOM     18  C   UNL A   1      32.865  25.323  25.826  1.00  0.00     0.064 A 
ATOM     19  C   UNL A   1      31.560  27.005  24.660  1.00  0.00     0.179 A 
ATOM     20  C   UNL A   1      30.491  26.103  24.620  1.00  0.00     0.087 A 
ATOM     21  C   UNL A   1      30.619  24.817  25.168  1.00  0.00     0.038 A 
ATOM     22  Cl  UNL A   1      28.936  26.507  23.975  1.00  0.00    -0.080 Cl
BRANCH  17  23
ATOM     23  O   UNL A   1      33.741  27.568  25.349  1.00  0.00    -0.493 OA
ATOM     24  C   UNL A   1      33.999  28.200  26.596  1.00  0.00     0.278 C 
ENDBRANCH  17  23
BRANCH  19  25
ATOM     25  O   UNL A   1      31.488  28.303  24.217  1.00  0.00    -0.491 OA
ATOM     26  C   UNL A   1      31.601  28.465  22.806  1.00  0.00     0.278 C 
ENDBRANCH  19  25
ENDBRANCH  13  16
ENDBRANCH   7  12
ENDBRANCH   3   6
ENDBRANCH   1   2
BRANCH   1  27
ATOM     27  C   UNL A   1      37.969  19.686  24.626  1.00  0.00     0.042 C 
BRANCH  27  28
ATOM     28  C   UNL A   1      38.945  20.029  25.742  1.00  0.00     0.118 C 
BRANCH  28  29
ATOM     29  N   UNL A   1      40.069  19.110  25.795  1.00  0.00    -0.352 N 
ATOM     30  C   UNL A   1      41.411  19.342  25.964  1.00  0.00     0.251 C 
ATOM     31  H   UNL A   1      39.827  18.160  25.695  1.00  0.00     0.163 HD
ATOM     32  O   UNL A   1      42.203  18.417  25.767  1.00  0.00    -0.269 OA
BRANCH  30  33
ATOM     33  C   UNL A   1      41.940  20.673  26.353  1.00  0.00     0.039 A 
ATOM     34  C   UNL A   1      42.110  20.955  27.714  1.00  0.00     0.014 A 
ATOM     35  C   UNL A   1      42.192  21.678  25.417  1.00  0.00     0.014 A 
ATOM     36  C   UNL A   1      42.572  22.211  28.126  1.00  0.00     0.010 A 
ATOM     37  C   UNL A   1      42.745  22.894  25.819  1.00  0.00     0.010 A 
ATOM     38  C   UNL A   1      42.919  23.186  27.179  1.00  0.00    -0.014 A 
BRANCH  38  39
ATOM     39  C   UNL A   1      43.403  24.534  27.581  1.00  0.00     0.031 A 
ATOM     40  C   UNL A   1      42.412  25.599  27.979  1.00  0.00     0.074 A 
ATOM     41  C   UNL A   1      44.715  24.831  27.531  1.00  0.00     0.049 A 
ATOM     42  N   UNL A   1      42.611  26.868  28.234  1.00  0.00    -0.248 NA
ATOM     43  C   UNL A   1      41.003  25.186  28.070  1.00  0.00     0.031 C 
ATOM     44  C   UNL A   1      45.779  23.909  27.132  1.00  0.00     0.029 A 
ATOM     45  N   UNL A   1      45.378  26.004  27.804  1.00  0.00    -0.354 N 
ATOM     46  C   UNL A   1      41.354  27.408  28.475  1.00  0.00     0.074 A 
ATOM     47  C   UNL A   1      40.395  26.341  28.294  1.00  0.00     0.031 C 
ATOM     48  C   UNL A   1      46.960  24.542  27.204  1.00  0.00     0.029 A 
ATOM     49  C   UNL A   1      46.737  25.925  27.614  1.00  0.00     0.049 A 
ATOM     50  H   UNL A   1      44.923  26.822  28.106  1.00  0.00     0.167 HD
ATOM     51  C   UNL A   1      41.028  28.673  28.836  1.00  0.00     0.037 A 
ATOM     52  C   UNL A   1      47.692  26.866  27.745  1.00  0.00     0.037 A 
ATOM     53  C   UNL A   1      41.985  29.721  29.072  1.00  0.00     0.049 A 
ATOM     54  C   UNL A   1      47.308  28.258  28.171  1.00  0.00     0.074 A 
ATOM     55  C   UNL A   1      41.757  31.018  29.500  1.00  0.00     0.029 A 
ATOM     56  N   UNL A   1      43.355  29.587  28.909  1.00  0.00    -0.354 N 
ATOM     57  N   UNL A   1      46.120  28.745  28.435  1.00  0.00    -0.248 NA
ATOM     58  C   UNL A   1      48.400  29.231  28.320  1.00  0.00     0.031 C 
ATOM     59  C   UNL A   1      42.988  31.679  29.566  1.00  0.00     0.029 A 
ATOM     60  C   UNL A   1      43.986  30.782  29.219  1.00  0.00     0.049 A 
ATOM     61  H   UNL A   1      43.813  28.767  28.616  1.00  0.00     0.167 HD
ATOM     62  C   UNL A   1      46.323  30.066  28.809  1.00  0.00     0.074 A 
ATOM     63  C   UNL A   1      47.749  30.304  28.747  1.00  0.00     0.031 C 
ATOM     64  C   UNL A   1      45.408  30.997  29.172  1.00  0.00     0.037 A 
BRANCH  51  65
ATOM     65  C   UNL A   1      39.571  28.992  29.005  1.00  0.00     0.064 A 
ATOM     66  C   UNL A   1      38.950  28.953  30.263  1.00  0.00     0.173 A 
ATOM     67  C   UNL A   1      38.794  29.372  27.901  1.00  0.00     0.173 A 
ATOM     68  F   UNL A   1      39.646  28.585  31.348  1.00  0.00    -0.203 F 
ATOM     69  C   UNL A   1      37.597  29.253  30.402  1.00  0.00     0.198 A 
ATOM     70  C   UNL A   1      37.449  29.701  28.049  1.00  0.00     0.198 A 
ATOM     71  F   UNL A   1      39.341  29.433  26.677  1.00  0.00    -0.203 F 
ATOM     72  F   UNL A   1      37.014  29.160  31.606  1.00  0.00    -0.200 F 
ATOM     73  C   UNL A   1      36.850  29.633  29.298  1.00  0.00     0.200 A 
ATOM     74  F   UNL A   1      36.731  30.080  26.983  1.00  0.00    -0.200 F 
ATOM     75  F   UNL A   1      35.550  29.926  29.436  1.00  0.00    -0.200 F 
ENDBRANCH  51  65
BRANCH  52  76
ATOM     76  C   UNL A   1      49.114  26.517  27.494  1.00  0.00     0.064 A 
ATOM     77  C   UNL A   1      49.988  26.258  28.560  1.00  0.00     0.173 A 
ATOM     78  C   UNL A   1      49.630  26.441  26.192  1.00  0.00     0.173 A 
ATOM     79  F   UNL A   1      49.546  26.344  29.823  1.00  0.00    -0.203 F 
ATOM     80  C   UNL A   1      51.327  25.952  28.333  1.00  0.00     0.198 A 
ATOM     81  C   UNL A   1      50.964  26.109  25.966  1.00  0.00     0.198 A 
ATOM     82  F   UNL A   1      48.834  26.679  25.140  1.00  0.00    -0.203 F 
ATOM     83  F   UNL A   1      52.152  25.752  29.370  1.00  0.00    -0.200 F 
ATOM     84  C   UNL A   1      51.813  25.872  27.037  1.00  0.00     0.200 A 
ATOM     85  F   UNL A   1      51.428  26.022  24.712  1.00  0.00    -0.200 F 
ATOM     86  F   UNL A   1      53.102  25.575  26.819  1.00  0.00    -0.200 F 
ENDBRANCH  52  76
BRANCH  64  87
ATOM     87  C   UNL A   1      45.920  32.347  29.576  1.00  0.00     0.064 A 
ATOM     88  C   UNL A   1      46.042  33.395  28.652  1.00  0.00     0.173 A 
ATOM     89  C   UNL A   1      46.242  32.609  30.916  1.00  0.00     0.173 A 
ATOM     90  F   UNL A   1      45.759  33.189  27.357  1.00  0.00    -0.203 F 
ATOM     91  C   UNL A   1      46.486  34.653  29.053  1.00  0.00     0.198 A 
ATOM     92  C   UNL A   1      46.662  33.874  31.317  1.00  0.00     0.198 A 
ATOM     93  F   UNL A   1      46.137  31.641  31.839  1.00  0.00    -0.203 F 
ATOM     94  F   UNL A   1      46.631  35.630  28.147  1.00  0.00    -0.200 F 
ATOM     95  C   UNL A   1      46.788  34.893  30.385  1.00  0.00     0.200 A 
ATOM     96  F   UNL A   1      46.943  34.108  32.607  1.00  0.00    -0.200 F 
ATOM     97  F   UNL A   1      47.206  36.107  30.770  1.00  0.00    -0.200 F 
ENDBRANCH  64  87
ENDBRANCH  38  39
ENDBRANCH  30  33
ENDBRANCH  28  29
ENDBRANCH  27  28
ENDBRANCH   1  27
TORSDOF 14
ENDMDL
MODEL 2
REMARK VINA RESULT:     -12.2      0.813      2.115
REMARK SMILES COc1cc(C(=O)N[C@H]2CCCC[C@H]2C(=O)NCCCNC(=O)c2ccc(-c3c4nc(c(-c5c(F)c(F)c(F)c(F)c5F)c5ccc([nH]5)c(-c5c(F)c(F)c(F)c(F)c5F)c5nc(c(-c6c(F)c(F)c(F)c(F)c6F)c6ccc3[nH]6)C=C5)C=C4)cc2)cc(Cl)c1OC
REMARK SMILES IDX 18 1 17 2 15 3 16 4 14 6 9 7 10 8 11 9 13 10 12 11 8 12 6 13
REMARK SMILES IDX 7 14 5 16 3 17 4 18 90 19 88 20 87 21 89 22 2 23 1 24 91 25
REMARK SMILES IDX 92 26 19 27 20 28 21 29 22 30 23 32 24 33 25 34 86 35 26 36
REMARK SMILES IDX 85 37 27 38 28 39 29 40 79 41 30 42 84 43 78 44 80 45 31 46
REMARK SMILES IDX 83 47 77 48 76 49 32 51 64 52 44 53 63 54 45 55 48 56 62 57
REMARK SMILES IDX 81 58 46 59 47 60 61 62 82 63 49 64 33 65 34 66 42 67 35 68
REMARK SMILES IDX 36 69 40 70 43 71 37 72 38 73 41 74 39 75 65 76 66 77 74 78
REMARK SMILES IDX 67 79 68 80 72 81 75 82 69 83 70 84 73 85 71 86 50 87 51 88
REMARK SMILES IDX 59 89 52 90 53 91 57 92 60 93 54 94 55 95 58 96 56 97
REMARK H PARENT 17 5 8 15 21 31 80 50 48 61
REMARK Flexibility Score: inf
ROOT
ATOM      1  C   UNL A   1      36.545  20.024  24.993  1.00  0.00     0.117 C 
ENDROOT
BRANCH   1   2
ATOM      2  N   UNL A   1      36.378  21.335  25.606  1.00  0.00    -0.356 N 
ATOM      3  C   UNL A   1      35.602  22.403  25.287  1.00  0.00     0.225 C 
ATOM      4  O   UNL A   1      35.756  23.422  25.969  1.00  0.00    -0.275 OA
ATOM      5  H   UNL A   1      36.935  21.474  26.407  1.00  0.00     0.163 HD
BRANCH   3   6
ATOM      6  C   UNL A   1      34.571  22.399  24.163  1.00  0.00     0.101 C 
ATOM      7  C   UNL A   1      33.223  21.703  24.486  1.00  0.00     0.094 C 
ATOM      8  C   UNL A   1      32.143  21.974  23.420  1.00  0.00     0.026 C 
ATOM      9  C   UNL A   1      32.105  23.418  22.937  1.00  0.00     0.002 C 
ATOM     10  C   UNL A   1      34.531  23.745  23.419  1.00  0.00     0.015 C 
ATOM     11  C   UNL A   1      33.451  23.806  22.351  1.00  0.00     0.001 C 
BRANCH   7  12
ATOM     12  N   UNL A   1      32.661  21.956  25.809  1.00  0.00    -0.349 N 
ATOM     13  C   UNL A   1      32.228  23.083  26.470  1.00  0.00     0.251 C 
ATOM     14  O   UNL A   1      32.056  22.945  27.685  1.00  0.00    -0.269 OA
ATOM     15  H   UNL A   1      32.572  21.138  26.350  1.00  0.00     0.164 HD
BRANCH  13  16
ATOM     16  C   UNL A   1      31.886  24.412  25.858  1.00  0.00     0.045 A 
ATOM     17  C   UNL A   1      32.697  26.691  25.391  1.00  0.00     0.163 A 
ATOM     18  C   UNL A   1      32.900  25.395  25.891  1.00  0.00     0.064 A 
ATOM     19  C   UNL A   1      31.460  27.024  24.812  1.00  0.00     0.179 A 
ATOM     20  C   UNL A   1      30.441  26.066  24.797  1.00  0.00     0.087 A 
ATOM     21  C   UNL A   1      30.659  24.780  25.312  1.00  0.00     0.038 A 
ATOM     22  Cl  UNL A   1      28.841  26.396  24.222  1.00  0.00    -0.080 Cl
BRANCH  17  23
ATOM     23  O   UNL A   1      33.634  27.693  25.424  1.00  0.00    -0.493 OA
ATOM     24  C   UNL A   1      33.942  28.284  26.680  1.00  0.00     0.278 C 
ENDBRANCH  17  23
BRANCH  19  25
ATOM     25  O   UNL A   1      31.300  28.325  24.399  1.00  0.00    -0.491 OA
ATOM     26  C   UNL A   1      31.403  28.526  22.991  1.00  0.00     0.278 C 
ENDBRANCH  19  25
ENDBRANCH  13  16
ENDBRANCH   7  12
ENDBRANCH   3   6
ENDBRANCH   1   2
BRANCH   1  27
ATOM     27  C   UNL A   1      38.007  19.700  24.716  1.00  0.00     0.042 C 
BRANCH  27  28
ATOM     28  C   UNL A   1      38.963  20.101  25.828  1.00  0.00     0.118 C 
BRANCH  28  29
ATOM     29  N   UNL A   1      40.082  19.183  25.953  1.00  0.00    -0.352 N 
ATOM     30  C   UNL A   1      41.427  19.421  26.094  1.00  0.00     0.251 C 
ATOM     31  H   UNL A   1      39.835  18.230  25.934  1.00  0.00     0.163 HD
ATOM     32  O   UNL A   1      42.212  18.477  25.971  1.00  0.00    -0.269 OA
BRANCH  30  33
ATOM     33  C   UNL A   1      41.966  20.776  26.367  1.00  0.00     0.039 A 
ATOM     34  C   UNL A   1      42.290  21.115  27.687  1.00  0.00     0.014 A 
ATOM     35  C   UNL A   1      42.079  21.748  25.372  1.00  0.00     0.014 A 
ATOM     36  C   UNL A   1      42.767  22.395  27.994  1.00  0.00     0.010 A 
ATOM     37  C   UNL A   1      42.646  22.990  25.659  1.00  0.00     0.010 A 
ATOM     38  C   UNL A   1      42.974  23.338  26.976  1.00  0.00    -0.014 A 
BRANCH  38  39
ATOM     39  C   UNL A   1      43.469  24.711  27.268  1.00  0.00     0.031 A 
ATOM     40  C   UNL A   1      42.532  25.739  27.849  1.00  0.00     0.074 A 
ATOM     41  C   UNL A   1      44.731  25.062  26.955  1.00  0.00     0.049 A 
ATOM     42  N   UNL A   1      42.723  27.019  28.053  1.00  0.00    -0.248 NA
ATOM     43  C   UNL A   1      41.188  25.269  28.221  1.00  0.00     0.031 C 
ATOM     44  C   UNL A   1      45.733  24.179  26.357  1.00  0.00     0.029 A 
ATOM     45  N   UNL A   1      45.384  26.265  27.085  1.00  0.00    -0.354 N 
ATOM     46  C   UNL A   1      41.516  27.509  28.537  1.00  0.00     0.074 A 
ATOM     47  C   UNL A   1      40.587  26.401  28.556  1.00  0.00     0.031 C 
ATOM     48  C   UNL A   1      46.877  24.862  26.190  1.00  0.00     0.029 A 
ATOM     49  C   UNL A   1      46.680  26.240  26.630  1.00  0.00     0.049 A 
ATOM     50  H   UNL A   1      44.963  27.067  27.468  1.00  0.00     0.167 HD
ATOM     51  C   UNL A   1      41.214  28.764  28.949  1.00  0.00     0.037 A 
ATOM     52  C   UNL A   1      47.600  27.221  26.563  1.00  0.00     0.037 A 
ATOM     53  C   UNL A   1      42.151  29.854  28.985  1.00  0.00     0.049 A 
ATOM     54  C   UNL A   1      47.248  28.601  27.050  1.00  0.00     0.074 A 
ATOM     55  C   UNL A   1      41.957  31.146  29.443  1.00  0.00     0.029 A 
ATOM     56  N   UNL A   1      43.467  29.775  28.553  1.00  0.00    -0.354 N 
ATOM     57  N   UNL A   1      46.116  29.042  27.543  1.00  0.00    -0.248 NA
ATOM     58  C   UNL A   1      48.305  29.621  26.974  1.00  0.00     0.031 C 
ATOM     59  C   UNL A   1      43.147  31.858  29.260  1.00  0.00     0.029 A 
ATOM     60  C   UNL A   1      44.094  31.000  28.725  1.00  0.00     0.049 A 
ATOM     61  H   UNL A   1      43.892  28.970  28.179  1.00  0.00     0.167 HD
ATOM     62  C   UNL A   1      46.332  30.375  27.862  1.00  0.00     0.074 A 
ATOM     63  C   UNL A   1      47.706  30.672  27.516  1.00  0.00     0.031 C 
ATOM     64  C   UNL A   1      45.468  31.273  28.395  1.00  0.00     0.037 A 
BRANCH  51  65
ATOM     65  C   UNL A   1      39.807  29.025  29.404  1.00  0.00     0.064 A 
ATOM     66  C   UNL A   1      38.813  29.457  28.513  1.00  0.00     0.173 A 
ATOM     67  C   UNL A   1      39.441  28.809  30.741  1.00  0.00     0.173 A 
ATOM     68  F   UNL A   1      39.114  29.689  27.227  1.00  0.00    -0.203 F 
ATOM     69  C   UNL A   1      37.512  29.694  28.952  1.00  0.00     0.198 A 
ATOM     70  C   UNL A   1      38.133  29.017  31.169  1.00  0.00     0.198 A 
ATOM     71  F   UNL A   1      40.351  28.388  31.633  1.00  0.00    -0.203 F 
ATOM     72  F   UNL A   1      36.592  30.155  28.093  1.00  0.00    -0.200 F 
ATOM     73  C   UNL A   1      37.172  29.468  30.276  1.00  0.00     0.200 A 
ATOM     74  F   UNL A   1      37.802  28.787  32.447  1.00  0.00    -0.200 F 
ATOM     75  F   UNL A   1      35.919  29.691  30.695  1.00  0.00    -0.200 F 
ENDBRANCH  51  65
BRANCH  52  76
ATOM     76  C   UNL A   1      48.958  26.928  26.036  1.00  0.00     0.064 A 
ATOM     77  C   UNL A   1      49.264  27.142  24.684  1.00  0.00     0.173 A 
ATOM     78  C   UNL A   1      49.971  26.425  26.865  1.00  0.00     0.173 A 
ATOM     79  F   UNL A   1      48.320  27.599  23.849  1.00  0.00    -0.203 F 
ATOM     80  C   UNL A   1      50.528  26.849  24.179  1.00  0.00     0.198 A 
ATOM     81  C   UNL A   1      51.243  26.157  26.363  1.00  0.00     0.198 A 
ATOM     82  F   UNL A   1      49.728  26.205  28.164  1.00  0.00    -0.203 F 
ATOM     83  F   UNL A   1      50.783  27.022  22.875  1.00  0.00    -0.200 F 
ATOM     84  C   UNL A   1      51.518  26.362  25.019  1.00  0.00     0.200 A 
ATOM     85  F   UNL A   1      52.201  25.697  27.179  1.00  0.00    -0.200 F 
ATOM     86  F   UNL A   1      52.736  26.083  24.532  1.00  0.00    -0.200 F 
ENDBRANCH  52  76
BRANCH  64  87
ATOM     87  C   UNL A   1      45.991  32.648  28.682  1.00  0.00     0.064 A 
ATOM     88  C   UNL A   1      46.610  32.961  29.900  1.00  0.00     0.173 A 
ATOM     89  C   UNL A   1      45.917  33.651  27.704  1.00  0.00     0.173 A 
ATOM     90  F   UNL A   1      46.693  32.039  30.872  1.00  0.00    -0.203 F 
ATOM     91  C   UNL A   1      47.122  34.235  30.135  1.00  0.00     0.198 A 
ATOM     92  C   UNL A   1      46.452  34.916  27.933  1.00  0.00     0.198 A 
ATOM     93  F   UNL A   1      45.339  33.400  26.520  1.00  0.00    -0.203 F 
ATOM     94  F   UNL A   1      47.678  34.523  31.321  1.00  0.00    -0.200 F 
ATOM     95  C   UNL A   1      47.049  35.208  29.150  1.00  0.00     0.200 A 
ATOM     96  F   UNL A   1      46.390  35.852  26.975  1.00  0.00    -0.200 F 
ATOM     97  F   UNL A   1      47.550  36.431  29.375  1.00  0.00    -0.200 F 
ENDBRANCH  64  87
ENDBRANCH  38  39
ENDBRANCH  30  33
ENDBRANCH  28  29
ENDBRANCH  27  28
ENDBRANCH   1  27
TORSDOF 14
ENDMDL
MODEL 3
REMARK VINA RESULT:     -12.1      5.491     10.565
REMARK SMILES COc1cc(C(=O)N[C@H]2CCCC[C@H]2C(=O)NCCCNC(=O)c2ccc(-c3c4nc(c(-c5c(F)c(F)c(F)c(F)c5F)c5ccc([nH]5)c(-c5c(F)c(F)c(F)c(F)c5F)c5nc(c(-c6c(F)c(F)c(F)c(F)c6F)c6ccc3[nH]6)C=C5)C=C4)cc2)cc(Cl)c1OC
REMARK SMILES IDX 18 1 17 2 15 3 16 4 14 6 9 7 10 8 11 9 13 10 12 11 8 12 6 13
REMARK SMILES IDX 7 14 5 16 3 17 4 18 90 19 88 20 87 21 89 22 2 23 1 24 91 25
REMARK SMILES IDX 92 26 19 27 20 28 21 29 22 30 23 32 24 33 25 34 86 35 26 36
REMARK SMILES IDX 85 37 27 38 28 39 29 40 79 41 30 42 84 43 78 44 80 45 31 46
REMARK SMILES IDX 83 47 77 48 76 49 32 51 64 52 44 53 63 54 45 55 48 56 62 57
REMARK SMILES IDX 81 58 46 59 47 60 61 62 82 63 49 64 33 65 34 66 42 67 35 68
REMARK SMILES IDX 36 69 40 70 43 71 37 72 38 73 41 74 39 75 65 76 66 77 74 78
REMARK SMILES IDX 67 79 68 80 72 81 75 82 69 83 70 84 73 85 71 86 50 87 51 88
REMARK SMILES IDX 59 89 52 90 53 91 57 92 60 93 54 94 55 95 58 96 56 97
REMARK H PARENT 17 5 8 15 21 31 80 50 48 61
REMARK Flexibility Score: inf
ROOT
ATOM      1  C   UNL A   1      31.240  30.862  26.296  1.00  0.00     0.117 C 
ENDROOT
BRANCH   1   2
ATOM      2  N   UNL A   1      32.335  30.241  25.562  1.00  0.00    -0.356 N 
ATOM      3  C   UNL A   1      32.478  29.017  24.991  1.00  0.00     0.225 C 
ATOM      4  O   UNL A   1      33.584  28.758  24.508  1.00  0.00    -0.275 OA
ATOM      5  H   UNL A   1      33.125  30.821  25.460  1.00  0.00     0.163 HD
BRANCH   3   6
ATOM      6  C   UNL A   1      31.362  27.981  24.913  1.00  0.00     0.101 C 
ATOM      7  C   UNL A   1      30.861  27.635  23.486  1.00  0.00     0.094 C 
ATOM      8  C   UNL A   1      29.940  26.398  23.462  1.00  0.00     0.026 C 
ATOM      9  C   UNL A   1      30.422  25.256  24.347  1.00  0.00     0.002 C 
ATOM     10  C   UNL A   1      31.584  26.824  25.902  1.00  0.00     0.015 C 
ATOM     11  C   UNL A   1      30.538  25.728  25.786  1.00  0.00     0.001 C 
BRANCH   7  12
ATOM     12  N   UNL A   1      31.884  27.488  22.455  1.00  0.00    -0.349 N 
ATOM     13  C   UNL A   1      32.914  26.601  22.244  1.00  0.00     0.251 C 
ATOM     14  O   UNL A   1      33.740  26.950  21.394  1.00  0.00    -0.269 OA
ATOM     15  H   UNL A   1      31.823  28.178  21.755  1.00  0.00     0.164 HD
BRANCH  13  16
ATOM     16  C   UNL A   1      33.090  25.253  22.883  1.00  0.00     0.045 A 
ATOM     17  C   UNL A   1      34.192  24.003  24.697  1.00  0.00     0.163 A 
ATOM     18  C   UNL A   1      33.912  25.207  24.030  1.00  0.00     0.064 A 
ATOM     19  C   UNL A   1      33.618  22.806  24.236  1.00  0.00     0.179 A 
ATOM     20  C   UNL A   1      32.822  22.837  23.086  1.00  0.00     0.087 A 
ATOM     21  C   UNL A   1      32.564  24.048  22.426  1.00  0.00     0.038 A 
ATOM     22  Cl  UNL A   1      32.162  21.413  22.354  1.00  0.00    -0.080 Cl
BRANCH  17  23
ATOM     23  O   UNL A   1      35.007  23.895  25.796  1.00  0.00    -0.493 OA
ATOM     24  C   UNL A   1      36.411  24.014  25.607  1.00  0.00     0.278 C 
ENDBRANCH  17  23
BRANCH  19  25
ATOM     25  O   UNL A   1      33.979  21.654  24.891  1.00  0.00    -0.491 OA
ATOM     26  C   UNL A   1      32.983  21.118  25.759  1.00  0.00     0.278 C 
ENDBRANCH  19  25
ENDBRANCH  13  16
ENDBRANCH   7  12
ENDBRANCH   3   6
ENDBRANCH   1   2
BRANCH   1  27
ATOM     27  C   UNL A   1      31.381  32.377  26.367  1.00  0.00     0.042 C 
BRANCH  27  28
ATOM     28  C   UNL A   1      32.595  32.860  27.144  1.00  0.00     0.118 C 
BRANCH  28  29
ATOM     29  N   UNL A   1      32.435  34.220  27.630  1.00  0.00    -0.352 N 
ATOM     30  C   UNL A   1      33.039  34.879  28.672  1.00  0.00     0.251 C 
ATOM     31  H   UNL A   1      31.785  34.762  27.125  1.00  0.00     0.163 HD
ATOM     32  O   UNL A   1      32.588  35.972  29.024  1.00  0.00    -0.269 OA
BRANCH  30  33
ATOM     33  C   UNL A   1      34.199  34.309  29.402  1.00  0.00     0.039 A 
ATOM     34  C   UNL A   1      35.486  34.543  28.901  1.00  0.00     0.014 A 
ATOM     35  C   UNL A   1      34.045  33.480  30.514  1.00  0.00     0.014 A 
ATOM     36  C   UNL A   1      36.604  33.993  29.538  1.00  0.00     0.010 A 
ATOM     37  C   UNL A   1      35.163  33.014  31.206  1.00  0.00     0.010 A 
ATOM     38  C   UNL A   1      36.455  33.243  30.714  1.00  0.00    -0.014 A 
BRANCH  38  39
ATOM     39  C   UNL A   1      37.622  32.635  31.410  1.00  0.00     0.031 A 
ATOM     40  C   UNL A   1      38.375  31.501  30.762  1.00  0.00     0.074 A 
ATOM     41  C   UNL A   1      37.969  33.046  32.644  1.00  0.00     0.049 A 
ATOM     42  N   UNL A   1      39.330  30.748  31.251  1.00  0.00    -0.248 NA
ATOM     43  C   UNL A   1      37.979  31.146  29.390  1.00  0.00     0.031 C 
ATOM     44  C   UNL A   1      37.307  34.108  33.403  1.00  0.00     0.029 A 
ATOM     45  N   UNL A   1      38.962  32.606  33.488  1.00  0.00    -0.354 N 
ATOM     46  C   UNL A   1      39.616  29.813  30.265  1.00  0.00     0.074 A 
ATOM     47  C   UNL A   1      38.708  30.063  29.168  1.00  0.00     0.031 C 
ATOM     48  C   UNL A   1      37.921  34.251  34.587  1.00  0.00     0.029 A 
ATOM     49  C   UNL A   1      38.994  33.266  34.692  1.00  0.00     0.049 A 
ATOM     50  H   UNL A   1      39.590  31.887  33.250  1.00  0.00     0.167 HD
ATOM     51  C   UNL A   1      40.565  28.845  30.263  1.00  0.00     0.037 A 
ATOM     52  C   UNL A   1      39.790  33.088  35.764  1.00  0.00     0.037 A 
ATOM     53  C   UNL A   1      41.507  28.631  31.329  1.00  0.00     0.049 A 
ATOM     54  C   UNL A   1      40.853  32.023  35.728  1.00  0.00     0.074 A 
ATOM     55  C   UNL A   1      42.545  27.717  31.393  1.00  0.00     0.029 A 
ATOM     56  N   UNL A   1      41.531  29.349  32.515  1.00  0.00    -0.354 N 
ATOM     57  N   UNL A   1      41.140  31.171  34.774  1.00  0.00    -0.248 NA
ATOM     58  C   UNL A   1      41.705  31.896  36.919  1.00  0.00     0.031 C 
ATOM     59  C   UNL A   1      43.178  27.861  32.632  1.00  0.00     0.029 A 
ATOM     60  C   UNL A   1      42.561  28.892  33.322  1.00  0.00     0.049 A 
ATOM     61  H   UNL A   1      40.909  30.076  32.749  1.00  0.00     0.167 HD
ATOM     62  C   UNL A   1      42.221  30.432  35.235  1.00  0.00     0.074 A 
ATOM     63  C   UNL A   1      42.545  30.939  36.551  1.00  0.00     0.031 C 
ATOM     64  C   UNL A   1      42.884  29.422  34.621  1.00  0.00     0.037 A 
BRANCH  51  65
ATOM     65  C   UNL A   1      40.636  27.946  29.063  1.00  0.00     0.064 A 
ATOM     66  C   UNL A   1      39.844  26.792  28.959  1.00  0.00     0.173 A 
ATOM     67  C   UNL A   1      41.484  28.259  27.990  1.00  0.00     0.173 A 
ATOM     68  F   UNL A   1      39.026  26.442  29.963  1.00  0.00    -0.203 F 
ATOM     69  C   UNL A   1      39.923  25.969  27.838  1.00  0.00     0.198 A 
ATOM     70  C   UNL A   1      41.537  27.450  26.858  1.00  0.00     0.198 A 
ATOM     71  F   UNL A   1      42.256  29.355  28.035  1.00  0.00    -0.203 F 
ATOM     72  F   UNL A   1      39.194  24.845  27.784  1.00  0.00    -0.200 F 
ATOM     73  C   UNL A   1      40.762  26.301  26.787  1.00  0.00     0.200 A 
ATOM     74  F   UNL A   1      42.339  27.779  25.837  1.00  0.00    -0.200 F 
ATOM     75  F   UNL A   1      40.832  25.510  25.708  1.00  0.00    -0.200 F 
ENDBRANCH  51  65
BRANCH  52  76
ATOM     76  C   UNL A   1      39.631  33.958  36.958  1.00  0.00     0.064 A 
ATOM     77  C   UNL A   1      38.864  33.538  38.054  1.00  0.00     0.173 A 
ATOM     78  C   UNL A   1      40.233  35.223  37.026  1.00  0.00     0.173 A 
ATOM     79  F   UNL A   1      38.249  32.347  38.023  1.00  0.00    -0.203 F 
ATOM     80  C   UNL A   1      38.692  34.358  39.167  1.00  0.00     0.198 A 
ATOM     81  C   UNL A   1      40.081  36.031  38.151  1.00  0.00     0.198 A 
ATOM     82  F   UNL A   1      40.976  35.669  36.004  1.00  0.00    -0.203 F 
ATOM     83  F   UNL A   1      37.919  33.951  40.183  1.00  0.00    -0.200 F 
ATOM     84  C   UNL A   1      39.305  35.601  39.217  1.00  0.00     0.200 A 
ATOM     85  F   UNL A   1      40.683  37.227  38.201  1.00  0.00    -0.200 F 
ATOM     86  F   UNL A   1      39.141  36.388  40.290  1.00  0.00    -0.200 F 
ENDBRANCH  52  76
BRANCH  64  87
ATOM     87  C   UNL A   1      44.057  28.827  35.341  1.00  0.00     0.064 A 
ATOM     88  C   UNL A   1      45.359  29.313  35.155  1.00  0.00     0.173 A 
ATOM     89  C   UNL A   1      43.866  27.793  36.270  1.00  0.00     0.173 A 
ATOM     90  F   UNL A   1      45.593  30.292  34.267  1.00  0.00    -0.203 F 
ATOM     91  C   UNL A   1      46.431  28.772  35.860  1.00  0.00     0.198 A 
ATOM     92  C   UNL A   1      44.936  27.272  36.991  1.00  0.00     0.198 A 
ATOM     93  F   UNL A   1      42.638  27.298  36.488  1.00  0.00    -0.203 F 
ATOM     94  F   UNL A   1      47.673  29.226  35.639  1.00  0.00    -0.200 F 
ATOM     95  C   UNL A   1      46.218  27.758  36.781  1.00  0.00     0.200 A 
ATOM     96  F   UNL A   1      44.727  26.300  37.889  1.00  0.00    -0.200 F 
ATOM     97  F   UNL A   1      47.251  27.244  37.465  1.00  0.00    -0.200 F 
ENDBRANCH  64  87
ENDBRANCH  38  39
ENDBRANCH  30  33
ENDBRANCH  28  29
ENDBRANCH  27  28
ENDBRANCH   1  27
TORSDOF 14
ENDMDL
