MODEL 1
REMARK VINA RESULT:     -11.7      0.000      0.000
REMARK SMILES O=C(COc1cccc(C(=O)NCCCNC(=O)c2ccc(-c3c4nc(c(-c5c(F)c(F)c(F)c(F)c5F)c5ccc([nH]5)c(-c5c(F)c(F)c(F)c(F)c5F)c5nc(c(-c6c(F)c(F)c(F)c(F)c6F)c6ccc3[nH]6)C=C5)C=C4)cc2)c1)NCCc1cccs1
REMARK SMILES IDX 10 1 11 2 12 3 9 5 5 6 6 7 82 8 7 9 8 10 4 11 3 12 2 13 1 14
REMARK SMILES IDX 83 15 84 17 85 18 86 19 87 20 90 21 88 22 89 23 13 24 14 25
REMARK SMILES IDX 15 26 16 27 17 28 18 30 19 31 20 32 81 33 21 34 80 35 22 36
REMARK SMILES IDX 23 37 24 38 74 39 25 40 79 41 73 42 75 43 26 44 78 45 72 46
REMARK SMILES IDX 71 47 27 49 59 50 39 51 58 52 40 53 43 54 57 55 76 56 41 57
REMARK SMILES IDX 42 58 56 60 77 61 44 62 28 63 29 64 37 65 30 66 31 67 35 68
REMARK SMILES IDX 38 69 32 70 33 71 36 72 34 73 60 74 61 75 69 76 62 77 63 78
REMARK SMILES IDX 67 79 70 80 64 81 65 82 68 83 66 84 45 85 46 86 54 87 47 88
REMARK SMILES IDX 48 89 52 90 55 91 49 92 50 93 53 94 51 95
REMARK H PARENT 12 4 83 16 16 29 75 48 43 59
REMARK Flexibility Score: inf
ROOT
ATOM      1  C   UNL A   1      32.367  29.238  24.627  1.00  0.00     0.251 C 
ATOM      2  O   UNL A   1      33.157  29.192  23.681  1.00  0.00    -0.269 OA
ATOM      3  N   UNL A   1      32.478  30.288  25.509  1.00  0.00    -0.352 N 
ATOM      4  H   UNL A   1      33.146  30.964  25.252  1.00  0.00     0.163 HD
ENDROOT
BRANCH   1   5
ATOM      5  C   UNL A   1      31.383  28.132  24.804  1.00  0.00     0.043 A 
ATOM      6  C   UNL A   1      30.655  26.072  25.860  1.00  0.00     0.120 A 
ATOM      7  C   UNL A   1      29.663  25.940  24.884  1.00  0.00     0.046 A 
ATOM      8  C   UNL A   1      31.442  27.222  25.868  1.00  0.00     0.060 A 
ATOM      9  C   UNL A   1      29.486  26.924  23.909  1.00  0.00     0.005 A 
ATOM     10  C   UNL A   1      30.366  28.004  23.851  1.00  0.00     0.014 A 
BRANCH   6  11
ATOM     11  O   UNL A   1      30.824  24.982  26.670  1.00  0.00    -0.484 OA
BRANCH  11  12
ATOM     12  C   UNL A   1      30.709  23.680  26.116  1.00  0.00     0.329 C 
BRANCH  12  13
ATOM     13  C   UNL A   1      31.982  22.904  25.740  1.00  0.00     0.257 C 
ATOM     14  O   UNL A   1      32.972  23.483  25.296  1.00  0.00    -0.271 OA
ATOM     15  N   UNL A   1      31.932  21.538  25.902  1.00  0.00    -0.353 N 
ATOM     16  H   UNL A   1      31.179  21.138  26.394  1.00  0.00     0.163 HD
BRANCH  15  17
ATOM     17  C   UNL A   1      32.969  20.674  25.360  1.00  0.00     0.121 C 
BRANCH  17  18
ATOM     18  C   UNL A   1      32.537  19.770  24.207  1.00  0.00     0.068 C 
BRANCH  18  19
ATOM     19  C   UNL A   1      32.810  18.326  24.518  1.00  0.00     0.006 A 
ATOM     20  C   UNL A   1      32.593  17.658  25.708  1.00  0.00     0.015 A 
ATOM     21  S   UNL A   1      33.496  17.300  23.333  1.00  0.00    -0.149 S 
ATOM     22  C   UNL A   1      33.030  16.305  25.654  1.00  0.00     0.012 A 
ATOM     23  C   UNL A   1      33.544  15.981  24.419  1.00  0.00     0.065 A 
ENDBRANCH  18  19
ENDBRANCH  17  18
ENDBRANCH  15  17
ENDBRANCH  12  13
ENDBRANCH  11  12
ENDBRANCH   6  11
ENDBRANCH   1   5
BRANCH   3  24
ATOM     24  C   UNL A   1      31.784  30.577  26.755  1.00  0.00     0.118 C 
BRANCH  24  25
ATOM     25  C   UNL A   1      31.424  32.047  26.917  1.00  0.00     0.042 C 
BRANCH  25  26
ATOM     26  C   UNL A   1      32.590  33.009  26.769  1.00  0.00     0.118 C 
BRANCH  26  27
ATOM     27  N   UNL A   1      32.458  34.214  27.583  1.00  0.00    -0.352 N 
ATOM     28  C   UNL A   1      33.102  34.704  28.689  1.00  0.00     0.251 C 
ATOM     29  H   UNL A   1      31.741  34.810  27.265  1.00  0.00     0.163 HD
ATOM     30  O   UNL A   1      32.634  35.717  29.222  1.00  0.00    -0.269 OA
BRANCH  28  31
ATOM     31  C   UNL A   1      34.300  34.079  29.297  1.00  0.00     0.039 A 
ATOM     32  C   UNL A   1      34.120  32.991  30.168  1.00  0.00     0.014 A 
ATOM     33  C   UNL A   1      35.590  34.569  29.113  1.00  0.00     0.014 A 
ATOM     34  C   UNL A   1      35.216  32.391  30.802  1.00  0.00     0.010 A 
ATOM     35  C   UNL A   1      36.690  33.892  29.633  1.00  0.00     0.010 A 
ATOM     36  C   UNL A   1      36.519  32.818  30.516  1.00  0.00    -0.014 A 
BRANCH  36  37
ATOM     37  C   UNL A   1      37.716  32.229  31.174  1.00  0.00     0.031 A 
ATOM     38  C   UNL A   1      38.514  31.165  30.460  1.00  0.00     0.074 A 
ATOM     39  C   UNL A   1      38.040  32.580  32.433  1.00  0.00     0.049 A 
ATOM     40  N   UNL A   1      39.491  30.415  30.907  1.00  0.00    -0.248 NA
ATOM     41  C   UNL A   1      38.129  30.872  29.069  1.00  0.00     0.031 C 
ATOM     42  C   UNL A   1      37.329  33.566  33.249  1.00  0.00     0.029 A 
ATOM     43  N   UNL A   1      39.045  32.134  33.253  1.00  0.00    -0.354 N 
ATOM     44  C   UNL A   1      39.804  29.543  29.868  1.00  0.00     0.074 A 
ATOM     45  C   UNL A   1      38.872  29.811  28.797  1.00  0.00     0.031 C 
ATOM     46  C   UNL A   1      37.935  33.667  34.444  1.00  0.00     0.029 A 
ATOM     47  C   UNL A   1      39.049  32.724  34.494  1.00  0.00     0.049 A 
ATOM     48  H   UNL A   1      39.703  31.454  32.979  1.00  0.00     0.167 HD
ATOM     49  C   UNL A   1      40.797  28.623  29.801  1.00  0.00     0.037 A 
ATOM     50  C   UNL A   1      39.856  32.523  35.553  1.00  0.00     0.037 A 
ATOM     51  C   UNL A   1      41.757  28.399  30.848  1.00  0.00     0.049 A 
ATOM     52  C   UNL A   1      40.971  31.517  35.442  1.00  0.00     0.074 A 
ATOM     53  C   UNL A   1      42.838  27.534  30.861  1.00  0.00     0.029 A 
ATOM     54  N   UNL A   1      41.758  29.059  32.069  1.00  0.00    -0.354 N 
ATOM     55  N   UNL A   1      41.285  30.732  34.440  1.00  0.00    -0.248 NA
ATOM     56  C   UNL A   1      41.854  31.381  36.608  1.00  0.00     0.031 C 
ATOM     57  C   UNL A   1      43.469  27.643  32.104  1.00  0.00     0.029 A 
ATOM     58  C   UNL A   1      42.816  28.616  32.844  1.00  0.00     0.049 A 
ATOM     59  H   UNL A   1      41.102  29.741  32.343  1.00  0.00     0.167 HD
ATOM     60  C   UNL A   1      42.425  30.044  34.836  1.00  0.00     0.074 A 
ATOM     61  C   UNL A   1      42.751  30.510  36.167  1.00  0.00     0.031 C 
ATOM     62  C   UNL A   1      43.139  29.111  34.158  1.00  0.00     0.037 A 
BRANCH  49  63
ATOM     63  C   UNL A   1      40.900  27.801  28.546  1.00  0.00     0.064 A 
ATOM     64  C   UNL A   1      40.187  26.602  28.386  1.00  0.00     0.173 A 
ATOM     65  C   UNL A   1      41.704  28.229  27.477  1.00  0.00     0.173 A 
ATOM     66  F   UNL A   1      39.412  26.140  29.380  1.00  0.00    -0.203 F 
ATOM     67  C   UNL A   1      40.307  25.843  27.225  1.00  0.00     0.198 A 
ATOM     68  C   UNL A   1      41.793  27.485  26.302  1.00  0.00     0.198 A 
ATOM     69  F   UNL A   1      42.403  29.370  27.570  1.00  0.00    -0.203 F 
ATOM     70  F   UNL A   1      39.666  24.670  27.124  1.00  0.00    -0.200 F 
ATOM     71  C   UNL A   1      41.104  26.289  26.182  1.00  0.00     0.200 A 
ATOM     72  F   UNL A   1      42.552  27.925  25.289  1.00  0.00    -0.200 F 
ATOM     73  F   UNL A   1      41.213  25.560  25.062  1.00  0.00    -0.200 F 
ENDBRANCH  49  63
BRANCH  50  74
ATOM     74  C   UNL A   1      39.669  33.321  36.793  1.00  0.00     0.064 A 
ATOM     75  C   UNL A   1      38.783  32.896  37.792  1.00  0.00     0.173 A 
ATOM     76  C   UNL A   1      40.361  34.523  37.003  1.00  0.00     0.173 A 
ATOM     77  F   UNL A   1      38.086  31.763  37.631  1.00  0.00    -0.203 F 
ATOM     78  C   UNL A   1      38.575  33.655  38.942  1.00  0.00     0.198 A 
ATOM     79  C   UNL A   1      40.175  35.266  38.167  1.00  0.00     0.198 A 
ATOM     80  F   UNL A   1      41.229  34.969  36.083  1.00  0.00    -0.203 F 
ATOM     81  F   UNL A   1      37.683  33.251  39.857  1.00  0.00    -0.200 F 
ATOM     82  C   UNL A   1      39.275  34.837  39.131  1.00  0.00     0.200 A 
ATOM     83  F   UNL A   1      40.867  36.398  38.354  1.00  0.00    -0.200 F 
ATOM     84  F   UNL A   1      39.077  35.566  40.237  1.00  0.00    -0.200 F 
ENDBRANCH  50  74
BRANCH  62  85
ATOM     85  C   UNL A   1      44.383  28.586  34.815  1.00  0.00     0.064 A 
ATOM     86  C   UNL A   1      45.628  29.211  34.656  1.00  0.00     0.173 A 
ATOM     87  C   UNL A   1      44.317  27.451  35.638  1.00  0.00     0.173 A 
ATOM     88  F   UNL A   1      45.746  30.291  33.870  1.00  0.00    -0.203 F 
ATOM     89  C   UNL A   1      46.769  28.697  35.269  1.00  0.00     0.198 A 
ATOM     90  C   UNL A   1      45.453  26.960  36.276  1.00  0.00     0.198 A 
ATOM     91  F   UNL A   1      43.149  26.821  35.831  1.00  0.00    -0.203 F 
ATOM     92  F   UNL A   1      47.959  29.276  35.055  1.00  0.00    -0.200 F 
ATOM     93  C   UNL A   1      46.679  27.578  36.082  1.00  0.00     0.200 A 
ATOM     94  F   UNL A   1      45.361  25.889  37.075  1.00  0.00    -0.200 F 
ATOM     95  F   UNL A   1      47.778  27.088  36.673  1.00  0.00    -0.200 F 
ENDBRANCH  62  85
ENDBRANCH  36  37
ENDBRANCH  28  31
ENDBRANCH  26  27
ENDBRANCH  25  26
ENDBRANCH  24  25
ENDBRANCH   3  24
TORSDOF 16
ENDMDL
MODEL 2
REMARK VINA RESULT:     -11.7      3.987      8.410
REMARK SMILES O=C(COc1cccc(C(=O)NCCCNC(=O)c2ccc(-c3c4nc(c(-c5c(F)c(F)c(F)c(F)c5F)c5ccc([nH]5)c(-c5c(F)c(F)c(F)c(F)c5F)c5nc(c(-c6c(F)c(F)c(F)c(F)c6F)c6ccc3[nH]6)C=C5)C=C4)cc2)c1)NCCc1cccs1
REMARK SMILES IDX 10 1 11 2 12 3 9 5 5 6 6 7 82 8 7 9 8 10 4 11 3 12 2 13 1 14
REMARK SMILES IDX 83 15 84 17 85 18 86 19 87 20 90 21 88 22 89 23 13 24 14 25
REMARK SMILES IDX 15 26 16 27 17 28 18 30 19 31 20 32 81 33 21 34 80 35 22 36
REMARK SMILES IDX 23 37 24 38 74 39 25 40 79 41 73 42 75 43 26 44 78 45 72 46
REMARK SMILES IDX 71 47 27 49 59 50 39 51 58 52 40 53 43 54 57 55 76 56 41 57
REMARK SMILES IDX 42 58 56 60 77 61 44 62 28 63 29 64 37 65 30 66 31 67 35 68
REMARK SMILES IDX 38 69 32 70 33 71 36 72 34 73 60 74 61 75 69 76 62 77 63 78
REMARK SMILES IDX 67 79 70 80 64 81 65 82 68 83 66 84 45 85 46 86 54 87 47 88
REMARK SMILES IDX 48 89 52 90 55 91 49 92 50 93 53 94 51 95
REMARK H PARENT 12 4 83 16 16 29 75 48 43 59
REMARK Flexibility Score: inf
ROOT
ATOM      1  C   UNL A   1      32.731  20.752  25.051  1.00  0.00     0.251 C 
ATOM      2  O   UNL A   1      32.146  19.681  25.235  1.00  0.00    -0.269 OA
ATOM      3  N   UNL A   1      34.092  20.718  24.851  1.00  0.00    -0.352 N 
ATOM      4  H   UNL A   1      34.470  19.811  24.794  1.00  0.00     0.163 HD
ENDROOT
BRANCH   1   5
ATOM      5  C   UNL A   1      31.955  22.022  25.119  1.00  0.00     0.043 A 
ATOM      6  C   UNL A   1      30.997  23.998  24.085  1.00  0.00     0.120 A 
ATOM      7  C   UNL A   1      30.756  24.529  25.355  1.00  0.00     0.046 A 
ATOM      8  C   UNL A   1      31.504  22.704  23.981  1.00  0.00     0.060 A 
ATOM      9  C   UNL A   1      31.051  23.791  26.504  1.00  0.00     0.005 A 
ATOM     10  C   UNL A   1      31.679  22.552  26.386  1.00  0.00     0.014 A 
BRANCH   6  11
ATOM     11  O   UNL A   1      30.801  24.866  23.044  1.00  0.00    -0.484 OA
BRANCH  11  12
ATOM     12  C   UNL A   1      31.850  25.082  22.112  1.00  0.00     0.329 C 
BRANCH  12  13
ATOM     13  C   UNL A   1      32.867  26.205  22.367  1.00  0.00     0.257 C 
ATOM     14  O   UNL A   1      33.901  26.290  21.706  1.00  0.00    -0.271 OA
ATOM     15  N   UNL A   1      32.565  27.079  23.387  1.00  0.00    -0.353 N 
ATOM     16  H   UNL A   1      31.667  27.061  23.788  1.00  0.00     0.163 HD
BRANCH  15  17
ATOM     17  C   UNL A   1      33.548  28.028  23.886  1.00  0.00     0.121 C 
BRANCH  17  18
ATOM     18  C   UNL A   1      34.041  27.779  25.311  1.00  0.00     0.068 C 
BRANCH  18  19
ATOM     19  C   UNL A   1      33.876  29.005  26.163  1.00  0.00     0.006 A 
ATOM     20  C   UNL A   1      34.679  29.429  27.205  1.00  0.00     0.015 A 
ATOM     21  S   UNL A   1      32.553  30.061  25.914  1.00  0.00    -0.149 S 
ATOM     22  C   UNL A   1      34.179  30.609  27.825  1.00  0.00     0.012 A 
ATOM     23  C   UNL A   1      33.026  31.056  27.221  1.00  0.00     0.065 A 
ENDBRANCH  18  19
ENDBRANCH  17  18
ENDBRANCH  15  17
ENDBRANCH  12  13
ENDBRANCH  11  12
ENDBRANCH   6  11
ENDBRANCH   1   5
BRANCH   3  24
ATOM     24  C   UNL A   1      35.071  21.784  24.709  1.00  0.00     0.118 C 
BRANCH  24  25
ATOM     25  C   UNL A   1      35.477  22.410  26.035  1.00  0.00     0.042 C 
BRANCH  25  26
ATOM     26  C   UNL A   1      36.657  23.363  25.957  1.00  0.00     0.118 C 
BRANCH  26  27
ATOM     27  N   UNL A   1      37.952  22.689  25.976  1.00  0.00    -0.352 N 
ATOM     28  C   UNL A   1      39.218  23.047  26.357  1.00  0.00     0.251 C 
ATOM     29  H   UNL A   1      37.904  21.765  25.636  1.00  0.00     0.163 HD
ATOM     30  O   UNL A   1      40.138  22.259  26.105  1.00  0.00    -0.269 OA
BRANCH  28  31
ATOM     31  C   UNL A   1      39.554  24.329  27.023  1.00  0.00     0.039 A 
ATOM     32  C   UNL A   1      40.212  25.321  26.275  1.00  0.00     0.014 A 
ATOM     33  C   UNL A   1      39.324  24.566  28.375  1.00  0.00     0.014 A 
ATOM     34  C   UNL A   1      40.588  26.533  26.868  1.00  0.00     0.010 A 
ATOM     35  C   UNL A   1      39.574  25.819  28.930  1.00  0.00     0.010 A 
ATOM     36  C   UNL A   1      40.244  26.806  28.198  1.00  0.00    -0.014 A 
BRANCH  36  37
ATOM     37  C   UNL A   1      40.635  28.068  28.882  1.00  0.00     0.031 A 
ATOM     38  C   UNL A   1      42.045  28.236  29.394  1.00  0.00     0.074 A 
ATOM     39  C   UNL A   1      39.716  29.025  29.118  1.00  0.00     0.049 A 
ATOM     40  N   UNL A   1      42.553  29.181  30.147  1.00  0.00    -0.248 NA
ATOM     41  C   UNL A   1      43.003  27.171  29.053  1.00  0.00     0.031 C 
ATOM     42  C   UNL A   1      38.312  28.971  28.712  1.00  0.00     0.029 A 
ATOM     43  N   UNL A   1      39.827  30.225  29.773  1.00  0.00    -0.354 N 
ATOM     44  C   UNL A   1      43.868  28.800  30.397  1.00  0.00     0.074 A 
ATOM     45  C   UNL A   1      44.060  27.511  29.774  1.00  0.00     0.031 C 
ATOM     46  C   UNL A   1      37.697  30.099  29.105  1.00  0.00     0.029 A 
ATOM     47  C   UNL A   1      38.651  30.934  29.827  1.00  0.00     0.049 A 
ATOM     48  H   UNL A   1      40.669  30.549  30.167  1.00  0.00     0.167 HD
ATOM     49  C   UNL A   1      44.837  29.478  31.058  1.00  0.00     0.037 A 
ATOM     50  C   UNL A   1      38.375  32.121  30.400  1.00  0.00     0.037 A 
ATOM     51  C   UNL A   1      44.657  30.786  31.629  1.00  0.00     0.049 A 
ATOM     52  C   UNL A   1      39.477  32.869  31.104  1.00  0.00     0.074 A 
ATOM     53  C   UNL A   1      45.587  31.586  32.269  1.00  0.00     0.029 A 
ATOM     54  N   UNL A   1      43.464  31.493  31.613  1.00  0.00    -0.354 N 
ATOM     55  N   UNL A   1      40.727  32.521  31.294  1.00  0.00    -0.248 NA
ATOM     56  C   UNL A   1      39.131  34.184  31.660  1.00  0.00     0.031 C 
ATOM     57  C   UNL A   1      44.946  32.761  32.675  1.00  0.00     0.029 A 
ATOM     58  C   UNL A   1      43.632  32.717  32.238  1.00  0.00     0.049 A 
ATOM     59  H   UNL A   1      42.621  31.172  31.217  1.00  0.00     0.167 HD
ATOM     60  C   UNL A   1      41.326  33.588  31.950  1.00  0.00     0.074 A 
ATOM     61  C   UNL A   1      40.304  34.599  32.118  1.00  0.00     0.031 C 
ATOM     62  C   UNL A   1      42.607  33.722  32.373  1.00  0.00     0.037 A 
BRANCH  49  63
ATOM     63  C   UNL A   1      46.182  28.818  31.188  1.00  0.00     0.064 A 
ATOM     64  C   UNL A   1      47.187  28.990  30.223  1.00  0.00     0.173 A 
ATOM     65  C   UNL A   1      46.481  28.021  32.305  1.00  0.00     0.173 A 
ATOM     66  F   UNL A   1      46.953  29.732  29.130  1.00  0.00    -0.203 F 
ATOM     67  C   UNL A   1      48.422  28.359  30.349  1.00  0.00     0.198 A 
ATOM     68  C   UNL A   1      47.730  27.420  32.446  1.00  0.00     0.198 A 
ATOM     69  F   UNL A   1      45.562  27.826  33.263  1.00  0.00    -0.203 F 
ATOM     70  F   UNL A   1      49.340  28.488  29.381  1.00  0.00    -0.200 F 
ATOM     71  C   UNL A   1      48.694  27.580  31.463  1.00  0.00     0.200 A 
ATOM     72  F   UNL A   1      47.997  26.680  33.531  1.00  0.00    -0.200 F 
ATOM     73  F   UNL A   1      49.885  26.978  31.586  1.00  0.00    -0.200 F 
ENDBRANCH  49  63
BRANCH  50  74
ATOM     74  C   UNL A   1      37.010  32.699  30.294  1.00  0.00     0.064 A 
ATOM     75  C   UNL A   1      36.632  33.443  29.167  1.00  0.00     0.173 A 
ATOM     76  C   UNL A   1      36.060  32.529  31.312  1.00  0.00     0.173 A 
ATOM     77  F   UNL A   1      37.510  33.648  28.175  1.00  0.00    -0.203 F 
ATOM     78  C   UNL A   1      35.366  34.018  29.074  1.00  0.00     0.198 A 
ATOM     79  C   UNL A   1      34.784  33.078  31.204  1.00  0.00     0.198 A 
ATOM     80  F   UNL A   1      36.366  31.817  32.405  1.00  0.00    -0.203 F 
ATOM     81  F   UNL A   1      35.050  34.768  28.010  1.00  0.00    -0.200 F 
ATOM     82  C   UNL A   1      34.441  33.832  30.090  1.00  0.00     0.200 A 
ATOM     83  F   UNL A   1      33.887  32.880  32.179  1.00  0.00    -0.200 F 
ATOM     84  F   UNL A   1      33.224  34.382  30.000  1.00  0.00    -0.200 F 
ENDBRANCH  50  74
BRANCH  62  85
ATOM     85  C   UNL A   1      42.994  35.033  32.994  1.00  0.00     0.064 A 
ATOM     86  C   UNL A   1      43.499  36.096  32.232  1.00  0.00     0.173 A 
ATOM     87  C   UNL A   1      42.829  35.233  34.373  1.00  0.00     0.173 A 
ATOM     88  F   UNL A   1      43.688  35.951  30.912  1.00  0.00    -0.203 F 
ATOM     89  C   UNL A   1      43.860  37.299  32.835  1.00  0.00     0.198 A 
ATOM     90  C   UNL A   1      43.159  36.448  34.967  1.00  0.00     0.198 A 
ATOM     91  F   UNL A   1      42.340  34.252  35.146  1.00  0.00    -0.203 F 
ATOM     92  F   UNL A   1      44.396  38.281  32.097  1.00  0.00    -0.200 F 
ATOM     93  C   UNL A   1      43.684  37.476  34.199  1.00  0.00     0.200 A 
ATOM     94  F   UNL A   1      42.971  36.623  36.282  1.00  0.00    -0.200 F 
ATOM     95  F   UNL A   1      44.028  38.636  34.775  1.00  0.00    -0.200 F 
ENDBRANCH  62  85
ENDBRANCH  36  37
ENDBRANCH  28  31
ENDBRANCH  26  27
ENDBRANCH  25  26
ENDBRANCH  24  25
ENDBRANCH   3  24
TORSDOF 16
ENDMDL
MODEL 3
REMARK VINA RESULT:     -11.6      5.446     10.580
REMARK SMILES O=C(COc1cccc(C(=O)NCCCNC(=O)c2ccc(-c3c4nc(c(-c5c(F)c(F)c(F)c(F)c5F)c5ccc([nH]5)c(-c5c(F)c(F)c(F)c(F)c5F)c5nc(c(-c6c(F)c(F)c(F)c(F)c6F)c6ccc3[nH]6)C=C5)C=C4)cc2)c1)NCCc1cccs1
REMARK SMILES IDX 10 1 11 2 12 3 9 5 5 6 6 7 82 8 7 9 8 10 4 11 3 12 2 13 1 14
REMARK SMILES IDX 83 15 84 17 85 18 86 19 87 20 90 21 88 22 89 23 13 24 14 25
REMARK SMILES IDX 15 26 16 27 17 28 18 30 19 31 20 32 81 33 21 34 80 35 22 36
REMARK SMILES IDX 23 37 24 38 74 39 25 40 79 41 73 42 75 43 26 44 78 45 72 46
REMARK SMILES IDX 71 47 27 49 59 50 39 51 58 52 40 53 43 54 57 55 76 56 41 57
REMARK SMILES IDX 42 58 56 60 77 61 44 62 28 63 29 64 37 65 30 66 31 67 35 68
REMARK SMILES IDX 38 69 32 70 33 71 36 72 34 73 60 74 61 75 69 76 62 77 63 78
REMARK SMILES IDX 67 79 70 80 64 81 65 82 68 83 66 84 45 85 46 86 54 87 47 88
REMARK SMILES IDX 48 89 52 90 55 91 49 92 50 93 53 94 51 95
REMARK H PARENT 12 4 83 16 16 29 75 48 43 59
REMARK Flexibility Score: inf
ROOT
ATOM      1  C   UNL A   1      37.399  23.285  25.630  1.00  0.00     0.251 C 
ATOM      2  O   UNL A   1      38.069  24.088  26.286  1.00  0.00    -0.269 OA
ATOM      3  N   UNL A   1      37.930  22.037  25.402  1.00  0.00    -0.352 N 
ATOM      4  H   UNL A   1      38.784  21.870  25.862  1.00  0.00     0.163 HD
ENDROOT
BRANCH   1   5
ATOM      5  C   UNL A   1      36.090  23.724  25.067  1.00  0.00     0.043 A 
ATOM      6  C   UNL A   1      33.854  24.634  25.320  1.00  0.00     0.120 A 
ATOM      7  C   UNL A   1      33.565  24.250  24.008  1.00  0.00     0.046 A 
ATOM      8  C   UNL A   1      35.150  24.455  25.804  1.00  0.00     0.060 A 
ATOM      9  C   UNL A   1      34.546  23.664  23.204  1.00  0.00     0.005 A 
ATOM     10  C   UNL A   1      35.798  23.373  23.744  1.00  0.00     0.014 A 
BRANCH   6  11
ATOM     11  O   UNL A   1      32.780  25.064  26.052  1.00  0.00    -0.484 OA
BRANCH  11  12
ATOM     12  C   UNL A   1      31.832  24.115  26.518  1.00  0.00     0.329 C 
BRANCH  12  13
ATOM     13  C   UNL A   1      32.314  22.732  26.984  1.00  0.00     0.257 C 
ATOM     14  O   UNL A   1      32.633  22.530  28.155  1.00  0.00    -0.271 OA
ATOM     15  N   UNL A   1      32.393  21.757  26.015  1.00  0.00    -0.353 N 
ATOM     16  H   UNL A   1      31.992  21.921  25.131  1.00  0.00     0.163 HD
BRANCH  15  17
ATOM     17  C   UNL A   1      33.057  20.489  26.271  1.00  0.00     0.121 C 
BRANCH  17  18
ATOM     18  C   UNL A   1      34.242  20.170  25.359  1.00  0.00     0.068 C 
BRANCH  18  19
ATOM     19  C   UNL A   1      33.967  18.956  24.518  1.00  0.00     0.006 A 
ATOM     20  C   UNL A   1      34.773  17.848  24.339  1.00  0.00     0.015 A 
ATOM     21  S   UNL A   1      32.522  18.842  23.610  1.00  0.00    -0.149 S 
ATOM     22  C   UNL A   1      34.212  16.918  23.419  1.00  0.00     0.012 A 
ATOM     23  C   UNL A   1      32.989  17.338  22.946  1.00  0.00     0.065 A 
ENDBRANCH  18  19
ENDBRANCH  17  18
ENDBRANCH  15  17
ENDBRANCH  12  13
ENDBRANCH  11  12
ENDBRANCH   6  11
ENDBRANCH   1   5
BRANCH   3  24
ATOM     24  C   UNL A   1      37.453  20.919  24.602  1.00  0.00     0.118 C 
BRANCH  24  25
ATOM     25  C   UNL A   1      38.296  19.662  24.761  1.00  0.00     0.042 C 
BRANCH  25  26
ATOM     26  C   UNL A   1      39.086  19.584  26.056  1.00  0.00     0.118 C 
BRANCH  26  27
ATOM     27  N   UNL A   1      40.369  18.900  25.915  1.00  0.00    -0.352 N 
ATOM     28  C   UNL A   1      41.680  19.293  25.973  1.00  0.00     0.251 C 
ATOM     29  H   UNL A   1      40.268  17.937  25.736  1.00  0.00     0.163 HD
ATOM     30  O   UNL A   1      42.542  18.462  25.662  1.00  0.00    -0.269 OA
BRANCH  28  31
ATOM     31  C   UNL A   1      42.123  20.656  26.354  1.00  0.00     0.039 A 
ATOM     32  C   UNL A   1      42.219  21.635  25.351  1.00  0.00     0.014 A 
ATOM     33  C   UNL A   1      42.528  20.991  27.643  1.00  0.00     0.014 A 
ATOM     34  C   UNL A   1      42.673  22.926  25.651  1.00  0.00     0.010 A 
ATOM     35  C   UNL A   1      42.848  22.306  27.970  1.00  0.00     0.010 A 
ATOM     36  C   UNL A   1      42.963  23.284  26.974  1.00  0.00    -0.014 A 
BRANCH  36  37
ATOM     37  C   UNL A   1      43.465  24.634  27.345  1.00  0.00     0.031 A 
ATOM     38  C   UNL A   1      42.515  25.651  27.929  1.00  0.00     0.074 A 
ATOM     39  C   UNL A   1      44.742  24.979  27.085  1.00  0.00     0.049 A 
ATOM     40  N   UNL A   1      42.704  26.924  28.177  1.00  0.00    -0.248 NA
ATOM     41  C   UNL A   1      41.151  25.184  28.231  1.00  0.00     0.031 C 
ATOM     42  C   UNL A   1      45.752  24.105  26.488  1.00  0.00     0.029 A 
ATOM     43  N   UNL A   1      45.402  26.166  27.279  1.00  0.00    -0.354 N 
ATOM     44  C   UNL A   1      41.478  27.409  28.622  1.00  0.00     0.074 A 
ATOM     45  C   UNL A   1      40.538  26.313  28.547  1.00  0.00     0.031 C 
ATOM     46  C   UNL A   1      46.910  24.778  26.386  1.00  0.00     0.029 A 
ATOM     47  C   UNL A   1      46.713  26.140  26.870  1.00  0.00     0.049 A 
ATOM     48  H   UNL A   1      44.976  26.961  27.674  1.00  0.00     0.167 HD
ATOM     49  C   UNL A   1      41.169  28.645  29.082  1.00  0.00     0.037 A 
ATOM     50  C   UNL A   1      47.648  27.110  26.880  1.00  0.00     0.037 A 
ATOM     51  C   UNL A   1      42.121  29.717  29.208  1.00  0.00     0.049 A 
ATOM     52  C   UNL A   1      47.289  28.468  27.424  1.00  0.00     0.074 A 
ATOM     53  C   UNL A   1      41.929  30.990  29.714  1.00  0.00     0.029 A 
ATOM     54  N   UNL A   1      43.455  29.631  28.833  1.00  0.00    -0.354 N 
ATOM     55  N   UNL A   1      46.140  28.900  27.885  1.00  0.00    -0.248 NA
ATOM     56  C   UNL A   1      48.364  29.468  27.462  1.00  0.00     0.031 C 
ATOM     57  C   UNL A   1      43.137  31.688  29.610  1.00  0.00     0.029 A 
ATOM     58  C   UNL A   1      44.095  30.831  29.091  1.00  0.00     0.049 A 
ATOM     59  H   UNL A   1      43.882  28.835  28.441  1.00  0.00     0.167 HD
ATOM     60  C   UNL A   1      46.365  30.204  28.307  1.00  0.00     0.074 A 
ATOM     61  C   UNL A   1      47.762  30.488  28.056  1.00  0.00     0.031 C 
ATOM     62  C   UNL A   1      45.494  31.087  28.857  1.00  0.00     0.037 A 
BRANCH  49  63
ATOM     63  C   UNL A   1      39.746  28.900  29.494  1.00  0.00     0.064 A 
ATOM     64  C   UNL A   1      38.794  29.403  28.593  1.00  0.00     0.173 A 
ATOM     65  C   UNL A   1      39.320  28.616  30.802  1.00  0.00     0.173 A 
ATOM     66  F   UNL A   1      39.148  29.703  27.334  1.00  0.00    -0.203 F 
ATOM     67  C   UNL A   1      37.483  29.650  28.995  1.00  0.00     0.198 A 
ATOM     68  C   UNL A   1      37.999  28.830  31.190  1.00  0.00     0.198 A 
ATOM     69  F   UNL A   1      40.184  28.127  31.703  1.00  0.00    -0.203 F 
ATOM     70  F   UNL A   1      36.611  30.190  28.133  1.00  0.00    -0.200 F 
ATOM     71  C   UNL A   1      37.086  29.356  30.290  1.00  0.00     0.200 A 
ATOM     72  F   UNL A   1      37.613  28.531  32.438  1.00  0.00    -0.200 F 
ATOM     73  F   UNL A   1      35.822  29.589  30.673  1.00  0.00    -0.200 F 
ENDBRANCH  49  63
BRANCH  50  74
ATOM     74  C   UNL A   1      49.025  26.820  26.402  1.00  0.00     0.064 A 
ATOM     75  C   UNL A   1      49.391  27.072  25.072  1.00  0.00     0.173 A 
ATOM     76  C   UNL A   1      50.000  26.281  27.255  1.00  0.00     0.173 A 
ATOM     77  F   UNL A   1      48.490  27.571  24.214  1.00  0.00    -0.203 F 
ATOM     78  C   UNL A   1      50.669  26.771  24.606  1.00  0.00     0.198 A 
ATOM     79  C   UNL A   1      51.287  26.008  26.795  1.00  0.00     0.198 A 
ATOM     80  F   UNL A   1      49.706  26.031  28.539  1.00  0.00    -0.203 F 
ATOM     81  F   UNL A   1      50.974  26.973  23.317  1.00  0.00    -0.200 F 
ATOM     82  C   UNL A   1      51.617  26.243  25.469  1.00  0.00     0.200 A 
ATOM     83  F   UNL A   1      52.206  25.517  27.637  1.00  0.00    -0.200 F 
ATOM     84  F   UNL A   1      52.846  25.956  25.022  1.00  0.00    -0.200 F 
ENDBRANCH  50  74
BRANCH  62  85
ATOM     85  C   UNL A   1      46.042  32.416  29.290  1.00  0.00     0.064 A 
ATOM     86  C   UNL A   1      46.058  33.527  28.435  1.00  0.00     0.173 A 
ATOM     87  C   UNL A   1      46.535  32.582  30.593  1.00  0.00     0.173 A 
ATOM     88  F   UNL A   1      45.609  33.417  27.176  1.00  0.00    -0.203 F 
ATOM     89  C   UNL A   1      46.581  34.747  28.858  1.00  0.00     0.198 A 
ATOM     90  C   UNL A   1      47.027  33.812  31.023  1.00  0.00     0.198 A 
ATOM     91  F   UNL A   1      46.534  31.554  31.454  1.00  0.00    -0.203 F 
ATOM     92  F   UNL A   1      46.640  35.779  28.005  1.00  0.00    -0.200 F 
ATOM     93  C   UNL A   1      47.059  34.889  30.152  1.00  0.00     0.200 A 
ATOM     94  F   UNL A   1      47.471  33.952  32.279  1.00  0.00    -0.200 F 
ATOM     95  F   UNL A   1      47.559  36.065  30.557  1.00  0.00    -0.200 F 
ENDBRANCH  62  85
ENDBRANCH  36  37
ENDBRANCH  28  31
ENDBRANCH  26  27
ENDBRANCH  25  26
ENDBRANCH  24  25
ENDBRANCH   3  24
TORSDOF 16
ENDMDL
