MODEL 1
REMARK VINA RESULT:     -13.5      0.000      0.000
REMARK SMILES COc1cccc(C(=O)/C=C(/Nc2cc(C)c(C)cc2[N+](=O)[O-])C(=O)NCCCNC(=O)c2ccc(-c3c4nc(c(-c5c(F)c(F)c(F)c(F)c5F)c5ccc([nH]5)c(-c5c(F)c(F)c(F)c(F)c5F)c5nc(c(-c6c(F)c(F)c(F)c(F)c6F)c6ccc3[nH]6)C=C5)C=C4)cc2)c1
REMARK SMILES IDX 27 1 26 2 24 3 25 4 11 6 10 7 8 8 9 9 7 10 3 11 4 12 96 13
REMARK SMILES IDX 5 14 6 15 2 16 1 17 12 18 13 20 14 21 20 22 15 23 19 24
REMARK SMILES IDX 16 25 17 26 18 27 21 28 22 29 23 30 28 31 29 32 30 33 31 34
REMARK SMILES IDX 32 36 33 37 34 38 95 39 35 40 94 41 36 42 37 43 38 44 88 45
REMARK SMILES IDX 39 46 93 47 87 48 89 49 40 50 92 51 86 52 85 53 41 55 73 56
REMARK SMILES IDX 53 57 72 58 54 59 57 60 71 61 90 62 55 63 56 64 70 66 91 67
REMARK SMILES IDX 58 68 42 69 43 70 51 71 44 72 45 73 49 74 52 75 46 76 47 77
REMARK SMILES IDX 50 78 48 79 74 80 75 81 83 82 76 83 77 84 81 85 84 86 78 87
REMARK SMILES IDX 79 88 82 89 80 90 59 91 60 92 68 93 61 94 62 95 66 96 69 97
REMARK SMILES IDX 63 98 64 99 67 100 65 101
REMARK H PARENT 26 5 12 19 30 35 89 54 57 65
REMARK Flexibility Score: inf
ROOT
ATOM      1  C   UNL A   1      32.572  29.780  26.326  1.00  0.00     0.118 C 
ENDROOT
BRANCH   1   2
ATOM      2  N   UNL A   1      33.379  29.702  25.133  1.00  0.00    -0.351 N 
ATOM      3  C   UNL A   1      33.397  28.683  24.213  1.00  0.00     0.267 C 
ATOM      4  O   UNL A   1      33.968  28.840  23.138  1.00  0.00    -0.268 OA
ATOM      5  H   UNL A   1      33.984  30.460  24.961  1.00  0.00     0.163 HD
BRANCH   3   6
ATOM      6  C   UNL A   1      32.745  27.374  24.552  1.00  0.00     0.108 C 
ATOM      7  C   UNL A   1      31.616  27.058  23.885  1.00  0.00     0.084 C 
BRANCH   7   8
ATOM      8  C   UNL A   1      30.744  27.695  22.851  1.00  0.00     0.188 C 
ATOM      9  O   UNL A   1      30.912  27.350  21.680  1.00  0.00    -0.289 OA
BRANCH   8  10
ATOM     10  C   UNL A   1      29.677  28.677  23.120  1.00  0.00     0.026 A 
ATOM     11  C   UNL A   1      28.892  30.920  23.574  1.00  0.00     0.119 A 
ATOM     12  C   UNL A   1      27.574  30.476  23.436  1.00  0.00     0.046 A 
ATOM     13  C   UNL A   1      29.949  30.025  23.388  1.00  0.00     0.058 A 
ATOM     14  C   UNL A   1      27.303  29.150  23.107  1.00  0.00     0.005 A 
ATOM     15  C   UNL A   1      28.354  28.252  22.941  1.00  0.00     0.012 A 
BRANCH  11  16
ATOM     16  O   UNL A   1      29.008  32.262  23.812  1.00  0.00    -0.497 OA
ATOM     17  C   UNL A   1      28.866  33.118  22.692  1.00  0.00     0.278 C 
ENDBRANCH  11  16
ENDBRANCH   8  10
ENDBRANCH   7   8
BRANCH   6  18
ATOM     18  N   UNL A   1      33.302  26.501  25.505  1.00  0.00    -0.345 N 
ATOM     19  H   UNL A   1      33.534  26.911  26.370  1.00  0.00     0.167 HD
BRANCH  18  20
ATOM     20  C   UNL A   1      33.578  25.117  25.393  1.00  0.00     0.118 A 
ATOM     21  C   UNL A   1      34.676  24.766  24.577  1.00  0.00     0.037 A 
ATOM     22  C   UNL A   1      33.044  24.108  26.204  1.00  0.00     0.292 A 
ATOM     23  C   UNL A   1      35.341  23.525  24.704  1.00  0.00    -0.046 A 
ATOM     24  C   UNL A   1      33.681  22.860  26.337  1.00  0.00     0.091 A 
ATOM     25  C   UNL A   1      36.613  23.326  23.922  1.00  0.00     0.045 C 
ATOM     26  C   UNL A   1      34.874  22.591  25.647  1.00  0.00    -0.041 A 
ATOM     27  C   UNL A   1      35.644  21.343  25.985  1.00  0.00     0.045 C 
BRANCH  22  28
ATOM     28  N   UNL A   1      31.793  24.308  26.926  1.00  0.00     0.064 N 
ATOM     29  O   UNL A   1      31.296  25.443  26.889  1.00  0.00    -0.258 OA
ATOM     30  O   UNL A   1      31.351  23.354  27.581  1.00  0.00    -0.258 OA
ENDBRANCH  22  28
ENDBRANCH  18  20
ENDBRANCH   6  18
ENDBRANCH   3   6
ENDBRANCH   1   2
BRANCH   1  31
ATOM     31  C   UNL A   1      32.016  31.127  26.712  1.00  0.00     0.042 C 
BRANCH  31  32
ATOM     32  C   UNL A   1      32.995  32.156  27.252  1.00  0.00     0.118 C 
BRANCH  32  33
ATOM     33  N   UNL A   1      32.477  33.485  27.543  1.00  0.00    -0.352 N 
ATOM     34  C   UNL A   1      32.983  34.481  28.350  1.00  0.00     0.251 C 
ATOM     35  H   UNL A   1      31.630  33.707  27.093  1.00  0.00     0.163 HD
ATOM     36  O   UNL A   1      32.399  35.559  28.427  1.00  0.00    -0.269 OA
BRANCH  34  37
ATOM     37  C   UNL A   1      34.171  34.228  29.197  1.00  0.00     0.039 A 
ATOM     38  C   UNL A   1      33.981  33.663  30.461  1.00  0.00     0.014 A 
ATOM     39  C   UNL A   1      35.464  34.459  28.729  1.00  0.00     0.014 A 
ATOM     40  C   UNL A   1      35.082  33.205  31.189  1.00  0.00     0.010 A 
ATOM     41  C   UNL A   1      36.544  33.885  29.389  1.00  0.00     0.010 A 
ATOM     42  C   UNL A   1      36.367  33.243  30.624  1.00  0.00    -0.014 A 
BRANCH  42  43
ATOM     43  C   UNL A   1      37.539  32.620  31.292  1.00  0.00     0.031 A 
ATOM     44  C   UNL A   1      38.281  31.499  30.615  1.00  0.00     0.074 A 
ATOM     45  C   UNL A   1      37.874  32.988  32.546  1.00  0.00     0.049 A 
ATOM     46  N   UNL A   1      39.235  30.735  31.083  1.00  0.00    -0.248 NA
ATOM     47  C   UNL A   1      37.860  31.162  29.247  1.00  0.00     0.031 C 
ATOM     48  C   UNL A   1      37.193  34.010  33.344  1.00  0.00     0.029 A 
ATOM     49  N   UNL A   1      38.868  32.532  33.378  1.00  0.00    -0.354 N 
ATOM     50  C   UNL A   1      39.497  29.808  30.081  1.00  0.00     0.074 A 
ATOM     51  C   UNL A   1      38.563  30.065  29.009  1.00  0.00     0.031 C 
ATOM     52  C   UNL A   1      37.808  34.126  34.532  1.00  0.00     0.029 A 
ATOM     53  C   UNL A   1      38.900  33.160  34.599  1.00  0.00     0.049 A 
ATOM     54  H   UNL A   1      39.498  31.821  33.122  1.00  0.00     0.167 HD
ATOM     55  C   UNL A   1      40.452  28.849  30.045  1.00  0.00     0.037 A 
ATOM     56  C   UNL A   1      39.716  32.976  35.655  1.00  0.00     0.037 A 
ATOM     57  C   UNL A   1      41.422  28.635  31.085  1.00  0.00     0.049 A 
ATOM     58  C   UNL A   1      40.800  31.935  35.570  1.00  0.00     0.074 A 
ATOM     59  C   UNL A   1      42.480  27.744  31.109  1.00  0.00     0.029 A 
ATOM     60  N   UNL A   1      41.455  29.330  32.284  1.00  0.00    -0.354 N 
ATOM     61  N   UNL A   1      41.079  31.110  34.592  1.00  0.00    -0.248 NA
ATOM     62  C   UNL A   1      41.687  31.808  36.735  1.00  0.00     0.031 C 
ATOM     63  C   UNL A   1      43.136  27.880  32.338  1.00  0.00     0.029 A 
ATOM     64  C   UNL A   1      42.511  28.884  33.061  1.00  0.00     0.049 A 
ATOM     65  H   UNL A   1      40.822  30.039  32.545  1.00  0.00     0.167 HD
ATOM     66  C   UNL A   1      42.186  30.385  35.009  1.00  0.00     0.074 A 
ATOM     67  C   UNL A   1      42.538  30.878  36.323  1.00  0.00     0.031 C 
ATOM     68  C   UNL A   1      42.852  29.396  34.362  1.00  0.00     0.037 A 
BRANCH  55  69
ATOM     69  C   UNL A   1      40.505  27.972  28.828  1.00  0.00     0.064 A 
ATOM     70  C   UNL A   1      41.280  28.314  27.708  1.00  0.00     0.173 A 
ATOM     71  C   UNL A   1      39.788  26.768  28.784  1.00  0.00     0.173 A 
ATOM     72  F   UNL A   1      41.973  29.463  27.692  1.00  0.00    -0.203 F 
ATOM     73  C   UNL A   1      41.305  27.501  26.578  1.00  0.00     0.198 A 
ATOM     74  C   UNL A   1      39.842  25.941  27.665  1.00  0.00     0.198 A 
ATOM     75  F   UNL A   1      39.034  26.391  29.828  1.00  0.00    -0.203 F 
ATOM     76  F   UNL A   1      42.006  27.879  25.499  1.00  0.00    -0.200 F 
ATOM     77  C   UNL A   1      40.592  26.313  26.560  1.00  0.00     0.200 A 
ATOM     78  F   UNL A   1      39.160  24.787  27.653  1.00  0.00    -0.200 F 
ATOM     79  F   UNL A   1      40.620  25.530  25.472  1.00  0.00    -0.200 F 
ENDBRANCH  55  69
BRANCH  56  80
ATOM     80  C   UNL A   1      39.567  33.821  36.869  1.00  0.00     0.064 A 
ATOM     81  C   UNL A   1      40.174  35.083  36.940  1.00  0.00     0.173 A 
ATOM     82  C   UNL A   1      38.827  33.390  37.978  1.00  0.00     0.173 A 
ATOM     83  F   UNL A   1      40.907  35.532  35.911  1.00  0.00    -0.203 F 
ATOM     84  C   UNL A   1      40.063  35.873  38.082  1.00  0.00     0.198 A 
ATOM     85  C   UNL A   1      38.696  34.191  39.111  1.00  0.00     0.198 A 
ATOM     86  F   UNL A   1      38.220  32.193  37.957  1.00  0.00    -0.203 F 
ATOM     87  F   UNL A   1      40.689  37.057  38.140  1.00  0.00    -0.200 F 
ATOM     88  C   UNL A   1      39.320  35.428  39.166  1.00  0.00     0.200 A 
ATOM     89  F   UNL A   1      37.963  33.765  40.149  1.00  0.00    -0.200 F 
ATOM     90  F   UNL A   1      39.209  36.189  40.263  1.00  0.00    -0.200 F 
ENDBRANCH  56  80
BRANCH  68  91
ATOM     91  C   UNL A   1      44.047  28.809  35.052  1.00  0.00     0.064 A 
ATOM     92  C   UNL A   1      45.334  29.332  34.863  1.00  0.00     0.173 A 
ATOM     93  C   UNL A   1      43.895  27.735  35.941  1.00  0.00     0.173 A 
ATOM     94  F   UNL A   1      45.532  30.350  34.011  1.00  0.00    -0.203 F 
ATOM     95  C   UNL A   1      46.430  28.785  35.524  1.00  0.00     0.198 A 
ATOM     96  C   UNL A   1      44.989  27.209  36.621  1.00  0.00     0.198 A 
ATOM     97  F   UNL A   1      42.682  27.203  36.158  1.00  0.00    -0.203 F 
ATOM     98  F   UNL A   1      47.659  29.272  35.296  1.00  0.00    -0.200 F 
ATOM     99  C   UNL A   1      46.257  27.730  36.406  1.00  0.00     0.200 A 
ATOM    100  F   UNL A   1      44.818  26.196  37.482  1.00  0.00    -0.200 F 
ATOM    101  F   UNL A   1      47.313  27.208  37.046  1.00  0.00    -0.200 F 
ENDBRANCH  68  91
ENDBRANCH  42  43
ENDBRANCH  34  37
ENDBRANCH  32  33
ENDBRANCH  31  32
ENDBRANCH   1  31
TORSDOF 16
ENDMDL
MODEL 2
REMARK VINA RESULT:     -13.5      1.600      7.434
REMARK SMILES COc1cccc(C(=O)/C=C(/Nc2cc(C)c(C)cc2[N+](=O)[O-])C(=O)NCCCNC(=O)c2ccc(-c3c4nc(c(-c5c(F)c(F)c(F)c(F)c5F)c5ccc([nH]5)c(-c5c(F)c(F)c(F)c(F)c5F)c5nc(c(-c6c(F)c(F)c(F)c(F)c6F)c6ccc3[nH]6)C=C5)C=C4)cc2)c1
REMARK SMILES IDX 27 1 26 2 24 3 25 4 11 6 10 7 8 8 9 9 7 10 3 11 4 12 96 13
REMARK SMILES IDX 5 14 6 15 2 16 1 17 12 18 13 20 14 21 20 22 15 23 19 24
REMARK SMILES IDX 16 25 17 26 18 27 21 28 22 29 23 30 28 31 29 32 30 33 31 34
REMARK SMILES IDX 32 36 33 37 34 38 95 39 35 40 94 41 36 42 37 43 38 44 88 45
REMARK SMILES IDX 39 46 93 47 87 48 89 49 40 50 92 51 86 52 85 53 41 55 73 56
REMARK SMILES IDX 53 57 72 58 54 59 57 60 71 61 90 62 55 63 56 64 70 66 91 67
REMARK SMILES IDX 58 68 42 69 43 70 51 71 44 72 45 73 49 74 52 75 46 76 47 77
REMARK SMILES IDX 50 78 48 79 74 80 75 81 83 82 76 83 77 84 81 85 84 86 78 87
REMARK SMILES IDX 79 88 82 89 80 90 59 91 60 92 68 93 61 94 62 95 66 96 69 97
REMARK SMILES IDX 63 98 64 99 67 100 65 101
REMARK H PARENT 26 5 12 19 30 35 89 54 57 65
REMARK Flexibility Score: inf
ROOT
ATOM      1  C   UNL A   1      33.658  28.933  25.507  1.00  0.00     0.118 C 
ENDROOT
BRANCH   1   2
ATOM      2  N   UNL A   1      34.090  28.456  24.216  1.00  0.00    -0.351 N 
ATOM      3  C   UNL A   1      33.507  27.467  23.463  1.00  0.00     0.267 C 
ATOM      4  O   UNL A   1      33.846  27.309  22.294  1.00  0.00    -0.268 OA
ATOM      5  H   UNL A   1      34.891  28.885  23.834  1.00  0.00     0.163 HD
BRANCH   3   6
ATOM      6  C   UNL A   1      32.484  26.568  24.094  1.00  0.00     0.108 C 
ATOM      7  C   UNL A   1      31.212  26.686  23.664  1.00  0.00     0.084 C 
BRANCH   7   8
ATOM      8  C   UNL A   1      30.463  27.538  22.689  1.00  0.00     0.188 C 
ATOM      9  O   UNL A   1      30.660  27.331  21.490  1.00  0.00    -0.289 OA
BRANCH   8  10
ATOM     10  C   UNL A   1      29.483  28.582  23.042  1.00  0.00     0.026 A 
ATOM     11  C   UNL A   1      28.876  30.867  23.557  1.00  0.00     0.119 A 
ATOM     12  C   UNL A   1      27.527  30.505  23.525  1.00  0.00     0.046 A 
ATOM     13  C   UNL A   1      29.858  29.909  23.287  1.00  0.00     0.058 A 
ATOM     14  C   UNL A   1      27.149  29.200  23.221  1.00  0.00     0.005 A 
ATOM     15  C   UNL A   1      28.127  28.240  22.971  1.00  0.00     0.012 A 
BRANCH  11  16
ATOM     16  O   UNL A   1      29.093  32.198  23.785  1.00  0.00    -0.497 OA
ATOM     17  C   UNL A   1      28.787  33.080  22.719  1.00  0.00     0.278 C 
ENDBRANCH  11  16
ENDBRANCH   8  10
ENDBRANCH   7   8
BRANCH   6  18
ATOM     18  N   UNL A   1      32.842  25.623  25.074  1.00  0.00    -0.345 N 
ATOM     19  H   UNL A   1      32.789  25.939  26.006  1.00  0.00     0.167 HD
BRANCH  18  20
ATOM     20  C   UNL A   1      33.268  24.284  24.908  1.00  0.00     0.118 A 
ATOM     21  C   UNL A   1      34.410  24.091  24.098  1.00  0.00     0.037 A 
ATOM     22  C   UNL A   1      32.835  23.187  25.662  1.00  0.00     0.292 A 
ATOM     23  C   UNL A   1      35.204  22.925  24.185  1.00  0.00    -0.046 A 
ATOM     24  C   UNL A   1      33.601  22.011  25.753  1.00  0.00     0.091 A 
ATOM     25  C   UNL A   1      36.503  22.900  23.421  1.00  0.00     0.045 C 
ATOM     26  C   UNL A   1      34.827  21.904  25.076  1.00  0.00    -0.041 A 
ATOM     27  C   UNL A   1      35.723  20.733  25.375  1.00  0.00     0.045 C 
BRANCH  22  28
ATOM     28  N   UNL A   1      31.558  23.218  26.368  1.00  0.00     0.064 N 
ATOM     29  O   UNL A   1      30.684  22.426  25.985  1.00  0.00    -0.258 OA
ATOM     30  O   UNL A   1      31.413  24.075  27.250  1.00  0.00    -0.258 OA
ENDBRANCH  22  28
ENDBRANCH  18  20
ENDBRANCH   6  18
ENDBRANCH   3   6
ENDBRANCH   1   2
BRANCH   1  31
ATOM     31  C   UNL A   1      32.648  30.051  25.541  1.00  0.00     0.042 C 
BRANCH  31  32
ATOM     32  C   UNL A   1      32.201  30.544  26.907  1.00  0.00     0.118 C 
BRANCH  32  33
ATOM     33  N   UNL A   1      32.359  31.963  27.193  1.00  0.00    -0.352 N 
ATOM     34  C   UNL A   1      33.462  32.666  27.625  1.00  0.00     0.251 C 
ATOM     35  H   UNL A   1      31.549  32.506  27.056  1.00  0.00     0.163 HD
ATOM     36  O   UNL A   1      33.389  33.884  27.768  1.00  0.00    -0.269 OA
BRANCH  34  37
ATOM     37  C   UNL A   1      34.702  31.955  28.008  1.00  0.00     0.039 A 
ATOM     38  C   UNL A   1      35.892  32.685  28.086  1.00  0.00     0.014 A 
ATOM     39  C   UNL A   1      34.690  30.610  28.373  1.00  0.00     0.014 A 
ATOM     40  C   UNL A   1      37.026  32.103  28.658  1.00  0.00     0.010 A 
ATOM     41  C   UNL A   1      35.773  30.077  29.062  1.00  0.00     0.010 A 
ATOM     42  C   UNL A   1      36.953  30.819  29.221  1.00  0.00    -0.014 A 
BRANCH  42  43
ATOM     43  C   UNL A   1      38.084  30.228  29.983  1.00  0.00     0.031 A 
ATOM     44  C   UNL A   1      38.319  30.633  31.413  1.00  0.00     0.074 A 
ATOM     45  C   UNL A   1      38.959  29.409  29.363  1.00  0.00     0.049 A 
ATOM     46  N   UNL A   1      39.321  30.343  32.203  1.00  0.00    -0.248 NA
ATOM     47  C   UNL A   1      37.317  31.523  32.020  1.00  0.00     0.031 C 
ATOM     48  C   UNL A   1      38.889  28.994  27.960  1.00  0.00     0.029 A 
ATOM     49  N   UNL A   1      40.092  28.789  29.832  1.00  0.00    -0.354 N 
ATOM     50  C   UNL A   1      39.086  31.044  33.380  1.00  0.00     0.074 A 
ATOM     51  C   UNL A   1      37.883  31.819  33.179  1.00  0.00     0.031 C 
ATOM     52  C   UNL A   1      39.911  28.164  27.693  1.00  0.00     0.029 A 
ATOM     53  C   UNL A   1      40.732  28.020  28.891  1.00  0.00     0.049 A 
ATOM     54  H   UNL A   1      40.414  28.887  30.756  1.00  0.00     0.167 HD
ATOM     55  C   UNL A   1      39.791  31.018  34.536  1.00  0.00     0.037 A 
ATOM     56  C   UNL A   1      41.856  27.283  28.983  1.00  0.00     0.037 A 
ATOM     57  C   UNL A   1      40.952  30.198  34.755  1.00  0.00     0.049 A 
ATOM     58  C   UNL A   1      42.594  27.234  30.293  1.00  0.00     0.074 A 
ATOM     59  C   UNL A   1      41.689  30.039  35.915  1.00  0.00     0.029 A 
ATOM     60  N   UNL A   1      41.537  29.390  33.792  1.00  0.00    -0.354 N 
ATOM     61  N   UNL A   1      42.325  27.850  31.417  1.00  0.00    -0.248 NA
ATOM     62  C   UNL A   1      43.790  26.381  30.347  1.00  0.00     0.031 C 
ATOM     63  C   UNL A   1      42.741  29.156  35.644  1.00  0.00     0.029 A 
ATOM     64  C   UNL A   1      42.633  28.734  34.329  1.00  0.00     0.049 A 
ATOM     65  H   UNL A   1      41.220  29.294  32.865  1.00  0.00     0.167 HD
ATOM     66  C   UNL A   1      43.297  27.440  32.319  1.00  0.00     0.074 A 
ATOM     67  C   UNL A   1      44.155  26.511  31.615  1.00  0.00     0.031 C 
ATOM     68  C   UNL A   1      43.467  27.803  33.614  1.00  0.00     0.037 A 
BRANCH  55  69
ATOM     69  C   UNL A   1      39.310  31.891  35.658  1.00  0.00     0.064 A 
ATOM     70  C   UNL A   1      38.400  31.421  36.618  1.00  0.00     0.173 A 
ATOM     71  C   UNL A   1      39.776  33.208  35.787  1.00  0.00     0.173 A 
ATOM     72  F   UNL A   1      37.912  30.174  36.531  1.00  0.00    -0.203 F 
ATOM     73  C   UNL A   1      37.948  32.247  37.643  1.00  0.00     0.198 A 
ATOM     74  C   UNL A   1      39.346  34.020  36.833  1.00  0.00     0.198 A 
ATOM     75  F   UNL A   1      40.649  33.707  34.900  1.00  0.00    -0.203 F 
ATOM     76  F   UNL A   1      37.034  31.792  38.512  1.00  0.00    -0.200 F 
ATOM     77  C   UNL A   1      38.426  33.543  37.754  1.00  0.00     0.200 A 
ATOM     78  F   UNL A   1      39.818  35.270  36.946  1.00  0.00    -0.200 F 
ATOM     79  F   UNL A   1      37.992  34.335  38.743  1.00  0.00    -0.200 F 
ENDBRANCH  55  69
BRANCH  56  80
ATOM     80  C   UNL A   1      42.331  26.499  27.812  1.00  0.00     0.064 A 
ATOM     81  C   UNL A   1      41.824  25.217  27.557  1.00  0.00     0.173 A 
ATOM     82  C   UNL A   1      43.299  27.004  26.933  1.00  0.00     0.173 A 
ATOM     83  F   UNL A   1      40.910  24.683  28.380  1.00  0.00    -0.203 F 
ATOM     84  C   UNL A   1      42.281  24.463  26.479  1.00  0.00     0.198 A 
ATOM     85  C   UNL A   1      43.737  26.259  25.840  1.00  0.00     0.198 A 
ATOM     86  F   UNL A   1      43.811  28.229  27.129  1.00  0.00    -0.203 F 
ATOM     87  F   UNL A   1      41.810  23.223  26.282  1.00  0.00    -0.200 F 
ATOM     88  C   UNL A   1      43.234  24.986  25.618  1.00  0.00     0.200 A 
ATOM     89  F   UNL A   1      44.646  26.775  25.002  1.00  0.00    -0.200 F 
ATOM     90  F   UNL A   1      43.671  24.263  24.578  1.00  0.00    -0.200 F 
ENDBRANCH  56  80
BRANCH  68  91
ATOM     91  C   UNL A   1      44.601  27.167  34.362  1.00  0.00     0.064 A 
ATOM     92  C   UNL A   1      44.448  25.938  35.021  1.00  0.00     0.173 A 
ATOM     93  C   UNL A   1      45.864  27.776  34.386  1.00  0.00     0.173 A 
ATOM     94  F   UNL A   1      43.254  25.326  35.039  1.00  0.00    -0.203 F 
ATOM     95  C   UNL A   1      45.515  25.354  35.697  1.00  0.00     0.198 A 
ATOM     96  C   UNL A   1      46.935  27.174  35.039  1.00  0.00     0.198 A 
ATOM     97  F   UNL A   1      46.061  28.949  33.766  1.00  0.00    -0.203 F 
ATOM     98  F   UNL A   1      45.336  24.201  36.358  1.00  0.00    -0.200 F 
ATOM     99  C   UNL A   1      46.758  25.968  35.699  1.00  0.00     0.200 A 
ATOM    100  F   UNL A   1      48.139  27.763  35.031  1.00  0.00    -0.200 F 
ATOM    101  F   UNL A   1      47.786  25.400  36.346  1.00  0.00    -0.200 F 
ENDBRANCH  68  91
ENDBRANCH  42  43
ENDBRANCH  34  37
ENDBRANCH  32  33
ENDBRANCH  31  32
ENDBRANCH   1  31
TORSDOF 16
ENDMDL
MODEL 3
REMARK VINA RESULT:     -13.5      1.903      3.292
REMARK SMILES COc1cccc(C(=O)/C=C(/Nc2cc(C)c(C)cc2[N+](=O)[O-])C(=O)NCCCNC(=O)c2ccc(-c3c4nc(c(-c5c(F)c(F)c(F)c(F)c5F)c5ccc([nH]5)c(-c5c(F)c(F)c(F)c(F)c5F)c5nc(c(-c6c(F)c(F)c(F)c(F)c6F)c6ccc3[nH]6)C=C5)C=C4)cc2)c1
REMARK SMILES IDX 27 1 26 2 24 3 25 4 11 6 10 7 8 8 9 9 7 10 3 11 4 12 96 13
REMARK SMILES IDX 5 14 6 15 2 16 1 17 12 18 13 20 14 21 20 22 15 23 19 24
REMARK SMILES IDX 16 25 17 26 18 27 21 28 22 29 23 30 28 31 29 32 30 33 31 34
REMARK SMILES IDX 32 36 33 37 34 38 95 39 35 40 94 41 36 42 37 43 38 44 88 45
REMARK SMILES IDX 39 46 93 47 87 48 89 49 40 50 92 51 86 52 85 53 41 55 73 56
REMARK SMILES IDX 53 57 72 58 54 59 57 60 71 61 90 62 55 63 56 64 70 66 91 67
REMARK SMILES IDX 58 68 42 69 43 70 51 71 44 72 45 73 49 74 52 75 46 76 47 77
REMARK SMILES IDX 50 78 48 79 74 80 75 81 83 82 76 83 77 84 81 85 84 86 78 87
REMARK SMILES IDX 79 88 82 89 80 90 59 91 60 92 68 93 61 94 62 95 66 96 69 97
REMARK SMILES IDX 63 98 64 99 67 100 65 101
REMARK H PARENT 26 5 12 19 30 35 89 54 57 65
REMARK Flexibility Score: inf
ROOT
ATOM      1  C   UNL A   1      32.016  26.950  26.658  1.00  0.00     0.118 C 
ENDROOT
BRANCH   1   2
ATOM      2  N   UNL A   1      31.009  25.948  26.909  1.00  0.00    -0.351 N 
ATOM      3  C   UNL A   1      31.110  24.599  26.675  1.00  0.00     0.267 C 
ATOM      4  O   UNL A   1      30.265  23.835  27.132  1.00  0.00    -0.268 OA
ATOM      5  H   UNL A   1      30.157  26.266  27.288  1.00  0.00     0.163 HD
BRANCH   3   6
ATOM      6  C   UNL A   1      32.238  24.081  25.831  1.00  0.00     0.108 C 
ATOM      7  C   UNL A   1      32.153  24.279  24.501  1.00  0.00     0.084 C 
BRANCH   7   8
ATOM      8  C   UNL A   1      31.172  24.882  23.547  1.00  0.00     0.188 C 
ATOM      9  O   UNL A   1      30.368  24.120  23.005  1.00  0.00    -0.289 OA
BRANCH   8  10
ATOM     10  C   UNL A   1      31.063  26.317  23.226  1.00  0.00     0.026 A 
ATOM     11  C   UNL A   1      29.832  28.396  23.083  1.00  0.00     0.119 A 
ATOM     12  C   UNL A   1      31.017  29.064  22.765  1.00  0.00     0.046 A 
ATOM     13  C   UNL A   1      29.858  27.022  23.342  1.00  0.00     0.058 A 
ATOM     14  C   UNL A   1      32.227  28.377  22.710  1.00  0.00     0.005 A 
ATOM     15  C   UNL A   1      32.252  27.005  22.949  1.00  0.00     0.012 A 
BRANCH  11  16
ATOM     16  O   UNL A   1      28.739  29.212  23.184  1.00  0.00    -0.497 OA
ATOM     17  C   UNL A   1      28.223  29.731  21.971  1.00  0.00     0.278 C 
ENDBRANCH  11  16
ENDBRANCH   8  10
ENDBRANCH   7   8
BRANCH   6  18
ATOM     18  N   UNL A   1      33.351  23.440  26.407  1.00  0.00    -0.345 N 
ATOM     19  H   UNL A   1      33.309  23.316  27.384  1.00  0.00     0.167 HD
BRANCH  18  20
ATOM     20  C   UNL A   1      34.521  22.951  25.781  1.00  0.00     0.118 A 
ATOM     21  C   UNL A   1      35.688  23.731  25.946  1.00  0.00     0.037 A 
ATOM     22  C   UNL A   1      34.690  21.666  25.249  1.00  0.00     0.292 A 
ATOM     23  C   UNL A   1      36.983  23.191  25.779  1.00  0.00    -0.046 A 
ATOM     24  C   UNL A   1      35.969  21.112  25.062  1.00  0.00     0.091 A 
ATOM     25  C   UNL A   1      38.159  24.051  26.165  1.00  0.00     0.045 C 
ATOM     26  C   UNL A   1      37.120  21.844  25.398  1.00  0.00    -0.041 A 
ATOM     27  C   UNL A   1      38.452  21.143  25.400  1.00  0.00     0.045 C 
BRANCH  22  28
ATOM     28  N   UNL A   1      33.540  20.861  24.851  1.00  0.00     0.064 N 
ATOM     29  O   UNL A   1      33.208  20.907  23.658  1.00  0.00    -0.258 OA
ATOM     30  O   UNL A   1      32.937  20.246  25.741  1.00  0.00    -0.258 OA
ENDBRANCH  22  28
ENDBRANCH  18  20
ENDBRANCH   6  18
ENDBRANCH   3   6
ENDBRANCH   1   2
BRANCH   1  31
ATOM     31  C   UNL A   1      31.660  28.389  26.931  1.00  0.00     0.042 C 
BRANCH  31  32
ATOM     32  C   UNL A   1      32.510  29.456  26.261  1.00  0.00     0.118 C 
BRANCH  32  33
ATOM     33  N   UNL A   1      32.301  30.836  26.674  1.00  0.00    -0.352 N 
ATOM     34  C   UNL A   1      33.171  31.733  27.254  1.00  0.00     0.251 C 
ATOM     35  H   UNL A   1      31.393  31.184  26.515  1.00  0.00     0.163 HD
ATOM     36  O   UNL A   1      32.797  32.879  27.491  1.00  0.00    -0.269 OA
BRANCH  34  37
ATOM     37  C   UNL A   1      34.521  31.300  27.681  1.00  0.00     0.039 A 
ATOM     38  C   UNL A   1      35.511  32.273  27.852  1.00  0.00     0.014 A 
ATOM     39  C   UNL A   1      34.796  29.971  27.995  1.00  0.00     0.014 A 
ATOM     40  C   UNL A   1      36.718  31.933  28.466  1.00  0.00     0.010 A 
ATOM     41  C   UNL A   1      35.938  29.661  28.724  1.00  0.00     0.010 A 
ATOM     42  C   UNL A   1      36.911  30.640  28.977  1.00  0.00    -0.014 A 
BRANCH  42  43
ATOM     43  C   UNL A   1      38.110  30.281  29.778  1.00  0.00     0.031 A 
ATOM     44  C   UNL A   1      39.116  29.306  29.228  1.00  0.00     0.074 A 
ATOM     45  C   UNL A   1      38.243  30.747  31.037  1.00  0.00     0.049 A 
ATOM     46  N   UNL A   1      40.149  28.759  29.818  1.00  0.00    -0.248 NA
ATOM     47  C   UNL A   1      38.905  28.848  27.846  1.00  0.00     0.031 C 
ATOM     48  C   UNL A   1      37.304  31.641  31.718  1.00  0.00     0.029 A 
ATOM     49  N   UNL A   1      39.220  30.522  31.977  1.00  0.00    -0.354 N 
ATOM     50  C   UNL A   1      40.681  27.869  28.892  1.00  0.00     0.074 A 
ATOM     51  C   UNL A   1      39.825  27.904  27.729  1.00  0.00     0.031 C 
ATOM     52  C   UNL A   1      37.766  31.913  32.949  1.00  0.00     0.029 A 
ATOM     53  C   UNL A   1      39.010  31.183  33.163  1.00  0.00     0.049 A 
ATOM     54  H   UNL A   1      39.997  29.940  31.815  1.00  0.00     0.167 HD
ATOM     55  C   UNL A   1      41.802  27.116  28.990  1.00  0.00     0.037 A 
ATOM     56  C   UNL A   1      39.739  31.197  34.296  1.00  0.00     0.037 A 
ATOM     57  C   UNL A   1      42.687  27.129  30.123  1.00  0.00     0.049 A 
ATOM     58  C   UNL A   1      41.006  30.386  34.361  1.00  0.00     0.074 A 
ATOM     59  C   UNL A   1      43.889  26.465  30.288  1.00  0.00     0.029 A 
ATOM     60  N   UNL A   1      42.468  27.856  31.284  1.00  0.00    -0.354 N 
ATOM     61  N   UNL A   1      41.533  29.601  33.455  1.00  0.00    -0.248 NA
ATOM     62  C   UNL A   1      41.782  30.473  35.606  1.00  0.00     0.031 C 
ATOM     63  C   UNL A   1      44.383  26.766  31.562  1.00  0.00     0.029 A 
ATOM     64  C   UNL A   1      43.509  27.650  32.174  1.00  0.00     0.049 A 
ATOM     65  H   UNL A   1      41.688  28.435  31.451  1.00  0.00     0.167 HD
ATOM     66  C   UNL A   1      42.712  29.121  34.006  1.00  0.00     0.074 A 
ATOM     67  C   UNL A   1      42.832  29.715  35.321  1.00  0.00     0.031 C 
ATOM     68  C   UNL A   1      43.616  28.261  33.473  1.00  0.00     0.037 A 
BRANCH  55  69
ATOM     69  C   UNL A   1      42.141  26.228  27.829  1.00  0.00     0.064 A 
ATOM     70  C   UNL A   1      41.529  24.975  27.657  1.00  0.00     0.173 A 
ATOM     71  C   UNL A   1      43.075  26.638  26.866  1.00  0.00     0.173 A 
ATOM     72  F   UNL A   1      40.641  24.529  28.558  1.00  0.00    -0.203 F 
ATOM     73  C   UNL A   1      41.867  24.154  26.585  1.00  0.00     0.198 A 
ATOM     74  C   UNL A   1      43.385  25.827  25.778  1.00  0.00     0.198 A 
ATOM     75  F   UNL A   1      43.686  27.826  26.980  1.00  0.00    -0.203 F 
ATOM     76  F   UNL A   1      41.313  22.938  26.476  1.00  0.00    -0.200 F 
ATOM     77  C   UNL A   1      42.789  24.583  25.643  1.00  0.00     0.200 A 
ATOM     78  F   UNL A   1      44.269  26.248  24.861  1.00  0.00    -0.200 F 
ATOM     79  F   UNL A   1      43.110  23.791  24.611  1.00  0.00    -0.200 F 
ENDBRANCH  55  69
BRANCH  56  80
ATOM     80  C   UNL A   1      39.312  32.034  35.447  1.00  0.00     0.064 A 
ATOM     81  C   UNL A   1      38.483  31.506  36.446  1.00  0.00     0.173 A 
ATOM     82  C   UNL A   1      39.713  33.372  35.572  1.00  0.00     0.173 A 
ATOM     83  F   UNL A   1      38.058  30.237  36.361  1.00  0.00    -0.203 F 
ATOM     84  C   UNL A   1      38.054  32.289  37.515  1.00  0.00     0.198 A 
ATOM     85  C   UNL A   1      39.304  34.147  36.655  1.00  0.00     0.198 A 
ATOM     86  F   UNL A   1      40.513  33.923  34.646  1.00  0.00    -0.203 F 
ATOM     87  F   UNL A   1      37.227  31.771  38.434  1.00  0.00    -0.200 F 
ATOM     88  C   UNL A   1      38.469  33.608  37.622  1.00  0.00     0.200 A 
ATOM     89  F   UNL A   1      39.721  35.416  36.763  1.00  0.00    -0.200 F 
ATOM     90  F   UNL A   1      38.061  34.361  38.653  1.00  0.00    -0.200 F 
ENDBRANCH  56  80
BRANCH  68  91
ATOM     91  C   UNL A   1      44.828  27.942  34.296  1.00  0.00     0.064 A 
ATOM     92  C   UNL A   1      45.976  28.746  34.255  1.00  0.00     0.173 A 
ATOM     93  C   UNL A   1      44.824  26.841  35.166  1.00  0.00     0.173 A 
ATOM     94  F   UNL A   1      46.033  29.801  33.427  1.00  0.00    -0.203 F 
ATOM     95  C   UNL A   1      47.087  28.444  35.038  1.00  0.00     0.198 A 
ATOM     96  C   UNL A   1      45.926  26.560  35.967  1.00  0.00     0.198 A 
ATOM     97  F   UNL A   1      43.747  26.045  35.244  1.00  0.00    -0.203 F 
ATOM     98  F   UNL A   1      48.191  29.200  34.950  1.00  0.00    -0.200 F 
ATOM     99  C   UNL A   1      47.058  27.357  35.898  1.00  0.00     0.200 A 
ATOM    100  F   UNL A   1      45.893  25.515  36.806  1.00  0.00    -0.200 F 
ATOM    101  F   UNL A   1      48.127  27.071  36.655  1.00  0.00    -0.200 F 
ENDBRANCH  68  91
ENDBRANCH  42  43
ENDBRANCH  34  37
ENDBRANCH  32  33
ENDBRANCH  31  32
ENDBRANCH   1  31
TORSDOF 16
ENDMDL
