MODEL 1
REMARK VINA RESULT:     -13.1      0.000      0.000
REMARK SMILES Cc1ccc([C@@](C)(O)[C@H](F)C(=O)NCCCNC(=O)c2ccc(-c3c4nc(c(-c5c(F)c(F)c(F)c(F)c5F)c5ccc([nH]5)c(-c5c(F)c(F)c(F)c(F)c5F)c5nc(c(-c6c(F)c(F)c(F)c(F)c6F)c6ccc3[nH]6)C=C5)C=C4)cc2)cc1F
REMARK SMILES IDX 15 1 14 2 13 3 11 4 12 5 9 7 10 8 6 9 7 10 5 11 1 12 2 13
REMARK SMILES IDX 3 14 84 15 4 16 83 17 85 18 8 19 16 21 17 22 18 23 19 25
REMARK SMILES IDX 20 26 21 27 82 28 22 29 81 30 23 31 24 32 25 33 75 34 26 35
REMARK SMILES IDX 80 36 74 37 76 38 27 39 79 40 73 41 72 42 28 44 60 45 40 46
REMARK SMILES IDX 59 47 41 48 44 49 58 50 77 51 42 52 43 53 57 55 78 56 45 57
REMARK SMILES IDX 29 58 30 59 38 60 31 61 32 62 36 63 39 64 33 65 34 66 37 67
REMARK SMILES IDX 35 68 61 69 62 70 70 71 63 72 64 73 68 74 71 75 65 76 66 77
REMARK SMILES IDX 69 78 67 79 46 80 47 81 55 82 48 83 49 84 53 85 56 86 50 87
REMARK SMILES IDX 51 88 54 89 52 90
REMARK H PARENT 13 6 8 20 17 24 76 43 44 54
REMARK Flexibility Score: inf
ROOT
ATOM      1  C   UNL A   1      33.041  28.042  27.023  1.00  0.00     0.042 C 
ENDROOT
BRANCH   1   2
ATOM      2  C   UNL A   1      32.919  26.826  26.133  1.00  0.00     0.117 C 
BRANCH   2   3
ATOM      3  N   UNL A   1      31.842  25.913  26.490  1.00  0.00    -0.353 N 
ATOM      4  C   UNL A   1      31.989  24.568  26.740  1.00  0.00     0.257 C 
ATOM      5  O   UNL A   1      31.052  23.926  27.214  1.00  0.00    -0.272 OA
ATOM      6  H   UNL A   1      30.935  26.289  26.557  1.00  0.00     0.163 HD
BRANCH   4   7
ATOM      7  C   UNL A   1      33.320  23.927  26.370  1.00  0.00     0.291 C 
ATOM      8  F   UNL A   1      33.603  22.970  27.315  1.00  0.00    -0.233 F 
BRANCH   7   9
ATOM      9  C   UNL A   1      33.350  23.326  24.915  1.00  0.00     0.127 C 
ATOM     10  C   UNL A   1      34.402  24.079  24.094  1.00  0.00     0.051 C 
BRANCH   9  11
ATOM     11  C   UNL A   1      33.587  21.806  24.860  1.00  0.00    -0.010 A 
ATOM     12  C   UNL A   1      34.410  17.572  24.366  1.00  0.00     0.047 C 
ATOM     13  C   UNL A   1      34.117  19.027  24.541  1.00  0.00    -0.015 A 
ATOM     14  C   UNL A   1      32.815  19.516  24.455  1.00  0.00     0.007 A 
ATOM     15  C   UNL A   1      35.144  19.928  24.816  1.00  0.00     0.126 A 
ATOM     16  C   UNL A   1      32.555  20.880  24.631  1.00  0.00     0.007 A 
ATOM     17  C   UNL A   1      34.892  21.289  24.982  1.00  0.00     0.046 A 
ATOM     18  F   UNL A   1      36.408  19.491  24.907  1.00  0.00    -0.207 F 
ENDBRANCH   9  11
BRANCH   9  19
ATOM     19  O   UNL A   1      32.123  23.600  24.197  1.00  0.00    -0.382 OA
ATOM     20  H   UNL A   1      31.740  24.432  24.516  1.00  0.00     0.212 HD
ENDBRANCH   9  19
ENDBRANCH   7   9
ENDBRANCH   4   7
ENDBRANCH   2   3
ENDBRANCH   1   2
BRANCH   1  21
ATOM     21  C   UNL A   1      34.409  28.638  26.877  1.00  0.00     0.118 C 
BRANCH  21  22
ATOM     22  N   UNL A   1      34.411  30.094  27.083  1.00  0.00    -0.352 N 
ATOM     23  C   UNL A   1      35.283  30.839  27.854  1.00  0.00     0.251 C 
ATOM     24  H   UNL A   1      33.706  30.599  26.617  1.00  0.00     0.163 HD
ATOM     25  O   UNL A   1      35.062  31.991  28.159  1.00  0.00    -0.269 OA
BRANCH  23  26
ATOM     26  C   UNL A   1      36.520  30.163  28.254  1.00  0.00     0.039 A 
ATOM     27  C   UNL A   1      36.633  29.435  29.441  1.00  0.00     0.014 A 
ATOM     28  C   UNL A   1      37.563  30.242  27.342  1.00  0.00     0.014 A 
ATOM     29  C   UNL A   1      37.824  28.760  29.686  1.00  0.00     0.010 A 
ATOM     30  C   UNL A   1      38.578  29.358  27.441  1.00  0.00     0.010 A 
ATOM     31  C   UNL A   1      38.777  28.732  28.668  1.00  0.00    -0.014 A 
BRANCH  31  32
ATOM     32  C   UNL A   1      40.096  28.149  28.750  1.00  0.00     0.031 A 
ATOM     33  C   UNL A   1      40.263  26.721  28.507  1.00  0.00     0.074 A 
ATOM     34  C   UNL A   1      41.101  29.052  28.830  1.00  0.00     0.049 A 
ATOM     35  N   UNL A   1      41.283  26.055  28.900  1.00  0.00    -0.248 NA
ATOM     36  C   UNL A   1      39.274  25.910  27.803  1.00  0.00     0.031 C 
ATOM     37  C   UNL A   1      42.526  28.924  28.605  1.00  0.00     0.029 A 
ATOM     38  N   UNL A   1      40.957  30.392  29.247  1.00  0.00    -0.354 N 
ATOM     39  C   UNL A   1      41.254  24.844  28.249  1.00  0.00     0.074 A 
ATOM     40  C   UNL A   1      39.926  24.746  27.691  1.00  0.00     0.031 C 
ATOM     41  C   UNL A   1      43.144  29.964  29.202  1.00  0.00     0.029 A 
ATOM     42  C   UNL A   1      42.134  30.718  29.935  1.00  0.00     0.049 A 
ATOM     43  H   UNL A   1      40.183  30.980  29.087  1.00  0.00     0.167 HD
ATOM     44  C   UNL A   1      42.428  24.159  28.139  1.00  0.00     0.037 A 
ATOM     45  C   UNL A   1      42.026  30.844  31.294  1.00  0.00     0.037 A 
ATOM     46  C   UNL A   1      43.504  24.923  28.780  1.00  0.00     0.049 A 
ATOM     47  C   UNL A   1      42.633  29.664  32.018  1.00  0.00     0.074 A 
ATOM     48  C   UNL A   1      44.433  25.844  28.320  1.00  0.00     0.029 A 
ATOM     49  N   UNL A   1      43.438  25.109  30.145  1.00  0.00    -0.354 N 
ATOM     50  N   UNL A   1      43.076  28.592  31.416  1.00  0.00    -0.248 NA
ATOM     51  C   UNL A   1      42.768  29.579  33.467  1.00  0.00     0.031 C 
ATOM     52  C   UNL A   1      44.872  26.621  29.441  1.00  0.00     0.029 A 
ATOM     53  C   UNL A   1      44.221  26.162  30.573  1.00  0.00     0.049 A 
ATOM     54  H   UNL A   1      42.894  24.552  30.747  1.00  0.00     0.167 HD
ATOM     55  C   UNL A   1      43.574  27.716  32.329  1.00  0.00     0.074 A 
ATOM     56  C   UNL A   1      43.325  28.363  33.609  1.00  0.00     0.031 C 
ATOM     57  C   UNL A   1      44.159  26.531  31.980  1.00  0.00     0.037 A 
BRANCH  44  58
ATOM     58  C   UNL A   1      42.675  22.935  27.295  1.00  0.00     0.064 A 
ATOM     59  C   UNL A   1      41.999  21.729  27.589  1.00  0.00     0.173 A 
ATOM     60  C   UNL A   1      43.535  22.871  26.181  1.00  0.00     0.173 A 
ATOM     61  F   UNL A   1      41.106  21.653  28.585  1.00  0.00    -0.203 F 
ATOM     62  C   UNL A   1      42.209  20.552  26.869  1.00  0.00     0.198 A 
ATOM     63  C   UNL A   1      43.774  21.680  25.483  1.00  0.00     0.198 A 
ATOM     64  F   UNL A   1      44.127  23.963  25.687  1.00  0.00    -0.203 F 
ATOM     65  F   UNL A   1      41.525  19.446  27.193  1.00  0.00    -0.200 F 
ATOM     66  C   UNL A   1      43.111  20.521  25.827  1.00  0.00     0.200 A 
ATOM     67  F   UNL A   1      44.645  21.672  24.463  1.00  0.00    -0.200 F 
ATOM     68  F   UNL A   1      43.320  19.389  25.143  1.00  0.00    -0.200 F 
ENDBRANCH  44  58
BRANCH  45  69
ATOM     69  C   UNL A   1      40.765  31.585  31.655  1.00  0.00     0.064 A 
ATOM     70  C   UNL A   1      39.775  30.825  32.318  1.00  0.00     0.173 A 
ATOM     71  C   UNL A   1      40.764  32.969  31.881  1.00  0.00     0.173 A 
ATOM     72  F   UNL A   1      39.693  29.503  32.103  1.00  0.00    -0.203 F 
ATOM     73  C   UNL A   1      39.005  31.377  33.341  1.00  0.00     0.198 A 
ATOM     74  C   UNL A   1      39.944  33.529  32.869  1.00  0.00     0.198 A 
ATOM     75  F   UNL A   1      41.646  33.761  31.254  1.00  0.00    -0.203 F 
ATOM     76  F   UNL A   1      38.234  30.583  34.100  1.00  0.00    -0.200 F 
ATOM     77  C   UNL A   1      39.126  32.721  33.647  1.00  0.00     0.200 A 
ATOM     78  F   UNL A   1      40.012  34.842  33.129  1.00  0.00    -0.200 F 
ATOM     79  F   UNL A   1      38.492  33.219  34.718  1.00  0.00    -0.200 F 
ENDBRANCH  45  69
BRANCH  57  80
ATOM     80  C   UNL A   1      44.716  25.596  33.008  1.00  0.00     0.064 A 
ATOM     81  C   UNL A   1      46.073  25.249  33.024  1.00  0.00     0.173 A 
ATOM     82  C   UNL A   1      43.896  24.961  33.965  1.00  0.00     0.173 A 
ATOM     83  F   UNL A   1      46.913  25.719  32.088  1.00  0.00    -0.203 F 
ATOM     84  C   UNL A   1      46.596  24.410  34.004  1.00  0.00     0.198 A 
ATOM     85  C   UNL A   1      44.408  24.063  34.894  1.00  0.00     0.198 A 
ATOM     86  F   UNL A   1      42.585  25.217  34.062  1.00  0.00    -0.203 F 
ATOM     87  F   UNL A   1      47.916  24.189  34.050  1.00  0.00    -0.200 F 
ATOM     88  C   UNL A   1      45.763  23.815  34.936  1.00  0.00     0.200 A 
ATOM     89  F   UNL A   1      43.579  23.462  35.758  1.00  0.00    -0.200 F 
ATOM     90  F   UNL A   1      46.267  23.011  35.880  1.00  0.00    -0.200 F 
ENDBRANCH  57  80
ENDBRANCH  31  32
ENDBRANCH  23  26
ENDBRANCH  21  22
ENDBRANCH   1  21
TORSDOF 13
ENDMDL
MODEL 2
REMARK VINA RESULT:     -13.0      0.270      1.183
REMARK SMILES Cc1ccc([C@@](C)(O)[C@H](F)C(=O)NCCCNC(=O)c2ccc(-c3c4nc(c(-c5c(F)c(F)c(F)c(F)c5F)c5ccc([nH]5)c(-c5c(F)c(F)c(F)c(F)c5F)c5nc(c(-c6c(F)c(F)c(F)c(F)c6F)c6ccc3[nH]6)C=C5)C=C4)cc2)cc1F
REMARK SMILES IDX 15 1 14 2 13 3 11 4 12 5 9 7 10 8 6 9 7 10 5 11 1 12 2 13
REMARK SMILES IDX 3 14 84 15 4 16 83 17 85 18 8 19 16 21 17 22 18 23 19 25
REMARK SMILES IDX 20 26 21 27 82 28 22 29 81 30 23 31 24 32 25 33 75 34 26 35
REMARK SMILES IDX 80 36 74 37 76 38 27 39 79 40 73 41 72 42 28 44 60 45 40 46
REMARK SMILES IDX 59 47 41 48 44 49 58 50 77 51 42 52 43 53 57 55 78 56 45 57
REMARK SMILES IDX 29 58 30 59 38 60 31 61 32 62 36 63 39 64 33 65 34 66 37 67
REMARK SMILES IDX 35 68 61 69 62 70 70 71 63 72 64 73 68 74 71 75 65 76 66 77
REMARK SMILES IDX 69 78 67 79 46 80 47 81 55 82 48 83 49 84 53 85 56 86 50 87
REMARK SMILES IDX 51 88 54 89 52 90
REMARK H PARENT 13 6 8 20 17 24 76 43 44 54
REMARK Flexibility Score: inf
ROOT
ATOM      1  C   UNL A   1      33.210  28.171  26.404  1.00  0.00     0.042 C 
ENDROOT
BRANCH   1   2
ATOM      2  C   UNL A   1      33.337  26.706  26.053  1.00  0.00     0.117 C 
BRANCH   2   3
ATOM      3  N   UNL A   1      32.205  25.882  26.454  1.00  0.00    -0.353 N 
ATOM      4  C   UNL A   1      32.260  24.536  26.736  1.00  0.00     0.257 C 
ATOM      5  O   UNL A   1      31.289  23.975  27.243  1.00  0.00    -0.272 OA
ATOM      6  H   UNL A   1      31.328  26.324  26.528  1.00  0.00     0.163 HD
BRANCH   4   7
ATOM      7  C   UNL A   1      33.534  23.792  26.358  1.00  0.00     0.291 C 
ATOM      8  F   UNL A   1      33.754  22.825  27.309  1.00  0.00    -0.233 F 
BRANCH   7   9
ATOM      9  C   UNL A   1      33.500  23.176  24.908  1.00  0.00     0.127 C 
ATOM     10  C   UNL A   1      34.623  23.808  24.080  1.00  0.00     0.051 C 
BRANCH   9  11
ATOM     11  C   UNL A   1      33.578  21.640  24.870  1.00  0.00    -0.010 A 
ATOM     12  C   UNL A   1      33.913  17.336  24.402  1.00  0.00     0.047 C 
ATOM     13  C   UNL A   1      33.789  18.817  24.570  1.00  0.00    -0.015 A 
ATOM     14  C   UNL A   1      32.540  19.432  24.634  1.00  0.00     0.007 A 
ATOM     15  C   UNL A   1      34.925  19.613  24.684  1.00  0.00     0.126 A 
ATOM     16  C   UNL A   1      32.439  20.818  24.802  1.00  0.00     0.007 A 
ATOM     17  C   UNL A   1      34.831  20.996  24.841  1.00  0.00     0.046 A 
ATOM     18  F   UNL A   1      36.141  19.053  24.627  1.00  0.00    -0.207 F 
ENDBRANCH   9  11
BRANCH   9  19
ATOM     19  O   UNL A   1      32.307  23.569  24.187  1.00  0.00    -0.382 OA
ATOM     20  H   UNL A   1      31.675  23.971  24.801  1.00  0.00     0.212 HD
ENDBRANCH   9  19
ENDBRANCH   7   9
ENDBRANCH   4   7
ENDBRANCH   2   3
ENDBRANCH   1   2
BRANCH   1  21
ATOM     21  C   UNL A   1      34.554  28.716  26.787  1.00  0.00     0.118 C 
BRANCH  21  22
ATOM     22  N   UNL A   1      34.491  30.127  27.195  1.00  0.00    -0.352 N 
ATOM     23  C   UNL A   1      35.295  30.780  28.111  1.00  0.00     0.251 C 
ATOM     24  H   UNL A   1      33.793  30.672  26.766  1.00  0.00     0.163 HD
ATOM     25  O   UNL A   1      35.015  31.870  28.562  1.00  0.00    -0.269 OA
BRANCH  23  26
ATOM     26  C   UNL A   1      36.533  30.090  28.481  1.00  0.00     0.039 A 
ATOM     27  C   UNL A   1      36.652  29.322  29.641  1.00  0.00     0.014 A 
ATOM     28  C   UNL A   1      37.571  30.200  27.566  1.00  0.00     0.014 A 
ATOM     29  C   UNL A   1      37.845  28.639  29.857  1.00  0.00     0.010 A 
ATOM     30  C   UNL A   1      38.587  29.313  27.629  1.00  0.00     0.010 A 
ATOM     31  C   UNL A   1      38.792  28.646  28.833  1.00  0.00    -0.014 A 
BRANCH  31  32
ATOM     32  C   UNL A   1      40.112  28.061  28.888  1.00  0.00     0.031 A 
ATOM     33  C   UNL A   1      40.277  26.641  28.599  1.00  0.00     0.074 A 
ATOM     34  C   UNL A   1      41.117  28.961  28.990  1.00  0.00     0.049 A 
ATOM     35  N   UNL A   1      41.299  25.963  28.964  1.00  0.00    -0.248 NA
ATOM     36  C   UNL A   1      39.283  25.853  27.877  1.00  0.00     0.031 C 
ATOM     37  C   UNL A   1      42.541  28.839  28.751  1.00  0.00     0.029 A 
ATOM     38  N   UNL A   1      40.976  30.287  29.450  1.00  0.00    -0.354 N 
ATOM     39  C   UNL A   1      41.265  24.773  28.276  1.00  0.00     0.074 A 
ATOM     40  C   UNL A   1      39.933  24.693  27.724  1.00  0.00     0.031 C 
ATOM     41  C   UNL A   1      43.163  29.860  29.377  1.00  0.00     0.029 A 
ATOM     42  C   UNL A   1      42.159  30.591  30.140  1.00  0.00     0.049 A 
ATOM     43  H   UNL A   1      40.202  30.879  29.314  1.00  0.00     0.167 HD
ATOM     44  C   UNL A   1      42.437  24.091  28.136  1.00  0.00     0.037 A 
ATOM     45  C   UNL A   1      42.060  30.674  31.503  1.00  0.00     0.037 A 
ATOM     46  C   UNL A   1      43.518  24.834  28.793  1.00  0.00     0.049 A 
ATOM     47  C   UNL A   1      42.671  29.471  32.185  1.00  0.00     0.074 A 
ATOM     48  C   UNL A   1      44.444  25.769  28.356  1.00  0.00     0.029 A 
ATOM     49  N   UNL A   1      43.461  24.977  30.164  1.00  0.00    -0.354 N 
ATOM     50  N   UNL A   1      43.110  28.419  31.547  1.00  0.00    -0.248 NA
ATOM     51  C   UNL A   1      42.816  29.341  33.630  1.00  0.00     0.031 C 
ATOM     52  C   UNL A   1      44.891  26.510  29.498  1.00  0.00     0.029 A 
ATOM     53  C   UNL A   1      44.248  26.016  30.619  1.00  0.00     0.049 A 
ATOM     54  H   UNL A   1      42.921  24.402  30.752  1.00  0.00     0.167 HD
ATOM     55  C   UNL A   1      43.613  27.514  32.428  1.00  0.00     0.074 A 
ATOM     56  C   UNL A   1      43.373  28.121  33.729  1.00  0.00     0.031 C 
ATOM     57  C   UNL A   1      44.196  26.341  32.038  1.00  0.00     0.037 A 
BRANCH  44  58
ATOM     58  C   UNL A   1      42.679  22.894  27.252  1.00  0.00     0.064 A 
ATOM     59  C   UNL A   1      41.982  21.689  27.495  1.00  0.00     0.173 A 
ATOM     60  C   UNL A   1      43.552  22.858  26.147  1.00  0.00     0.173 A 
ATOM     61  F   UNL A   1      41.076  21.590  28.477  1.00  0.00    -0.203 F 
ATOM     62  C   UNL A   1      42.185  20.535  26.736  1.00  0.00     0.198 A 
ATOM     63  C   UNL A   1      43.783  21.689  25.411  1.00  0.00     0.198 A 
ATOM     64  F   UNL A   1      44.165  23.957  25.699  1.00  0.00    -0.203 F 
ATOM     65  F   UNL A   1      41.482  19.428  27.013  1.00  0.00    -0.200 F 
ATOM     66  C   UNL A   1      43.100  20.528  25.705  1.00  0.00     0.200 A 
ATOM     67  F   UNL A   1      44.667  21.704  24.402  1.00  0.00    -0.200 F 
ATOM     68  F   UNL A   1      43.302  19.418  24.983  1.00  0.00    -0.200 F 
ENDBRANCH  44  58
BRANCH  45  69
ATOM     69  C   UNL A   1      40.802  31.403  31.895  1.00  0.00     0.064 A 
ATOM     70  C   UNL A   1      39.813  30.622  32.535  1.00  0.00     0.173 A 
ATOM     71  C   UNL A   1      40.804  32.778  32.172  1.00  0.00     0.173 A 
ATOM     72  F   UNL A   1      39.728  29.308  32.273  1.00  0.00    -0.203 F 
ATOM     73  C   UNL A   1      39.048  31.137  33.580  1.00  0.00     0.198 A 
ATOM     74  C   UNL A   1      39.989  33.303  33.182  1.00  0.00     0.198 A 
ATOM     75  F   UNL A   1      41.684  33.591  31.569  1.00  0.00    -0.203 F 
ATOM     76  F   UNL A   1      38.278  30.318  34.313  1.00  0.00    -0.200 F 
ATOM     77  C   UNL A   1      39.172  32.469  33.934  1.00  0.00     0.200 A 
ATOM     78  F   UNL A   1      40.061  34.606  33.489  1.00  0.00    -0.200 F 
ATOM     79  F   UNL A   1      38.543  32.930  35.025  1.00  0.00    -0.200 F 
ENDBRANCH  45  69
BRANCH  57  80
ATOM     80  C   UNL A   1      44.759  25.374  33.033  1.00  0.00     0.064 A 
ATOM     81  C   UNL A   1      43.938  24.707  33.951  1.00  0.00     0.173 A 
ATOM     82  C   UNL A   1      46.146  25.139  33.146  1.00  0.00     0.173 A 
ATOM     83  F   UNL A   1      42.618  24.945  33.991  1.00  0.00    -0.203 F 
ATOM     84  C   UNL A   1      44.459  23.779  34.849  1.00  0.00     0.198 A 
ATOM     85  C   UNL A   1      46.670  24.271  34.096  1.00  0.00     0.198 A 
ATOM     86  F   UNL A   1      47.034  25.706  32.319  1.00  0.00    -0.203 F 
ATOM     87  F   UNL A   1      43.629  23.083  35.637  1.00  0.00    -0.200 F 
ATOM     88  C   UNL A   1      45.824  23.564  34.923  1.00  0.00     0.200 A 
ATOM     89  F   UNL A   1      47.998  24.111  34.182  1.00  0.00    -0.200 F 
ATOM     90  F   UNL A   1      46.324  22.669  35.785  1.00  0.00    -0.200 F 
ENDBRANCH  57  80
ENDBRANCH  31  32
ENDBRANCH  23  26
ENDBRANCH  21  22
ENDBRANCH   1  21
TORSDOF 13
ENDMDL
MODEL 3
REMARK VINA RESULT:     -13.0      0.760      1.810
REMARK SMILES Cc1ccc([C@@](C)(O)[C@H](F)C(=O)NCCCNC(=O)c2ccc(-c3c4nc(c(-c5c(F)c(F)c(F)c(F)c5F)c5ccc([nH]5)c(-c5c(F)c(F)c(F)c(F)c5F)c5nc(c(-c6c(F)c(F)c(F)c(F)c6F)c6ccc3[nH]6)C=C5)C=C4)cc2)cc1F
REMARK SMILES IDX 15 1 14 2 13 3 11 4 12 5 9 7 10 8 6 9 7 10 5 11 1 12 2 13
REMARK SMILES IDX 3 14 84 15 4 16 83 17 85 18 8 19 16 21 17 22 18 23 19 25
REMARK SMILES IDX 20 26 21 27 82 28 22 29 81 30 23 31 24 32 25 33 75 34 26 35
REMARK SMILES IDX 80 36 74 37 76 38 27 39 79 40 73 41 72 42 28 44 60 45 40 46
REMARK SMILES IDX 59 47 41 48 44 49 58 50 77 51 42 52 43 53 57 55 78 56 45 57
REMARK SMILES IDX 29 58 30 59 38 60 31 61 32 62 36 63 39 64 33 65 34 66 37 67
REMARK SMILES IDX 35 68 61 69 62 70 70 71 63 72 64 73 68 74 71 75 65 76 66 77
REMARK SMILES IDX 69 78 67 79 46 80 47 81 55 82 48 83 49 84 53 85 56 86 50 87
REMARK SMILES IDX 51 88 54 89 52 90
REMARK H PARENT 13 6 8 20 17 24 76 43 44 54
REMARK Flexibility Score: inf
ROOT
ATOM      1  C   UNL A   1      33.243  28.195  27.259  1.00  0.00     0.042 C 
ENDROOT
BRANCH   1   2
ATOM      2  C   UNL A   1      32.788  27.246  26.172  1.00  0.00     0.117 C 
BRANCH   2   3
ATOM      3  N   UNL A   1      31.839  26.231  26.605  1.00  0.00    -0.353 N 
ATOM      4  C   UNL A   1      32.102  24.884  26.701  1.00  0.00     0.257 C 
ATOM      5  O   UNL A   1      31.293  24.137  27.252  1.00  0.00    -0.272 OA
ATOM      6  H   UNL A   1      30.934  26.533  26.850  1.00  0.00     0.163 HD
BRANCH   4   7
ATOM      7  C   UNL A   1      33.390  24.375  26.066  1.00  0.00     0.291 C 
ATOM      8  F   UNL A   1      34.012  23.555  26.978  1.00  0.00    -0.233 F 
BRANCH   7   9
ATOM      9  C   UNL A   1      33.170  23.643  24.689  1.00  0.00     0.127 C 
ATOM     10  C   UNL A   1      34.088  24.281  23.642  1.00  0.00     0.051 C 
BRANCH   9  11
ATOM     11  C   UNL A   1      33.367  22.117  24.743  1.00  0.00    -0.010 A 
ATOM     12  C   UNL A   1      34.081  17.838  24.554  1.00  0.00     0.047 C 
ATOM     13  C   UNL A   1      33.825  19.310  24.625  1.00  0.00    -0.015 A 
ATOM     14  C   UNL A   1      32.539  19.825  24.481  1.00  0.00     0.007 A 
ATOM     15  C   UNL A   1      34.871  20.200  24.856  1.00  0.00     0.126 A 
ATOM     16  C   UNL A   1      32.313  21.204  24.559  1.00  0.00     0.007 A 
ATOM     17  C   UNL A   1      34.654  21.575  24.925  1.00  0.00     0.046 A 
ATOM     18  F   UNL A   1      36.121  19.737  25.001  1.00  0.00    -0.207 F 
ENDBRANCH   9  11
BRANCH   9  19
ATOM     19  O   UNL A   1      31.848  23.892  24.154  1.00  0.00    -0.382 OA
ATOM     20  H   UNL A   1      31.501  23.079  23.758  1.00  0.00     0.212 HD
ENDBRANCH   9  19
ENDBRANCH   7   9
ENDBRANCH   4   7
ENDBRANCH   2   3
ENDBRANCH   1   2
BRANCH   1  21
ATOM     21  C   UNL A   1      34.490  28.903  26.820  1.00  0.00     0.118 C 
BRANCH  21  22
ATOM     22  N   UNL A   1      34.492  30.322  27.204  1.00  0.00    -0.352 N 
ATOM     23  C   UNL A   1      35.342  30.958  28.089  1.00  0.00     0.251 C 
ATOM     24  H   UNL A   1      33.807  30.887  26.780  1.00  0.00     0.163 HD
ATOM     25  O   UNL A   1      35.117  32.066  28.525  1.00  0.00    -0.269 OA
BRANCH  23  26
ATOM     26  C   UNL A   1      36.561  30.226  28.444  1.00  0.00     0.039 A 
ATOM     27  C   UNL A   1      36.626  29.351  29.530  1.00  0.00     0.014 A 
ATOM     28  C   UNL A   1      37.638  30.414  27.588  1.00  0.00     0.014 A 
ATOM     29  C   UNL A   1      37.805  28.641  29.729  1.00  0.00     0.010 A 
ATOM     30  C   UNL A   1      38.646  29.517  27.610  1.00  0.00     0.010 A 
ATOM     31  C   UNL A   1      38.796  28.736  28.752  1.00  0.00    -0.014 A 
BRANCH  31  32
ATOM     32  C   UNL A   1      40.110  28.138  28.807  1.00  0.00     0.031 A 
ATOM     33  C   UNL A   1      40.256  26.711  28.544  1.00  0.00     0.074 A 
ATOM     34  C   UNL A   1      41.126  29.028  28.883  1.00  0.00     0.049 A 
ATOM     35  N   UNL A   1      41.274  26.028  28.913  1.00  0.00    -0.248 NA
ATOM     36  C   UNL A   1      39.247  25.920  27.845  1.00  0.00     0.031 C 
ATOM     37  C   UNL A   1      42.546  28.886  28.634  1.00  0.00     0.029 A 
ATOM     38  N   UNL A   1      41.004  30.364  29.318  1.00  0.00    -0.354 N 
ATOM     39  C   UNL A   1      41.221  24.826  28.248  1.00  0.00     0.074 A 
ATOM     40  C   UNL A   1      39.883  24.750  27.709  1.00  0.00     0.031 C 
ATOM     41  C   UNL A   1      43.185  29.912  29.235  1.00  0.00     0.029 A 
ATOM     42  C   UNL A   1      42.196  30.668  29.992  1.00  0.00     0.049 A 
ATOM     43  H   UNL A   1      40.235  30.962  29.178  1.00  0.00     0.167 HD
ATOM     44  C   UNL A   1      42.384  24.128  28.112  1.00  0.00     0.037 A 
ATOM     45  C   UNL A   1      42.109  30.778  31.354  1.00  0.00     0.037 A 
ATOM     46  C   UNL A   1      43.479  24.872  28.745  1.00  0.00     0.049 A 
ATOM     47  C   UNL A   1      42.713  29.582  32.054  1.00  0.00     0.074 A 
ATOM     48  C   UNL A   1      44.412  25.787  28.282  1.00  0.00     0.029 A 
ATOM     49  N   UNL A   1      43.436  25.041  30.113  1.00  0.00    -0.354 N 
ATOM     50  N   UNL A   1      43.135  28.513  31.432  1.00  0.00    -0.248 NA
ATOM     51  C   UNL A   1      42.869  29.477  33.500  1.00  0.00     0.031 C 
ATOM     52  C   UNL A   1      44.877  26.546  29.405  1.00  0.00     0.029 A 
ATOM     53  C   UNL A   1      44.238  26.080  30.542  1.00  0.00     0.049 A 
ATOM     54  H   UNL A   1      42.895  24.484  30.717  1.00  0.00     0.167 HD
ATOM     55  C   UNL A   1      43.636  27.619  32.327  1.00  0.00     0.074 A 
ATOM     56  C   UNL A   1      43.414  28.254  33.618  1.00  0.00     0.031 C 
ATOM     57  C   UNL A   1      44.202  26.432  31.954  1.00  0.00     0.037 A 
BRANCH  44  58
ATOM     58  C   UNL A   1      42.604  22.912  27.249  1.00  0.00     0.064 A 
ATOM     59  C   UNL A   1      41.932  21.706  27.549  1.00  0.00     0.173 A 
ATOM     60  C   UNL A   1      43.433  22.857  26.111  1.00  0.00     0.173 A 
ATOM     61  F   UNL A   1      41.067  21.622  28.568  1.00  0.00    -0.203 F 
ATOM     62  C   UNL A   1      42.118  20.535  26.811  1.00  0.00     0.198 A 
ATOM     63  C   UNL A   1      43.650  21.672  25.395  1.00  0.00     0.198 A 
ATOM     64  F   UNL A   1      44.016  23.952  25.611  1.00  0.00    -0.203 F 
ATOM     65  F   UNL A   1      41.440  19.428  27.143  1.00  0.00    -0.200 F 
ATOM     66  C   UNL A   1      42.992  20.512  25.745  1.00  0.00     0.200 A 
ATOM     67  F   UNL A   1      44.492  21.672  24.351  1.00  0.00    -0.200 F 
ATOM     68  F   UNL A   1      43.178  19.386  25.044  1.00  0.00    -0.200 F 
ENDBRANCH  44  58
BRANCH  45  69
ATOM     69  C   UNL A   1      40.863  31.529  31.743  1.00  0.00     0.064 A 
ATOM     70  C   UNL A   1      40.708  32.807  31.161  1.00  0.00     0.173 A 
ATOM     71  C   UNL A   1      39.692  30.860  32.131  1.00  0.00     0.173 A 
ATOM     72  F   UNL A   1      41.793  33.518  30.815  1.00  0.00    -0.203 F 
ATOM     73  C   UNL A   1      39.458  33.270  30.754  1.00  0.00     0.198 A 
ATOM     74  C   UNL A   1      38.435  31.360  31.773  1.00  0.00     0.198 A 
ATOM     75  F   UNL A   1      39.761  29.662  32.730  1.00  0.00    -0.203 F 
ATOM     76  F   UNL A   1      39.367  34.383  30.009  1.00  0.00    -0.200 F 
ATOM     77  C   UNL A   1      38.326  32.522  31.019  1.00  0.00     0.200 A 
ATOM     78  F   UNL A   1      37.328  30.669  32.081  1.00  0.00    -0.200 F 
ATOM     79  F   UNL A   1      37.144  32.897  30.508  1.00  0.00    -0.200 F 
ENDBRANCH  45  69
BRANCH  57  80
ATOM     80  C   UNL A   1      44.763  25.478  32.962  1.00  0.00     0.064 A 
ATOM     81  C   UNL A   1      43.950  24.873  33.929  1.00  0.00     0.173 A 
ATOM     82  C   UNL A   1      46.143  25.196  33.038  1.00  0.00     0.173 A 
ATOM     83  F   UNL A   1      42.642  25.162  34.004  1.00  0.00    -0.203 F 
ATOM     84  C   UNL A   1      44.468  23.956  34.841  1.00  0.00     0.198 A 
ATOM     85  C   UNL A   1      46.668  24.340  34.000  1.00  0.00     0.198 A 
ATOM     86  F   UNL A   1      47.023  25.702  32.164  1.00  0.00    -0.203 F 
ATOM     87  F   UNL A   1      43.640  23.318  35.679  1.00  0.00    -0.200 F 
ATOM     88  C   UNL A   1      45.826  23.693  34.878  1.00  0.00     0.200 A 
ATOM     89  F   UNL A   1      47.991  24.134  34.048  1.00  0.00    -0.200 F 
ATOM     90  F   UNL A   1      46.322  22.809  35.752  1.00  0.00    -0.200 F 
ENDBRANCH  57  80
ENDBRANCH  31  32
ENDBRANCH  23  26
ENDBRANCH  21  22
ENDBRANCH   1  21
TORSDOF 13
ENDMDL
