MODEL 1
REMARK VINA RESULT:     -12.7      0.000      0.000
REMARK SMILES NC(=O)c1c(F)cccc1O[C@@H](F)C(=O)NCCCNC(=O)c1ccc(-c2c3nc(c(-c4c(F)c(F)c(F)c(F)c4F)c4ccc([nH]4)c(-c4c(F)c(F)c(F)c(F)c4F)c4nc(c(-c5c(F)c(F)c(F)c(F)c5F)c5ccc2[nH]5)C=C4)C=C3)cc1
REMARK SMILES IDX 17 1 16 2 14 3 15 4 12 6 13 7 11 8 10 9 4 10 5 11 6 12 7 13
REMARK SMILES IDX 9 14 8 15 2 16 1 17 3 20 18 21 19 22 20 23 21 24 22 26 23 27
REMARK SMILES IDX 24 28 85 29 25 30 84 31 26 32 27 33 28 34 78 35 29 36 83 37
REMARK SMILES IDX 77 38 79 39 30 40 82 41 76 42 75 43 31 45 63 46 43 47 62 48
REMARK SMILES IDX 44 49 47 50 61 51 80 52 45 53 46 54 60 56 81 57 48 58 32 59
REMARK SMILES IDX 33 60 41 61 34 62 35 63 39 64 42 65 36 66 37 67 40 68 38 69
REMARK SMILES IDX 64 70 65 71 73 72 66 73 67 74 71 75 74 76 68 77 69 78 72 79
REMARK SMILES IDX 70 80 49 81 50 82 58 83 51 84 52 85 56 86 59 87 53 88 54 89
REMARK SMILES IDX 57 90 55 91
REMARK H PARENT 16 5 1 18 1 19 20 25 79 44 47 55
REMARK Flexibility Score: inf
ROOT
ATOM      1  C   UNL A   1      31.232  26.516  25.893  1.00  0.00     0.118 C 
ENDROOT
BRANCH   1   2
ATOM      2  N   UNL A   1      30.350  25.599  26.564  1.00  0.00    -0.350 N 
ATOM      3  C   UNL A   1      30.318  24.235  26.505  1.00  0.00     0.294 C 
ATOM      4  O   UNL A   1      29.538  23.702  27.308  1.00  0.00    -0.267 OA
ATOM      5  H   UNL A   1      29.674  26.012  27.148  1.00  0.00     0.163 HD
BRANCH   3   6
ATOM      6  C   UNL A   1      31.154  23.346  25.502  1.00  0.00     0.440 C 
ATOM      7  F   UNL A   1      30.652  23.456  24.240  1.00  0.00    -0.191 F 
BRANCH   6   8
ATOM      8  O   UNL A   1      31.685  22.046  25.647  1.00  0.00    -0.451 OA
BRANCH   8   9
ATOM      9  C   UNL A   1      32.912  21.675  25.189  1.00  0.00     0.139 A 
ATOM     10  C   UNL A   1      33.501  20.410  25.115  1.00  0.00     0.117 A 
ATOM     11  C   UNL A   1      34.871  20.307  24.834  1.00  0.00     0.139 A 
ATOM     12  F   UNL A   1      35.482  19.113  24.842  1.00  0.00    -0.206 F 
ATOM     13  C   UNL A   1      35.651  21.435  24.589  1.00  0.00     0.040 A 
ATOM     14  C   UNL A   1      33.689  22.799  24.838  1.00  0.00     0.047 A 
ATOM     15  C   UNL A   1      35.052  22.687  24.562  1.00  0.00     0.007 A 
BRANCH  10  16
ATOM     16  C   UNL A   1      32.766  19.153  25.300  1.00  0.00     0.255 C 
ATOM     17  N   UNL A   1      32.846  18.581  26.541  1.00  0.00    -0.365 N 
ATOM     18  H   UNL A   1      32.373  17.737  26.725  1.00  0.00     0.159 HD
ATOM     19  H   UNL A   1      33.374  19.015  27.249  1.00  0.00     0.159 HD
ATOM     20  O   UNL A   1      32.148  18.646  24.382  1.00  0.00    -0.269 OA
ENDBRANCH  10  16
ENDBRANCH   8   9
ENDBRANCH   6   8
ENDBRANCH   3   6
ENDBRANCH   1   2
BRANCH   1  21
ATOM     21  C   UNL A   1      31.714  27.697  26.715  1.00  0.00     0.042 C 
BRANCH  21  22
ATOM     22  C   UNL A   1      32.425  28.771  25.901  1.00  0.00     0.118 C 
BRANCH  22  23
ATOM     23  N   UNL A   1      32.185  30.140  26.343  1.00  0.00    -0.352 N 
ATOM     24  C   UNL A   1      32.929  31.076  27.025  1.00  0.00     0.251 C 
ATOM     25  H   UNL A   1      31.288  30.468  26.099  1.00  0.00     0.163 HD
ATOM     26  O   UNL A   1      32.398  32.155  27.283  1.00  0.00    -0.269 OA
BRANCH  24  27
ATOM     27  C   UNL A   1      34.305  30.814  27.514  1.00  0.00     0.039 A 
ATOM     28  C   UNL A   1      35.167  31.899  27.728  1.00  0.00     0.014 A 
ATOM     29  C   UNL A   1      34.783  29.532  27.758  1.00  0.00     0.014 A 
ATOM     30  C   UNL A   1      36.431  31.699  28.297  1.00  0.00     0.010 A 
ATOM     31  C   UNL A   1      35.969  29.346  28.460  1.00  0.00     0.010 A 
ATOM     32  C   UNL A   1      36.811  30.426  28.747  1.00  0.00    -0.014 A 
BRANCH  32  33
ATOM     33  C   UNL A   1      38.056  30.182  29.529  1.00  0.00     0.031 A 
ATOM     34  C   UNL A   1      39.124  29.261  28.994  1.00  0.00     0.074 A 
ATOM     35  C   UNL A   1      38.171  30.678  30.779  1.00  0.00     0.049 A 
ATOM     36  N   UNL A   1      40.164  28.751  29.606  1.00  0.00    -0.248 NA
ATOM     37  C   UNL A   1      38.973  28.805  27.602  1.00  0.00     0.031 C 
ATOM     38  C   UNL A   1      37.184  31.526  31.451  1.00  0.00     0.029 A 
ATOM     39  N   UNL A   1      39.162  30.524  31.719  1.00  0.00    -0.354 N 
ATOM     40  C   UNL A   1      40.753  27.883  28.694  1.00  0.00     0.074 A 
ATOM     41  C   UNL A   1      39.928  27.890  27.508  1.00  0.00     0.031 C 
ATOM     42  C   UNL A   1      37.633  31.845  32.674  1.00  0.00     0.029 A 
ATOM     43  C   UNL A   1      38.911  31.181  32.900  1.00  0.00     0.049 A 
ATOM     44  H   UNL A   1      39.975  29.992  31.562  1.00  0.00     0.167 HD
ATOM     45  C   UNL A   1      41.895  27.168  28.823  1.00  0.00     0.037 A 
ATOM     46  C   UNL A   1      39.620  31.234  34.044  1.00  0.00     0.037 A 
ATOM     47  C   UNL A   1      42.761  27.232  29.969  1.00  0.00     0.049 A 
ATOM     48  C   UNL A   1      40.914  30.476  34.143  1.00  0.00     0.074 A 
ATOM     49  C   UNL A   1      43.995  26.631  30.149  1.00  0.00     0.029 A 
ATOM     50  N   UNL A   1      42.495  27.955  31.122  1.00  0.00    -0.354 N 
ATOM     51  N   UNL A   1      41.483  29.700  33.253  1.00  0.00    -0.248 NA
ATOM     52  C   UNL A   1      41.664  30.597  35.401  1.00  0.00     0.031 C 
ATOM     53  C   UNL A   1      44.458  26.960  31.426  1.00  0.00     0.029 A 
ATOM     54  C   UNL A   1      43.535  27.801  32.024  1.00  0.00     0.049 A 
ATOM     55  H   UNL A   1      41.687  28.497  31.276  1.00  0.00     0.167 HD
ATOM     56  C   UNL A   1      42.663  29.256  33.833  1.00  0.00     0.074 A 
ATOM     57  C   UNL A   1      42.737  29.861  35.147  1.00  0.00     0.031 C 
ATOM     58  C   UNL A   1      43.597  28.418  33.324  1.00  0.00     0.037 A 
BRANCH  45  59
ATOM     59  C   UNL A   1      42.305  26.276  27.687  1.00  0.00     0.064 A 
ATOM     60  C   UNL A   1      41.789  24.975  27.580  1.00  0.00     0.173 A 
ATOM     61  C   UNL A   1      43.267  26.677  26.748  1.00  0.00     0.173 A 
ATOM     62  F   UNL A   1      40.873  24.537  28.457  1.00  0.00    -0.203 F 
ATOM     63  C   UNL A   1      42.229  24.108  26.584  1.00  0.00     0.198 A 
ATOM     64  C   UNL A   1      43.681  25.818  25.733  1.00  0.00     0.198 A 
ATOM     65  F   UNL A   1      43.785  27.913  26.798  1.00  0.00    -0.203 F 
ATOM     66  F   UNL A   1      41.746  22.858  26.523  1.00  0.00    -0.200 F 
ATOM     67  C   UNL A   1      43.170  24.531  25.659  1.00  0.00     0.200 A 
ATOM     68  F   UNL A   1      44.572  26.238  24.824  1.00  0.00    -0.200 F 
ATOM     69  F   UNL A   1      43.584  23.699  24.693  1.00  0.00    -0.200 F 
ENDBRANCH  45  59
BRANCH  46  70
ATOM     70  C   UNL A   1      39.128  32.064  35.175  1.00  0.00     0.064 A 
ATOM     71  C   UNL A   1      39.391  33.441  35.246  1.00  0.00     0.173 A 
ATOM     72  C   UNL A   1      38.411  31.483  36.230  1.00  0.00     0.173 A 
ATOM     73  F   UNL A   1      40.081  34.044  34.267  1.00  0.00    -0.203 F 
ATOM     74  C   UNL A   1      38.973  34.197  36.339  1.00  0.00     0.198 A 
ATOM     75  C   UNL A   1      37.972  32.245  37.309  1.00  0.00     0.198 A 
ATOM     76  F   UNL A   1      38.120  30.174  36.198  1.00  0.00    -0.203 F 
ATOM     77  F   UNL A   1      39.273  35.502  36.401  1.00  0.00    -0.200 F 
ATOM     78  C   UNL A   1      38.261  33.600  37.368  1.00  0.00     0.200 A 
ATOM     79  F   UNL A   1      37.264  31.668  38.290  1.00  0.00    -0.200 F 
ATOM     80  F   UNL A   1      37.852  34.330  38.414  1.00  0.00    -0.200 F 
ENDBRANCH  46  70
BRANCH  58  81
ATOM     81  C   UNL A   1      44.794  28.108  34.172  1.00  0.00     0.064 A 
ATOM     82  C   UNL A   1      45.967  28.869  34.049  1.00  0.00     0.173 A 
ATOM     83  C   UNL A   1      44.811  27.001  35.032  1.00  0.00     0.173 A 
ATOM     84  F   UNL A   1      46.001  29.931  33.231  1.00  0.00    -0.203 F 
ATOM     85  C   UNL A   1      47.121  28.519  34.741  1.00  0.00     0.198 A 
ATOM     86  C   UNL A   1      45.961  26.670  35.744  1.00  0.00     0.198 A 
ATOM     87  F   UNL A   1      43.711  26.253  35.191  1.00  0.00    -0.203 F 
ATOM     88  F   UNL A   1      48.243  29.234  34.578  1.00  0.00    -0.200 F 
ATOM     89  C   UNL A   1      47.118  27.421  35.589  1.00  0.00     0.200 A 
ATOM     90  F   UNL A   1      45.950  25.622  36.579  1.00  0.00    -0.200 F 
ATOM     91  F   UNL A   1      48.230  27.086  36.257  1.00  0.00    -0.200 F 
ENDBRANCH  58  81
ENDBRANCH  32  33
ENDBRANCH  24  27
ENDBRANCH  22  23
ENDBRANCH  21  22
ENDBRANCH   1  21
TORSDOF 13
ENDMDL
MODEL 2
REMARK VINA RESULT:     -12.6      1.820      3.043
REMARK SMILES NC(=O)c1c(F)cccc1O[C@@H](F)C(=O)NCCCNC(=O)c1ccc(-c2c3nc(c(-c4c(F)c(F)c(F)c(F)c4F)c4ccc([nH]4)c(-c4c(F)c(F)c(F)c(F)c4F)c4nc(c(-c5c(F)c(F)c(F)c(F)c5F)c5ccc2[nH]5)C=C4)C=C3)cc1
REMARK SMILES IDX 17 1 16 2 14 3 15 4 12 6 13 7 11 8 10 9 4 10 5 11 6 12 7 13
REMARK SMILES IDX 9 14 8 15 2 16 1 17 3 20 18 21 19 22 20 23 21 24 22 26 23 27
REMARK SMILES IDX 24 28 85 29 25 30 84 31 26 32 27 33 28 34 78 35 29 36 83 37
REMARK SMILES IDX 77 38 79 39 30 40 82 41 76 42 75 43 31 45 63 46 43 47 62 48
REMARK SMILES IDX 44 49 47 50 61 51 80 52 45 53 46 54 60 56 81 57 48 58 32 59
REMARK SMILES IDX 33 60 41 61 34 62 35 63 39 64 42 65 36 66 37 67 40 68 38 69
REMARK SMILES IDX 64 70 65 71 73 72 66 73 67 74 71 75 74 76 68 77 69 78 72 79
REMARK SMILES IDX 70 80 49 81 50 82 58 83 51 84 52 85 56 86 59 87 53 88 54 89
REMARK SMILES IDX 57 90 55 91
REMARK H PARENT 16 5 1 18 1 19 20 25 79 44 47 55
REMARK Flexibility Score: inf
ROOT
ATOM      1  C   UNL A   1      32.126  26.981  26.271  1.00  0.00     0.118 C 
ENDROOT
BRANCH   1   2
ATOM      2  N   UNL A   1      31.373  25.913  26.873  1.00  0.00    -0.350 N 
ATOM      3  C   UNL A   1      31.098  24.669  26.381  1.00  0.00     0.294 C 
ATOM      4  O   UNL A   1      30.547  23.905  27.188  1.00  0.00    -0.267 OA
ATOM      5  H   UNL A   1      31.004  26.106  27.765  1.00  0.00     0.163 HD
BRANCH   3   6
ATOM      6  C   UNL A   1      31.401  24.183  24.909  1.00  0.00     0.440 C 
ATOM      7  F   UNL A   1      32.742  24.010  24.734  1.00  0.00    -0.191 F 
BRANCH   6   8
ATOM      8  O   UNL A   1      30.851  24.587  23.674  1.00  0.00    -0.451 OA
BRANCH   8   9
ATOM      9  C   UNL A   1      30.742  25.886  23.283  1.00  0.00     0.139 A 
ATOM     10  C   UNL A   1      31.715  26.765  22.799  1.00  0.00     0.117 A 
ATOM     11  C   UNL A   1      31.413  28.131  22.694  1.00  0.00     0.139 A 
ATOM     12  F   UNL A   1      32.353  29.010  22.316  1.00  0.00    -0.206 F 
ATOM     13  C   UNL A   1      30.155  28.626  23.026  1.00  0.00     0.040 A 
ATOM     14  C   UNL A   1      29.444  26.384  23.517  1.00  0.00     0.047 A 
ATOM     15  C   UNL A   1      29.154  27.745  23.412  1.00  0.00     0.007 A 
BRANCH  10  16
ATOM     16  C   UNL A   1      33.054  26.346  22.368  1.00  0.00     0.255 C 
ATOM     17  N   UNL A   1      34.050  26.447  23.301  1.00  0.00    -0.365 N 
ATOM     18  H   UNL A   1      34.970  26.181  23.071  1.00  0.00     0.159 HD
ATOM     19  H   UNL A   1      33.847  26.785  24.203  1.00  0.00     0.159 HD
ATOM     20  O   UNL A   1      33.256  25.960  21.231  1.00  0.00    -0.269 OA
ENDBRANCH  10  16
ENDBRANCH   8   9
ENDBRANCH   6   8
ENDBRANCH   3   6
ENDBRANCH   1   2
BRANCH   1  21
ATOM     21  C   UNL A   1      31.691  28.389  26.635  1.00  0.00     0.042 C 
BRANCH  21  22
ATOM     22  C   UNL A   1      32.447  29.483  25.892  1.00  0.00     0.118 C 
BRANCH  22  23
ATOM     23  N   UNL A   1      32.268  30.828  26.428  1.00  0.00    -0.352 N 
ATOM     24  C   UNL A   1      33.047  31.674  27.185  1.00  0.00     0.251 C 
ATOM     25  H   UNL A   1      31.394  31.218  26.197  1.00  0.00     0.163 HD
ATOM     26  O   UNL A   1      32.567  32.757  27.513  1.00  0.00    -0.269 OA
BRANCH  24  27
ATOM     27  C   UNL A   1      34.400  31.307  27.673  1.00  0.00     0.039 A 
ATOM     28  C   UNL A   1      35.361  32.316  27.829  1.00  0.00     0.014 A 
ATOM     29  C   UNL A   1      34.761  29.999  27.971  1.00  0.00     0.014 A 
ATOM     30  C   UNL A   1      36.609  32.026  28.394  1.00  0.00     0.010 A 
ATOM     31  C   UNL A   1      35.935  29.734  28.668  1.00  0.00     0.010 A 
ATOM     32  C   UNL A   1      36.877  30.744  28.898  1.00  0.00    -0.014 A 
BRANCH  32  33
ATOM     33  C   UNL A   1      38.105  30.421  29.678  1.00  0.00     0.031 A 
ATOM     34  C   UNL A   1      39.137  29.474  29.117  1.00  0.00     0.074 A 
ATOM     35  C   UNL A   1      38.231  30.867  30.946  1.00  0.00     0.049 A 
ATOM     36  N   UNL A   1      40.149  28.900  29.717  1.00  0.00    -0.248 NA
ATOM     37  C   UNL A   1      38.976  29.074  27.709  1.00  0.00     0.031 C 
ATOM     38  C   UNL A   1      37.275  31.732  31.641  1.00  0.00     0.029 A 
ATOM     39  N   UNL A   1      39.207  30.639  31.886  1.00  0.00    -0.354 N 
ATOM     40  C   UNL A   1      40.708  28.040  28.779  1.00  0.00     0.074 A 
ATOM     41  C   UNL A   1      39.893  28.123  27.589  1.00  0.00     0.031 C 
ATOM     42  C   UNL A   1      37.728  31.990  32.877  1.00  0.00     0.029 A 
ATOM     43  C   UNL A   1      38.975  31.264  33.088  1.00  0.00     0.049 A 
ATOM     44  H   UNL A   1      39.999  30.079  31.714  1.00  0.00     0.167 HD
ATOM     45  C   UNL A   1      41.818  27.274  28.890  1.00  0.00     0.037 A 
ATOM     46  C   UNL A   1      39.677  31.248  34.237  1.00  0.00     0.037 A 
ATOM     47  C   UNL A   1      42.678  27.261  30.043  1.00  0.00     0.049 A 
ATOM     48  C   UNL A   1      40.938  30.433  34.317  1.00  0.00     0.074 A 
ATOM     49  C   UNL A   1      43.884  26.602  30.209  1.00  0.00     0.029 A 
ATOM     50  N   UNL A   1      42.434  27.954  31.219  1.00  0.00    -0.354 N 
ATOM     51  N   UNL A   1      41.480  29.665  33.404  1.00  0.00    -0.248 NA
ATOM     52  C   UNL A   1      41.683  30.478  35.582  1.00  0.00     0.031 C 
ATOM     53  C   UNL A   1      44.351  26.867  31.499  1.00  0.00     0.029 A 
ATOM     54  C   UNL A   1      43.460  27.725  32.120  1.00  0.00     0.049 A 
ATOM     55  H   UNL A   1      41.649  28.524  31.387  1.00  0.00     0.167 HD
ATOM     56  C   UNL A   1      42.636  29.151  33.975  1.00  0.00     0.074 A 
ATOM     57  C   UNL A   1      42.726  29.707  35.309  1.00  0.00     0.031 C 
ATOM     58  C   UNL A   1      43.538  28.293  33.442  1.00  0.00     0.037 A 
BRANCH  45  59
ATOM     59  C   UNL A   1      42.199  26.405  27.726  1.00  0.00     0.064 A 
ATOM     60  C   UNL A   1      41.642  25.125  27.579  1.00  0.00     0.173 A 
ATOM     61  C   UNL A   1      43.172  26.805  26.797  1.00  0.00     0.173 A 
ATOM     62  F   UNL A   1      40.714  24.689  28.444  1.00  0.00    -0.203 F 
ATOM     63  C   UNL A   1      42.054  24.276  26.556  1.00  0.00     0.198 A 
ATOM     64  C   UNL A   1      43.558  25.965  25.756  1.00  0.00     0.198 A 
ATOM     65  F   UNL A   1      43.729  28.022  26.885  1.00  0.00    -0.203 F 
ATOM     66  F   UNL A   1      41.531  23.045  26.456  1.00  0.00    -0.200 F 
ATOM     67  C   UNL A   1      43.007  24.698  25.642  1.00  0.00     0.200 A 
ATOM     68  F   UNL A   1      44.460  26.386  24.858  1.00  0.00    -0.200 F 
ATOM     69  F   UNL A   1      43.393  23.884  24.650  1.00  0.00    -0.200 F 
ENDBRANCH  45  59
BRANCH  46  70
ATOM     70  C   UNL A   1      39.212  32.058  35.393  1.00  0.00     0.064 A 
ATOM     71  C   UNL A   1      39.587  33.402  35.548  1.00  0.00     0.173 A 
ATOM     72  C   UNL A   1      38.408  31.487  36.389  1.00  0.00     0.173 A 
ATOM     73  F   UNL A   1      40.364  33.992  34.628  1.00  0.00    -0.203 F 
ATOM     74  C   UNL A   1      39.191  34.134  36.666  1.00  0.00     0.198 A 
ATOM     75  C   UNL A   1      37.992  32.228  37.492  1.00  0.00     0.198 A 
ATOM     76  F   UNL A   1      38.010  30.211  36.276  1.00  0.00    -0.203 F 
ATOM     77  F   UNL A   1      39.596  35.404  36.809  1.00  0.00    -0.200 F 
ATOM     78  C   UNL A   1      38.391  33.549  37.635  1.00  0.00     0.200 A 
ATOM     79  F   UNL A   1      37.200  31.664  38.415  1.00  0.00    -0.200 F 
ATOM     80  F   UNL A   1      38.004  34.256  38.703  1.00  0.00    -0.200 F 
ENDBRANCH  46  70
BRANCH  58  81
ATOM     81  C   UNL A   1      44.715  27.904  34.285  1.00  0.00     0.064 A 
ATOM     82  C   UNL A   1      44.638  26.796  35.144  1.00  0.00     0.173 A 
ATOM     83  C   UNL A   1      45.880  28.683  34.315  1.00  0.00     0.173 A 
ATOM     84  F   UNL A   1      43.539  26.027  35.158  1.00  0.00    -0.203 F 
ATOM     85  C   UNL A   1      45.677  26.496  36.018  1.00  0.00     0.198 A 
ATOM     86  C   UNL A   1      46.930  28.362  35.172  1.00  0.00     0.198 A 
ATOM     87  F   UNL A   1      46.004  29.742  33.504  1.00  0.00    -0.203 F 
ATOM     88  F   UNL A   1      45.566  25.458  36.858  1.00  0.00    -0.200 F 
ATOM     89  C   UNL A   1      46.823  27.278  36.030  1.00  0.00     0.200 A 
ATOM     90  F   UNL A   1      48.045  29.106  35.168  1.00  0.00    -0.200 F 
ATOM     91  F   UNL A   1      47.824  26.986  36.871  1.00  0.00    -0.200 F 
ENDBRANCH  58  81
ENDBRANCH  32  33
ENDBRANCH  24  27
ENDBRANCH  22  23
ENDBRANCH  21  22
ENDBRANCH   1  21
TORSDOF 13
ENDMDL
MODEL 3
REMARK VINA RESULT:     -12.5      3.417      4.766
REMARK SMILES NC(=O)c1c(F)cccc1O[C@@H](F)C(=O)NCCCNC(=O)c1ccc(-c2c3nc(c(-c4c(F)c(F)c(F)c(F)c4F)c4ccc([nH]4)c(-c4c(F)c(F)c(F)c(F)c4F)c4nc(c(-c5c(F)c(F)c(F)c(F)c5F)c5ccc2[nH]5)C=C4)C=C3)cc1
REMARK SMILES IDX 17 1 16 2 14 3 15 4 12 6 13 7 11 8 10 9 4 10 5 11 6 12 7 13
REMARK SMILES IDX 9 14 8 15 2 16 1 17 3 20 18 21 19 22 20 23 21 24 22 26 23 27
REMARK SMILES IDX 24 28 85 29 25 30 84 31 26 32 27 33 28 34 78 35 29 36 83 37
REMARK SMILES IDX 77 38 79 39 30 40 82 41 76 42 75 43 31 45 63 46 43 47 62 48
REMARK SMILES IDX 44 49 47 50 61 51 80 52 45 53 46 54 60 56 81 57 48 58 32 59
REMARK SMILES IDX 33 60 41 61 34 62 35 63 39 64 42 65 36 66 37 67 40 68 38 69
REMARK SMILES IDX 64 70 65 71 73 72 66 73 67 74 71 75 74 76 68 77 69 78 72 79
REMARK SMILES IDX 70 80 49 81 50 82 58 83 51 84 52 85 56 86 59 87 53 88 54 89
REMARK SMILES IDX 57 90 55 91
REMARK H PARENT 16 5 1 18 1 19 20 25 79 44 47 55
REMARK Flexibility Score: inf
ROOT
ATOM      1  C   UNL A   1      31.609  30.592  26.333  1.00  0.00     0.118 C 
ENDROOT
BRANCH   1   2
ATOM      2  N   UNL A   1      32.893  30.079  26.731  1.00  0.00    -0.350 N 
ATOM      3  C   UNL A   1      33.634  29.080  26.169  1.00  0.00     0.294 C 
ATOM      4  O   UNL A   1      34.773  28.953  26.642  1.00  0.00    -0.267 OA
ATOM      5  H   UNL A   1      33.294  30.510  27.520  1.00  0.00     0.163 HD
BRANCH   3   6
ATOM      6  C   UNL A   1      33.136  28.106  25.029  1.00  0.00     0.440 C 
ATOM      7  F   UNL A   1      34.130  27.242  24.678  1.00  0.00    -0.191 F 
BRANCH   6   8
ATOM      8  O   UNL A   1      32.352  28.355  23.882  1.00  0.00    -0.451 OA
BRANCH   8   9
ATOM      9  C   UNL A   1      31.102  27.848  23.696  1.00  0.00     0.139 A 
ATOM     10  C   UNL A   1      29.920  28.487  23.312  1.00  0.00     0.117 A 
ATOM     11  C   UNL A   1      28.702  27.800  23.426  1.00  0.00     0.139 A 
ATOM     12  F   UNL A   1      27.543  28.416  23.149  1.00  0.00    -0.206 F 
ATOM     13  C   UNL A   1      28.648  26.484  23.877  1.00  0.00     0.040 A 
ATOM     14  C   UNL A   1      31.044  26.485  24.051  1.00  0.00     0.047 A 
ATOM     15  C   UNL A   1      29.828  25.811  24.164  1.00  0.00     0.007 A 
BRANCH  10  16
ATOM     16  C   UNL A   1      29.864  29.851  22.772  1.00  0.00     0.255 C 
ATOM     17  N   UNL A   1      30.578  30.078  21.626  1.00  0.00    -0.365 N 
ATOM     18  H   UNL A   1      30.578  30.974  21.216  1.00  0.00     0.159 HD
ATOM     19  H   UNL A   1      31.088  29.346  21.211  1.00  0.00     0.159 HD
ATOM     20  O   UNL A   1      29.238  30.727  23.340  1.00  0.00    -0.269 OA
ENDBRANCH  10  16
ENDBRANCH   8   9
ENDBRANCH   6   8
ENDBRANCH   3   6
ENDBRANCH   1   2
BRANCH   1  21
ATOM     21  C   UNL A   1      31.397  32.081  26.530  1.00  0.00     0.042 C 
BRANCH  21  22
ATOM     22  C   UNL A   1      32.578  32.796  27.174  1.00  0.00     0.118 C 
BRANCH  22  23
ATOM     23  N   UNL A   1      32.297  34.147  27.647  1.00  0.00    -0.352 N 
ATOM     24  C   UNL A   1      32.902  34.998  28.544  1.00  0.00     0.251 C 
ATOM     25  H   UNL A   1      31.494  34.538  27.231  1.00  0.00     0.163 HD
ATOM     26  O   UNL A   1      32.370  36.087  28.752  1.00  0.00    -0.269 OA
BRANCH  24  27
ATOM     27  C   UNL A   1      34.119  34.633  29.310  1.00  0.00     0.039 A 
ATOM     28  C   UNL A   1      33.988  34.263  30.656  1.00  0.00     0.014 A 
ATOM     29  C   UNL A   1      35.391  34.652  28.752  1.00  0.00     0.014 A 
ATOM     30  C   UNL A   1      35.097  33.802  31.377  1.00  0.00     0.010 A 
ATOM     31  C   UNL A   1      36.460  34.056  29.413  1.00  0.00     0.010 A 
ATOM     32  C   UNL A   1      36.330  33.614  30.735  1.00  0.00    -0.014 A 
BRANCH  32  33
ATOM     33  C   UNL A   1      37.492  32.952  31.391  1.00  0.00     0.031 A 
ATOM     34  C   UNL A   1      38.190  31.795  30.719  1.00  0.00     0.074 A 
ATOM     35  C   UNL A   1      37.837  33.296  32.650  1.00  0.00     0.049 A 
ATOM     36  N   UNL A   1      39.064  30.954  31.212  1.00  0.00    -0.248 NA
ATOM     37  C   UNL A   1      37.812  31.510  29.325  1.00  0.00     0.031 C 
ATOM     38  C   UNL A   1      37.202  34.348  33.447  1.00  0.00     0.029 A 
ATOM     39  N   UNL A   1      38.795  32.783  33.491  1.00  0.00    -0.354 N 
ATOM     40  C   UNL A   1      39.298  30.019  30.210  1.00  0.00     0.074 A 
ATOM     41  C   UNL A   1      38.435  30.361  29.102  1.00  0.00     0.031 C 
ATOM     42  C   UNL A   1      37.809  34.427  34.641  1.00  0.00     0.029 A 
ATOM     43  C   UNL A   1      38.837  33.395  34.721  1.00  0.00     0.049 A 
ATOM     44  H   UNL A   1      39.396  32.045  33.237  1.00  0.00     0.167 HD
ATOM     45  C   UNL A   1      40.174  28.988  30.203  1.00  0.00     0.037 A 
ATOM     46  C   UNL A   1      39.604  33.149  35.800  1.00  0.00     0.037 A 
ATOM     47  C   UNL A   1      41.095  28.705  31.271  1.00  0.00     0.049 A 
ATOM     48  C   UNL A   1      40.610  32.033  35.747  1.00  0.00     0.074 A 
ATOM     49  C   UNL A   1      42.096  27.750  31.312  1.00  0.00     0.029 A 
ATOM     50  N   UNL A   1      41.140  29.386  32.477  1.00  0.00    -0.354 N 
ATOM     51  N   UNL A   1      40.854  31.191  34.774  1.00  0.00    -0.248 NA
ATOM     52  C   UNL A   1      41.445  31.830  36.939  1.00  0.00     0.031 C 
ATOM     53  C   UNL A   1      42.723  27.829  32.558  1.00  0.00     0.029 A 
ATOM     54  C   UNL A   1      42.142  28.862  33.276  1.00  0.00     0.049 A 
ATOM     55  H   UNL A   1      40.548  30.132  32.728  1.00  0.00     0.167 HD
ATOM     56  C   UNL A   1      41.880  30.372  35.226  1.00  0.00     0.074 A 
ATOM     57  C   UNL A   1      42.224  30.828  36.556  1.00  0.00     0.031 C 
ATOM     58  C   UNL A   1      42.478  29.333  34.595  1.00  0.00     0.037 A 
BRANCH  45  59
ATOM     59  C   UNL A   1      40.215  28.101  28.992  1.00  0.00     0.064 A 
ATOM     60  C   UNL A   1      39.560  26.859  28.995  1.00  0.00     0.173 A 
ATOM     61  C   UNL A   1      40.967  28.441  27.857  1.00  0.00     0.173 A 
ATOM     62  F   UNL A   1      38.834  26.481  30.058  1.00  0.00    -0.203 F 
ATOM     63  C   UNL A   1      39.665  25.990  27.913  1.00  0.00     0.198 A 
ATOM     64  C   UNL A   1      41.043  27.582  26.764  1.00  0.00     0.198 A 
ATOM     65  F   UNL A   1      41.605  29.619  27.798  1.00  0.00    -0.203 F 
ATOM     66  F   UNL A   1      39.057  24.795  27.953  1.00  0.00    -0.200 F 
ATOM     67  C   UNL A   1      40.402  26.353  26.797  1.00  0.00     0.200 A 
ATOM     68  F   UNL A   1      41.735  27.946  25.675  1.00  0.00    -0.200 F 
ATOM     69  F   UNL A   1      40.493  25.519  25.751  1.00  0.00    -0.200 F 
ENDBRANCH  45  59
BRANCH  46  70
ATOM     70  C   UNL A   1      39.466  34.002  37.009  1.00  0.00     0.064 A 
ATOM     71  C   UNL A   1      40.121  35.238  37.116  1.00  0.00     0.173 A 
ATOM     72  C   UNL A   1      38.700  33.574  38.103  1.00  0.00     0.173 A 
ATOM     73  F   UNL A   1      40.874  35.689  36.102  1.00  0.00    -0.203 F 
ATOM     74  C   UNL A   1      40.029  36.002  38.278  1.00  0.00     0.198 A 
ATOM     75  C   UNL A   1      38.588  34.350  39.253  1.00  0.00     0.198 A 
ATOM     76  F   UNL A   1      38.042  32.406  38.040  1.00  0.00    -0.203 F 
ATOM     77  F   UNL A   1      40.696  37.161  38.369  1.00  0.00    -0.200 F 
ATOM     78  C   UNL A   1      39.260  35.561  39.344  1.00  0.00     0.200 A 
ATOM     79  F   UNL A   1      37.826  33.929  40.272  1.00  0.00    -0.200 F 
ATOM     80  F   UNL A   1      39.166  36.300  40.456  1.00  0.00    -0.200 F 
ENDBRANCH  46  70
BRANCH  58  81
ATOM     81  C   UNL A   1      43.579  28.617  35.318  1.00  0.00     0.064 A 
ATOM     82  C   UNL A   1      43.279  27.608  36.247  1.00  0.00     0.173 A 
ATOM     83  C   UNL A   1      44.919  28.997  35.165  1.00  0.00     0.173 A 
ATOM     84  F   UNL A   1      42.010  27.217  36.434  1.00  0.00    -0.203 F 
ATOM     85  C   UNL A   1      44.282  27.019  37.010  1.00  0.00     0.198 A 
ATOM     86  C   UNL A   1      45.923  28.386  35.912  1.00  0.00     0.198 A 
ATOM     87  F   UNL A   1      45.254  29.948  34.282  1.00  0.00    -0.203 F 
ATOM     88  F   UNL A   1      43.969  26.086  37.920  1.00  0.00    -0.200 F 
ATOM     89  C   UNL A   1      45.603  27.408  36.842  1.00  0.00     0.200 A 
ATOM     90  F   UNL A   1      47.201  28.748  35.734  1.00  0.00    -0.200 F 
ATOM     91  F   UNL A   1      46.568  26.839  37.577  1.00  0.00    -0.200 F 
ENDBRANCH  58  81
ENDBRANCH  32  33
ENDBRANCH  24  27
ENDBRANCH  22  23
ENDBRANCH  21  22
ENDBRANCH   1  21
TORSDOF 13
ENDMDL
