MODEL 1
REMARK VINA RESULT:     -12.8      0.000      0.000
REMARK SMILES C[C@@H](NC(=O)c1cc(C(=O)NCCCNC(=O)c2ccc(-c3c4nc(c(-c5c(F)c(F)c(F)c(F)c5F)c5ccc([nH]5)c(-c5c(F)c(F)c(F)c(F)c5F)c5nc(c(-c6c(F)c(F)c(F)c(F)c6F)c6ccc3[nH]6)C=C5)C=C4)cc2)n(C)n1)c1ccccc1
REMARK SMILES IDX 12 1 11 2 9 3 10 4 8 6 6 7 7 8 83 9 81 10 82 11 4 12 3 13
REMARK SMILES IDX 5 15 2 16 1 17 84 18 85 19 89 20 86 21 88 22 87 23 13 24
REMARK SMILES IDX 14 25 15 26 16 27 17 29 18 30 19 31 80 32 20 33 79 34 21 35
REMARK SMILES IDX 22 36 23 37 73 38 24 39 78 40 72 41 74 42 25 43 77 44 71 45
REMARK SMILES IDX 70 46 26 48 58 49 38 50 57 51 39 52 42 53 56 54 75 55 40 56
REMARK SMILES IDX 41 57 55 59 76 60 43 61 27 62 28 63 36 64 29 65 30 66 34 67
REMARK SMILES IDX 37 68 31 69 32 70 35 71 33 72 59 73 60 74 68 75 61 76 62 77
REMARK SMILES IDX 66 78 69 79 63 80 64 81 67 82 65 83 44 84 45 85 53 86 46 87
REMARK SMILES IDX 47 88 51 89 54 90 48 91 49 92 52 93 50 94
REMARK H PARENT 11 5 3 14 15 28 74 47 42 58
REMARK Flexibility Score: inf
ROOT
ATOM      1  C   UNL A   1      31.318  30.815  25.407  1.00  0.00     0.118 C 
ENDROOT
BRANCH   1   2
ATOM      2  N   UNL A   1      30.278  30.836  24.409  1.00  0.00    -0.351 N 
ATOM      3  C   UNL A   1      29.739  29.909  23.567  1.00  0.00     0.269 C 
ATOM      4  O   UNL A   1      28.656  30.279  23.092  1.00  0.00    -0.268 OA
ATOM      5  H   UNL A   1      29.862  31.724  24.314  1.00  0.00     0.163 HD
BRANCH   3   6
ATOM      6  C   UNL A   1      30.299  28.620  23.200  1.00  0.00     0.126 A 
ATOM      7  C   UNL A   1      31.953  27.151  22.775  1.00  0.00     0.151 A 
ATOM      8  C   UNL A   1      31.614  28.513  22.741  1.00  0.00     0.069 A 
ATOM      9  N   UNL A   1      30.862  26.413  23.001  1.00  0.00    -0.167 NA
ATOM     10  N   UNL A   1      29.904  27.306  23.323  1.00  0.00    -0.262 N 
ATOM     11  C   UNL A   1      28.719  26.702  23.876  1.00  0.00     0.174 C 
BRANCH   7  12
ATOM     12  C   UNL A   1      33.255  26.523  22.622  1.00  0.00     0.272 C 
ATOM     13  N   UNL A   1      33.693  25.624  23.563  1.00  0.00    -0.344 N 
ATOM     14  H   UNL A   1      34.365  24.999  23.207  1.00  0.00     0.164 HD
ATOM     15  O   UNL A   1      33.961  26.703  21.626  1.00  0.00    -0.267 OA
BRANCH  13  16
ATOM     16  C   UNL A   1      33.390  25.380  24.978  1.00  0.00     0.109 C 
ATOM     17  C   UNL A   1      32.280  24.321  25.062  1.00  0.00     0.036 C 
BRANCH  16  18
ATOM     18  C   UNL A   1      33.042  26.547  25.878  1.00  0.00    -0.026 A 
ATOM     19  C   UNL A   1      34.027  27.511  26.163  1.00  0.00     0.006 A 
ATOM     20  C   UNL A   1      31.790  26.677  26.498  1.00  0.00     0.006 A 
ATOM     21  C   UNL A   1      33.764  28.578  27.024  1.00  0.00     0.000 A 
ATOM     22  C   UNL A   1      31.530  27.744  27.367  1.00  0.00     0.000 A 
ATOM     23  C   UNL A   1      32.515  28.696  27.625  1.00  0.00     0.000 A 
ENDBRANCH  16  18
ENDBRANCH  13  16
ENDBRANCH   7  12
ENDBRANCH   3   6
ENDBRANCH   1   2
BRANCH   1  24
ATOM     24  C   UNL A   1      31.158  31.944  26.423  1.00  0.00     0.042 C 
BRANCH  24  25
ATOM     25  C   UNL A   1      32.466  32.424  27.043  1.00  0.00     0.118 C 
BRANCH  25  26
ATOM     26  N   UNL A   1      32.416  33.832  27.397  1.00  0.00    -0.352 N 
ATOM     27  C   UNL A   1      33.015  34.532  28.409  1.00  0.00     0.251 C 
ATOM     28  H   UNL A   1      31.853  34.379  26.804  1.00  0.00     0.163 HD
ATOM     29  O   UNL A   1      32.589  35.654  28.676  1.00  0.00    -0.269 OA
BRANCH  27  30
ATOM     30  C   UNL A   1      34.168  33.994  29.170  1.00  0.00     0.039 A 
ATOM     31  C   UNL A   1      35.455  34.374  28.772  1.00  0.00     0.014 A 
ATOM     32  C   UNL A   1      34.019  33.029  30.170  1.00  0.00     0.014 A 
ATOM     33  C   UNL A   1      36.577  33.791  29.364  1.00  0.00     0.010 A 
ATOM     34  C   UNL A   1      35.137  32.513  30.826  1.00  0.00     0.010 A 
ATOM     35  C   UNL A   1      36.427  32.854  30.398  1.00  0.00    -0.014 A 
BRANCH  35  36
ATOM     36  C   UNL A   1      37.610  32.166  30.976  1.00  0.00     0.031 A 
ATOM     37  C   UNL A   1      38.072  32.504  32.370  1.00  0.00     0.074 A 
ATOM     38  C   UNL A   1      38.272  31.247  30.250  1.00  0.00     0.049 A 
ATOM     39  N   UNL A   1      39.075  32.014  33.055  1.00  0.00    -0.248 NA
ATOM     40  C   UNL A   1      37.322  33.552  33.079  1.00  0.00     0.031 C 
ATOM     41  C   UNL A   1      37.942  30.856  28.880  1.00  0.00     0.029 A 
ATOM     42  N   UNL A   1      39.355  30.467  30.568  1.00  0.00    -0.354 N 
ATOM     43  C   UNL A   1      39.080  32.701  34.263  1.00  0.00     0.074 A 
ATOM     44  C   UNL A   1      38.026  33.688  34.191  1.00  0.00     0.031 C 
ATOM     45  C   UNL A   1      38.777  29.880  28.489  1.00  0.00     0.029 A 
ATOM     46  C   UNL A   1      39.718  29.599  29.569  1.00  0.00     0.049 A 
ATOM     47  H   UNL A   1      39.827  30.525  31.431  1.00  0.00     0.167 HD
ATOM     48  C   UNL A   1      39.869  32.506  35.348  1.00  0.00     0.037 A 
ATOM     49  C   UNL A   1      40.694  28.672  29.536  1.00  0.00     0.037 A 
ATOM     50  C   UNL A   1      40.903  31.508  35.424  1.00  0.00     0.049 A 
ATOM     51  C   UNL A   1      41.564  28.479  30.749  1.00  0.00     0.074 A 
ATOM     52  C   UNL A   1      41.741  31.206  36.483  1.00  0.00     0.029 A 
ATOM     53  N   UNL A   1      41.239  30.644  34.390  1.00  0.00    -0.354 N 
ATOM     54  N   UNL A   1      41.524  29.096  31.906  1.00  0.00    -0.248 NA
ATOM     55  C   UNL A   1      42.604  27.447  30.655  1.00  0.00     0.031 C 
ATOM     56  C   UNL A   1      42.610  30.186  36.077  1.00  0.00     0.029 A 
ATOM     57  C   UNL A   1      42.279  29.817  34.782  1.00  0.00     0.049 A 
ATOM     58  H   UNL A   1      40.802  30.623  33.508  1.00  0.00     0.167 HD
ATOM     59  C   UNL A   1      42.504  28.502  32.689  1.00  0.00     0.074 A 
ATOM     60  C   UNL A   1      43.114  27.468  31.878  1.00  0.00     0.031 C 
ATOM     61  C   UNL A   1      42.863  28.782  33.967  1.00  0.00     0.037 A 
BRANCH  48  62
ATOM     62  C   UNL A   1      39.636  33.396  36.538  1.00  0.00     0.064 A 
ATOM     63  C   UNL A   1      40.300  34.626  36.679  1.00  0.00     0.173 A 
ATOM     64  C   UNL A   1      38.740  33.018  37.549  1.00  0.00     0.173 A 
ATOM     65  F   UNL A   1      41.177  35.032  35.748  1.00  0.00    -0.203 F 
ATOM     66  C   UNL A   1      40.110  35.420  37.809  1.00  0.00     0.198 A 
ATOM     67  C   UNL A   1      38.527  33.831  38.660  1.00  0.00     0.198 A 
ATOM     68  F   UNL A   1      38.073  31.858  37.464  1.00  0.00    -0.203 F 
ATOM     69  F   UNL A   1      40.809  36.554  37.952  1.00  0.00    -0.200 F 
ATOM     70  C   UNL A   1      39.222  35.024  38.796  1.00  0.00     0.200 A 
ATOM     71  F   UNL A   1      37.657  33.454  39.608  1.00  0.00    -0.200 F 
ATOM     72  F   UNL A   1      39.042  35.786  39.883  1.00  0.00    -0.200 F 
ENDBRANCH  48  62
BRANCH  49  73
ATOM     73  C   UNL A   1      40.859  27.811  28.336  1.00  0.00     0.064 A 
ATOM     74  C   UNL A   1      40.209  26.571  28.252  1.00  0.00     0.173 A 
ATOM     75  C   UNL A   1      41.657  28.205  27.253  1.00  0.00     0.173 A 
ATOM     76  F   UNL A   1      39.448  26.144  29.271  1.00  0.00    -0.203 F 
ATOM     77  C   UNL A   1      40.367  25.750  27.138  1.00  0.00     0.198 A 
ATOM     78  C   UNL A   1      41.792  27.394  26.128  1.00  0.00     0.198 A 
ATOM     79  F   UNL A   1      42.293  29.385  27.282  1.00  0.00    -0.203 F 
ATOM     80  F   UNL A   1      39.768  24.551  27.103  1.00  0.00    -0.200 F 
ATOM     81  C   UNL A   1      41.153  26.164  26.075  1.00  0.00     0.200 A 
ATOM     82  F   UNL A   1      42.540  27.804  25.095  1.00  0.00    -0.200 F 
ATOM     83  F   UNL A   1      41.301  25.376  25.001  1.00  0.00    -0.200 F 
ENDBRANCH  49  73
BRANCH  61  84
ATOM     84  C   UNL A   1      43.926  27.920  34.584  1.00  0.00     0.064 A 
ATOM     85  C   UNL A   1      43.621  26.708  35.221  1.00  0.00     0.173 A 
ATOM     86  C   UNL A   1      45.274  28.305  34.518  1.00  0.00     0.173 A 
ATOM     87  F   UNL A   1      42.346  26.302  35.323  1.00  0.00    -0.203 F 
ATOM     88  C   UNL A   1      44.621  25.934  35.803  1.00  0.00     0.198 A 
ATOM     89  C   UNL A   1      46.274  27.513  35.072  1.00  0.00     0.198 A 
ATOM     90  F   UNL A   1      45.620  29.451  33.912  1.00  0.00    -0.203 F 
ATOM     91  F   UNL A   1      44.300  24.810  36.459  1.00  0.00    -0.200 F 
ATOM     92  C   UNL A   1      45.947  26.333  35.723  1.00  0.00     0.200 A 
ATOM     93  F   UNL A   1      47.556  27.894  34.981  1.00  0.00    -0.200 F 
ATOM     94  F   UNL A   1      46.908  25.586  36.283  1.00  0.00    -0.200 F 
ENDBRANCH  61  84
ENDBRANCH  35  36
ENDBRANCH  27  30
ENDBRANCH  25  26
ENDBRANCH  24  25
ENDBRANCH   1  24
TORSDOF 13
ENDMDL
MODEL 2
REMARK VINA RESULT:     -12.6      5.229     10.501
REMARK SMILES C[C@@H](NC(=O)c1cc(C(=O)NCCCNC(=O)c2ccc(-c3c4nc(c(-c5c(F)c(F)c(F)c(F)c5F)c5ccc([nH]5)c(-c5c(F)c(F)c(F)c(F)c5F)c5nc(c(-c6c(F)c(F)c(F)c(F)c6F)c6ccc3[nH]6)C=C5)C=C4)cc2)n(C)n1)c1ccccc1
REMARK SMILES IDX 12 1 11 2 9 3 10 4 8 6 6 7 7 8 83 9 81 10 82 11 4 12 3 13
REMARK SMILES IDX 5 15 2 16 1 17 84 18 85 19 89 20 86 21 88 22 87 23 13 24
REMARK SMILES IDX 14 25 15 26 16 27 17 29 18 30 19 31 80 32 20 33 79 34 21 35
REMARK SMILES IDX 22 36 23 37 73 38 24 39 78 40 72 41 74 42 25 43 77 44 71 45
REMARK SMILES IDX 70 46 26 48 58 49 38 50 57 51 39 52 42 53 56 54 75 55 40 56
REMARK SMILES IDX 41 57 55 59 76 60 43 61 27 62 28 63 36 64 29 65 30 66 34 67
REMARK SMILES IDX 37 68 31 69 32 70 35 71 33 72 59 73 60 74 68 75 61 76 62 77
REMARK SMILES IDX 66 78 69 79 63 80 64 81 67 82 65 83 44 84 45 85 53 86 46 87
REMARK SMILES IDX 47 88 51 89 54 90 48 91 49 92 52 93 50 94
REMARK H PARENT 11 5 3 14 15 28 74 47 42 58
REMARK Flexibility Score: inf
ROOT
ATOM      1  C   UNL A   1      36.621  20.437  25.006  1.00  0.00     0.118 C 
ENDROOT
BRANCH   1   2
ATOM      2  N   UNL A   1      36.903  21.817  25.309  1.00  0.00    -0.351 N 
ATOM      3  C   UNL A   1      36.143  22.903  25.633  1.00  0.00     0.269 C 
ATOM      4  O   UNL A   1      36.819  23.823  26.113  1.00  0.00    -0.268 OA
ATOM      5  H   UNL A   1      37.866  22.024  25.276  1.00  0.00     0.163 HD
BRANCH   3   6
ATOM      6  C   UNL A   1      34.709  23.057  25.461  1.00  0.00     0.126 A 
ATOM      7  C   UNL A   1      32.633  23.710  26.045  1.00  0.00     0.151 A 
ATOM      8  C   UNL A   1      33.876  23.304  26.556  1.00  0.00     0.069 A 
ATOM      9  N   UNL A   1      32.591  23.501  24.726  1.00  0.00    -0.167 NA
ATOM     10  N   UNL A   1      33.856  23.181  24.386  1.00  0.00    -0.262 N 
ATOM     11  C   UNL A   1      34.089  23.189  22.966  1.00  0.00     0.174 C 
BRANCH   7  12
ATOM     12  C   UNL A   1      31.501  24.299  26.741  1.00  0.00     0.272 C 
ATOM     13  N   UNL A   1      31.332  25.661  26.737  1.00  0.00    -0.344 N 
ATOM     14  H   UNL A   1      30.397  25.928  26.889  1.00  0.00     0.164 HD
ATOM     15  O   UNL A   1      30.625  23.612  27.273  1.00  0.00    -0.267 OA
BRANCH  13  16
ATOM     16  C   UNL A   1      32.225  26.812  26.561  1.00  0.00     0.109 C 
ATOM     17  C   UNL A   1      31.771  27.931  27.510  1.00  0.00     0.036 C 
BRANCH  16  18
ATOM     18  C   UNL A   1      32.441  27.383  25.175  1.00  0.00    -0.026 A 
ATOM     19  C   UNL A   1      31.522  28.322  24.670  1.00  0.00     0.006 A 
ATOM     20  C   UNL A   1      33.487  26.967  24.339  1.00  0.00     0.006 A 
ATOM     21  C   UNL A   1      31.656  28.841  23.381  1.00  0.00     0.000 A 
ATOM     22  C   UNL A   1      33.617  27.482  23.044  1.00  0.00     0.000 A 
ATOM     23  C   UNL A   1      32.704  28.422  22.568  1.00  0.00     0.000 A 
ENDBRANCH  16  18
ENDBRANCH  13  16
ENDBRANCH   7  12
ENDBRANCH   3   6
ENDBRANCH   1   2
BRANCH   1  24
ATOM     24  C   UNL A   1      37.886  19.581  25.007  1.00  0.00     0.042 C 
BRANCH  24  25
ATOM     25  C   UNL A   1      39.054  20.181  25.784  1.00  0.00     0.118 C 
BRANCH  25  26
ATOM     26  N   UNL A   1      40.152  19.241  25.927  1.00  0.00    -0.352 N 
ATOM     27  C   UNL A   1      41.500  19.438  26.057  1.00  0.00     0.251 C 
ATOM     28  H   UNL A   1      39.878  18.296  25.931  1.00  0.00     0.163 HD
ATOM     29  O   UNL A   1      42.251  18.485  25.868  1.00  0.00    -0.269 OA
BRANCH  27  30
ATOM     30  C   UNL A   1      42.074  20.749  26.441  1.00  0.00     0.039 A 
ATOM     31  C   UNL A   1      42.172  21.052  27.805  1.00  0.00     0.014 A 
ATOM     32  C   UNL A   1      42.392  21.732  25.498  1.00  0.00     0.014 A 
ATOM     33  C   UNL A   1      42.577  22.323  28.217  1.00  0.00     0.010 A 
ATOM     34  C   UNL A   1      42.884  22.971  25.908  1.00  0.00     0.010 A 
ATOM     35  C   UNL A   1      42.937  23.295  27.271  1.00  0.00    -0.014 A 
BRANCH  35  36
ATOM     36  C   UNL A   1      43.288  24.675  27.695  1.00  0.00     0.031 A 
ATOM     37  C   UNL A   1      44.729  25.109  27.733  1.00  0.00     0.074 A 
ATOM     38  C   UNL A   1      42.315  25.533  28.054  1.00  0.00     0.049 A 
ATOM     39  N   UNL A   1      45.241  26.267  28.068  1.00  0.00    -0.248 NA
ATOM     40  C   UNL A   1      45.734  24.096  27.370  1.00  0.00     0.031 C 
ATOM     41  C   UNL A   1      40.886  25.223  28.090  1.00  0.00     0.029 A 
ATOM     42  N   UNL A   1      42.382  26.846  28.448  1.00  0.00    -0.354 N 
ATOM     43  C   UNL A   1      46.619  26.116  27.966  1.00  0.00     0.074 A 
ATOM     44  C   UNL A   1      46.867  24.738  27.607  1.00  0.00     0.031 C 
ATOM     45  C   UNL A   1      40.207  26.326  28.442  1.00  0.00     0.029 A 
ATOM     46  C   UNL A   1      41.154  27.410  28.686  1.00  0.00     0.049 A 
ATOM     47  H   UNL A   1      43.230  27.336  28.549  1.00  0.00     0.167 HD
ATOM     48  C   UNL A   1      47.590  27.049  28.126  1.00  0.00     0.037 A 
ATOM     49  C   UNL A   1      40.830  28.666  29.048  1.00  0.00     0.037 A 
ATOM     50  C   UNL A   1      47.338  28.425  28.463  1.00  0.00     0.049 A 
ATOM     51  C   UNL A   1      41.925  29.682  29.228  1.00  0.00     0.074 A 
ATOM     52  C   UNL A   1      48.243  29.459  28.620  1.00  0.00     0.029 A 
ATOM     53  N   UNL A   1      46.078  28.960  28.693  1.00  0.00    -0.354 N 
ATOM     54  N   UNL A   1      43.221  29.543  29.076  1.00  0.00    -0.248 NA
ATOM     55  C   UNL A   1      41.508  31.036  29.614  1.00  0.00     0.031 C 
ATOM     56  C   UNL A   1      47.535  30.610  28.985  1.00  0.00     0.029 A 
ATOM     57  C   UNL A   1      46.183  30.306  29.003  1.00  0.00     0.049 A 
ATOM     58  H   UNL A   1      45.233  28.456  28.645  1.00  0.00     0.167 HD
ATOM     59  C   UNL A   1      43.769  30.797  29.308  1.00  0.00     0.074 A 
ATOM     60  C   UNL A   1      42.664  31.686  29.601  1.00  0.00     0.031 C 
ATOM     61  C   UNL A   1      45.070  31.180  29.276  1.00  0.00     0.037 A 
BRANCH  48  62
ATOM     62  C   UNL A   1      49.013  26.601  27.935  1.00  0.00     0.064 A 
ATOM     63  C   UNL A   1      49.845  26.304  29.028  1.00  0.00     0.173 A 
ATOM     64  C   UNL A   1      49.554  26.467  26.648  1.00  0.00     0.173 A 
ATOM     65  F   UNL A   1      49.383  26.427  30.282  1.00  0.00    -0.203 F 
ATOM     66  C   UNL A   1      51.175  25.935  28.839  1.00  0.00     0.198 A 
ATOM     67  C   UNL A   1      50.874  26.063  26.462  1.00  0.00     0.198 A 
ATOM     68  F   UNL A   1      48.805  26.730  25.568  1.00  0.00    -0.203 F 
ATOM     69  F   UNL A   1      51.967  25.725  29.899  1.00  0.00    -0.200 F 
ATOM     70  C   UNL A   1      51.688  25.811  27.557  1.00  0.00     0.200 A 
ATOM     71  F   UNL A   1      51.365  25.931  25.222  1.00  0.00    -0.200 F 
ATOM     72  F   UNL A   1      52.968  25.459  27.377  1.00  0.00    -0.200 F 
ENDBRANCH  48  62
BRANCH  49  73
ATOM     73  C   UNL A   1      39.402  29.049  29.201  1.00  0.00     0.064 A 
ATOM     74  C   UNL A   1      38.777  28.983  30.455  1.00  0.00     0.173 A 
ATOM     75  C   UNL A   1      38.638  29.490  28.112  1.00  0.00     0.173 A 
ATOM     76  F   UNL A   1      39.462  28.550  31.524  1.00  0.00    -0.203 F 
ATOM     77  C   UNL A   1      37.435  29.325  30.608  1.00  0.00     0.198 A 
ATOM     78  C   UNL A   1      37.304  29.858  28.273  1.00  0.00     0.198 A 
ATOM     79  F   UNL A   1      39.193  29.577  26.895  1.00  0.00    -0.203 F 
ATOM     80  F   UNL A   1      36.851  29.212  31.809  1.00  0.00    -0.200 F 
ATOM     81  C   UNL A   1      36.701  29.768  29.519  1.00  0.00     0.200 A 
ATOM     82  F   UNL A   1      36.602  30.301  27.221  1.00  0.00    -0.200 F 
ATOM     83  F   UNL A   1      35.413  30.103  29.668  1.00  0.00    -0.200 F 
ENDBRANCH  49  73
BRANCH  61  84
ATOM     84  C   UNL A   1      45.361  32.634  29.508  1.00  0.00     0.064 A 
ATOM     85  C   UNL A   1      45.666  33.136  30.782  1.00  0.00     0.173 A 
ATOM     86  C   UNL A   1      45.351  33.536  28.433  1.00  0.00     0.173 A 
ATOM     87  F   UNL A   1      45.673  32.317  31.846  1.00  0.00    -0.203 F 
ATOM     88  C   UNL A   1      45.912  34.492  30.976  1.00  0.00     0.198 A 
ATOM     89  C   UNL A   1      45.631  34.886  28.626  1.00  0.00     0.198 A 
ATOM     90  F   UNL A   1      45.074  33.106  27.192  1.00  0.00    -0.203 F 
ATOM     91  F   UNL A   1      46.142  34.959  32.212  1.00  0.00    -0.200 F 
ATOM     92  C   UNL A   1      45.901  35.365  29.898  1.00  0.00     0.200 A 
ATOM     93  F   UNL A   1      45.633  35.724  27.580  1.00  0.00    -0.200 F 
ATOM     94  F   UNL A   1      46.139  36.670  30.087  1.00  0.00    -0.200 F 
ENDBRANCH  61  84
ENDBRANCH  35  36
ENDBRANCH  27  30
ENDBRANCH  25  26
ENDBRANCH  24  25
ENDBRANCH   1  24
TORSDOF 13
ENDMDL
MODEL 3
REMARK VINA RESULT:     -12.6      1.108      2.643
REMARK SMILES C[C@@H](NC(=O)c1cc(C(=O)NCCCNC(=O)c2ccc(-c3c4nc(c(-c5c(F)c(F)c(F)c(F)c5F)c5ccc([nH]5)c(-c5c(F)c(F)c(F)c(F)c5F)c5nc(c(-c6c(F)c(F)c(F)c(F)c6F)c6ccc3[nH]6)C=C5)C=C4)cc2)n(C)n1)c1ccccc1
REMARK SMILES IDX 12 1 11 2 9 3 10 4 8 6 6 7 7 8 83 9 81 10 82 11 4 12 3 13
REMARK SMILES IDX 5 15 2 16 1 17 84 18 85 19 89 20 86 21 88 22 87 23 13 24
REMARK SMILES IDX 14 25 15 26 16 27 17 29 18 30 19 31 80 32 20 33 79 34 21 35
REMARK SMILES IDX 22 36 23 37 73 38 24 39 78 40 72 41 74 42 25 43 77 44 71 45
REMARK SMILES IDX 70 46 26 48 58 49 38 50 57 51 39 52 42 53 56 54 75 55 40 56
REMARK SMILES IDX 41 57 55 59 76 60 43 61 27 62 28 63 36 64 29 65 30 66 34 67
REMARK SMILES IDX 37 68 31 69 32 70 35 71 33 72 59 73 60 74 68 75 61 76 62 77
REMARK SMILES IDX 66 78 69 79 63 80 64 81 67 82 65 83 44 84 45 85 53 86 46 87
REMARK SMILES IDX 47 88 51 89 54 90 48 91 49 92 52 93 50 94
REMARK H PARENT 11 5 3 14 15 28 74 47 42 58
REMARK Flexibility Score: inf
ROOT
ATOM      1  C   UNL A   1      31.456  30.233  25.573  1.00  0.00     0.118 C 
ENDROOT
BRANCH   1   2
ATOM      2  N   UNL A   1      30.733  30.118  24.333  1.00  0.00    -0.351 N 
ATOM      3  C   UNL A   1      30.716  29.211  23.314  1.00  0.00     0.269 C 
ATOM      4  O   UNL A   1      29.722  29.342  22.585  1.00  0.00    -0.268 OA
ATOM      5  H   UNL A   1      30.109  30.866  24.187  1.00  0.00     0.163 HD
BRANCH   3   6
ATOM      6  C   UNL A   1      31.705  28.186  23.029  1.00  0.00     0.126 A 
ATOM      7  C   UNL A   1      32.550  26.397  21.953  1.00  0.00     0.151 A 
ATOM      8  C   UNL A   1      31.355  27.020  22.342  1.00  0.00     0.069 A 
ATOM      9  N   UNL A   1      33.589  26.982  22.556  1.00  0.00    -0.167 NA
ATOM     10  N   UNL A   1      33.075  28.087  23.133  1.00  0.00    -0.262 N 
ATOM     11  C   UNL A   1      34.076  29.009  23.602  1.00  0.00     0.174 C 
BRANCH   7  12
ATOM     12  C   UNL A   1      32.754  25.293  21.029  1.00  0.00     0.272 C 
ATOM     13  N   UNL A   1      32.667  24.000  21.482  1.00  0.00    -0.344 N 
ATOM     14  H   UNL A   1      32.448  23.361  20.766  1.00  0.00     0.164 HD
ATOM     15  O   UNL A   1      32.922  25.468  19.819  1.00  0.00    -0.267 OA
BRANCH  13  16
ATOM     16  C   UNL A   1      32.828  23.351  22.788  1.00  0.00     0.109 C 
ATOM     17  C   UNL A   1      31.627  23.726  23.669  1.00  0.00     0.036 C 
BRANCH  16  18
ATOM     18  C   UNL A   1      34.109  23.555  23.570  1.00  0.00    -0.026 A 
ATOM     19  C   UNL A   1      35.313  23.034  23.061  1.00  0.00     0.006 A 
ATOM     20  C   UNL A   1      34.139  24.188  24.821  1.00  0.00     0.006 A 
ATOM     21  C   UNL A   1      36.510  23.159  23.770  1.00  0.00     0.000 A 
ATOM     22  C   UNL A   1      35.338  24.306  25.535  1.00  0.00     0.000 A 
ATOM     23  C   UNL A   1      36.522  23.796  25.007  1.00  0.00     0.000 A 
ENDBRANCH  16  18
ENDBRANCH  13  16
ENDBRANCH   7  12
ENDBRANCH   3   6
ENDBRANCH   1   2
BRANCH   1  24
ATOM     24  C   UNL A   1      31.302  31.618  26.199  1.00  0.00     0.042 C 
BRANCH  24  25
ATOM     25  C   UNL A   1      32.507  32.082  27.011  1.00  0.00     0.118 C 
BRANCH  25  26
ATOM     26  N   UNL A   1      32.459  33.506  27.292  1.00  0.00    -0.352 N 
ATOM     27  C   UNL A   1      33.065  34.258  28.261  1.00  0.00     0.251 C 
ATOM     28  H   UNL A   1      31.890  34.021  26.675  1.00  0.00     0.163 HD
ATOM     29  O   UNL A   1      32.640  35.391  28.473  1.00  0.00    -0.269 OA
BRANCH  27  30
ATOM     30  C   UNL A   1      34.225  33.760  29.039  1.00  0.00     0.039 A 
ATOM     31  C   UNL A   1      35.501  34.212  28.681  1.00  0.00     0.014 A 
ATOM     32  C   UNL A   1      34.099  32.767  30.015  1.00  0.00     0.014 A 
ATOM     33  C   UNL A   1      36.636  33.672  29.289  1.00  0.00     0.010 A 
ATOM     34  C   UNL A   1      35.226  32.293  30.688  1.00  0.00     0.010 A 
ATOM     35  C   UNL A   1      36.508  32.706  30.300  1.00  0.00    -0.014 A 
BRANCH  35  36
ATOM     36  C   UNL A   1      37.709  32.065  30.893  1.00  0.00     0.031 A 
ATOM     37  C   UNL A   1      38.157  32.442  32.281  1.00  0.00     0.074 A 
ATOM     38  C   UNL A   1      38.400  31.152  30.186  1.00  0.00     0.049 A 
ATOM     39  N   UNL A   1      39.173  31.995  32.977  1.00  0.00    -0.248 NA
ATOM     40  C   UNL A   1      37.374  33.480  32.969  1.00  0.00     0.031 C 
ATOM     41  C   UNL A   1      38.085  30.726  28.821  1.00  0.00     0.029 A 
ATOM     42  N   UNL A   1      39.505  30.411  30.520  1.00  0.00    -0.354 N 
ATOM     43  C   UNL A   1      39.154  32.704  34.172  1.00  0.00     0.074 A 
ATOM     44  C   UNL A   1      38.071  33.658  34.080  1.00  0.00     0.031 C 
ATOM     45  C   UNL A   1      38.950  29.769  28.451  1.00  0.00     0.029 A 
ATOM     46  C   UNL A   1      39.896  29.536  29.538  1.00  0.00     0.049 A 
ATOM     47  H   UNL A   1      39.972  30.499  31.383  1.00  0.00     0.167 HD
ATOM     48  C   UNL A   1      39.946  32.553  35.262  1.00  0.00     0.037 A 
ATOM     49  C   UNL A   1      40.900  28.638  29.524  1.00  0.00     0.037 A 
ATOM     50  C   UNL A   1      41.009  31.587  35.359  1.00  0.00     0.049 A 
ATOM     51  C   UNL A   1      41.771  28.494  30.742  1.00  0.00     0.074 A 
ATOM     52  C   UNL A   1      41.852  31.330  36.424  1.00  0.00     0.029 A 
ATOM     53  N   UNL A   1      41.373  30.715  34.342  1.00  0.00    -0.354 N 
ATOM     54  N   UNL A   1      41.710  29.131  31.887  1.00  0.00    -0.248 NA
ATOM     55  C   UNL A   1      42.842  27.492  30.669  1.00  0.00     0.031 C 
ATOM     56  C   UNL A   1      42.752  30.330  36.039  1.00  0.00     0.029 A 
ATOM     57  C   UNL A   1      42.436  29.927  34.752  1.00  0.00     0.049 A 
ATOM     58  H   UNL A   1      40.939  30.665  33.459  1.00  0.00     0.167 HD
ATOM     59  C   UNL A   1      42.705  28.580  32.684  1.00  0.00     0.074 A 
ATOM     60  C   UNL A   1      43.348  27.551  31.893  1.00  0.00     0.031 C 
ATOM     61  C   UNL A   1      43.053  28.895  33.957  1.00  0.00     0.037 A 
BRANCH  48  62
ATOM     62  C   UNL A   1      39.683  33.458  36.434  1.00  0.00     0.064 A 
ATOM     63  C   UNL A   1      38.819  33.082  37.477  1.00  0.00     0.173 A 
ATOM     64  C   UNL A   1      40.298  34.716  36.519  1.00  0.00     0.173 A 
ATOM     65  F   UNL A   1      38.194  31.895  37.441  1.00  0.00    -0.203 F 
ATOM     66  C   UNL A   1      38.547  33.948  38.533  1.00  0.00     0.198 A 
ATOM     67  C   UNL A   1      40.050  35.565  37.595  1.00  0.00     0.198 A 
ATOM     68  F   UNL A   1      41.137  35.125  35.557  1.00  0.00    -0.203 F 
ATOM     69  F   UNL A   1      37.665  33.593  39.477  1.00  0.00    -0.200 F 
ATOM     70  C   UNL A   1      39.165  35.187  38.594  1.00  0.00     0.200 A 
ATOM     71  F   UNL A   1      40.659  36.758  37.660  1.00  0.00    -0.200 F 
ATOM     72  F   UNL A   1      38.900  36.021  39.609  1.00  0.00    -0.200 F 
ENDBRANCH  48  62
BRANCH  49  73
ATOM     73  C   UNL A   1      41.093  27.761  28.340  1.00  0.00     0.064 A 
ATOM     74  C   UNL A   1      41.929  28.159  27.286  1.00  0.00     0.173 A 
ATOM     75  C   UNL A   1      40.459  26.516  28.237  1.00  0.00     0.173 A 
ATOM     76  F   UNL A   1      42.544  29.350  27.332  1.00  0.00    -0.203 F 
ATOM     77  C   UNL A   1      42.106  27.351  26.165  1.00  0.00     0.198 A 
ATOM     78  C   UNL A   1      40.660  25.697  27.127  1.00  0.00     0.198 A 
ATOM     79  F   UNL A   1      39.657  26.087  29.221  1.00  0.00    -0.203 F 
ATOM     80  F   UNL A   1      42.877  27.775  25.153  1.00  0.00    -0.200 F 
ATOM     81  C   UNL A   1      41.477  26.119  26.089  1.00  0.00     0.200 A 
ATOM     82  F   UNL A   1      40.062  24.499  27.064  1.00  0.00    -0.200 F 
ATOM     83  F   UNL A   1      41.653  25.340  25.013  1.00  0.00    -0.200 F 
ENDBRANCH  49  73
BRANCH  61  84
ATOM     84  C   UNL A   1      44.139  28.076  34.591  1.00  0.00     0.064 A 
ATOM     85  C   UNL A   1      45.492  28.436  34.496  1.00  0.00     0.173 A 
ATOM     86  C   UNL A   1      43.818  26.922  35.322  1.00  0.00     0.173 A 
ATOM     87  F   UNL A   1      45.853  29.523  33.795  1.00  0.00    -0.203 F 
ATOM     88  C   UNL A   1      46.484  27.650  35.075  1.00  0.00     0.198 A 
ATOM     89  C   UNL A   1      44.810  26.158  35.929  1.00  0.00     0.198 A 
ATOM     90  F   UNL A   1      42.538  26.539  35.451  1.00  0.00    -0.203 F 
ATOM     91  F   UNL A   1      47.773  27.981  34.920  1.00  0.00    -0.200 F 
ATOM     92  C   UNL A   1      46.142  26.516  35.796  1.00  0.00     0.200 A 
ATOM     93  F   UNL A   1      44.476  25.069  36.636  1.00  0.00    -0.200 F 
ATOM     94  F   UNL A   1      47.099  25.762  36.354  1.00  0.00    -0.200 F 
ENDBRANCH  61  84
ENDBRANCH  35  36
ENDBRANCH  27  30
ENDBRANCH  25  26
ENDBRANCH  24  25
ENDBRANCH   1  24
TORSDOF 13
ENDMDL
