MODEL 1
REMARK VINA RESULT:     -12.6      0.000      0.000
REMARK SMILES CN(Cc1ccccc1Br)C(=O)N[C@H]1C=C[C@H](C(=O)NCCCNC(=O)c2ccc(-c3c4nc(c(-c5c(F)c(F)c(F)c(F)c5F)c5ccc([nH]5)c(-c5c(F)c(F)c(F)c(F)c5F)c5nc(c(-c6c(F)c(F)c(F)c(F)c6F)c6ccc3[nH]6)C=C5)C=C4)cc2)C1
REMARK SMILES IDX 21 1 20 2 18 3 19 4 17 6 14 7 15 8 90 9 16 10 13 11 11 12
REMARK SMILES IDX 12 13 2 15 1 16 3 17 4 18 5 19 9 20 6 21 8 22 10 23 7 24
REMARK SMILES IDX 22 25 23 26 24 27 25 28 26 30 27 31 28 32 89 33 29 34 88 35
REMARK SMILES IDX 30 36 31 37 32 38 82 39 33 40 87 41 81 42 83 43 34 44 86 45
REMARK SMILES IDX 80 46 79 47 35 49 67 50 47 51 66 52 48 53 51 54 65 55 84 56
REMARK SMILES IDX 49 57 50 58 64 60 85 61 52 62 36 63 37 64 45 65 38 66 39 67
REMARK SMILES IDX 43 68 46 69 40 70 41 71 44 72 42 73 68 74 69 75 77 76 70 77
REMARK SMILES IDX 71 78 75 79 78 80 72 81 73 82 76 83 74 84 53 85 54 86 62 87
REMARK SMILES IDX 55 88 56 89 60 90 63 91 57 92 58 93 61 94 59 95
REMARK H PARENT 20 5 13 14 24 29 83 48 51 59
REMARK Flexibility Score: inf
ROOT
ATOM      1  C   UNL A   1      31.734  30.536  26.702  1.00  0.00     0.117 C 
ENDROOT
BRANCH   1   2
ATOM      2  N   UNL A   1      32.881  30.073  27.456  1.00  0.00    -0.356 N 
ATOM      3  C   UNL A   1      33.633  28.949  27.296  1.00  0.00     0.227 C 
ATOM      4  O   UNL A   1      34.792  29.019  27.726  1.00  0.00    -0.274 OA
ATOM      5  H   UNL A   1      33.159  30.660  28.197  1.00  0.00     0.163 HD
BRANCH   3   6
ATOM      6  C   UNL A   1      33.101  27.603  26.750  1.00  0.00     0.103 C 
ATOM      7  C   UNL A   1      33.256  27.363  24.317  1.00  0.00     0.107 C 
ATOM      8  C   UNL A   1      31.838  27.330  24.786  1.00  0.00    -0.006 C 
ATOM      9  C   UNL A   1      34.009  27.061  25.622  1.00  0.00     0.047 C 
ATOM     10  C   UNL A   1      31.756  27.474  26.114  1.00  0.00    -0.016 C 
BRANCH   7  11
ATOM     11  N   UNL A   1      33.445  26.362  23.295  1.00  0.00    -0.332 N 
ATOM     12  C   UNL A   1      33.356  25.024  23.203  1.00  0.00     0.317 C 
ATOM     13  O   UNL A   1      33.805  24.549  22.152  1.00  0.00    -0.249 OA
ATOM     14  H   UNL A   1      33.709  26.767  22.436  1.00  0.00     0.165 HD
BRANCH  12  15
ATOM     15  N   UNL A   1      32.833  24.210  24.171  1.00  0.00    -0.324 N 
ATOM     16  C   UNL A   1      31.467  23.752  23.932  1.00  0.00     0.149 C 
BRANCH  15  17
ATOM     17  C   UNL A   1      33.433  23.779  25.437  1.00  0.00     0.157 C 
BRANCH  17  18
ATOM     18  C   UNL A   1      34.825  23.196  25.279  1.00  0.00    -0.014 A 
ATOM     19  C   UNL A   1      35.953  24.033  25.385  1.00  0.00     0.007 A 
ATOM     20  C   UNL A   1      35.050  21.831  25.037  1.00  0.00     0.022 A 
ATOM     21  C   UNL A   1      37.247  23.511  25.412  1.00  0.00     0.000 A 
ATOM     22  C   UNL A   1      36.350  21.308  25.071  1.00  0.00     0.016 A 
ATOM     23  Br  UNL A   1      33.635  20.613  24.666  1.00  0.00    -0.050 Br
ATOM     24  C   UNL A   1      37.442  22.141  25.300  1.00  0.00     0.001 A 
ENDBRANCH  17  18
ENDBRANCH  15  17
ENDBRANCH  12  15
ENDBRANCH   7  11
ENDBRANCH   3   6
ENDBRANCH   1   2
BRANCH   1  25
ATOM     25  C   UNL A   1      31.511  32.041  26.759  1.00  0.00     0.042 C 
BRANCH  25  26
ATOM     26  C   UNL A   1      32.732  32.852  27.176  1.00  0.00     0.118 C 
BRANCH  26  27
ATOM     27  N   UNL A   1      32.424  34.204  27.637  1.00  0.00    -0.352 N 
ATOM     28  C   UNL A   1      32.981  35.006  28.612  1.00  0.00     0.251 C 
ATOM     29  H   UNL A   1      31.672  34.623  27.160  1.00  0.00     0.163 HD
ATOM     30  O   UNL A   1      32.451  36.076  28.875  1.00  0.00    -0.269 OA
BRANCH  28  31
ATOM     31  C   UNL A   1      34.177  34.579  29.384  1.00  0.00     0.039 A 
ATOM     32  C   UNL A   1      34.011  34.131  30.701  1.00  0.00     0.014 A 
ATOM     33  C   UNL A   1      35.457  34.626  28.842  1.00  0.00     0.014 A 
ATOM     34  C   UNL A   1      35.103  33.622  31.415  1.00  0.00     0.010 A 
ATOM     35  C   UNL A   1      36.515  34.003  29.498  1.00  0.00     0.010 A 
ATOM     36  C   UNL A   1      36.354  33.488  30.792  1.00  0.00    -0.014 A 
BRANCH  36  37
ATOM     37  C   UNL A   1      37.508  32.820  31.456  1.00  0.00     0.031 A 
ATOM     38  C   UNL A   1      38.191  31.651  30.796  1.00  0.00     0.074 A 
ATOM     39  C   UNL A   1      37.872  33.188  32.702  1.00  0.00     0.049 A 
ATOM     40  N   UNL A   1      39.109  30.845  31.271  1.00  0.00    -0.248 NA
ATOM     41  C   UNL A   1      37.747  31.315  29.435  1.00  0.00     0.031 C 
ATOM     42  C   UNL A   1      37.261  34.265  33.482  1.00  0.00     0.029 A 
ATOM     43  N   UNL A   1      38.839  32.684  33.538  1.00  0.00    -0.354 N 
ATOM     44  C   UNL A   1      39.316  29.889  30.285  1.00  0.00     0.074 A 
ATOM     45  C   UNL A   1      38.383  30.174  29.218  1.00  0.00     0.031 C 
ATOM     46  C   UNL A   1      37.895  34.371  34.660  1.00  0.00     0.029 A 
ATOM     47  C   UNL A   1      38.922  33.339  34.743  1.00  0.00     0.049 A 
ATOM     48  H   UNL A   1      39.418  31.926  33.295  1.00  0.00     0.167 HD
ATOM     49  C   UNL A   1      40.221  28.880  30.256  1.00  0.00     0.037 A 
ATOM     50  C   UNL A   1      39.735  33.130  35.797  1.00  0.00     0.037 A 
ATOM     51  C   UNL A   1      41.180  28.627  31.299  1.00  0.00     0.049 A 
ATOM     52  C   UNL A   1      40.736  32.009  35.741  1.00  0.00     0.074 A 
ATOM     53  C   UNL A   1      42.194  27.686  31.331  1.00  0.00     0.029 A 
ATOM     54  N   UNL A   1      41.246  29.326  32.496  1.00  0.00    -0.354 N 
ATOM     55  N   UNL A   1      40.969  31.152  34.778  1.00  0.00    -0.248 NA
ATOM     56  C   UNL A   1      41.588  31.827  36.926  1.00  0.00     0.031 C 
ATOM     57  C   UNL A   1      42.844  27.786  32.567  1.00  0.00     0.029 A 
ATOM     58  C   UNL A   1      42.268  28.823  33.285  1.00  0.00     0.049 A 
ATOM     59  H   UNL A   1      40.652  30.070  32.748  1.00  0.00     0.167 HD
ATOM     60  C   UNL A   1      42.014  30.353  35.222  1.00  0.00     0.074 A 
ATOM     61  C   UNL A   1      42.374  30.833  36.540  1.00  0.00     0.031 C 
ATOM     62  C   UNL A   1      42.620  29.316  34.592  1.00  0.00     0.037 A 
BRANCH  49  63
ATOM     63  C   UNL A   1      40.207  27.977  29.053  1.00  0.00     0.064 A 
ATOM     64  C   UNL A   1      39.482  26.775  29.039  1.00  0.00     0.173 A 
ATOM     65  C   UNL A   1      40.938  28.310  27.902  1.00  0.00     0.173 A 
ATOM     66  F   UNL A   1      38.771  26.402  30.116  1.00  0.00    -0.203 F 
ATOM     67  C   UNL A   1      39.535  25.914  27.945  1.00  0.00     0.198 A 
ATOM     68  C   UNL A   1      40.958  27.466  26.795  1.00  0.00     0.198 A 
ATOM     69  F   UNL A   1      41.642  29.451  27.854  1.00  0.00    -0.203 F 
ATOM     70  F   UNL A   1      38.899  24.735  27.990  1.00  0.00    -0.200 F 
ATOM     71  C   UNL A   1      40.270  26.262  26.823  1.00  0.00     0.200 A 
ATOM     72  F   UNL A   1      41.658  27.810  25.704  1.00  0.00    -0.200 F 
ATOM     73  F   UNL A   1      40.327  25.431  25.774  1.00  0.00    -0.200 F 
ENDBRANCH  49  63
BRANCH  50  74
ATOM     74  C   UNL A   1      39.676  34.041  36.968  1.00  0.00     0.064 A 
ATOM     75  C   UNL A   1      40.410  35.237  36.973  1.00  0.00     0.173 A 
ATOM     76  C   UNL A   1      38.883  33.758  38.089  1.00  0.00     0.173 A 
ATOM     77  F   UNL A   1      41.197  35.541  35.932  1.00  0.00    -0.203 F 
ATOM     78  C   UNL A   1      40.362  36.107  38.059  1.00  0.00     0.198 A 
ATOM     79  C   UNL A   1      38.817  34.643  39.164  1.00  0.00     0.198 A 
ATOM     80  F   UNL A   1      38.158  32.632  38.132  1.00  0.00    -0.203 F 
ATOM     81  F   UNL A   1      41.100  37.226  38.050  1.00  0.00    -0.200 F 
ATOM     82  C   UNL A   1      39.559  35.814  39.151  1.00  0.00     0.200 A 
ATOM     83  F   UNL A   1      38.029  34.363  40.212  1.00  0.00    -0.200 F 
ATOM     84  F   UNL A   1      39.506  36.658  40.190  1.00  0.00    -0.200 F 
ENDBRANCH  50  74
BRANCH  62  85
ATOM     85  C   UNL A   1      43.766  28.657  35.302  1.00  0.00     0.064 A 
ATOM     86  C   UNL A   1      45.091  29.078  35.115  1.00  0.00     0.173 A 
ATOM     87  C   UNL A   1      43.530  27.614  36.211  1.00  0.00     0.173 A 
ATOM     88  F   UNL A   1      45.370  30.059  34.244  1.00  0.00    -0.203 F 
ATOM     89  C   UNL A   1      46.139  28.463  35.795  1.00  0.00     0.198 A 
ATOM     90  C   UNL A   1      44.577  27.023  36.912  1.00  0.00     0.198 A 
ATOM     91  F   UNL A   1      42.280  27.177  36.430  1.00  0.00    -0.203 F 
ATOM     92  F   UNL A   1      47.402  28.850  35.566  1.00  0.00    -0.200 F 
ATOM     93  C   UNL A   1      45.881  27.443  36.699  1.00  0.00     0.200 A 
ATOM     94  F   UNL A   1      44.324  26.046  37.795  1.00  0.00    -0.200 F 
ATOM     95  F   UNL A   1      46.891  26.859  37.358  1.00  0.00    -0.200 F 
ENDBRANCH  62  85
ENDBRANCH  36  37
ENDBRANCH  28  31
ENDBRANCH  26  27
ENDBRANCH  25  26
ENDBRANCH   1  25
TORSDOF 14
ENDMDL
MODEL 2
REMARK VINA RESULT:     -12.6      1.013      2.263
REMARK SMILES CN(Cc1ccccc1Br)C(=O)N[C@H]1C=C[C@H](C(=O)NCCCNC(=O)c2ccc(-c3c4nc(c(-c5c(F)c(F)c(F)c(F)c5F)c5ccc([nH]5)c(-c5c(F)c(F)c(F)c(F)c5F)c5nc(c(-c6c(F)c(F)c(F)c(F)c6F)c6ccc3[nH]6)C=C5)C=C4)cc2)C1
REMARK SMILES IDX 21 1 20 2 18 3 19 4 17 6 14 7 15 8 90 9 16 10 13 11 11 12
REMARK SMILES IDX 12 13 2 15 1 16 3 17 4 18 5 19 9 20 6 21 8 22 10 23 7 24
REMARK SMILES IDX 22 25 23 26 24 27 25 28 26 30 27 31 28 32 89 33 29 34 88 35
REMARK SMILES IDX 30 36 31 37 32 38 82 39 33 40 87 41 81 42 83 43 34 44 86 45
REMARK SMILES IDX 80 46 79 47 35 49 67 50 47 51 66 52 48 53 51 54 65 55 84 56
REMARK SMILES IDX 49 57 50 58 64 60 85 61 52 62 36 63 37 64 45 65 38 66 39 67
REMARK SMILES IDX 43 68 46 69 40 70 41 71 44 72 42 73 68 74 69 75 77 76 70 77
REMARK SMILES IDX 71 78 75 79 78 80 72 81 73 82 76 83 74 84 53 85 54 86 62 87
REMARK SMILES IDX 55 88 56 89 60 90 63 91 57 92 58 93 61 94 59 95
REMARK H PARENT 20 5 13 14 24 29 83 48 51 59
REMARK Flexibility Score: inf
ROOT
ATOM      1  C   UNL A   1      31.846  30.583  25.973  1.00  0.00     0.117 C 
ENDROOT
BRANCH   1   2
ATOM      2  N   UNL A   1      31.009  30.271  24.833  1.00  0.00    -0.356 N 
ATOM      3  C   UNL A   1      31.147  29.297  23.891  1.00  0.00     0.227 C 
ATOM      4  O   UNL A   1      30.099  28.941  23.336  1.00  0.00    -0.274 OA
ATOM      5  H   UNL A   1      30.220  30.851  24.721  1.00  0.00     0.163 HD
BRANCH   3   6
ATOM      6  C   UNL A   1      32.501  28.729  23.403  1.00  0.00     0.103 C 
ATOM      7  C   UNL A   1      32.615  26.282  23.352  1.00  0.00     0.107 C 
ATOM      8  C   UNL A   1      33.604  26.861  24.310  1.00  0.00    -0.006 C 
ATOM      9  C   UNL A   1      32.291  27.505  22.481  1.00  0.00     0.047 C 
ATOM     10  C   UNL A   1      33.531  28.197  24.345  1.00  0.00    -0.016 C 
BRANCH   7  11
ATOM     11  N   UNL A   1      33.231  25.199  22.625  1.00  0.00    -0.332 N 
ATOM     12  C   UNL A   1      33.510  23.903  22.845  1.00  0.00     0.317 C 
ATOM     13  O   UNL A   1      34.242  23.382  21.993  1.00  0.00    -0.249 OA
ATOM     14  H   UNL A   1      33.526  25.486  21.730  1.00  0.00     0.165 HD
BRANCH  12  15
ATOM     15  N   UNL A   1      33.057  23.179  23.914  1.00  0.00    -0.324 N 
ATOM     16  C   UNL A   1      31.818  22.439  23.689  1.00  0.00     0.149 C 
BRANCH  15  17
ATOM     17  C   UNL A   1      33.613  23.088  25.268  1.00  0.00     0.157 C 
BRANCH  17  18
ATOM     18  C   UNL A   1      35.112  22.857  25.292  1.00  0.00    -0.014 A 
ATOM     19  C   UNL A   1      35.990  23.953  25.403  1.00  0.00     0.007 A 
ATOM     20  C   UNL A   1      35.681  21.574  25.217  1.00  0.00     0.022 A 
ATOM     21  C   UNL A   1      37.360  23.771  25.596  1.00  0.00     0.000 A 
ATOM     22  C   UNL A   1      37.056  21.395  25.417  1.00  0.00     0.016 A 
ATOM     23  Br  UNL A   1      34.645  20.018  24.859  1.00  0.00    -0.050 Br
ATOM     24  C   UNL A   1      37.886  22.488  25.648  1.00  0.00     0.001 A 
ENDBRANCH  17  18
ENDBRANCH  15  17
ENDBRANCH  12  15
ENDBRANCH   7  11
ENDBRANCH   3   6
ENDBRANCH   1   2
BRANCH   1  25
ATOM     25  C   UNL A   1      31.497  31.892  26.668  1.00  0.00     0.042 C 
BRANCH  25  26
ATOM     26  C   UNL A   1      32.683  32.621  27.289  1.00  0.00     0.118 C 
BRANCH  26  27
ATOM     27  N   UNL A   1      32.410  34.011  27.647  1.00  0.00    -0.352 N 
ATOM     28  C   UNL A   1      32.989  34.869  28.561  1.00  0.00     0.251 C 
ATOM     29  H   UNL A   1      31.670  34.413  27.138  1.00  0.00     0.163 HD
ATOM     30  O   UNL A   1      32.487  35.970  28.741  1.00  0.00    -0.269 OA
BRANCH  28  31
ATOM     31  C   UNL A   1      34.173  34.470  29.364  1.00  0.00     0.039 A 
ATOM     32  C   UNL A   1      33.976  33.933  30.643  1.00  0.00     0.014 A 
ATOM     33  C   UNL A   1      35.471  34.626  28.889  1.00  0.00     0.014 A 
ATOM     34  C   UNL A   1      35.065  33.450  31.380  1.00  0.00     0.010 A 
ATOM     35  C   UNL A   1      36.535  34.031  29.560  1.00  0.00     0.010 A 
ATOM     36  C   UNL A   1      36.349  33.430  30.813  1.00  0.00    -0.014 A 
BRANCH  36  37
ATOM     37  C   UNL A   1      37.511  32.794  31.493  1.00  0.00     0.031 A 
ATOM     38  C   UNL A   1      38.224  31.633  30.852  1.00  0.00     0.074 A 
ATOM     39  C   UNL A   1      37.858  33.183  32.737  1.00  0.00     0.049 A 
ATOM     40  N   UNL A   1      39.155  30.852  31.343  1.00  0.00    -0.248 NA
ATOM     41  C   UNL A   1      37.798  31.271  29.492  1.00  0.00     0.031 C 
ATOM     42  C   UNL A   1      37.218  34.257  33.500  1.00  0.00     0.029 A 
ATOM     43  N   UNL A   1      38.829  32.710  33.586  1.00  0.00    -0.354 N 
ATOM     44  C   UNL A   1      39.390  29.888  30.370  1.00  0.00     0.074 A 
ATOM     45  C   UNL A   1      38.460  30.142  29.292  1.00  0.00     0.031 C 
ATOM     46  C   UNL A   1      37.840  34.389  34.682  1.00  0.00     0.029 A 
ATOM     47  C   UNL A   1      38.889  33.381  34.785  1.00  0.00     0.049 A 
ATOM     48  H   UNL A   1      39.425  31.961  33.357  1.00  0.00     0.167 HD
ATOM     49  C   UNL A   1      40.316  28.898  30.360  1.00  0.00     0.037 A 
ATOM     50  C   UNL A   1      39.697  33.200  35.847  1.00  0.00     0.037 A 
ATOM     51  C   UNL A   1      41.273  28.678  31.412  1.00  0.00     0.049 A 
ATOM     52  C   UNL A   1      40.723  32.100  35.812  1.00  0.00     0.074 A 
ATOM     53  C   UNL A   1      42.306  27.759  31.463  1.00  0.00     0.029 A 
ATOM     54  N   UNL A   1      41.314  29.392  32.601  1.00  0.00    -0.354 N 
ATOM     55  N   UNL A   1      40.981  31.238  34.860  1.00  0.00    -0.248 NA
ATOM     56  C   UNL A   1      41.568  31.950  37.005  1.00  0.00     0.031 C 
ATOM     57  C   UNL A   1      42.944  27.887  32.703  1.00  0.00     0.029 A 
ATOM     58  C   UNL A   1      42.340  28.920  33.404  1.00  0.00     0.049 A 
ATOM     59  H   UNL A   1      40.703  30.126  32.840  1.00  0.00     0.167 HD
ATOM     60  C   UNL A   1      42.039  30.466  35.321  1.00  0.00     0.074 A 
ATOM     61  C   UNL A   1      42.379  30.969  36.637  1.00  0.00     0.031 C 
ATOM     62  C   UNL A   1      42.672  29.436  34.708  1.00  0.00     0.037 A 
BRANCH  49  63
ATOM     63  C   UNL A   1      40.331  27.982  29.167  1.00  0.00     0.064 A 
ATOM     64  C   UNL A   1      41.071  28.283  28.012  1.00  0.00     0.173 A 
ATOM     65  C   UNL A   1      39.585  26.793  29.171  1.00  0.00     0.173 A 
ATOM     66  F   UNL A   1      41.795  29.412  27.949  1.00  0.00    -0.203 F 
ATOM     67  C   UNL A   1      41.018  27.461  26.889  1.00  0.00     0.198 A 
ATOM     68  C   UNL A   1      39.566  25.954  28.061  1.00  0.00     0.198 A 
ATOM     69  F   UNL A   1      38.867  26.448  30.251  1.00  0.00    -0.203 F 
ATOM     70  F   UNL A   1      41.669  27.814  25.772  1.00  0.00    -0.200 F 
ATOM     71  C   UNL A   1      40.269  26.296  26.915  1.00  0.00     0.200 A 
ATOM     72  F   UNL A   1      38.852  24.819  28.092  1.00  0.00    -0.200 F 
ATOM     73  F   UNL A   1      40.213  25.509  25.832  1.00  0.00    -0.200 F 
ENDBRANCH  49  63
BRANCH  50  74
ATOM     74  C   UNL A   1      39.610  34.124  37.007  1.00  0.00     0.064 A 
ATOM     75  C   UNL A   1      38.850  33.774  38.134  1.00  0.00     0.173 A 
ATOM     76  C   UNL A   1      40.284  35.352  37.031  1.00  0.00     0.173 A 
ATOM     77  F   UNL A   1      38.172  32.618  38.149  1.00  0.00    -0.203 F 
ATOM     78  C   UNL A   1      38.761  34.623  39.234  1.00  0.00     0.198 A 
ATOM     79  C   UNL A   1      40.214  36.189  38.143  1.00  0.00     0.198 A 
ATOM     80  F   UNL A   1      41.028  35.731  35.982  1.00  0.00    -0.203 F 
ATOM     81  F   UNL A   1      38.001  34.277  40.284  1.00  0.00    -0.200 F 
ATOM     82  C   UNL A   1      39.449  35.826  39.242  1.00  0.00     0.200 A 
ATOM     83  F   UNL A   1      40.892  37.345  38.153  1.00  0.00    -0.200 F 
ATOM     84  F   UNL A   1      39.371  36.638  40.306  1.00  0.00    -0.200 F 
ENDBRANCH  50  74
BRANCH  62  85
ATOM     85  C   UNL A   1      43.826  28.809  35.434  1.00  0.00     0.064 A 
ATOM     86  C   UNL A   1      43.642  27.757  36.344  1.00  0.00     0.173 A 
ATOM     87  C   UNL A   1      45.138  29.240  35.186  1.00  0.00     0.173 A 
ATOM     88  F   UNL A   1      42.405  27.320  36.629  1.00  0.00    -0.203 F 
ATOM     89  C   UNL A   1      44.727  27.178  36.996  1.00  0.00     0.198 A 
ATOM     90  C   UNL A   1      46.223  28.638  35.816  1.00  0.00     0.198 A 
ATOM     91  F   UNL A   1      45.369  30.239  34.320  1.00  0.00    -0.203 F 
ATOM     92  F   UNL A   1      44.524  26.206  37.897  1.00  0.00    -0.200 F 
ATOM     93  C   UNL A   1      46.016  27.612  36.726  1.00  0.00     0.200 A 
ATOM     94  F   UNL A   1      47.469  29.050  35.543  1.00  0.00    -0.200 F 
ATOM     95  F   UNL A   1      47.060  27.047  37.349  1.00  0.00    -0.200 F 
ENDBRANCH  62  85
ENDBRANCH  36  37
ENDBRANCH  28  31
ENDBRANCH  26  27
ENDBRANCH  25  26
ENDBRANCH   1  25
TORSDOF 14
ENDMDL
MODEL 3
REMARK VINA RESULT:     -12.5      5.730     11.205
REMARK SMILES CN(Cc1ccccc1Br)C(=O)N[C@H]1C=C[C@H](C(=O)NCCCNC(=O)c2ccc(-c3c4nc(c(-c5c(F)c(F)c(F)c(F)c5F)c5ccc([nH]5)c(-c5c(F)c(F)c(F)c(F)c5F)c5nc(c(-c6c(F)c(F)c(F)c(F)c6F)c6ccc3[nH]6)C=C5)C=C4)cc2)C1
REMARK SMILES IDX 21 1 20 2 18 3 19 4 17 6 14 7 15 8 90 9 16 10 13 11 11 12
REMARK SMILES IDX 12 13 2 15 1 16 3 17 4 18 5 19 9 20 6 21 8 22 10 23 7 24
REMARK SMILES IDX 22 25 23 26 24 27 25 28 26 30 27 31 28 32 89 33 29 34 88 35
REMARK SMILES IDX 30 36 31 37 32 38 82 39 33 40 87 41 81 42 83 43 34 44 86 45
REMARK SMILES IDX 80 46 79 47 35 49 67 50 47 51 66 52 48 53 51 54 65 55 84 56
REMARK SMILES IDX 49 57 50 58 64 60 85 61 52 62 36 63 37 64 45 65 38 66 39 67
REMARK SMILES IDX 43 68 46 69 40 70 41 71 44 72 42 73 68 74 69 75 77 76 70 77
REMARK SMILES IDX 71 78 75 79 78 80 72 81 73 82 76 83 74 84 53 85 54 86 62 87
REMARK SMILES IDX 55 88 56 89 60 90 63 91 57 92 58 93 61 94 59 95
REMARK H PARENT 20 5 13 14 24 29 83 48 51 59
REMARK Flexibility Score: inf
ROOT
ATOM      1  C   UNL A   1      36.678  21.064  24.887  1.00  0.00     0.117 C 
ENDROOT
BRANCH   1   2
ATOM      2  N   UNL A   1      36.103  21.340  26.187  1.00  0.00    -0.356 N 
ATOM      3  C   UNL A   1      34.845  21.745  26.515  1.00  0.00     0.227 C 
ATOM      4  O   UNL A   1      34.473  21.452  27.659  1.00  0.00    -0.274 OA
ATOM      5  H   UNL A   1      36.714  21.215  26.949  1.00  0.00     0.163 HD
BRANCH   3   6
ATOM      6  C   UNL A   1      33.943  22.630  25.623  1.00  0.00     0.103 C 
ATOM      7  C   UNL A   1      31.740  23.119  26.576  1.00  0.00     0.107 C 
ATOM      8  C   UNL A   1      31.631  22.341  25.306  1.00  0.00    -0.006 C 
ATOM      9  C   UNL A   1      33.171  23.669  26.468  1.00  0.00     0.047 C 
ATOM     10  C   UNL A   1      32.836  22.064  24.794  1.00  0.00    -0.016 C 
BRANCH   7  11
ATOM     11  N   UNL A   1      30.725  24.145  26.597  1.00  0.00    -0.332 N 
ATOM     12  C   UNL A   1      30.419  25.237  25.875  1.00  0.00     0.317 C 
ATOM     13  O   UNL A   1      29.546  25.957  26.377  1.00  0.00    -0.249 OA
ATOM     14  H   UNL A   1      30.088  24.009  27.335  1.00  0.00     0.165 HD
BRANCH  12  15
ATOM     15  N   UNL A   1      31.005  25.574  24.686  1.00  0.00    -0.324 N 
ATOM     16  C   UNL A   1      30.331  25.072  23.492  1.00  0.00     0.149 C 
BRANCH  15  17
ATOM     17  C   UNL A   1      32.243  26.322  24.447  1.00  0.00     0.157 C 
BRANCH  17  18
ATOM     18  C   UNL A   1      32.405  27.529  25.353  1.00  0.00    -0.014 A 
ATOM     19  C   UNL A   1      33.232  27.447  26.490  1.00  0.00     0.007 A 
ATOM     20  C   UNL A   1      31.765  28.754  25.102  1.00  0.00     0.022 A 
ATOM     21  C   UNL A   1      33.537  28.576  27.251  1.00  0.00     0.000 A 
ATOM     22  C   UNL A   1      32.078  29.887  25.863  1.00  0.00     0.016 A 
ATOM     23  Br  UNL A   1      30.461  28.962  23.730  1.00  0.00    -0.050 Br
ATOM     24  C   UNL A   1      32.994  29.807  26.909  1.00  0.00     0.001 A 
ENDBRANCH  17  18
ENDBRANCH  15  17
ENDBRANCH  12  15
ENDBRANCH   7  11
ENDBRANCH   3   6
ENDBRANCH   1   2
BRANCH   1  25
ATOM     25  C   UNL A   1      37.797  20.032  24.901  1.00  0.00     0.042 C 
BRANCH  25  26
ATOM     26  C   UNL A   1      39.005  20.412  25.750  1.00  0.00     0.118 C 
BRANCH  26  27
ATOM     27  N   UNL A   1      40.008  19.356  25.869  1.00  0.00    -0.352 N 
ATOM     28  C   UNL A   1      41.365  19.384  26.122  1.00  0.00     0.251 C 
ATOM     29  H   UNL A   1      39.646  18.450  25.745  1.00  0.00     0.163 HD
ATOM     30  O   UNL A   1      42.002  18.342  26.058  1.00  0.00    -0.269 OA
BRANCH  28  31
ATOM     31  C   UNL A   1      42.077  20.654  26.418  1.00  0.00     0.039 A 
ATOM     32  C   UNL A   1      42.576  21.417  25.353  1.00  0.00     0.014 A 
ATOM     33  C   UNL A   1      42.277  21.099  27.720  1.00  0.00     0.014 A 
ATOM     34  C   UNL A   1      43.156  22.668  25.595  1.00  0.00     0.010 A 
ATOM     35  C   UNL A   1      42.732  22.394  27.952  1.00  0.00     0.010 A 
ATOM     36  C   UNL A   1      43.175  23.200  26.894  1.00  0.00    -0.014 A 
BRANCH  36  37
ATOM     37  C   UNL A   1      43.646  24.583  27.183  1.00  0.00     0.031 A 
ATOM     38  C   UNL A   1      42.683  25.620  27.697  1.00  0.00     0.074 A 
ATOM     39  C   UNL A   1      44.909  24.941  26.877  1.00  0.00     0.049 A 
ATOM     40  N   UNL A   1      42.857  26.908  27.869  1.00  0.00    -0.248 NA
ATOM     41  C   UNL A   1      41.325  25.155  28.017  1.00  0.00     0.031 C 
ATOM     42  C   UNL A   1      45.932  24.054  26.320  1.00  0.00     0.029 A 
ATOM     43  N   UNL A   1      45.547  26.154  26.980  1.00  0.00    -0.354 N 
ATOM     44  C   UNL A   1      41.624  27.405  28.273  1.00  0.00     0.074 A 
ATOM     45  C   UNL A   1      40.697  26.295  28.256  1.00  0.00     0.031 C 
ATOM     46  C   UNL A   1      47.077  24.739  26.173  1.00  0.00     0.029 A 
ATOM     47  C   UNL A   1      46.860  26.124  26.576  1.00  0.00     0.049 A 
ATOM     48  H   UNL A   1      45.104  26.968  27.312  1.00  0.00     0.167 HD
ATOM     49  C   UNL A   1      41.298  28.664  28.653  1.00  0.00     0.037 A 
ATOM     50  C   UNL A   1      47.784  27.103  26.534  1.00  0.00     0.037 A 
ATOM     51  C   UNL A   1      42.234  29.756  28.714  1.00  0.00     0.049 A 
ATOM     52  C   UNL A   1      47.402  28.492  26.966  1.00  0.00     0.074 A 
ATOM     53  C   UNL A   1      42.027  31.048  29.164  1.00  0.00     0.029 A 
ATOM     54  N   UNL A   1      43.560  29.679  28.316  1.00  0.00    -0.354 N 
ATOM     55  N   UNL A   1      46.252  28.936  27.409  1.00  0.00    -0.248 NA
ATOM     56  C   UNL A   1      48.453  29.518  26.888  1.00  0.00     0.031 C 
ATOM     57  C   UNL A   1      43.217  31.765  28.995  1.00  0.00     0.029 A 
ATOM     58  C   UNL A   1      44.180  30.907  28.487  1.00  0.00     0.049 A 
ATOM     59  H   UNL A   1      43.998  28.871  27.962  1.00  0.00     0.167 HD
ATOM     60  C   UNL A   1      46.447  30.280  27.696  1.00  0.00     0.074 A 
ATOM     61  C   UNL A   1      47.830  30.577  27.383  1.00  0.00     0.031 C 
ATOM     62  C   UNL A   1      45.559  31.185  28.178  1.00  0.00     0.037 A 
BRANCH  49  63
ATOM     63  C   UNL A   1      39.864  28.920  29.028  1.00  0.00     0.064 A 
ATOM     64  C   UNL A   1      39.400  28.742  30.342  1.00  0.00     0.173 A 
ATOM     65  C   UNL A   1      38.936  29.337  28.061  1.00  0.00     0.173 A 
ATOM     66  F   UNL A   1      40.242  28.336  31.306  1.00  0.00    -0.203 F 
ATOM     67  C   UNL A   1      38.055  28.914  30.660  1.00  0.00     0.198 A 
ATOM     68  C   UNL A   1      37.600  29.545  28.391  1.00  0.00     0.198 A 
ATOM     69  F   UNL A   1      39.323  29.533  26.792  1.00  0.00    -0.203 F 
ATOM     70  F   UNL A   1      37.625  28.658  31.903  1.00  0.00    -0.200 F 
ATOM     71  C   UNL A   1      37.157  29.318  29.686  1.00  0.00     0.200 A 
ATOM     72  F   UNL A   1      36.733  29.951  27.451  1.00  0.00    -0.200 F 
ATOM     73  F   UNL A   1      35.862  29.476  29.991  1.00  0.00    -0.200 F 
ENDBRANCH  49  63
BRANCH  50  74
ATOM     74  C   UNL A   1      49.176  26.788  26.123  1.00  0.00     0.064 A 
ATOM     75  C   UNL A   1      50.100  26.308  27.063  1.00  0.00     0.173 A 
ATOM     76  C   UNL A   1      49.611  26.938  24.799  1.00  0.00     0.173 A 
ATOM     77  F   UNL A   1      49.736  26.167  28.345  1.00  0.00    -0.203 F 
ATOM     78  C   UNL A   1      51.408  26.000  26.696  1.00  0.00     0.198 A 
ATOM     79  C   UNL A   1      50.913  26.606  24.428  1.00  0.00     0.198 A 
ATOM     80  F   UNL A   1      48.765  27.388  23.861  1.00  0.00    -0.203 F 
ATOM     81  F   UNL A   1      52.279  25.575  27.622  1.00  0.00    -0.200 F 
ATOM     82  C   UNL A   1      51.812  26.142  25.377  1.00  0.00     0.200 A 
ATOM     83  F   UNL A   1      51.296  26.730  23.149  1.00  0.00    -0.200 F 
ATOM     84  F   UNL A   1      53.067  25.835  25.022  1.00  0.00    -0.200 F 
ENDBRANCH  50  74
BRANCH  62  85
ATOM     85  C   UNL A   1      46.067  32.574  28.438  1.00  0.00     0.064 A 
ATOM     86  C   UNL A   1      46.547  32.961  29.698  1.00  0.00     0.173 A 
ATOM     87  C   UNL A   1      46.110  33.518  27.401  1.00  0.00     0.173 A 
ATOM     88  F   UNL A   1      46.510  32.100  30.727  1.00  0.00    -0.203 F 
ATOM     89  C   UNL A   1      47.028  34.249  29.915  1.00  0.00     0.198 A 
ATOM     90  C   UNL A   1      46.621  34.795  27.613  1.00  0.00     0.198 A 
ATOM     91  F   UNL A   1      45.668  33.196  26.175  1.00  0.00    -0.203 F 
ATOM     92  F   UNL A   1      47.437  34.612  31.139  1.00  0.00    -0.200 F 
ATOM     93  C   UNL A   1      47.073  35.162  28.872  1.00  0.00     0.200 A 
ATOM     94  F   UNL A   1      46.675  35.671  26.601  1.00  0.00    -0.200 F 
ATOM     95  F   UNL A   1      47.545  36.399  29.082  1.00  0.00    -0.200 F 
ENDBRANCH  62  85
ENDBRANCH  36  37
ENDBRANCH  28  31
ENDBRANCH  26  27
ENDBRANCH  25  26
ENDBRANCH   1  25
TORSDOF 14
ENDMDL
