MODEL 1
REMARK VINA RESULT:     -10.8      0.000      0.000
REMARK SMILES CC(C)[C@@H](CO)NC(=O)CC(C)(C)CC(=O)NCCCNC(=O)c1ccc(-c2c3nc(c(-c4c(F)c(F)c(F)c(F)c4F)c4ccc([nH]4)c(-c4c(F)c(F)c(F)c(F)c4F)c4nc(c(-c5c(F)c(F)c(F)c(F)c5F)c5ccc2[nH]5)C=C4)C=C3)cc1
REMARK SMILES IDX 15 1 16 2 17 3 14 5 11 6 12 7 13 8 10 9 8 10 7 11 9 13 4 14
REMARK SMILES IDX 2 15 1 16 3 17 5 18 6 19 18 21 19 22 20 23 21 24 22 25 23 27
REMARK SMILES IDX 24 28 25 29 86 30 26 31 85 32 27 33 28 34 29 35 79 36 30 37
REMARK SMILES IDX 84 38 78 39 80 40 31 41 83 42 77 43 76 44 32 46 64 47 44 48
REMARK SMILES IDX 63 49 45 50 48 51 62 52 81 53 46 54 47 55 61 57 82 58 49 59
REMARK SMILES IDX 33 60 34 61 42 62 35 63 36 64 40 65 43 66 37 67 38 68 41 69
REMARK SMILES IDX 39 70 65 71 66 72 74 73 67 74 68 75 72 76 75 77 69 78 70 79
REMARK SMILES IDX 73 80 71 81 50 82 51 83 59 84 52 85 53 86 57 87 60 88 54 89
REMARK SMILES IDX 55 90 58 91 56 92
REMARK H PARENT 17 4 7 12 6 20 21 26 80 45 48 56
REMARK Flexibility Score: inf
ROOT
ATOM      1  C   UNL A   1      37.289  23.033  25.389  1.00  0.00     0.220 C 
ATOM      2  O   UNL A   1      37.761  23.908  26.111  1.00  0.00    -0.275 OA
ATOM      3  N   UNL A   1      37.553  21.736  25.709  1.00  0.00    -0.356 N 
ATOM      4  H   UNL A   1      38.007  21.617  26.574  1.00  0.00     0.163 HD
ENDROOT
BRANCH   1   5
ATOM      5  C   UNL A   1      36.426  23.362  24.189  1.00  0.00     0.107 C 
BRANCH   5   6
ATOM      6  C   UNL A   1      34.928  23.639  24.467  1.00  0.00    -0.018 C 
ATOM      7  C   UNL A   1      34.261  23.887  23.103  1.00  0.00     0.012 C 
ATOM      8  C   UNL A   1      34.694  24.941  25.254  1.00  0.00     0.012 C 
BRANCH   6   9
ATOM      9  C   UNL A   1      34.236  22.514  25.285  1.00  0.00     0.107 C 
BRANCH   9  10
ATOM     10  C   UNL A   1      32.973  21.855  24.751  1.00  0.00     0.220 C 
ATOM     11  N   UNL A   1      31.745  22.301  25.123  1.00  0.00    -0.351 N 
ATOM     12  H   UNL A   1      30.995  21.727  24.845  1.00  0.00     0.163 HD
ATOM     13  O   UNL A   1      33.028  20.871  24.012  1.00  0.00    -0.275 OA
BRANCH  11  14
ATOM     14  C   UNL A   1      31.356  23.492  25.867  1.00  0.00     0.110 C 
BRANCH  14  15
ATOM     15  C   UNL A   1      31.034  24.671  24.901  1.00  0.00     0.007 C 
ATOM     16  C   UNL A   1      30.569  24.128  23.543  1.00  0.00     0.009 C 
ATOM     17  C   UNL A   1      29.982  25.666  25.421  1.00  0.00     0.009 C 
ENDBRANCH  14  15
BRANCH  14  18
ATOM     18  C   UNL A   1      30.202  23.169  26.842  1.00  0.00     0.181 C 
BRANCH  18  19
ATOM     19  O   UNL A   1      29.536  21.958  26.502  1.00  0.00    -0.394 OA
ATOM     20  H   UNL A   1      28.637  22.159  26.196  1.00  0.00     0.210 HD
ENDBRANCH  18  19
ENDBRANCH  14  18
ENDBRANCH  11  14
ENDBRANCH   9  10
ENDBRANCH   6   9
ENDBRANCH   5   6
ENDBRANCH   1   5
BRANCH   3  21
ATOM     21  C   UNL A   1      37.284  20.494  25.000  1.00  0.00     0.117 C 
BRANCH  21  22
ATOM     22  C   UNL A   1      38.453  19.516  25.096  1.00  0.00     0.042 C 
BRANCH  22  23
ATOM     23  C   UNL A   1      39.525  19.930  26.094  1.00  0.00     0.118 C 
BRANCH  23  24
ATOM     24  N   UNL A   1      40.618  18.978  26.129  1.00  0.00    -0.352 N 
ATOM     25  C   UNL A   1      41.972  19.201  26.096  1.00  0.00     0.251 C 
ATOM     26  H   UNL A   1      40.349  18.033  26.187  1.00  0.00     0.163 HD
ATOM     27  O   UNL A   1      42.729  18.263  25.866  1.00  0.00    -0.269 OA
BRANCH  25  28
ATOM     28  C   UNL A   1      42.535  20.556  26.320  1.00  0.00     0.039 A 
ATOM     29  C   UNL A   1      42.576  21.054  27.626  1.00  0.00     0.014 A 
ATOM     30  C   UNL A   1      42.940  21.371  25.260  1.00  0.00     0.014 A 
ATOM     31  C   UNL A   1      43.041  22.351  27.868  1.00  0.00     0.010 A 
ATOM     32  C   UNL A   1      43.487  22.630  25.509  1.00  0.00     0.010 A 
ATOM     33  C   UNL A   1      43.512  23.147  26.813  1.00  0.00    -0.014 A 
BRANCH  33  34
ATOM     34  C   UNL A   1      43.951  24.550  27.040  1.00  0.00     0.031 A 
ATOM     35  C   UNL A   1      42.967  25.564  27.566  1.00  0.00     0.074 A 
ATOM     36  C   UNL A   1      45.212  24.924  26.754  1.00  0.00     0.049 A 
ATOM     37  N   UNL A   1      43.126  26.848  27.769  1.00  0.00    -0.248 NA
ATOM     38  C   UNL A   1      41.617  25.072  27.885  1.00  0.00     0.031 C 
ATOM     39  C   UNL A   1      46.255  24.049  26.216  1.00  0.00     0.029 A 
ATOM     40  N   UNL A   1      45.831  26.143  26.876  1.00  0.00    -0.354 N 
ATOM     41  C   UNL A   1      41.897  27.315  28.217  1.00  0.00     0.074 A 
ATOM     42  C   UNL A   1      40.986  26.192  28.206  1.00  0.00     0.031 C 
ATOM     43  C   UNL A   1      47.390  24.753  26.080  1.00  0.00     0.029 A 
ATOM     44  C   UNL A   1      47.149  26.134  26.487  1.00  0.00     0.049 A 
ATOM     45  H   UNL A   1      45.374  26.949  27.209  1.00  0.00     0.167 HD
ATOM     46  C   UNL A   1      41.561  28.560  28.630  1.00  0.00     0.037 A 
ATOM     47  C   UNL A   1      48.056  27.129  26.463  1.00  0.00     0.037 A 
ATOM     48  C   UNL A   1      42.472  29.672  28.681  1.00  0.00     0.049 A 
ATOM     49  C   UNL A   1      47.656  28.504  26.924  1.00  0.00     0.074 A 
ATOM     50  C   UNL A   1      42.236  30.965  29.113  1.00  0.00     0.029 A 
ATOM     51  N   UNL A   1      43.803  29.614  28.295  1.00  0.00    -0.354 N 
ATOM     52  N   UNL A   1      46.501  28.923  27.379  1.00  0.00    -0.248 NA
ATOM     53  C   UNL A   1      48.693  29.546  26.874  1.00  0.00     0.031 C 
ATOM     54  C   UNL A   1      43.419  31.698  28.967  1.00  0.00     0.029 A 
ATOM     55  C   UNL A   1      44.400  30.852  28.476  1.00  0.00     0.049 A 
ATOM     56  H   UNL A   1      44.256  28.814  27.944  1.00  0.00     0.167 HD
ATOM     57  C   UNL A   1      46.678  30.263  27.696  1.00  0.00     0.074 A 
ATOM     58  C   UNL A   1      48.057  30.586  27.394  1.00  0.00     0.031 C 
ATOM     59  C   UNL A   1      45.778  31.148  28.191  1.00  0.00     0.037 A 
BRANCH  46  60
ATOM     60  C   UNL A   1      40.146  28.783  29.079  1.00  0.00     0.064 A 
ATOM     61  C   UNL A   1      39.139  29.138  28.167  1.00  0.00     0.173 A 
ATOM     62  C   UNL A   1      39.785  28.606  30.422  1.00  0.00     0.173 A 
ATOM     63  F   UNL A   1      39.437  29.332  26.874  1.00  0.00    -0.203 F 
ATOM     64  C   UNL A   1      37.828  29.333  28.591  1.00  0.00     0.198 A 
ATOM     65  C   UNL A   1      38.466  28.776  30.837  1.00  0.00     0.198 A 
ATOM     66  F   UNL A   1      40.708  28.262  31.332  1.00  0.00    -0.203 F 
ATOM     67  F   UNL A   1      36.891  29.716  27.711  1.00  0.00    -0.200 F 
ATOM     68  C   UNL A   1      37.491  29.146  29.923  1.00  0.00     0.200 A 
ATOM     69  F   UNL A   1      38.140  28.584  32.122  1.00  0.00    -0.200 F 
ATOM     70  F   UNL A   1      36.225  29.327  30.327  1.00  0.00    -0.200 F 
ENDBRANCH  46  60
BRANCH  47  71
ATOM     71  C   UNL A   1      49.446  26.859  26.013  1.00  0.00     0.064 A 
ATOM     72  C   UNL A   1      49.829  27.101  24.686  1.00  0.00     0.173 A 
ATOM     73  C   UNL A   1      50.410  26.334  26.886  1.00  0.00     0.173 A 
ATOM     74  F   UNL A   1      48.935  27.579  23.808  1.00  0.00    -0.203 F 
ATOM     75  C   UNL A   1      51.117  26.808  24.244  1.00  0.00     0.198 A 
ATOM     76  C   UNL A   1      51.706  26.067  26.449  1.00  0.00     0.198 A 
ATOM     77  F   UNL A   1      50.094  26.088  28.165  1.00  0.00    -0.203 F 
ATOM     78  F   UNL A   1      51.443  27.004  22.959  1.00  0.00    -0.200 F 
ATOM     79  C   UNL A   1      52.056  26.295  25.127  1.00  0.00     0.200 A 
ATOM     80  F   UNL A   1      52.613  25.582  27.307  1.00  0.00    -0.200 F 
ATOM     81  F   UNL A   1      53.295  26.013  24.701  1.00  0.00    -0.200 F 
ENDBRANCH  47  71
BRANCH  59  82
ATOM     82  C   UNL A   1      46.268  32.535  28.478  1.00  0.00     0.064 A 
ATOM     83  C   UNL A   1      46.184  33.557  27.520  1.00  0.00     0.173 A 
ATOM     84  C   UNL A   1      46.789  32.855  29.741  1.00  0.00     0.173 A 
ATOM     85  F   UNL A   1      45.706  33.294  26.295  1.00  0.00    -0.203 F 
ATOM     86  C   UNL A   1      46.625  34.844  27.810  1.00  0.00     0.198 A 
ATOM     87  C   UNL A   1      47.207  34.149  30.034  1.00  0.00     0.198 A 
ATOM     88  F   UNL A   1      46.885  31.913  30.691  1.00  0.00    -0.203 F 
ATOM     89  F   UNL A   1      46.575  35.795  26.868  1.00  0.00    -0.200 F 
ATOM     90  C   UNL A   1      47.130  35.141  29.068  1.00  0.00     0.200 A 
ATOM     91  F   UNL A   1      47.686  34.438  31.252  1.00  0.00    -0.200 F 
ATOM     92  F   UNL A   1      47.552  36.383  29.346  1.00  0.00    -0.200 F 
ENDBRANCH  59  82
ENDBRANCH  33  34
ENDBRANCH  25  28
ENDBRANCH  23  24
ENDBRANCH  22  23
ENDBRANCH  21  22
ENDBRANCH   3  21
TORSDOF 17
ENDMDL
MODEL 2
REMARK VINA RESULT:     -10.8      4.295     10.867
REMARK SMILES CC(C)[C@@H](CO)NC(=O)CC(C)(C)CC(=O)NCCCNC(=O)c1ccc(-c2c3nc(c(-c4c(F)c(F)c(F)c(F)c4F)c4ccc([nH]4)c(-c4c(F)c(F)c(F)c(F)c4F)c4nc(c(-c5c(F)c(F)c(F)c(F)c5F)c5ccc2[nH]5)C=C4)C=C3)cc1
REMARK SMILES IDX 15 1 16 2 17 3 14 5 11 6 12 7 13 8 10 9 8 10 7 11 9 13 4 14
REMARK SMILES IDX 2 15 1 16 3 17 5 18 6 19 18 21 19 22 20 23 21 24 22 25 23 27
REMARK SMILES IDX 24 28 25 29 86 30 26 31 85 32 27 33 28 34 29 35 79 36 30 37
REMARK SMILES IDX 84 38 78 39 80 40 31 41 83 42 77 43 76 44 32 46 64 47 44 48
REMARK SMILES IDX 63 49 45 50 48 51 62 52 81 53 46 54 47 55 61 57 82 58 49 59
REMARK SMILES IDX 33 60 34 61 42 62 35 63 36 64 40 65 43 66 37 67 38 68 41 69
REMARK SMILES IDX 39 70 65 71 66 72 74 73 67 74 68 75 72 76 75 77 69 78 70 79
REMARK SMILES IDX 73 80 71 81 50 82 51 83 59 84 52 85 53 86 57 87 60 88 54 89
REMARK SMILES IDX 55 90 58 91 56 92
REMARK H PARENT 17 4 7 12 6 20 21 26 80 45 48 56
REMARK Flexibility Score: inf
ROOT
ATOM      1  C   UNL A   1      43.535  22.574  24.510  1.00  0.00     0.220 C 
ATOM      2  O   UNL A   1      44.031  22.468  23.391  1.00  0.00    -0.275 OA
ATOM      3  N   UNL A   1      43.497  21.462  25.294  1.00  0.00    -0.356 N 
ATOM      4  H   UNL A   1      43.988  20.691  24.928  1.00  0.00     0.163 HD
ENDROOT
BRANCH   1   5
ATOM      5  C   UNL A   1      42.993  23.890  25.026  1.00  0.00     0.107 C 
BRANCH   5   6
ATOM      6  C   UNL A   1      44.008  24.834  25.720  1.00  0.00    -0.018 C 
ATOM      7  C   UNL A   1      43.679  24.812  27.223  1.00  0.00     0.012 C 
ATOM      8  C   UNL A   1      43.837  26.307  25.308  1.00  0.00     0.012 C 
BRANCH   6   9
ATOM      9  C   UNL A   1      45.488  24.473  25.416  1.00  0.00     0.107 C 
BRANCH   9  10
ATOM     10  C   UNL A   1      46.298  23.677  26.429  1.00  0.00     0.220 C 
ATOM     11  N   UNL A   1      47.395  24.217  27.021  1.00  0.00    -0.351 N 
ATOM     12  H   UNL A   1      47.934  23.583  27.548  1.00  0.00     0.163 HD
ATOM     13  O   UNL A   1      46.013  22.510  26.700  1.00  0.00    -0.275 OA
BRANCH  11  14
ATOM     14  C   UNL A   1      47.905  25.582  27.004  1.00  0.00     0.110 C 
BRANCH  14  15
ATOM     15  C   UNL A   1      47.399  26.380  28.243  1.00  0.00     0.007 C 
ATOM     16  C   UNL A   1      46.416  27.472  27.802  1.00  0.00     0.009 C 
ATOM     17  C   UNL A   1      46.731  25.526  29.334  1.00  0.00     0.009 C 
ENDBRANCH  14  15
BRANCH  14  18
ATOM     18  C   UNL A   1      49.444  25.583  26.863  1.00  0.00     0.181 C 
BRANCH  18  19
ATOM     19  O   UNL A   1      50.041  24.454  27.490  1.00  0.00    -0.394 OA
ATOM     20  H   UNL A   1      49.348  23.836  27.772  1.00  0.00     0.210 HD
ENDBRANCH  18  19
ENDBRANCH  14  18
ENDBRANCH  11  14
ENDBRANCH   9  10
ENDBRANCH   6   9
ENDBRANCH   5   6
ENDBRANCH   1   5
BRANCH   3  21
ATOM     21  C   UNL A   1      42.857  21.208  26.577  1.00  0.00     0.117 C 
BRANCH  21  22
ATOM     22  C   UNL A   1      41.368  20.908  26.425  1.00  0.00     0.042 C 
BRANCH  22  23
ATOM     23  C   UNL A   1      40.460  21.935  27.086  1.00  0.00     0.118 C 
BRANCH  23  24
ATOM     24  N   UNL A   1      39.471  22.449  26.159  1.00  0.00    -0.352 N 
ATOM     25  C   UNL A   1      38.829  23.662  26.149  1.00  0.00     0.251 C 
ATOM     26  H   UNL A   1      39.223  21.837  25.428  1.00  0.00     0.163 HD
ATOM     27  O   UNL A   1      37.834  23.810  25.445  1.00  0.00    -0.269 OA
BRANCH  25  28
ATOM     28  C   UNL A   1      39.308  24.792  26.983  1.00  0.00     0.039 A 
ATOM     29  C   UNL A   1      38.900  24.857  28.319  1.00  0.00     0.014 A 
ATOM     30  C   UNL A   1      40.078  25.829  26.448  1.00  0.00     0.014 A 
ATOM     31  C   UNL A   1      39.280  25.941  29.117  1.00  0.00     0.010 A 
ATOM     32  C   UNL A   1      40.532  26.863  27.267  1.00  0.00     0.010 A 
ATOM     33  C   UNL A   1      40.110  26.948  28.601  1.00  0.00    -0.014 A 
BRANCH  33  34
ATOM     34  C   UNL A   1      40.473  28.140  29.414  1.00  0.00     0.031 A 
ATOM     35  C   UNL A   1      41.856  28.248  30.006  1.00  0.00     0.074 A 
ATOM     36  C   UNL A   1      39.568  29.109  29.644  1.00  0.00     0.049 A 
ATOM     37  N   UNL A   1      42.352  29.166  30.798  1.00  0.00    -0.248 NA
ATOM     38  C   UNL A   1      42.799  27.164  29.684  1.00  0.00     0.031 C 
ATOM     39  C   UNL A   1      38.190  29.116  29.151  1.00  0.00     0.029 A 
ATOM     40  N   UNL A   1      39.673  30.279  30.354  1.00  0.00    -0.354 N 
ATOM     41  C   UNL A   1      43.649  28.761  31.080  1.00  0.00     0.074 A 
ATOM     42  C   UNL A   1      43.850  27.488  30.423  1.00  0.00     0.031 C 
ATOM     43  C   UNL A   1      37.587  30.247  29.551  1.00  0.00     0.029 A 
ATOM     44  C   UNL A   1      38.521  31.029  30.356  1.00  0.00     0.049 A 
ATOM     45  H   UNL A   1      40.495  30.555  30.820  1.00  0.00     0.167 HD
ATOM     46  C   UNL A   1      44.602  29.402  31.798  1.00  0.00     0.037 A 
ATOM     47  C   UNL A   1      38.254  32.211  30.942  1.00  0.00     0.037 A 
ATOM     48  C   UNL A   1      44.422  30.686  32.421  1.00  0.00     0.049 A 
ATOM     49  C   UNL A   1      39.328  32.902  31.736  1.00  0.00     0.074 A 
ATOM     50  C   UNL A   1      45.336  31.433  33.144  1.00  0.00     0.029 A 
ATOM     51  N   UNL A   1      43.245  31.419  32.383  1.00  0.00    -0.354 N 
ATOM     52  N   UNL A   1      40.562  32.524  31.965  1.00  0.00    -0.248 NA
ATOM     53  C   UNL A   1      38.973  34.191  32.350  1.00  0.00     0.031 C 
ATOM     54  C   UNL A   1      44.705  32.609  33.564  1.00  0.00     0.029 A 
ATOM     55  C   UNL A   1      43.409  32.609  33.073  1.00  0.00     0.049 A 
ATOM     56  H   UNL A   1      42.417  31.135  31.933  1.00  0.00     0.167 HD
ATOM     57  C   UNL A   1      41.138  33.537  32.721  1.00  0.00     0.074 A 
ATOM     58  C   UNL A   1      40.122  34.553  32.902  1.00  0.00     0.031 C 
ATOM     59  C   UNL A   1      42.394  33.617  33.223  1.00  0.00     0.037 A 
BRANCH  46  60
ATOM     60  C   UNL A   1      45.937  28.730  31.934  1.00  0.00     0.064 A 
ATOM     61  C   UNL A   1      46.165  27.750  32.913  1.00  0.00     0.173 A 
ATOM     62  C   UNL A   1      46.987  29.040  31.058  1.00  0.00     0.173 A 
ATOM     63  F   UNL A   1      45.197  27.428  33.783  1.00  0.00    -0.203 F 
ATOM     64  C   UNL A   1      47.403  27.125  33.025  1.00  0.00     0.198 A 
ATOM     65  C   UNL A   1      48.217  28.393  31.156  1.00  0.00     0.198 A 
ATOM     66  F   UNL A   1      46.820  29.966  30.102  1.00  0.00    -0.203 F 
ATOM     67  F   UNL A   1      47.612  26.225  33.996  1.00  0.00    -0.200 F 
ATOM     68  C   UNL A   1      48.426  27.442  32.143  1.00  0.00     0.200 A 
ATOM     69  F   UNL A   1      49.200  28.692  30.297  1.00  0.00    -0.200 F 
ATOM     70  F   UNL A   1      49.616  26.833  32.249  1.00  0.00    -0.200 F 
ENDBRANCH  46  60
BRANCH  47  71
ATOM     71  C   UNL A   1      36.917  32.839  30.776  1.00  0.00     0.064 A 
ATOM     72  C   UNL A   1      36.607  33.570  29.620  1.00  0.00     0.173 A 
ATOM     73  C   UNL A   1      35.934  32.744  31.772  1.00  0.00     0.173 A 
ATOM     74  F   UNL A   1      37.523  33.709  28.651  1.00  0.00    -0.203 F 
ATOM     75  C   UNL A   1      35.373  34.200  29.476  1.00  0.00     0.198 A 
ATOM     76  C   UNL A   1      34.691  33.353  31.615  1.00  0.00     0.198 A 
ATOM     77  F   UNL A   1      36.181  32.054  32.895  1.00  0.00    -0.203 F 
ATOM     78  F   UNL A   1      35.120  34.933  28.383  1.00  0.00    -0.200 F 
ATOM     79  C   UNL A   1      34.414  34.088  30.472  1.00  0.00     0.200 A 
ATOM     80  F   UNL A   1      33.763  33.233  32.574  1.00  0.00    -0.200 F 
ATOM     81  F   UNL A   1      33.228  34.695  30.335  1.00  0.00    -0.200 F 
ENDBRANCH  47  71
BRANCH  59  82
ATOM     82  C   UNL A   1      42.754  34.863  33.975  1.00  0.00     0.064 A 
ATOM     83  C   UNL A   1      43.241  36.003  33.317  1.00  0.00     0.173 A 
ATOM     84  C   UNL A   1      42.572  34.930  35.364  1.00  0.00     0.173 A 
ATOM     85  F   UNL A   1      43.446  35.980  31.992  1.00  0.00    -0.203 F 
ATOM     86  C   UNL A   1      43.553  37.157  34.028  1.00  0.00     0.198 A 
ATOM     87  C   UNL A   1      42.861  36.095  36.068  1.00  0.00     0.198 A 
ATOM     88  F   UNL A   1      42.103  33.868  36.036  1.00  0.00    -0.203 F 
ATOM     89  F   UNL A   1      44.056  38.221  33.387  1.00  0.00    -0.200 F 
ATOM     90  C   UNL A   1      43.357  37.205  35.401  1.00  0.00     0.200 A 
ATOM     91  F   UNL A   1      42.663  36.144  37.392  1.00  0.00    -0.200 F 
ATOM     92  F   UNL A   1      43.654  38.320  36.083  1.00  0.00    -0.200 F 
ENDBRANCH  59  82
ENDBRANCH  33  34
ENDBRANCH  25  28
ENDBRANCH  23  24
ENDBRANCH  22  23
ENDBRANCH  21  22
ENDBRANCH   3  21
TORSDOF 17
ENDMDL
MODEL 3
REMARK VINA RESULT:     -10.8      3.854      8.969
REMARK SMILES CC(C)[C@@H](CO)NC(=O)CC(C)(C)CC(=O)NCCCNC(=O)c1ccc(-c2c3nc(c(-c4c(F)c(F)c(F)c(F)c4F)c4ccc([nH]4)c(-c4c(F)c(F)c(F)c(F)c4F)c4nc(c(-c5c(F)c(F)c(F)c(F)c5F)c5ccc2[nH]5)C=C4)C=C3)cc1
REMARK SMILES IDX 15 1 16 2 17 3 14 5 11 6 12 7 13 8 10 9 8 10 7 11 9 13 4 14
REMARK SMILES IDX 2 15 1 16 3 17 5 18 6 19 18 21 19 22 20 23 21 24 22 25 23 27
REMARK SMILES IDX 24 28 25 29 86 30 26 31 85 32 27 33 28 34 29 35 79 36 30 37
REMARK SMILES IDX 84 38 78 39 80 40 31 41 83 42 77 43 76 44 32 46 64 47 44 48
REMARK SMILES IDX 63 49 45 50 48 51 62 52 81 53 46 54 47 55 61 57 82 58 49 59
REMARK SMILES IDX 33 60 34 61 42 62 35 63 36 64 40 65 43 66 37 67 38 68 41 69
REMARK SMILES IDX 39 70 65 71 66 72 74 73 67 74 68 75 72 76 75 77 69 78 70 79
REMARK SMILES IDX 73 80 71 81 50 82 51 83 59 84 52 85 53 86 57 87 60 88 54 89
REMARK SMILES IDX 55 90 58 91 56 92
REMARK H PARENT 17 4 7 12 6 20 21 26 80 45 48 56
REMARK Flexibility Score: inf
ROOT
ATOM      1  C   UNL A   1      33.333  25.035  25.413  1.00  0.00     0.220 C 
ATOM      2  O   UNL A   1      32.742  25.004  26.490  1.00  0.00    -0.275 OA
ATOM      3  N   UNL A   1      34.170  24.002  25.120  1.00  0.00    -0.356 N 
ATOM      4  H   UNL A   1      34.130  23.254  25.759  1.00  0.00     0.163 HD
ENDROOT
BRANCH   1   5
ATOM      5  C   UNL A   1      33.140  26.165  24.424  1.00  0.00     0.107 C 
BRANCH   5   6
ATOM      6  C   UNL A   1      33.175  27.603  25.000  1.00  0.00    -0.018 C 
ATOM      7  C   UNL A   1      33.892  28.481  23.958  1.00  0.00     0.012 C 
ATOM      8  C   UNL A   1      34.041  27.722  26.267  1.00  0.00     0.012 C 
BRANCH   6   9
ATOM      9  C   UNL A   1      31.772  28.144  25.387  1.00  0.00     0.107 C 
BRANCH   9  10
ATOM     10  C   UNL A   1      31.478  29.633  25.285  1.00  0.00     0.220 C 
ATOM     11  N   UNL A   1      30.662  30.116  24.312  1.00  0.00    -0.351 N 
ATOM     12  H   UNL A   1      30.646  31.098  24.236  1.00  0.00     0.163 HD
ATOM     13  O   UNL A   1      32.008  30.444  26.045  1.00  0.00    -0.275 OA
BRANCH  11  14
ATOM     14  C   UNL A   1      29.806  29.418  23.362  1.00  0.00     0.110 C 
BRANCH  14  15
ATOM     15  C   UNL A   1      28.557  30.277  23.003  1.00  0.00     0.007 C 
ATOM     16  C   UNL A   1      27.282  29.432  23.126  1.00  0.00     0.009 C 
ATOM     17  C   UNL A   1      28.387  31.555  23.842  1.00  0.00     0.009 C 
ENDBRANCH  14  15
BRANCH  14  18
ATOM     18  C   UNL A   1      30.619  28.975  22.125  1.00  0.00     0.181 C 
BRANCH  18  19
ATOM     19  O   UNL A   1      30.994  30.077  21.307  1.00  0.00    -0.394 OA
ATOM     20  H   UNL A   1      31.865  30.403  21.583  1.00  0.00     0.210 HD
ENDBRANCH  18  19
ENDBRANCH  14  18
ENDBRANCH  11  14
ENDBRANCH   9  10
ENDBRANCH   6   9
ENDBRANCH   5   6
ENDBRANCH   1   5
BRANCH   3  21
ATOM     21  C   UNL A   1      35.115  23.806  24.029  1.00  0.00     0.117 C 
BRANCH  21  22
ATOM     22  C   UNL A   1      36.550  23.668  24.534  1.00  0.00     0.042 C 
BRANCH  22  23
ATOM     23  C   UNL A   1      36.656  23.130  25.953  1.00  0.00     0.118 C 
BRANCH  23  24
ATOM     24  N   UNL A   1      37.837  22.305  26.124  1.00  0.00    -0.352 N 
ATOM     25  C   UNL A   1      39.121  22.674  26.439  1.00  0.00     0.251 C 
ATOM     26  H   UNL A   1      37.696  21.340  25.997  1.00  0.00     0.163 HD
ATOM     27  O   UNL A   1      40.033  21.868  26.277  1.00  0.00    -0.269 OA
BRANCH  25  28
ATOM     28  C   UNL A   1      39.427  24.029  26.959  1.00  0.00     0.039 A 
ATOM     29  C   UNL A   1      40.027  24.955  26.099  1.00  0.00     0.014 A 
ATOM     30  C   UNL A   1      39.213  24.372  28.297  1.00  0.00     0.014 A 
ATOM     31  C   UNL A   1      40.387  26.221  26.572  1.00  0.00     0.010 A 
ATOM     32  C   UNL A   1      39.489  25.664  28.745  1.00  0.00     0.010 A 
ATOM     33  C   UNL A   1      40.111  26.591  27.897  1.00  0.00    -0.014 A 
BRANCH  33  34
ATOM     34  C   UNL A   1      40.543  27.909  28.436  1.00  0.00     0.031 A 
ATOM     35  C   UNL A   1      42.005  28.164  28.702  1.00  0.00     0.074 A 
ATOM     36  C   UNL A   1      39.634  28.863  28.713  1.00  0.00     0.049 A 
ATOM     37  N   UNL A   1      42.582  29.213  29.232  1.00  0.00    -0.248 NA
ATOM     38  C   UNL A   1      42.940  27.085  28.345  1.00  0.00     0.031 C 
ATOM     39  C   UNL A   1      38.188  28.736  28.527  1.00  0.00     0.029 A 
ATOM     40  N   UNL A   1      39.795  30.131  29.212  1.00  0.00    -0.354 N 
ATOM     41  C   UNL A   1      43.937  28.911  29.289  1.00  0.00     0.074 A 
ATOM     42  C   UNL A   1      44.092  27.562  28.790  1.00  0.00     0.031 C 
ATOM     43  C   UNL A   1      37.598  29.888  28.881  1.00  0.00     0.029 A 
ATOM     44  C   UNL A   1      38.616  30.823  29.351  1.00  0.00     0.049 A 
ATOM     45  H   UNL A   1      40.672  30.510  29.450  1.00  0.00     0.167 HD
ATOM     46  C   UNL A   1      44.966  29.695  29.691  1.00  0.00     0.037 A 
ATOM     47  C   UNL A   1      38.387  32.069  29.807  1.00  0.00     0.037 A 
ATOM     48  C   UNL A   1      44.822  31.050  30.149  1.00  0.00     0.049 A 
ATOM     49  C   UNL A   1      39.547  32.919  30.250  1.00  0.00     0.074 A 
ATOM     50  C   UNL A   1      45.807  31.937  30.549  1.00  0.00     0.029 A 
ATOM     51  N   UNL A   1      43.611  31.719  30.257  1.00  0.00    -0.354 N 
ATOM     52  N   UNL A   1      40.826  32.633  30.264  1.00  0.00    -0.248 NA
ATOM     53  C   UNL A   1      39.231  34.270  30.736  1.00  0.00     0.031 C 
ATOM     54  C   UNL A   1      45.189  33.136  30.922  1.00  0.00     0.029 A 
ATOM     55  C   UNL A   1      43.825  33.007  30.721  1.00  0.00     0.049 A 
ATOM     56  H   UNL A   1      42.733  31.335  30.037  1.00  0.00     0.167 HD
ATOM     57  C   UNL A   1      41.467  33.773  30.730  1.00  0.00     0.074 A 
ATOM     58  C   UNL A   1      40.438  34.762  30.975  1.00  0.00     0.031 C 
ATOM     59  C   UNL A   1      42.790  33.982  30.938  1.00  0.00     0.037 A 
BRANCH  46  60
ATOM     60  C   UNL A   1      46.346  29.108  29.634  1.00  0.00     0.064 A 
ATOM     61  C   UNL A   1      47.172  29.294  28.514  1.00  0.00     0.173 A 
ATOM     62  C   UNL A   1      46.863  28.387  30.719  1.00  0.00     0.173 A 
ATOM     63  F   UNL A   1      46.719  29.965  27.446  1.00  0.00    -0.203 F 
ATOM     64  C   UNL A   1      48.455  28.755  28.474  1.00  0.00     0.198 A 
ATOM     65  C   UNL A   1      48.156  27.872  30.687  1.00  0.00     0.198 A 
ATOM     66  F   UNL A   1      46.116  28.185  31.815  1.00  0.00    -0.203 F 
ATOM     67  F   UNL A   1      49.209  28.906  27.376  1.00  0.00    -0.200 F 
ATOM     68  C   UNL A   1      48.948  28.050  29.562  1.00  0.00     0.200 A 
ATOM     69  F   UNL A   1      48.636  27.202  31.743  1.00  0.00    -0.200 F 
ATOM     70  F   UNL A   1      50.187  27.538  29.524  1.00  0.00    -0.200 F 
ENDBRANCH  46  60
BRANCH  47  71
ATOM     71  C   UNL A   1      37.002  32.607  29.840  1.00  0.00     0.064 A 
ATOM     72  C   UNL A   1      36.477  33.303  28.742  1.00  0.00     0.173 A 
ATOM     73  C   UNL A   1      36.187  32.461  30.972  1.00  0.00     0.173 A 
ATOM     74  F   UNL A   1      37.228  33.488  27.647  1.00  0.00    -0.203 F 
ATOM     75  C   UNL A   1      35.197  33.850  28.781  1.00  0.00     0.198 A 
ATOM     76  C   UNL A   1      34.896  32.986  31.000  1.00  0.00     0.198 A 
ATOM     77  F   UNL A   1      36.642  31.802  32.047  1.00  0.00    -0.203 F 
ATOM     78  F   UNL A   1      34.737  34.551  27.736  1.00  0.00    -0.200 F 
ATOM     79  C   UNL A   1      34.406  33.688  29.909  1.00  0.00     0.200 A 
ATOM     80  F   UNL A   1      34.131  32.818  32.087  1.00  0.00    -0.200 F 
ATOM     81  F   UNL A   1      33.175  34.216  29.948  1.00  0.00    -0.200 F 
ENDBRANCH  47  71
BRANCH  59  82
ATOM     82  C   UNL A   1      43.203  35.343  31.412  1.00  0.00     0.064 A 
ATOM     83  C   UNL A   1      43.603  36.343  30.514  1.00  0.00     0.173 A 
ATOM     84  C   UNL A   1      43.159  35.661  32.778  1.00  0.00     0.173 A 
ATOM     85  F   UNL A   1      43.675  36.080  29.201  1.00  0.00    -0.203 F 
ATOM     86  C   UNL A   1      43.965  37.607  30.970  1.00  0.00     0.198 A 
ATOM     87  C   UNL A   1      43.498  36.934  33.227  1.00  0.00     0.198 A 
ATOM     88  F   UNL A   1      42.777  34.739  33.675  1.00  0.00    -0.203 F 
ATOM     89  F   UNL A   1      44.385  38.536  30.100  1.00  0.00    -0.200 F 
ATOM     90  C   UNL A   1      43.906  37.903  32.324  1.00  0.00     0.200 A 
ATOM     91  F   UNL A   1      43.431  37.222  34.534  1.00  0.00    -0.200 F 
ATOM     92  F   UNL A   1      44.252  39.123  32.760  1.00  0.00    -0.200 F 
ENDBRANCH  59  82
ENDBRANCH  33  34
ENDBRANCH  25  28
ENDBRANCH  23  24
ENDBRANCH  22  23
ENDBRANCH  21  22
ENDBRANCH   3  21
TORSDOF 17
ENDMDL
