MODEL 1
REMARK VINA RESULT:     -13.6      0.000      0.000
REMARK SMILES O=C1CC[C@@H](CC(=O)N2CCC(Oc3ccccc3)(C(=O)NCCCNC(=O)c3ccc(-c4c5nc(c(-c6c(F)c(F)c(F)c(F)c6F)c6ccc([nH]6)c(-c6c(F)c(F)c(F)c(F)c6F)c6nc(c(-c7c(F)c(F)c(F)c(F)c7F)c7ccc4[nH]7)C=C6)C=C5)cc3)CC2)N1
REMARK SMILES IDX 24 1 23 2 22 3 20 4 21 5 12 7 7 8 8 9 9 10 10 11 93 12 11 13
REMARK SMILES IDX 92 14 6 15 5 16 1 17 2 18 3 19 94 20 4 21 13 23 14 24 15 25
REMARK SMILES IDX 19 26 16 27 18 28 17 29 25 30 26 31 27 32 28 34 29 35 30 36
REMARK SMILES IDX 91 37 31 38 90 39 32 40 33 41 34 42 84 43 35 44 89 45 83 46
REMARK SMILES IDX 85 47 36 48 88 49 82 50 81 51 37 53 69 54 49 55 68 56 50 57
REMARK SMILES IDX 53 58 67 59 86 60 51 61 52 62 66 64 87 65 54 66 38 67 39 68
REMARK SMILES IDX 47 69 40 70 41 71 45 72 48 73 42 74 43 75 46 76 44 77 70 78
REMARK SMILES IDX 71 79 79 80 72 81 73 82 77 83 80 84 74 85 75 86 78 87 76 88
REMARK SMILES IDX 55 89 56 90 64 91 57 92 58 93 62 94 65 95 59 96 60 97 63 98
REMARK SMILES IDX 61 99
REMARK H PARENT 22 6 94 22 26 33 85 52 53 63
REMARK Flexibility Score: inf
ROOT
ATOM      1  C   UNL A   1      31.409  31.917  26.446  1.00  0.00     0.042 C 
ENDROOT
BRANCH   1   2
ATOM      2  C   UNL A   1      31.522  30.416  26.237  1.00  0.00     0.118 C 
BRANCH   2   3
ATOM      3  N   UNL A   1      32.694  30.098  25.451  1.00  0.00    -0.353 N 
ATOM      4  C   UNL A   1      32.915  29.101  24.558  1.00  0.00     0.264 C 
ATOM      5  O   UNL A   1      34.031  29.123  24.024  1.00  0.00    -0.270 OA
ATOM      6  H   UNL A   1      33.456  30.706  25.586  1.00  0.00     0.163 HD
BRANCH   4   7
ATOM      7  C   UNL A   1      31.838  28.028  24.227  1.00  0.00     0.190 C 
ATOM      8  C   UNL A   1      32.075  24.574  26.562  1.00  0.00     0.224 C 
ATOM      9  O   UNL A   1      30.976  24.364  27.095  1.00  0.00    -0.275 OA
ATOM     10  N   UNL A   1      32.376  25.841  26.101  1.00  0.00    -0.342 N 
ATOM     11  C   UNL A   1      31.617  27.000  26.569  1.00  0.00     0.124 C 
ATOM     12  C   UNL A   1      33.289  26.134  25.025  1.00  0.00     0.124 C 
ATOM     13  C   UNL A   1      30.906  27.713  25.419  1.00  0.00     0.080 C 
ATOM     14  C   UNL A   1      32.576  26.746  23.825  1.00  0.00     0.080 C 
BRANCH   8  15
ATOM     15  C   UNL A   1      33.128  23.451  26.668  1.00  0.00     0.125 C 
BRANCH  15  16
ATOM     16  C   UNL A   1      33.421  22.310  25.690  1.00  0.00     0.091 C 
ATOM     17  O   UNL A   1      32.057  19.116  25.157  1.00  0.00    -0.275 OA
ATOM     18  C   UNL A   1      32.453  20.267  25.058  1.00  0.00     0.220 C 
ATOM     19  C   UNL A   1      32.365  21.133  23.827  1.00  0.00     0.102 C 
ATOM     20  N   UNL A   1      33.006  20.998  26.085  1.00  0.00    -0.353 N 
ATOM     21  C   UNL A   1      32.900  22.500  24.264  1.00  0.00     0.035 C 
ATOM     22  H   UNL A   1      33.106  20.653  27.003  1.00  0.00     0.163 HD
ENDBRANCH  15  16
ENDBRANCH   8  15
BRANCH   7  23
ATOM     23  O   UNL A   1      31.182  28.645  23.090  1.00  0.00    -0.477 OA
BRANCH  23  24
ATOM     24  C   UNL A   1      29.889  29.048  23.225  1.00  0.00     0.120 A 
ATOM     25  C   UNL A   1      28.884  28.103  23.034  1.00  0.00     0.046 A 
ATOM     26  C   UNL A   1      29.563  30.393  23.384  1.00  0.00     0.046 A 
ATOM     27  C   UNL A   1      27.547  28.493  23.082  1.00  0.00     0.004 A 
ATOM     28  C   UNL A   1      28.227  30.781  23.455  1.00  0.00     0.004 A 
ATOM     29  C   UNL A   1      27.218  29.830  23.309  1.00  0.00     0.000 A 
ENDBRANCH  23  24
ENDBRANCH   7  23
ENDBRANCH   4   7
ENDBRANCH   2   3
ENDBRANCH   1   2
BRANCH   1  30
ATOM     30  C   UNL A   1      32.602  32.513  27.182  1.00  0.00     0.118 C 
BRANCH  30  31
ATOM     31  N   UNL A   1      32.414  33.924  27.489  1.00  0.00    -0.352 N 
ATOM     32  C   UNL A   1      33.002  34.695  28.458  1.00  0.00     0.251 C 
ATOM     33  H   UNL A   1      31.768  34.394  26.915  1.00  0.00     0.163 HD
ATOM     34  O   UNL A   1      32.547  35.804  28.723  1.00  0.00    -0.269 OA
BRANCH  32  35
ATOM     35  C   UNL A   1      34.173  34.181  29.195  1.00  0.00     0.039 A 
ATOM     36  C   UNL A   1      33.967  33.404  30.336  1.00  0.00     0.014 A 
ATOM     37  C   UNL A   1      35.470  34.471  28.764  1.00  0.00     0.014 A 
ATOM     38  C   UNL A   1      35.064  32.866  31.009  1.00  0.00     0.010 A 
ATOM     39  C   UNL A   1      36.555  33.856  29.377  1.00  0.00     0.010 A 
ATOM     40  C   UNL A   1      36.365  33.056  30.512  1.00  0.00    -0.014 A 
BRANCH  40  41
ATOM     41  C   UNL A   1      37.539  32.436  31.174  1.00  0.00     0.031 A 
ATOM     42  C   UNL A   1      38.284  31.321  30.493  1.00  0.00     0.074 A 
ATOM     43  C   UNL A   1      37.892  32.833  32.411  1.00  0.00     0.049 A 
ATOM     44  N   UNL A   1      39.289  30.608  30.933  1.00  0.00    -0.248 NA
ATOM     45  C   UNL A   1      37.819  30.936  29.151  1.00  0.00     0.031 C 
ATOM     46  C   UNL A   1      37.216  33.870  33.192  1.00  0.00     0.029 A 
ATOM     47  N   UNL A   1      38.903  32.405  33.233  1.00  0.00    -0.354 N 
ATOM     48  C   UNL A   1      39.566  29.688  29.930  1.00  0.00     0.074 A 
ATOM     49  C   UNL A   1      38.585  29.889  28.887  1.00  0.00     0.031 C 
ATOM     50  C   UNL A   1      37.847  34.018  34.367  1.00  0.00     0.029 A 
ATOM     51  C   UNL A   1      38.943  33.056  34.442  1.00  0.00     0.049 A 
ATOM     52  H   UNL A   1      39.541  31.698  32.981  1.00  0.00     0.167 HD
ATOM     53  C   UNL A   1      40.565  28.775  29.874  1.00  0.00     0.037 A 
ATOM     54  C   UNL A   1      39.765  32.889  35.495  1.00  0.00     0.037 A 
ATOM     55  C   UNL A   1      41.551  28.594  30.907  1.00  0.00     0.049 A 
ATOM     56  C   UNL A   1      40.856  31.855  35.414  1.00  0.00     0.074 A 
ATOM     57  C   UNL A   1      42.638  27.739  30.922  1.00  0.00     0.029 A 
ATOM     58  N   UNL A   1      41.565  29.281  32.113  1.00  0.00    -0.354 N 
ATOM     59  N   UNL A   1      41.153  31.040  34.431  1.00  0.00    -0.248 NA
ATOM     60  C   UNL A   1      41.730  31.724  36.587  1.00  0.00     0.031 C 
ATOM     61  C   UNL A   1      43.275  27.864  32.161  1.00  0.00     0.029 A 
ATOM     62  C   UNL A   1      42.625  28.846  32.892  1.00  0.00     0.049 A 
ATOM     63  H   UNL A   1      40.917  29.974  32.377  1.00  0.00     0.167 HD
ATOM     64  C   UNL A   1      42.265  30.323  34.852  1.00  0.00     0.074 A 
ATOM     65  C   UNL A   1      42.599  30.812  36.174  1.00  0.00     0.031 C 
ATOM     66  C   UNL A   1      42.949  29.348  34.204  1.00  0.00     0.037 A 
BRANCH  53  67
ATOM     67  C   UNL A   1      40.643  27.902  28.653  1.00  0.00     0.064 A 
ATOM     68  C   UNL A   1      39.949  26.684  28.571  1.00  0.00     0.173 A 
ATOM     69  C   UNL A   1      41.393  28.303  27.538  1.00  0.00     0.173 A 
ATOM     70  F   UNL A   1      39.226  26.248  29.614  1.00  0.00    -0.203 F 
ATOM     71  C   UNL A   1      40.028  25.889  27.432  1.00  0.00     0.198 A 
ATOM     72  C   UNL A   1      41.442  27.522  26.387  1.00  0.00     0.198 A 
ATOM     73  F   UNL A   1      42.074  29.460  27.560  1.00  0.00    -0.203 F 
ATOM     74  F   UNL A   1      39.399  24.706  27.398  1.00  0.00    -0.200 F 
ATOM     75  C   UNL A   1      40.767  26.312  26.337  1.00  0.00     0.200 A 
ATOM     76  F   UNL A   1      42.145  27.939  25.324  1.00  0.00    -0.200 F 
ATOM     77  F   UNL A   1      40.835  25.549  25.238  1.00  0.00    -0.200 F 
ENDBRANCH  53  67
BRANCH  54  78
ATOM     78  C   UNL A   1      39.600  33.732  36.709  1.00  0.00     0.064 A 
ATOM     79  C   UNL A   1      38.838  33.286  37.797  1.00  0.00     0.173 A 
ATOM     80  C   UNL A   1      40.190  35.001  36.803  1.00  0.00     0.173 A 
ATOM     81  F   UNL A   1      38.238  32.088  37.749  1.00  0.00    -0.203 F 
ATOM     82  C   UNL A   1      38.651  34.087  38.923  1.00  0.00     0.198 A 
ATOM     83  C   UNL A   1      40.030  35.787  37.942  1.00  0.00     0.198 A 
ATOM     84  F   UNL A   1      40.935  35.472  35.792  1.00  0.00    -0.203 F 
ATOM     85  F   UNL A   1      37.875  33.657  39.927  1.00  0.00    -0.200 F 
ATOM     86  C   UNL A   1      39.252  35.334  38.996  1.00  0.00     0.200 A 
ATOM     87  F   UNL A   1      40.626  36.985  38.016  1.00  0.00    -0.200 F 
ATOM     88  F   UNL A   1      39.075  36.103  40.080  1.00  0.00    -0.200 F 
ENDBRANCH  54  78
BRANCH  66  89
ATOM     89  C   UNL A   1      44.151  28.772  34.895  1.00  0.00     0.064 A 
ATOM     90  C   UNL A   1      44.060  27.639  35.716  1.00  0.00     0.173 A 
ATOM     91  C   UNL A   1      45.419  29.342  34.700  1.00  0.00     0.173 A 
ATOM     92  F   UNL A   1      42.870  27.065  35.947  1.00  0.00    -0.203 F 
ATOM     93  C   UNL A   1      45.190  27.114  36.339  1.00  0.00     0.198 A 
ATOM     94  C   UNL A   1      46.551  28.794  35.296  1.00  0.00     0.198 A 
ATOM     95  F   UNL A   1      45.563  30.422  33.918  1.00  0.00    -0.203 F 
ATOM     96  F   UNL A   1      45.071  26.063  37.163  1.00  0.00    -0.200 F 
ATOM     97  C   UNL A   1      46.435  27.687  36.123  1.00  0.00     0.200 A 
ATOM     98  F   UNL A   1      47.755  29.338  35.072  1.00  0.00    -0.200 F 
ATOM     99  F   UNL A   1      47.522  27.175  36.717  1.00  0.00    -0.200 F 
ENDBRANCH  66  89
ENDBRANCH  40  41
ENDBRANCH  32  35
ENDBRANCH  30  31
ENDBRANCH   1  30
TORSDOF 14
ENDMDL
MODEL 2
REMARK VINA RESULT:     -13.5      5.212     11.149
REMARK SMILES O=C1CC[C@@H](CC(=O)N2CCC(Oc3ccccc3)(C(=O)NCCCNC(=O)c3ccc(-c4c5nc(c(-c6c(F)c(F)c(F)c(F)c6F)c6ccc([nH]6)c(-c6c(F)c(F)c(F)c(F)c6F)c6nc(c(-c7c(F)c(F)c(F)c(F)c7F)c7ccc4[nH]7)C=C6)C=C5)cc3)CC2)N1
REMARK SMILES IDX 24 1 23 2 22 3 20 4 21 5 12 7 7 8 8 9 9 10 10 11 93 12 11 13
REMARK SMILES IDX 92 14 6 15 5 16 1 17 2 18 3 19 94 20 4 21 13 23 14 24 15 25
REMARK SMILES IDX 19 26 16 27 18 28 17 29 25 30 26 31 27 32 28 34 29 35 30 36
REMARK SMILES IDX 91 37 31 38 90 39 32 40 33 41 34 42 84 43 35 44 89 45 83 46
REMARK SMILES IDX 85 47 36 48 88 49 82 50 81 51 37 53 69 54 49 55 68 56 50 57
REMARK SMILES IDX 53 58 67 59 86 60 51 61 52 62 66 64 87 65 54 66 38 67 39 68
REMARK SMILES IDX 47 69 40 70 41 71 45 72 48 73 42 74 43 75 46 76 44 77 70 78
REMARK SMILES IDX 71 79 79 80 72 81 73 82 77 83 80 84 74 85 75 86 78 87 76 88
REMARK SMILES IDX 55 89 56 90 64 91 57 92 58 93 62 94 65 95 59 96 60 97 63 98
REMARK SMILES IDX 61 99
REMARK H PARENT 22 6 94 22 26 33 85 52 53 63
REMARK Flexibility Score: inf
ROOT
ATOM      1  C   UNL A   1      37.798  19.730  25.001  1.00  0.00     0.042 C 
ENDROOT
BRANCH   1   2
ATOM      2  C   UNL A   1      36.736  20.796  24.790  1.00  0.00     0.118 C 
BRANCH   2   3
ATOM      3  N   UNL A   1      36.156  21.194  26.054  1.00  0.00    -0.353 N 
ATOM      4  C   UNL A   1      34.894  21.582  26.365  1.00  0.00     0.264 C 
ATOM      5  O   UNL A   1      34.709  21.831  27.561  1.00  0.00    -0.270 OA
ATOM      6  H   UNL A   1      36.781  21.181  26.814  1.00  0.00     0.163 HD
BRANCH   4   7
ATOM      7  C   UNL A   1      33.770  21.687  25.293  1.00  0.00     0.190 C 
ATOM      8  C   UNL A   1      33.643  25.345  23.283  1.00  0.00     0.224 C 
ATOM      9  O   UNL A   1      33.691  25.142  22.061  1.00  0.00    -0.275 OA
ATOM     10  N   UNL A   1      34.086  24.367  24.152  1.00  0.00    -0.342 N 
ATOM     11  C   UNL A   1      34.955  23.290  23.677  1.00  0.00     0.124 C 
ATOM     12  C   UNL A   1      33.620  24.189  25.504  1.00  0.00     0.124 C 
ATOM     13  C   UNL A   1      34.311  21.918  23.864  1.00  0.00     0.080 C 
ATOM     14  C   UNL A   1      32.875  22.870  25.680  1.00  0.00     0.080 C 
BRANCH   8  15
ATOM     15  C   UNL A   1      33.309  26.780  23.740  1.00  0.00     0.125 C 
BRANCH  15  16
ATOM     16  C   UNL A   1      31.942  27.412  24.010  1.00  0.00     0.091 C 
ATOM     17  O   UNL A   1      29.504  28.953  22.001  1.00  0.00    -0.275 OA
ATOM     18  C   UNL A   1      30.127  28.233  22.766  1.00  0.00     0.220 C 
ATOM     19  C   UNL A   1      29.581  27.035  23.501  1.00  0.00     0.102 C 
ATOM     20  N   UNL A   1      31.468  28.363  23.049  1.00  0.00    -0.353 N 
ATOM     21  C   UNL A   1      30.785  26.434  24.233  1.00  0.00     0.035 C 
ATOM     22  H   UNL A   1      32.046  29.043  22.633  1.00  0.00     0.163 HD
ENDBRANCH  15  16
ENDBRANCH   8  15
BRANCH   7  23
ATOM     23  O   UNL A   1      33.092  20.419  25.488  1.00  0.00    -0.477 OA
BRANCH  23  24
ATOM     24  C   UNL A   1      33.290  19.429  24.576  1.00  0.00     0.120 A 
ATOM     25  C   UNL A   1      32.410  19.344  23.499  1.00  0.00     0.046 A 
ATOM     26  C   UNL A   1      34.233  18.426  24.788  1.00  0.00     0.046 A 
ATOM     27  C   UNL A   1      32.528  18.296  22.588  1.00  0.00     0.004 A 
ATOM     28  C   UNL A   1      34.368  17.391  23.866  1.00  0.00     0.004 A 
ATOM     29  C   UNL A   1      33.518  17.327  22.763  1.00  0.00     0.000 A 
ENDBRANCH  23  24
ENDBRANCH   7  23
ENDBRANCH   4   7
ENDBRANCH   2   3
ENDBRANCH   1   2
BRANCH   1  30
ATOM     30  C   UNL A   1      39.022  20.241  25.751  1.00  0.00     0.118 C 
BRANCH  30  31
ATOM     31  N   UNL A   1      40.023  19.203  25.950  1.00  0.00    -0.352 N 
ATOM     32  C   UNL A   1      41.378  19.315  26.126  1.00  0.00     0.251 C 
ATOM     33  H   UNL A   1      39.675  18.282  25.958  1.00  0.00     0.163 HD
ATOM     34  O   UNL A   1      42.094  18.323  26.039  1.00  0.00    -0.269 OA
BRANCH  32  35
ATOM     35  C   UNL A   1      41.975  20.636  26.402  1.00  0.00     0.039 A 
ATOM     36  C   UNL A   1      42.280  21.479  25.331  1.00  0.00     0.014 A 
ATOM     37  C   UNL A   1      42.239  21.039  27.714  1.00  0.00     0.014 A 
ATOM     38  C   UNL A   1      42.793  22.751  25.583  1.00  0.00     0.010 A 
ATOM     39  C   UNL A   1      42.657  22.340  27.966  1.00  0.00     0.010 A 
ATOM     40  C   UNL A   1      42.949  23.206  26.903  1.00  0.00    -0.014 A 
BRANCH  40  41
ATOM     41  C   UNL A   1      43.428  24.581  27.191  1.00  0.00     0.031 A 
ATOM     42  C   UNL A   1      42.478  25.608  27.742  1.00  0.00     0.074 A 
ATOM     43  C   UNL A   1      44.698  24.917  26.898  1.00  0.00     0.049 A 
ATOM     44  N   UNL A   1      42.686  26.875  27.996  1.00  0.00    -0.248 NA
ATOM     45  C   UNL A   1      41.103  25.160  28.015  1.00  0.00     0.031 C 
ATOM     46  C   UNL A   1      45.698  24.021  26.316  1.00  0.00     0.029 A 
ATOM     47  N   UNL A   1      45.363  26.109  27.041  1.00  0.00    -0.354 N 
ATOM     48  C   UNL A   1      41.470  27.373  28.445  1.00  0.00     0.074 A 
ATOM     49  C   UNL A   1      40.514  26.292  28.370  1.00  0.00     0.031 C 
ATOM     50  C   UNL A   1      46.857  24.685  26.177  1.00  0.00     0.029 A 
ATOM     51  C   UNL A   1      46.670  26.064  26.618  1.00  0.00     0.049 A 
ATOM     52  H   UNL A   1      44.945  26.919  27.413  1.00  0.00     0.167 HD
ATOM     53  C   UNL A   1      41.184  28.615  28.905  1.00  0.00     0.037 A 
ATOM     54  C   UNL A   1      47.607  27.030  26.581  1.00  0.00     0.037 A 
ATOM     55  C   UNL A   1      42.146  29.682  28.997  1.00  0.00     0.049 A 
ATOM     56  C   UNL A   1      47.258  28.406  27.081  1.00  0.00     0.074 A 
ATOM     57  C   UNL A   1      41.974  30.958  29.501  1.00  0.00     0.029 A 
ATOM     58  N   UNL A   1      43.463  29.595  28.568  1.00  0.00    -0.354 N 
ATOM     59  N   UNL A   1      46.125  28.847  27.571  1.00  0.00    -0.248 NA
ATOM     60  C   UNL A   1      48.322  29.417  27.028  1.00  0.00     0.031 C 
ATOM     61  C   UNL A   1      43.168  31.663  29.324  1.00  0.00     0.029 A 
ATOM     62  C   UNL A   1      44.106  30.806  28.770  1.00  0.00     0.049 A 
ATOM     63  H   UNL A   1      43.879  28.793  28.178  1.00  0.00     0.167 HD
ATOM     64  C   UNL A   1      46.347  30.174  27.915  1.00  0.00     0.074 A 
ATOM     65  C   UNL A   1      47.729  30.461  27.591  1.00  0.00     0.031 C 
ATOM     66  C   UNL A   1      45.485  31.074  28.449  1.00  0.00     0.037 A 
BRANCH  53  67
ATOM     67  C   UNL A   1      39.773  28.888  29.344  1.00  0.00     0.064 A 
ATOM     68  C   UNL A   1      39.356  28.667  30.666  1.00  0.00     0.173 A 
ATOM     69  C   UNL A   1      38.835  29.408  28.441  1.00  0.00     0.173 A 
ATOM     70  F   UNL A   1      40.210  28.159  31.568  1.00  0.00    -0.203 F 
ATOM     71  C   UNL A   1      38.046  28.929  31.058  1.00  0.00     0.198 A 
ATOM     72  C   UNL A   1      37.535  29.701  28.844  1.00  0.00     0.198 A 
ATOM     73  F   UNL A   1      39.180  29.642  27.165  1.00  0.00    -0.203 F 
ATOM     74  F   UNL A   1      37.658  28.659  32.313  1.00  0.00    -0.200 F 
ATOM     75  C   UNL A   1      37.139  29.454  30.150  1.00  0.00     0.200 A 
ATOM     76  F   UNL A   1      36.663  30.223  27.969  1.00  0.00    -0.200 F 
ATOM     77  F   UNL A   1      35.881  29.713  30.531  1.00  0.00    -0.200 F 
ENDBRANCH  53  67
BRANCH  54  78
ATOM     78  C   UNL A   1      48.969  26.725  26.070  1.00  0.00     0.064 A 
ATOM     79  C   UNL A   1      49.324  27.018  24.746  1.00  0.00     0.173 A 
ATOM     80  C   UNL A   1      49.940  26.128  26.887  1.00  0.00     0.173 A 
ATOM     81  F   UNL A   1      48.425  27.573  23.919  1.00  0.00    -0.203 F 
ATOM     82  C   UNL A   1      50.589  26.703  24.252  1.00  0.00     0.198 A 
ATOM     83  C   UNL A   1      51.214  25.843  26.402  1.00  0.00     0.198 A 
ATOM     84  F   UNL A   1      49.655  25.833  28.164  1.00  0.00    -0.203 F 
ATOM     85  F   UNL A   1      50.883  26.946  22.968  1.00  0.00    -0.200 F 
ATOM     86  C   UNL A   1      51.534  26.121  25.081  1.00  0.00     0.200 A 
ATOM     87  F   UNL A   1      52.131  25.296  27.212  1.00  0.00    -0.200 F 
ATOM     88  F   UNL A   1      52.751  25.820  24.607  1.00  0.00    -0.200 F 
ENDBRANCH  54  78
BRANCH  66  89
ATOM     89  C   UNL A   1      46.022  32.443  28.758  1.00  0.00     0.064 A 
ATOM     90  C   UNL A   1      46.635  32.738  29.983  1.00  0.00     0.173 A 
ATOM     91  C   UNL A   1      45.955  33.462  27.795  1.00  0.00     0.173 A 
ATOM     92  F   UNL A   1      46.712  31.804  30.943  1.00  0.00    -0.203 F 
ATOM     93  C   UNL A   1      47.136  34.011  30.245  1.00  0.00     0.198 A 
ATOM     94  C   UNL A   1      46.487  34.722  28.046  1.00  0.00     0.198 A 
ATOM     95  F   UNL A   1      45.385  33.230  26.602  1.00  0.00    -0.203 F 
ATOM     96  F   UNL A   1      47.669  34.286  31.443  1.00  0.00    -0.200 F 
ATOM     97  C   UNL A   1      47.069  34.999  29.274  1.00  0.00     0.200 A 
ATOM     98  F   UNL A   1      46.437  35.670  27.100  1.00  0.00    -0.200 F 
ATOM     99  F   UNL A   1      47.559  36.221  29.524  1.00  0.00    -0.200 F 
ENDBRANCH  66  89
ENDBRANCH  40  41
ENDBRANCH  32  35
ENDBRANCH  30  31
ENDBRANCH   1  30
TORSDOF 14
ENDMDL
MODEL 3
REMARK VINA RESULT:     -13.5      5.207     11.167
REMARK SMILES O=C1CC[C@@H](CC(=O)N2CCC(Oc3ccccc3)(C(=O)NCCCNC(=O)c3ccc(-c4c5nc(c(-c6c(F)c(F)c(F)c(F)c6F)c6ccc([nH]6)c(-c6c(F)c(F)c(F)c(F)c6F)c6nc(c(-c7c(F)c(F)c(F)c(F)c7F)c7ccc4[nH]7)C=C6)C=C5)cc3)CC2)N1
REMARK SMILES IDX 24 1 23 2 22 3 20 4 21 5 12 7 7 8 8 9 9 10 10 11 93 12 11 13
REMARK SMILES IDX 92 14 6 15 5 16 1 17 2 18 3 19 94 20 4 21 13 23 14 24 15 25
REMARK SMILES IDX 19 26 16 27 18 28 17 29 25 30 26 31 27 32 28 34 29 35 30 36
REMARK SMILES IDX 91 37 31 38 90 39 32 40 33 41 34 42 84 43 35 44 89 45 83 46
REMARK SMILES IDX 85 47 36 48 88 49 82 50 81 51 37 53 69 54 49 55 68 56 50 57
REMARK SMILES IDX 53 58 67 59 86 60 51 61 52 62 66 64 87 65 54 66 38 67 39 68
REMARK SMILES IDX 47 69 40 70 41 71 45 72 48 73 42 74 43 75 46 76 44 77 70 78
REMARK SMILES IDX 71 79 79 80 72 81 73 82 77 83 80 84 74 85 75 86 78 87 76 88
REMARK SMILES IDX 55 89 56 90 64 91 57 92 58 93 62 94 65 95 59 96 60 97 63 98
REMARK SMILES IDX 61 99
REMARK H PARENT 22 6 94 22 26 33 85 52 53 63
REMARK Flexibility Score: inf
ROOT
ATOM      1  C   UNL A   1      37.796  19.748  25.001  1.00  0.00     0.042 C 
ENDROOT
BRANCH   1   2
ATOM      2  C   UNL A   1      36.729  20.812  24.798  1.00  0.00     0.118 C 
BRANCH   2   3
ATOM      3  N   UNL A   1      36.145  21.194  26.064  1.00  0.00    -0.353 N 
ATOM      4  C   UNL A   1      34.880  21.575  26.375  1.00  0.00     0.264 C 
ATOM      5  O   UNL A   1      34.689  21.810  27.574  1.00  0.00    -0.270 OA
ATOM      6  H   UNL A   1      36.767  21.173  26.827  1.00  0.00     0.163 HD
BRANCH   4   7
ATOM      7  C   UNL A   1      33.759  21.689  25.300  1.00  0.00     0.190 C 
ATOM      8  C   UNL A   1      33.652  25.358  23.310  1.00  0.00     0.224 C 
ATOM      9  O   UNL A   1      33.704  25.162  22.087  1.00  0.00    -0.275 OA
ATOM     10  N   UNL A   1      34.089  24.374  24.175  1.00  0.00    -0.342 N 
ATOM     11  C   UNL A   1      34.956  23.297  23.697  1.00  0.00     0.124 C 
ATOM     12  C   UNL A   1      33.618  24.191  25.525  1.00  0.00     0.124 C 
ATOM     13  C   UNL A   1      34.306  21.927  23.874  1.00  0.00     0.080 C 
ATOM     14  C   UNL A   1      32.868  22.874  25.692  1.00  0.00     0.080 C 
BRANCH   8  15
ATOM     15  C   UNL A   1      33.322  26.793  23.773  1.00  0.00     0.125 C 
BRANCH  15  16
ATOM     16  C   UNL A   1      31.955  27.434  24.023  1.00  0.00     0.091 C 
ATOM     17  O   UNL A   1      29.540  28.953  21.971  1.00  0.00    -0.275 OA
ATOM     18  C   UNL A   1      30.154  28.243  22.752  1.00  0.00     0.220 C 
ATOM     19  C   UNL A   1      29.597  27.059  23.502  1.00  0.00     0.102 C 
ATOM     20  N   UNL A   1      31.493  28.372  23.044  1.00  0.00    -0.353 N 
ATOM     21  C   UNL A   1      30.793  26.464  24.252  1.00  0.00     0.035 C 
ATOM     22  H   UNL A   1      32.077  29.042  22.621  1.00  0.00     0.163 HD
ENDBRANCH  15  16
ENDBRANCH   8  15
BRANCH   7  23
ATOM     23  O   UNL A   1      33.076  20.423  25.487  1.00  0.00    -0.477 OA
BRANCH  23  24
ATOM     24  C   UNL A   1      33.284  19.433  24.577  1.00  0.00     0.120 A 
ATOM     25  C   UNL A   1      32.400  19.331  23.505  1.00  0.00     0.046 A 
ATOM     26  C   UNL A   1      34.243  18.444  24.788  1.00  0.00     0.046 A 
ATOM     27  C   UNL A   1      32.528  18.281  22.597  1.00  0.00     0.004 A 
ATOM     28  C   UNL A   1      34.388  17.407  23.870  1.00  0.00     0.004 A 
ATOM     29  C   UNL A   1      33.533  17.328  22.771  1.00  0.00     0.000 A 
ENDBRANCH  23  24
ENDBRANCH   7  23
ENDBRANCH   4   7
ENDBRANCH   2   3
ENDBRANCH   1   2
BRANCH   1  30
ATOM     30  C   UNL A   1      39.020  20.260  25.749  1.00  0.00     0.118 C 
BRANCH  30  31
ATOM     31  N   UNL A   1      40.022  19.222  25.948  1.00  0.00    -0.352 N 
ATOM     32  C   UNL A   1      41.376  19.334  26.126  1.00  0.00     0.251 C 
ATOM     33  H   UNL A   1      39.673  18.301  25.955  1.00  0.00     0.163 HD
ATOM     34  O   UNL A   1      42.093  18.342  26.039  1.00  0.00    -0.269 OA
BRANCH  32  35
ATOM     35  C   UNL A   1      41.973  20.654  26.406  1.00  0.00     0.039 A 
ATOM     36  C   UNL A   1      42.333  21.475  25.335  1.00  0.00     0.014 A 
ATOM     37  C   UNL A   1      42.181  21.079  27.721  1.00  0.00     0.014 A 
ATOM     38  C   UNL A   1      42.846  22.747  25.586  1.00  0.00     0.010 A 
ATOM     39  C   UNL A   1      42.600  22.380  27.967  1.00  0.00     0.010 A 
ATOM     40  C   UNL A   1      42.947  23.224  26.904  1.00  0.00    -0.014 A 
BRANCH  40  41
ATOM     41  C   UNL A   1      43.425  24.600  27.189  1.00  0.00     0.031 A 
ATOM     42  C   UNL A   1      42.477  25.626  27.743  1.00  0.00     0.074 A 
ATOM     43  C   UNL A   1      44.694  24.938  26.889  1.00  0.00     0.049 A 
ATOM     44  N   UNL A   1      42.684  26.894  27.995  1.00  0.00    -0.248 NA
ATOM     45  C   UNL A   1      41.103  25.177  28.024  1.00  0.00     0.031 C 
ATOM     46  C   UNL A   1      45.692  24.043  26.302  1.00  0.00     0.029 A 
ATOM     47  N   UNL A   1      45.358  26.131  27.028  1.00  0.00    -0.354 N 
ATOM     48  C   UNL A   1      41.470  27.391  28.451  1.00  0.00     0.074 A 
ATOM     49  C   UNL A   1      40.514  26.308  28.380  1.00  0.00     0.031 C 
ATOM     50  C   UNL A   1      46.849  24.709  26.157  1.00  0.00     0.029 A 
ATOM     51  C   UNL A   1      46.662  26.088  26.598  1.00  0.00     0.049 A 
ATOM     52  H   UNL A   1      44.940  26.941  27.401  1.00  0.00     0.167 HD
ATOM     53  C   UNL A   1      41.184  28.633  28.911  1.00  0.00     0.037 A 
ATOM     54  C   UNL A   1      47.598  27.055  26.556  1.00  0.00     0.037 A 
ATOM     55  C   UNL A   1      42.145  29.701  28.997  1.00  0.00     0.049 A 
ATOM     56  C   UNL A   1      47.249  28.431  27.056  1.00  0.00     0.074 A 
ATOM     57  C   UNL A   1      41.973  30.977  29.501  1.00  0.00     0.029 A 
ATOM     58  N   UNL A   1      43.460  29.616  28.562  1.00  0.00    -0.354 N 
ATOM     59  N   UNL A   1      46.118  28.871  27.552  1.00  0.00    -0.248 NA
ATOM     60  C   UNL A   1      48.311  29.444  26.997  1.00  0.00     0.031 C 
ATOM     61  C   UNL A   1      43.166  31.683  29.318  1.00  0.00     0.029 A 
ATOM     62  C   UNL A   1      44.103  30.828  28.760  1.00  0.00     0.049 A 
ATOM     63  H   UNL A   1      43.876  28.814  28.170  1.00  0.00     0.167 HD
ATOM     64  C   UNL A   1      46.340  30.198  27.894  1.00  0.00     0.074 A 
ATOM     65  C   UNL A   1      47.720  30.487  27.563  1.00  0.00     0.031 C 
ATOM     66  C   UNL A   1      45.480  31.097  28.432  1.00  0.00     0.037 A 
BRANCH  53  67
ATOM     67  C   UNL A   1      39.775  28.903  29.357  1.00  0.00     0.064 A 
ATOM     68  C   UNL A   1      38.803  29.399  28.473  1.00  0.00     0.173 A 
ATOM     69  C   UNL A   1      39.382  28.631  30.675  1.00  0.00     0.173 A 
ATOM     70  F   UNL A   1      39.129  29.688  27.204  1.00  0.00    -0.203 F 
ATOM     71  C   UNL A   1      37.501  29.640  28.901  1.00  0.00     0.198 A 
ATOM     72  C   UNL A   1      38.070  28.841  31.092  1.00  0.00     0.198 A 
ATOM     73  F   UNL A   1      40.268  28.152  31.562  1.00  0.00    -0.203 F 
ATOM     74  F   UNL A   1      36.605  30.165  28.053  1.00  0.00    -0.200 F 
ATOM     75  C   UNL A   1      37.132  29.353  30.207  1.00  0.00     0.200 A 
ATOM     76  F   UNL A   1      37.712  28.549  32.350  1.00  0.00    -0.200 F 
ATOM     77  F   UNL A   1      35.876  29.578  30.616  1.00  0.00    -0.200 F 
ENDBRANCH  53  67
BRANCH  54  78
ATOM     78  C   UNL A   1      48.958  26.752  26.038  1.00  0.00     0.064 A 
ATOM     79  C   UNL A   1      49.949  26.227  26.880  1.00  0.00     0.173 A 
ATOM     80  C   UNL A   1      49.300  26.987  24.698  1.00  0.00     0.173 A 
ATOM     81  F   UNL A   1      49.677  26.002  28.174  1.00  0.00    -0.203 F 
ATOM     82  C   UNL A   1      51.235  25.974  26.408  1.00  0.00     0.198 A 
ATOM     83  C   UNL A   1      50.577  26.703  24.220  1.00  0.00     0.198 A 
ATOM     84  F   UNL A   1      48.387  27.482  23.849  1.00  0.00    -0.203 F 
ATOM     85  F   UNL A   1      52.177  25.522  27.247  1.00  0.00    -0.200 F 
ATOM     86  C   UNL A   1      51.547  26.207  25.078  1.00  0.00     0.200 A 
ATOM     87  F   UNL A   1      50.868  26.913  22.929  1.00  0.00    -0.200 F 
ATOM     88  F   UNL A   1      52.783  25.960  24.623  1.00  0.00    -0.200 F 
ENDBRANCH  54  78
BRANCH  66  89
ATOM     89  C   UNL A   1      46.015  32.467  28.737  1.00  0.00     0.064 A 
ATOM     90  C   UNL A   1      45.919  33.520  27.816  1.00  0.00     0.173 A 
ATOM     91  C   UNL A   1      46.598  32.737  29.985  1.00  0.00     0.173 A 
ATOM     92  F   UNL A   1      45.384  33.312  26.604  1.00  0.00    -0.203 F 
ATOM     93  C   UNL A   1      46.412  34.786  28.123  1.00  0.00     0.198 A 
ATOM     94  C   UNL A   1      47.057  34.012  30.301  1.00  0.00     0.198 A 
ATOM     95  F   UNL A   1      46.707  31.767  30.905  1.00  0.00    -0.203 F 
ATOM     96  F   UNL A   1      46.359  35.764  27.207  1.00  0.00    -0.200 F 
ATOM     97  C   UNL A   1      46.973  35.033  29.367  1.00  0.00     0.200 A 
ATOM     98  F   UNL A   1      47.583  34.252  31.510  1.00  0.00    -0.200 F 
ATOM     99  F   UNL A   1      47.439  36.254  29.663  1.00  0.00    -0.200 F 
ENDBRANCH  66  89
ENDBRANCH  40  41
ENDBRANCH  32  35
ENDBRANCH  30  31
ENDBRANCH   1  30
TORSDOF 14
ENDMDL
