MODEL 1
REMARK VINA RESULT:     -14.0      0.000      0.000
REMARK SMILES Cc1cccc(NC(=O)COc2ccc(N3C[C@@H](C(=O)NCCCNC(=O)c4ccc(-c5c6nc(c(-c7c(F)c(F)c(F)c(F)c7F)c7ccc([nH]7)c(-c7c(F)c(F)c(F)c(F)c7F)c7nc(c(-c8c(F)c(F)c(F)c(F)c8F)c8ccc5[nH]8)C=C7)C=C6)cc4)CC3=O)cc2)c1
REMARK SMILES IDX 19 1 20 2 21 3 18 5 16 6 17 7 92 8 91 9 93 10 15 11 12 12
REMARK SMILES IDX 13 13 95 14 14 15 94 16 11 17 10 18 8 19 7 20 9 22 6 23 1 24
REMARK SMILES IDX 2 25 3 26 96 27 4 28 5 29 22 30 23 31 24 32 25 33 26 34
REMARK SMILES IDX 27 36 28 37 29 38 90 39 30 40 89 41 31 42 32 43 33 44 83 45
REMARK SMILES IDX 34 46 88 47 82 48 84 49 35 50 87 51 81 52 80 53 36 55 68 56
REMARK SMILES IDX 48 57 67 58 49 59 52 60 66 61 85 62 50 63 51 64 65 66 86 67
REMARK SMILES IDX 53 68 37 69 38 70 46 71 39 72 40 73 44 74 47 75 41 76 42 77
REMARK SMILES IDX 45 78 43 79 69 80 70 81 78 82 71 83 72 84 76 85 79 86 73 87
REMARK SMILES IDX 74 88 77 89 75 90 54 91 55 92 63 93 56 94 57 95 61 96 64 97
REMARK SMILES IDX 58 98 59 99 62 100 60 101
REMARK H PARENT 21 4 7 21 25 35 84 54 52 65
REMARK Flexibility Score: inf
ROOT
ATOM      1  C   UNL A   1      34.991  21.313  25.157  1.00  0.00     0.225 C 
ATOM      2  O   UNL A   1      34.060  20.788  25.779  1.00  0.00    -0.275 OA
ATOM      3  N   UNL A   1      36.212  20.744  25.313  1.00  0.00    -0.356 N 
ATOM      4  H   UNL A   1      36.215  19.996  25.954  1.00  0.00     0.163 HD
ENDROOT
BRANCH   1   5
ATOM      5  C   UNL A   1      34.704  22.536  24.302  1.00  0.00     0.107 C 
ATOM      6  N   UNL A   1      33.402  24.385  24.975  1.00  0.00    -0.312 N 
ATOM      7  C   UNL A   1      34.749  23.865  25.024  1.00  0.00     0.139 C 
ATOM      8  C   UNL A   1      32.559  23.591  24.194  1.00  0.00     0.227 C 
ATOM      9  C   UNL A   1      33.381  22.496  23.568  1.00  0.00     0.116 C 
ATOM     10  O   UNL A   1      31.367  23.727  23.965  1.00  0.00    -0.274 OA
BRANCH   6  11
ATOM     11  C   UNL A   1      33.029  25.574  25.658  1.00  0.00     0.044 A 
ATOM     12  C   UNL A   1      32.304  27.952  27.002  1.00  0.00     0.120 A 
ATOM     13  C   UNL A   1      33.575  27.812  26.450  1.00  0.00     0.048 A 
ATOM     14  C   UNL A   1      31.388  26.916  26.869  1.00  0.00     0.048 A 
ATOM     15  C   UNL A   1      33.943  26.626  25.809  1.00  0.00     0.030 A 
ATOM     16  C   UNL A   1      31.747  25.742  26.191  1.00  0.00     0.030 A 
BRANCH  12  17
ATOM     17  O   UNL A   1      32.032  29.166  27.559  1.00  0.00    -0.484 OA
BRANCH  17  18
ATOM     18  C   UNL A   1      32.425  30.307  26.817  1.00  0.00     0.329 C 
BRANCH  18  19
ATOM     19  C   UNL A   1      31.404  31.043  25.950  1.00  0.00     0.262 C 
ATOM     20  N   UNL A   1      30.852  30.521  24.821  1.00  0.00    -0.323 N 
ATOM     21  H   UNL A   1      30.150  31.097  24.442  1.00  0.00     0.170 HD
ATOM     22  O   UNL A   1      31.029  32.176  26.282  1.00  0.00    -0.271 OA
BRANCH  20  23
ATOM     23  C   UNL A   1      31.052  29.349  24.074  1.00  0.00     0.041 A 
ATOM     24  C   UNL A   1      34.027  27.905  22.153  1.00  0.00     0.044 C 
ATOM     25  C   UNL A   1      32.659  28.063  22.744  1.00  0.00    -0.049 A 
ATOM     26  C   UNL A   1      31.688  27.085  22.532  1.00  0.00     0.003 A 
ATOM     27  C   UNL A   1      32.332  29.186  23.518  1.00  0.00     0.029 A 
ATOM     28  C   UNL A   1      30.422  27.222  23.099  1.00  0.00     0.002 A 
ATOM     29  C   UNL A   1      30.111  28.343  23.876  1.00  0.00     0.026 A 
ENDBRANCH  20  23
ENDBRANCH  18  19
ENDBRANCH  17  18
ENDBRANCH  12  17
ENDBRANCH   6  11
ENDBRANCH   1   5
BRANCH   3  30
ATOM     30  C   UNL A   1      37.520  21.010  24.731  1.00  0.00     0.117 C 
BRANCH  30  31
ATOM     31  C   UNL A   1      38.113  22.343  25.173  1.00  0.00     0.042 C 
BRANCH  31  32
ATOM     32  C   UNL A   1      38.904  22.270  26.478  1.00  0.00     0.118 C 
BRANCH  32  33
ATOM     33  N   UNL A   1      40.329  22.521  26.330  1.00  0.00    -0.352 N 
ATOM     34  C   UNL A   1      41.035  23.725  26.382  1.00  0.00     0.251 C 
ATOM     35  H   UNL A   1      40.879  21.721  26.167  1.00  0.00     0.163 HD
ATOM     36  O   UNL A   1      42.233  23.740  26.222  1.00  0.00    -0.269 OA
BRANCH  34  37
ATOM     37  C   UNL A   1      40.314  24.962  26.773  1.00  0.00     0.039 A 
ATOM     38  C   UNL A   1      40.667  26.155  26.126  1.00  0.00     0.014 A 
ATOM     39  C   UNL A   1      39.467  24.992  27.874  1.00  0.00     0.014 A 
ATOM     40  C   UNL A   1      40.399  27.374  26.748  1.00  0.00     0.010 A 
ATOM     41  C   UNL A   1      39.286  26.187  28.544  1.00  0.00     0.010 A 
ATOM     42  C   UNL A   1      39.828  27.365  28.021  1.00  0.00    -0.014 A 
BRANCH  42  43
ATOM     43  C   UNL A   1      39.942  28.487  28.947  1.00  0.00     0.031 A 
ATOM     44  C   UNL A   1      38.905  29.529  29.049  1.00  0.00     0.074 A 
ATOM     45  C   UNL A   1      40.974  28.500  29.823  1.00  0.00     0.049 A 
ATOM     46  N   UNL A   1      39.127  30.712  29.521  1.00  0.00    -0.248 NA
ATOM     47  C   UNL A   1      37.529  29.326  28.615  1.00  0.00     0.031 C 
ATOM     48  C   UNL A   1      41.129  29.341  31.008  1.00  0.00     0.029 A 
ATOM     49  N   UNL A   1      42.218  27.863  29.687  1.00  0.00    -0.354 N 
ATOM     50  C   UNL A   1      37.910  31.313  29.713  1.00  0.00     0.074 A 
ATOM     51  C   UNL A   1      36.948  30.438  29.078  1.00  0.00     0.031 C 
ATOM     52  C   UNL A   1      42.434  29.428  31.305  1.00  0.00     0.029 A 
ATOM     53  C   UNL A   1      43.159  28.769  30.235  1.00  0.00     0.049 A 
ATOM     54  H   UNL A   1      42.398  26.979  29.295  1.00  0.00     0.167 HD
ATOM     55  C   UNL A   1      37.815  32.423  30.498  1.00  0.00     0.037 A 
ATOM     56  C   UNL A   1      44.111  29.350  29.447  1.00  0.00     0.037 A 
ATOM     57  C   UNL A   1      39.107  32.859  31.016  1.00  0.00     0.049 A 
ATOM     58  C   UNL A   1      44.068  30.864  29.405  1.00  0.00     0.074 A 
ATOM     59  C   UNL A   1      39.762  32.734  32.231  1.00  0.00     0.029 A 
ATOM     60  N   UNL A   1      40.065  33.296  30.119  1.00  0.00    -0.354 N 
ATOM     61  N   UNL A   1      43.148  31.596  29.968  1.00  0.00    -0.248 NA
ATOM     62  C   UNL A   1      45.002  31.661  28.608  1.00  0.00     0.031 C 
ATOM     63  C   UNL A   1      41.120  33.121  32.053  1.00  0.00     0.029 A 
ATOM     64  C   UNL A   1      41.291  33.476  30.729  1.00  0.00     0.049 A 
ATOM     65  H   UNL A   1      39.894  33.459  29.163  1.00  0.00     0.167 HD
ATOM     66  C   UNL A   1      43.301  32.898  29.569  1.00  0.00     0.074 A 
ATOM     67  C   UNL A   1      44.473  32.890  28.718  1.00  0.00     0.031 C 
ATOM     68  C   UNL A   1      42.425  33.883  29.921  1.00  0.00     0.037 A 
BRANCH  55  69
ATOM     69  C   UNL A   1      36.487  32.949  30.972  1.00  0.00     0.064 A 
ATOM     70  C   UNL A   1      35.721  33.826  30.180  1.00  0.00     0.173 A 
ATOM     71  C   UNL A   1      35.948  32.649  32.237  1.00  0.00     0.173 A 
ATOM     72  F   UNL A   1      36.075  34.129  28.926  1.00  0.00    -0.203 F 
ATOM     73  C   UNL A   1      34.567  34.447  30.663  1.00  0.00     0.198 A 
ATOM     74  C   UNL A   1      34.827  33.314  32.741  1.00  0.00     0.198 A 
ATOM     75  F   UNL A   1      36.492  31.697  33.008  1.00  0.00    -0.203 F 
ATOM     76  F   UNL A   1      33.883  35.284  29.872  1.00  0.00    -0.200 F 
ATOM     77  C   UNL A   1      34.144  34.223  31.957  1.00  0.00     0.200 A 
ATOM     78  F   UNL A   1      34.423  33.079  33.998  1.00  0.00    -0.200 F 
ATOM     79  F   UNL A   1      33.075  34.869  32.442  1.00  0.00    -0.200 F 
ENDBRANCH  55  69
BRANCH  56  80
ATOM     80  C   UNL A   1      44.525  28.492  28.303  1.00  0.00     0.064 A 
ATOM     81  C   UNL A   1      45.324  27.358  28.553  1.00  0.00     0.173 A 
ATOM     82  C   UNL A   1      43.893  28.572  27.056  1.00  0.00     0.173 A 
ATOM     83  F   UNL A   1      45.947  27.222  29.735  1.00  0.00    -0.203 F 
ATOM     84  C   UNL A   1      45.394  26.306  27.644  1.00  0.00     0.198 A 
ATOM     85  C   UNL A   1      43.987  27.527  26.137  1.00  0.00     0.198 A 
ATOM     86  F   UNL A   1      43.093  29.607  26.763  1.00  0.00    -0.203 F 
ATOM     87  F   UNL A   1      46.065  25.189  27.963  1.00  0.00    -0.200 F 
ATOM     88  C   UNL A   1      44.709  26.384  26.444  1.00  0.00     0.200 A 
ATOM     89  F   UNL A   1      43.297  27.590  24.990  1.00  0.00    -0.200 F 
ATOM     90  F   UNL A   1      44.705  25.341  25.602  1.00  0.00    -0.200 F 
ENDBRANCH  56  80
BRANCH  68  91
ATOM     91  C   UNL A   1      42.569  35.319  29.502  1.00  0.00     0.064 A 
ATOM     92  C   UNL A   1      41.980  35.828  28.334  1.00  0.00     0.173 A 
ATOM     93  C   UNL A   1      43.402  36.209  30.213  1.00  0.00     0.173 A 
ATOM     94  F   UNL A   1      41.234  35.042  27.543  1.00  0.00    -0.203 F 
ATOM     95  C   UNL A   1      42.161  37.155  27.940  1.00  0.00     0.198 A 
ATOM     96  C   UNL A   1      43.625  37.517  29.787  1.00  0.00     0.198 A 
ATOM     97  F   UNL A   1      44.006  35.845  31.354  1.00  0.00    -0.203 F 
ATOM     98  F   UNL A   1      41.530  37.617  26.851  1.00  0.00    -0.200 F 
ATOM     99  C   UNL A   1      42.991  37.996  28.660  1.00  0.00     0.200 A 
ATOM    100  F   UNL A   1      44.454  38.310  30.483  1.00  0.00    -0.200 F 
ATOM    101  F   UNL A   1      43.178  39.263  28.270  1.00  0.00    -0.200 F 
ENDBRANCH  68  91
ENDBRANCH  42  43
ENDBRANCH  34  37
ENDBRANCH  32  33
ENDBRANCH  31  32
ENDBRANCH  30  31
ENDBRANCH   3  30
TORSDOF 15
ENDMDL
MODEL 2
REMARK VINA RESULT:     -13.8      3.467     10.180
REMARK SMILES Cc1cccc(NC(=O)COc2ccc(N3C[C@@H](C(=O)NCCCNC(=O)c4ccc(-c5c6nc(c(-c7c(F)c(F)c(F)c(F)c7F)c7ccc([nH]7)c(-c7c(F)c(F)c(F)c(F)c7F)c7nc(c(-c8c(F)c(F)c(F)c(F)c8F)c8ccc5[nH]8)C=C7)C=C6)cc4)CC3=O)cc2)c1
REMARK SMILES IDX 19 1 20 2 21 3 18 5 16 6 17 7 92 8 91 9 93 10 15 11 12 12
REMARK SMILES IDX 13 13 95 14 14 15 94 16 11 17 10 18 8 19 7 20 9 22 6 23 1 24
REMARK SMILES IDX 2 25 3 26 96 27 4 28 5 29 22 30 23 31 24 32 25 33 26 34
REMARK SMILES IDX 27 36 28 37 29 38 90 39 30 40 89 41 31 42 32 43 33 44 83 45
REMARK SMILES IDX 34 46 88 47 82 48 84 49 35 50 87 51 81 52 80 53 36 55 68 56
REMARK SMILES IDX 48 57 67 58 49 59 52 60 66 61 85 62 50 63 51 64 65 66 86 67
REMARK SMILES IDX 53 68 37 69 38 70 46 71 39 72 40 73 44 74 47 75 41 76 42 77
REMARK SMILES IDX 45 78 43 79 69 80 70 81 78 82 71 83 72 84 76 85 79 86 73 87
REMARK SMILES IDX 74 88 77 89 75 90 54 91 55 92 63 93 56 94 57 95 61 96 64 97
REMARK SMILES IDX 58 98 59 99 62 100 60 101
REMARK H PARENT 21 4 7 21 25 35 84 54 52 65
REMARK Flexibility Score: inf
ROOT
ATOM      1  C   UNL A   1      32.917  28.737  25.011  1.00  0.00     0.225 C 
ATOM      2  O   UNL A   1      33.223  28.474  23.843  1.00  0.00    -0.275 OA
ATOM      3  N   UNL A   1      32.798  30.053  25.318  1.00  0.00    -0.356 N 
ATOM      4  H   UNL A   1      33.021  30.650  24.567  1.00  0.00     0.163 HD
ENDROOT
BRANCH   1   5
ATOM      5  C   UNL A   1      32.723  27.594  25.994  1.00  0.00     0.107 C 
ATOM      6  N   UNL A   1      32.021  25.416  25.416  1.00  0.00    -0.312 N 
ATOM      7  C   UNL A   1      33.205  26.238  25.524  1.00  0.00     0.139 C 
ATOM      8  C   UNL A   1      30.881  26.070  25.889  1.00  0.00     0.227 C 
ATOM      9  C   UNL A   1      31.296  27.399  26.460  1.00  0.00     0.116 C 
ATOM     10  O   UNL A   1      29.725  25.677  25.920  1.00  0.00    -0.274 OA
BRANCH   6  11
ATOM     11  C   UNL A   1      32.066  24.099  24.887  1.00  0.00     0.044 A 
ATOM     12  C   UNL A   1      32.176  21.483  23.822  1.00  0.00     0.120 A 
ATOM     13  C   UNL A   1      32.750  22.550  23.135  1.00  0.00     0.048 A 
ATOM     14  C   UNL A   1      31.564  21.715  25.047  1.00  0.00     0.048 A 
ATOM     15  C   UNL A   1      32.672  23.848  23.648  1.00  0.00     0.030 A 
ATOM     16  C   UNL A   1      31.521  23.012  25.579  1.00  0.00     0.030 A 
BRANCH  12  17
ATOM     17  O   UNL A   1      32.353  20.254  23.259  1.00  0.00    -0.484 OA
BRANCH  17  18
ATOM     18  C   UNL A   1      32.529  19.167  24.150  1.00  0.00     0.329 C 
BRANCH  18  19
ATOM     19  C   UNL A   1      33.927  18.601  24.399  1.00  0.00     0.262 C 
ATOM     20  N   UNL A   1      34.930  19.298  24.998  1.00  0.00    -0.323 N 
ATOM     21  H   UNL A   1      35.732  18.748  25.156  1.00  0.00     0.170 HD
ATOM     22  O   UNL A   1      34.182  17.438  24.057  1.00  0.00    -0.271 OA
BRANCH  20  23
ATOM     23  C   UNL A   1      35.085  20.620  25.446  1.00  0.00     0.041 A 
ATOM     24  C   UNL A   1      36.851  23.707  24.039  1.00  0.00     0.044 C 
ATOM     25  C   UNL A   1      36.057  22.812  24.942  1.00  0.00    -0.049 A 
ATOM     26  C   UNL A   1      35.534  23.309  26.137  1.00  0.00     0.003 A 
ATOM     27  C   UNL A   1      35.823  21.470  24.606  1.00  0.00     0.029 A 
ATOM     28  C   UNL A   1      34.779  22.482  26.966  1.00  0.00     0.002 A 
ATOM     29  C   UNL A   1      34.546  21.148  26.616  1.00  0.00     0.026 A 
ENDBRANCH  20  23
ENDBRANCH  18  19
ENDBRANCH  17  18
ENDBRANCH  12  17
ENDBRANCH   6  11
ENDBRANCH   1   5
BRANCH   3  30
ATOM     30  C   UNL A   1      32.410  30.766  26.527  1.00  0.00     0.117 C 
BRANCH  30  31
ATOM     31  C   UNL A   1      33.390  30.571  27.679  1.00  0.00     0.042 C 
BRANCH  31  32
ATOM     32  C   UNL A   1      34.733  31.270  27.479  1.00  0.00     0.118 C 
BRANCH  32  33
ATOM     33  N   UNL A   1      35.288  31.860  28.687  1.00  0.00    -0.352 N 
ATOM     34  C   UNL A   1      36.240  31.351  29.574  1.00  0.00     0.251 C 
ATOM     35  H   UNL A   1      34.939  32.752  28.915  1.00  0.00     0.163 HD
ATOM     36  O   UNL A   1      36.574  31.989  30.545  1.00  0.00    -0.269 OA
BRANCH  34  37
ATOM     37  C   UNL A   1      36.933  30.084  29.233  1.00  0.00     0.039 A 
ATOM     38  C   UNL A   1      37.141  29.157  30.263  1.00  0.00     0.014 A 
ATOM     39  C   UNL A   1      37.538  29.897  27.996  1.00  0.00     0.014 A 
ATOM     40  C   UNL A   1      38.161  28.215  30.138  1.00  0.00     0.010 A 
ATOM     41  C   UNL A   1      38.613  29.034  27.902  1.00  0.00     0.010 A 
ATOM     42  C   UNL A   1      38.976  28.256  29.005  1.00  0.00    -0.014 A 
BRANCH  42  43
ATOM     43  C   UNL A   1      40.318  27.682  28.974  1.00  0.00     0.031 A 
ATOM     44  C   UNL A   1      40.560  26.274  28.615  1.00  0.00     0.074 A 
ATOM     45  C   UNL A   1      41.377  28.503  29.162  1.00  0.00     0.049 A 
ATOM     46  N   UNL A   1      41.624  25.624  28.957  1.00  0.00    -0.248 NA
ATOM     47  C   UNL A   1      39.614  25.474  27.848  1.00  0.00     0.031 C 
ATOM     48  C   UNL A   1      42.785  28.222  28.890  1.00  0.00     0.029 A 
ATOM     49  N   UNL A   1      41.396  29.729  29.847  1.00  0.00    -0.354 N 
ATOM     50  C   UNL A   1      41.639  24.454  28.243  1.00  0.00     0.074 A 
ATOM     51  C   UNL A   1      40.338  24.375  27.613  1.00  0.00     0.031 C 
ATOM     52  C   UNL A   1      43.538  29.034  29.645  1.00  0.00     0.029 A 
ATOM     53  C   UNL A   1      42.638  29.753  30.528  1.00  0.00     0.049 A 
ATOM     54  H   UNL A   1      40.698  30.422  29.853  1.00  0.00     0.167 HD
ATOM     55  C   UNL A   1      42.789  23.729  28.148  1.00  0.00     0.037 A 
ATOM     56  C   UNL A   1      42.687  29.742  31.891  1.00  0.00     0.037 A 
ATOM     57  C   UNL A   1      43.891  24.318  28.900  1.00  0.00     0.049 A 
ATOM     58  C   UNL A   1      43.433  28.568  32.493  1.00  0.00     0.074 A 
ATOM     59  C   UNL A   1      44.999  25.081  28.568  1.00  0.00     0.029 A 
ATOM     60  N   UNL A   1      43.784  24.395  30.278  1.00  0.00    -0.354 N 
ATOM     61  N   UNL A   1      43.911  27.565  31.813  1.00  0.00    -0.248 NA
ATOM     62  C   UNL A   1      43.583  28.382  33.938  1.00  0.00     0.031 C 
ATOM     63  C   UNL A   1      45.565  25.599  29.767  1.00  0.00     0.029 A 
ATOM     64  C   UNL A   1      44.797  25.156  30.826  1.00  0.00     0.049 A 
ATOM     65  H   UNL A   1      43.072  23.961  30.802  1.00  0.00     0.167 HD
ATOM     66  C   UNL A   1      44.344  26.596  32.680  1.00  0.00     0.074 A 
ATOM     67  C   UNL A   1      44.117  27.152  33.999  1.00  0.00     0.031 C 
ATOM     68  C   UNL A   1      44.807  25.384  32.259  1.00  0.00     0.037 A 
BRANCH  55  69
ATOM     69  C   UNL A   1      42.939  22.606  27.157  1.00  0.00     0.064 A 
ATOM     70  C   UNL A   1      42.253  21.387  27.320  1.00  0.00     0.173 A 
ATOM     71  C   UNL A   1      43.800  22.671  26.045  1.00  0.00     0.173 A 
ATOM     72  F   UNL A   1      41.343  21.219  28.286  1.00  0.00    -0.203 F 
ATOM     73  C   UNL A   1      42.498  20.281  26.503  1.00  0.00     0.198 A 
ATOM     74  C   UNL A   1      44.089  21.549  25.264  1.00  0.00     0.198 A 
ATOM     75  F   UNL A   1      44.372  23.830  25.686  1.00  0.00    -0.203 F 
ATOM     76  F   UNL A   1      41.827  19.141  26.710  1.00  0.00    -0.200 F 
ATOM     77  C   UNL A   1      43.447  20.350  25.502  1.00  0.00     0.200 A 
ATOM     78  F   UNL A   1      45.006  21.635  24.290  1.00  0.00    -0.200 F 
ATOM     79  F   UNL A   1      43.729  19.270  24.762  1.00  0.00    -0.200 F 
ENDBRANCH  55  69
BRANCH  56  80
ATOM     80  C   UNL A   1      41.511  30.400  32.524  1.00  0.00     0.064 A 
ATOM     81  C   UNL A   1      41.443  31.808  32.540  1.00  0.00     0.173 A 
ATOM     82  C   UNL A   1      40.335  29.695  32.802  1.00  0.00     0.173 A 
ATOM     83  F   UNL A   1      42.538  32.538  32.270  1.00  0.00    -0.203 F 
ATOM     84  C   UNL A   1      40.232  32.473  32.714  1.00  0.00     0.198 A 
ATOM     85  C   UNL A   1      39.129  30.365  33.003  1.00  0.00     0.198 A 
ATOM     86  F   UNL A   1      40.321  28.354  32.774  1.00  0.00    -0.203 F 
ATOM     87  F   UNL A   1      40.180  33.808  32.603  1.00  0.00    -0.200 F 
ATOM     88  C   UNL A   1      39.072  31.749  32.927  1.00  0.00     0.200 A 
ATOM     89  F   UNL A   1      38.001  29.662  33.176  1.00  0.00    -0.200 F 
ATOM     90  F   UNL A   1      37.892  32.378  33.012  1.00  0.00    -0.200 F 
ENDBRANCH  56  80
BRANCH  68  91
ATOM     91  C   UNL A   1      45.292  24.306  33.186  1.00  0.00     0.064 A 
ATOM     92  C   UNL A   1      46.599  24.282  33.698  1.00  0.00     0.173 A 
ATOM     93  C   UNL A   1      44.482  23.195  33.505  1.00  0.00     0.173 A 
ATOM     94  F   UNL A   1      47.475  25.250  33.390  1.00  0.00    -0.203 F 
ATOM     95  C   UNL A   1      47.044  23.248  34.525  1.00  0.00     0.198 A 
ATOM     96  C   UNL A   1      44.946  22.137  34.285  1.00  0.00     0.198 A 
ATOM     97  F   UNL A   1      43.210  23.112  33.089  1.00  0.00    -0.203 F 
ATOM     98  F   UNL A   1      48.279  23.296  35.042  1.00  0.00    -0.200 F 
ATOM     99  C   UNL A   1      46.222  22.172  34.810  1.00  0.00     0.200 A 
ATOM    100  F   UNL A   1      44.145  21.090  34.529  1.00  0.00    -0.200 F 
ATOM    101  F   UNL A   1      46.656  21.172  35.588  1.00  0.00    -0.200 F 
ENDBRANCH  68  91
ENDBRANCH  42  43
ENDBRANCH  34  37
ENDBRANCH  32  33
ENDBRANCH  31  32
ENDBRANCH  30  31
ENDBRANCH   3  30
TORSDOF 15
ENDMDL
MODEL 3
REMARK VINA RESULT:     -13.2      3.052      5.111
REMARK SMILES Cc1cccc(NC(=O)COc2ccc(N3C[C@@H](C(=O)NCCCNC(=O)c4ccc(-c5c6nc(c(-c7c(F)c(F)c(F)c(F)c7F)c7ccc([nH]7)c(-c7c(F)c(F)c(F)c(F)c7F)c7nc(c(-c8c(F)c(F)c(F)c(F)c8F)c8ccc5[nH]8)C=C7)C=C6)cc4)CC3=O)cc2)c1
REMARK SMILES IDX 19 1 20 2 21 3 18 5 16 6 17 7 92 8 91 9 93 10 15 11 12 12
REMARK SMILES IDX 13 13 95 14 14 15 94 16 11 17 10 18 8 19 7 20 9 22 6 23 1 24
REMARK SMILES IDX 2 25 3 26 96 27 4 28 5 29 22 30 23 31 24 32 25 33 26 34
REMARK SMILES IDX 27 36 28 37 29 38 90 39 30 40 89 41 31 42 32 43 33 44 83 45
REMARK SMILES IDX 34 46 88 47 82 48 84 49 35 50 87 51 81 52 80 53 36 55 68 56
REMARK SMILES IDX 48 57 67 58 49 59 52 60 66 61 85 62 50 63 51 64 65 66 86 67
REMARK SMILES IDX 53 68 37 69 38 70 46 71 39 72 40 73 44 74 47 75 41 76 42 77
REMARK SMILES IDX 45 78 43 79 69 80 70 81 78 82 71 83 72 84 76 85 79 86 73 87
REMARK SMILES IDX 74 88 77 89 75 90 54 91 55 92 63 93 56 94 57 95 61 96 64 97
REMARK SMILES IDX 58 98 59 99 62 100 60 101
REMARK H PARENT 21 4 7 21 25 35 84 54 52 65
REMARK Flexibility Score: inf
ROOT
ATOM      1  C   UNL A   1      38.635  22.922  26.130  1.00  0.00     0.225 C 
ATOM      2  O   UNL A   1      38.724  24.040  26.649  1.00  0.00    -0.275 OA
ATOM      3  N   UNL A   1      39.672  22.076  26.349  1.00  0.00    -0.356 N 
ATOM      4  H   UNL A   1      40.405  22.484  26.864  1.00  0.00     0.163 HD
ENDROOT
BRANCH   1   5
ATOM      5  C   UNL A   1      37.409  22.597  25.293  1.00  0.00     0.107 C 
ATOM      6  N   UNL A   1      35.218  23.348  25.749  1.00  0.00    -0.312 N 
ATOM      7  C   UNL A   1      36.439  23.739  25.081  1.00  0.00     0.139 C 
ATOM      8  C   UNL A   1      35.282  22.041  26.239  1.00  0.00     0.227 C 
ATOM      9  C   UNL A   1      36.587  21.432  25.803  1.00  0.00     0.116 C 
ATOM     10  O   UNL A   1      34.444  21.413  26.867  1.00  0.00    -0.274 OA
BRANCH   6  11
ATOM     11  C   UNL A   1      34.109  24.228  25.865  1.00  0.00     0.044 A 
ATOM     12  C   UNL A   1      31.909  25.990  26.075  1.00  0.00     0.120 A 
ATOM     13  C   UNL A   1      33.086  26.401  25.454  1.00  0.00     0.048 A 
ATOM     14  C   UNL A   1      31.821  24.697  26.575  1.00  0.00     0.048 A 
ATOM     15  C   UNL A   1      34.184  25.538  25.374  1.00  0.00     0.030 A 
ATOM     16  C   UNL A   1      32.909  23.821  26.459  1.00  0.00     0.030 A 
BRANCH  12  17
ATOM     17  O   UNL A   1      30.885  26.889  26.053  1.00  0.00    -0.484 OA
BRANCH  17  18
ATOM     18  C   UNL A   1      30.357  27.219  24.781  1.00  0.00     0.329 C 
BRANCH  18  19
ATOM     19  C   UNL A   1      29.350  26.288  24.106  1.00  0.00     0.262 C 
ATOM     20  N   UNL A   1      29.699  25.168  23.418  1.00  0.00    -0.323 N 
ATOM     21  H   UNL A   1      28.918  24.643  23.128  1.00  0.00     0.170 HD
ATOM     22  O   UNL A   1      28.140  26.538  24.190  1.00  0.00    -0.271 OA
BRANCH  20  23
ATOM     23  C   UNL A   1      30.916  24.586  23.027  1.00  0.00     0.041 A 
ATOM     24  C   UNL A   1      32.485  21.133  23.522  1.00  0.00     0.044 C 
ATOM     25  C   UNL A   1      32.287  22.557  23.095  1.00  0.00    -0.049 A 
ATOM     26  C   UNL A   1      33.280  23.213  22.366  1.00  0.00     0.003 A 
ATOM     27  C   UNL A   1      31.111  23.250  23.416  1.00  0.00     0.029 A 
ATOM     28  C   UNL A   1      33.087  24.529  21.952  1.00  0.00     0.002 A 
ATOM     29  C   UNL A   1      31.906  25.208  22.271  1.00  0.00     0.026 A 
ENDBRANCH  20  23
ENDBRANCH  18  19
ENDBRANCH  17  18
ENDBRANCH  12  17
ENDBRANCH   6  11
ENDBRANCH   1   5
BRANCH   3  30
ATOM     30  C   UNL A   1      39.927  20.691  25.977  1.00  0.00     0.117 C 
BRANCH  30  31
ATOM     31  C   UNL A   1      41.173  20.113  26.640  1.00  0.00     0.042 C 
BRANCH  31  32
ATOM     32  C   UNL A   1      42.453  20.893  26.347  1.00  0.00     0.118 C 
BRANCH  32  33
ATOM     33  N   UNL A   1      43.266  20.330  25.280  1.00  0.00    -0.352 N 
ATOM     34  C   UNL A   1      44.321  20.902  24.564  1.00  0.00     0.251 C 
ATOM     35  H   UNL A   1      43.039  19.407  25.024  1.00  0.00     0.163 HD
ATOM     36  O   UNL A   1      44.878  20.276  23.692  1.00  0.00    -0.269 OA
BRANCH  34  37
ATOM     37  C   UNL A   1      44.835  22.230  24.980  1.00  0.00     0.039 A 
ATOM     38  C   UNL A   1      45.653  22.286  26.116  1.00  0.00     0.014 A 
ATOM     39  C   UNL A   1      44.369  23.404  24.400  1.00  0.00     0.014 A 
ATOM     40  C   UNL A   1      45.767  23.485  26.818  1.00  0.00     0.010 A 
ATOM     41  C   UNL A   1      44.394  24.570  25.141  1.00  0.00     0.010 A 
ATOM     42  C   UNL A   1      45.021  24.584  26.391  1.00  0.00    -0.014 A 
BRANCH  42  43
ATOM     43  C   UNL A   1      44.676  25.697  27.270  1.00  0.00     0.031 A 
ATOM     44  C   UNL A   1      43.351  26.339  27.241  1.00  0.00     0.074 A 
ATOM     45  C   UNL A   1      45.563  26.066  28.224  1.00  0.00     0.049 A 
ATOM     46  N   UNL A   1      43.129  27.537  27.674  1.00  0.00    -0.248 NA
ATOM     47  C   UNL A   1      42.162  25.686  26.708  1.00  0.00     0.031 C 
ATOM     48  C   UNL A   1      45.326  26.931  29.377  1.00  0.00     0.029 A 
ATOM     49  N   UNL A   1      46.955  25.874  28.216  1.00  0.00    -0.354 N 
ATOM     50  C   UNL A   1      41.769  27.705  27.740  1.00  0.00     0.074 A 
ATOM     51  C   UNL A   1      41.210  26.550  27.072  1.00  0.00     0.031 C 
ATOM     52  C   UNL A   1      46.498  27.450  29.773  1.00  0.00     0.029 A 
ATOM     53  C   UNL A   1      47.493  27.049  28.795  1.00  0.00     0.049 A 
ATOM     54  H   UNL A   1      47.449  25.092  27.882  1.00  0.00     0.167 HD
ATOM     55  C   UNL A   1      41.246  28.735  28.464  1.00  0.00     0.037 A 
ATOM     56  C   UNL A   1      48.269  27.898  28.059  1.00  0.00     0.037 A 
ATOM     57  C   UNL A   1      42.271  29.582  29.062  1.00  0.00     0.049 A 
ATOM     58  C   UNL A   1      47.735  29.312  27.945  1.00  0.00     0.074 A 
ATOM     59  C   UNL A   1      42.818  29.702  30.329  1.00  0.00     0.029 A 
ATOM     60  N   UNL A   1      43.110  30.296  28.225  1.00  0.00    -0.354 N 
ATOM     61  N   UNL A   1      46.580  29.709  28.398  1.00  0.00    -0.248 NA
ATOM     62  C   UNL A   1      48.425  30.359  27.188  1.00  0.00     0.031 C 
ATOM     63  C   UNL A   1      43.985  30.513  30.242  1.00  0.00     0.029 A 
ATOM     64  C   UNL A   1      44.148  30.881  28.921  1.00  0.00     0.049 A 
ATOM     65  H   UNL A   1      42.981  30.377  27.251  1.00  0.00     0.167 HD
ATOM     66  C   UNL A   1      46.332  30.981  27.953  1.00  0.00     0.074 A 
ATOM     67  C   UNL A   1      47.515  31.346  27.199  1.00  0.00     0.031 C 
ATOM     68  C   UNL A   1      45.154  31.626  28.188  1.00  0.00     0.037 A 
BRANCH  55  69
ATOM     69  C   UNL A   1      39.782  28.800  28.805  1.00  0.00     0.064 A 
ATOM     70  C   UNL A   1      38.830  29.258  27.872  1.00  0.00     0.173 A 
ATOM     71  C   UNL A   1      39.272  28.464  30.073  1.00  0.00     0.173 A 
ATOM     72  F   UNL A   1      39.166  29.532  26.607  1.00  0.00    -0.203 F 
ATOM     73  C   UNL A   1      37.495  29.474  28.219  1.00  0.00     0.198 A 
ATOM     74  C   UNL A   1      37.950  28.735  30.437  1.00  0.00     0.198 A 
ATOM     75  F   UNL A   1      40.044  27.855  30.985  1.00  0.00    -0.203 F 
ATOM     76  F   UNL A   1      36.634  29.924  27.296  1.00  0.00    -0.200 F 
ATOM     77  C   UNL A   1      37.065  29.253  29.511  1.00  0.00     0.200 A 
ATOM     78  F   UNL A   1      37.545  28.506  31.694  1.00  0.00    -0.200 F 
ATOM     79  F   UNL A   1      35.800  29.523  29.860  1.00  0.00    -0.200 F 
ENDBRANCH  55  69
BRANCH  56  80
ATOM     80  C   UNL A   1      49.043  27.206  26.993  1.00  0.00     0.064 A 
ATOM     81  C   UNL A   1      48.519  27.166  25.685  1.00  0.00     0.173 A 
ATOM     82  C   UNL A   1      50.397  26.889  27.155  1.00  0.00     0.173 A 
ATOM     83  F   UNL A   1      47.230  27.471  25.467  1.00  0.00    -0.203 F 
ATOM     84  C   UNL A   1      49.338  26.930  24.583  1.00  0.00     0.198 A 
ATOM     85  C   UNL A   1      51.208  26.627  26.051  1.00  0.00     0.198 A 
ATOM     86  F   UNL A   1      50.968  26.937  28.367  1.00  0.00    -0.203 F 
ATOM     87  F   UNL A   1      48.833  27.018  23.344  1.00  0.00    -0.200 F 
ATOM     88  C   UNL A   1      50.686  26.679  24.767  1.00  0.00     0.200 A 
ATOM     89  F   UNL A   1      52.520  26.417  26.228  1.00  0.00    -0.200 F 
ATOM     90  F   UNL A   1      51.495  26.534  23.708  1.00  0.00    -0.200 F 
ENDBRANCH  56  80
BRANCH  68  91
ATOM     91  C   UNL A   1      44.857  33.022  27.716  1.00  0.00     0.064 A 
ATOM     92  C   UNL A   1      45.177  34.159  28.474  1.00  0.00     0.173 A 
ATOM     93  C   UNL A   1      44.137  33.255  26.525  1.00  0.00     0.173 A 
ATOM     94  F   UNL A   1      45.791  34.042  29.661  1.00  0.00    -0.203 F 
ATOM     95  C   UNL A   1      44.855  35.446  28.039  1.00  0.00     0.198 A 
ATOM     96  C   UNL A   1      43.768  34.537  26.120  1.00  0.00     0.198 A 
ATOM     97  F   UNL A   1      43.790  32.251  25.707  1.00  0.00    -0.203 F 
ATOM     98  F   UNL A   1      45.234  36.508  28.764  1.00  0.00    -0.200 F 
ATOM     99  C   UNL A   1      44.142  35.634  26.867  1.00  0.00     0.200 A 
ATOM    100  F   UNL A   1      43.055  34.699  24.996  1.00  0.00    -0.200 F 
ATOM    101  F   UNL A   1      43.818  36.868  26.460  1.00  0.00    -0.200 F 
ENDBRANCH  68  91
ENDBRANCH  42  43
ENDBRANCH  34  37
ENDBRANCH  32  33
ENDBRANCH  31  32
ENDBRANCH  30  31
ENDBRANCH   3  30
TORSDOF 15
ENDMDL
