MODEL 1
REMARK VINA RESULT:     -13.1      0.000      0.000
REMARK SMILES O=C(Cn1c(=O)n(Cc2cccnc2)c(=O)c2sccc21)NCCCNC(=O)c1ccc(-c2c3nc(c(-c4c(F)c(F)c(F)c(F)c4F)c4ccc([nH]4)c(-c4c(F)c(F)c(F)c(F)c4F)c4nc(c(-c5c(F)c(F)c(F)c(F)c5F)c5ccc2[nH]5)C=C4)C=C3)cc1
REMARK SMILES IDX 23 1 22 2 1 3 2 4 3 6 4 7 5 8 21 9 6 10 7 11 17 12 20 13
REMARK SMILES IDX 15 14 18 15 19 16 16 17 8 18 9 19 10 20 14 21 11 22 13 23
REMARK SMILES IDX 12 24 24 25 25 26 26 27 27 28 28 30 29 31 30 32 91 33 31 34
REMARK SMILES IDX 90 35 32 36 33 37 34 38 84 39 35 40 89 41 83 42 85 43 36 44
REMARK SMILES IDX 88 45 82 46 81 47 37 49 69 50 49 51 68 52 50 53 53 54 67 55
REMARK SMILES IDX 86 56 51 57 52 58 66 60 87 61 54 62 38 63 39 64 47 65 40 66
REMARK SMILES IDX 41 67 45 68 48 69 42 70 43 71 46 72 44 73 70 74 71 75 79 76
REMARK SMILES IDX 72 77 73 78 77 79 80 80 74 81 75 82 78 83 76 84 55 85 56 86
REMARK SMILES IDX 64 87 57 88 58 89 62 90 65 91 59 92 60 93 63 94 61 95
REMARK H PARENT 22 5 26 29 85 48 53 59
REMARK Flexibility Score: inf
ROOT
ATOM      1  C   UNL A   1      36.202  21.734  25.560  1.00  0.00     0.117 C 
ENDROOT
BRANCH   1   2
ATOM      2  N   UNL A   1      34.827  21.922  25.122  1.00  0.00    -0.354 N 
ATOM      3  O   UNL A   1      33.899  21.626  27.187  1.00  0.00    -0.273 OA
ATOM      4  C   UNL A   1      33.818  22.083  26.046  1.00  0.00     0.240 C 
ATOM      5  H   UNL A   1      34.617  21.935  24.160  1.00  0.00     0.163 HD
BRANCH   4   6
ATOM      6  C   UNL A   1      32.503  22.708  25.547  1.00  0.00     0.227 C 
BRANCH   6   7
ATOM      7  N   UNL A   1      32.421  24.144  25.201  1.00  0.00    -0.283 N 
ATOM      8  C   UNL A   1      31.851  25.038  26.130  1.00  0.00     0.332 A 
ATOM      9  C   UNL A   1      32.555  24.551  23.863  1.00  0.00     0.070 A 
ATOM     10  O   UNL A   1      31.516  24.667  27.255  1.00  0.00    -0.247 OA
ATOM     11  N   UNL A   1      31.680  26.366  25.730  1.00  0.00    -0.254 N 
ATOM     12  C   UNL A   1      32.147  25.803  23.487  1.00  0.00     0.116 A 
ATOM     13  C   UNL A   1      33.003  23.804  22.728  1.00  0.00     0.039 A 
ATOM     14  C   UNL A   1      31.595  26.762  24.396  1.00  0.00     0.274 A 
ATOM     15  S   UNL A   1      32.316  26.108  21.827  1.00  0.00    -0.136 S 
ATOM     16  C   UNL A   1      32.930  24.535  21.559  1.00  0.00     0.068 A 
ATOM     17  O   UNL A   1      31.060  27.810  24.045  1.00  0.00    -0.268 OA
BRANCH  11  18
ATOM     18  C   UNL A   1      31.302  27.356  26.740  1.00  0.00     0.168 C 
BRANCH  18  19
ATOM     19  C   UNL A   1      32.334  28.451  26.916  1.00  0.00    -0.010 A 
ATOM     20  C   UNL A   1      33.703  28.170  26.993  1.00  0.00     0.009 A 
ATOM     21  C   UNL A   1      31.961  29.788  27.043  1.00  0.00     0.116 A 
ATOM     22  C   UNL A   1      34.615  29.207  27.194  1.00  0.00     0.020 A 
ATOM     23  N   UNL A   1      32.826  30.814  27.217  1.00  0.00    -0.264 NA
ATOM     24  C   UNL A   1      34.133  30.500  27.296  1.00  0.00     0.111 A 
ENDBRANCH  18  19
ENDBRANCH  11  18
ENDBRANCH   6   7
ENDBRANCH   4   6
ENDBRANCH   1   2
BRANCH   1  25
ATOM     25  C   UNL A   1      37.166  22.828  25.115  1.00  0.00     0.042 C 
BRANCH  25  26
ATOM     26  C   UNL A   1      38.134  23.236  26.210  1.00  0.00     0.118 C 
BRANCH  26  27
ATOM     27  N   UNL A   1      39.330  22.392  26.290  1.00  0.00    -0.352 N 
ATOM     28  C   UNL A   1      40.646  22.808  26.417  1.00  0.00     0.251 C 
ATOM     29  H   UNL A   1      39.181  21.420  26.250  1.00  0.00     0.163 HD
ATOM     30  O   UNL A   1      41.580  22.063  26.193  1.00  0.00    -0.269 OA
BRANCH  28  31
ATOM     31  C   UNL A   1      40.882  24.198  26.848  1.00  0.00     0.039 A 
ATOM     32  C   UNL A   1      40.317  25.284  26.173  1.00  0.00     0.014 A 
ATOM     33  C   UNL A   1      41.636  24.383  28.002  1.00  0.00     0.014 A 
ATOM     34  C   UNL A   1      40.451  26.557  26.724  1.00  0.00     0.010 A 
ATOM     35  C   UNL A   1      41.626  25.602  28.624  1.00  0.00     0.010 A 
ATOM     36  C   UNL A   1      41.090  26.705  27.963  1.00  0.00    -0.014 A 
BRANCH  36  37
ATOM     37  C   UNL A   1      41.149  27.994  28.642  1.00  0.00     0.031 A 
ATOM     38  C   UNL A   1      42.288  28.881  28.259  1.00  0.00     0.074 A 
ATOM     39  C   UNL A   1      40.105  28.447  29.370  1.00  0.00     0.049 A 
ATOM     40  N   UNL A   1      43.184  29.401  29.033  1.00  0.00    -0.248 NA
ATOM     41  C   UNL A   1      42.510  29.162  26.830  1.00  0.00     0.031 C 
ATOM     42  C   UNL A   1      38.793  27.820  29.587  1.00  0.00     0.029 A 
ATOM     43  N   UNL A   1      39.957  29.650  29.984  1.00  0.00    -0.354 N 
ATOM     44  C   UNL A   1      44.000  30.191  28.224  1.00  0.00     0.074 A 
ATOM     45  C   UNL A   1      43.615  29.909  26.865  1.00  0.00     0.031 C 
ATOM     46  C   UNL A   1      37.922  28.738  30.059  1.00  0.00     0.029 A 
ATOM     47  C   UNL A   1      38.651  29.958  30.345  1.00  0.00     0.049 A 
ATOM     48  H   UNL A   1      40.714  30.253  30.160  1.00  0.00     0.167 HD
ATOM     49  C   UNL A   1      44.813  31.151  28.749  1.00  0.00     0.037 A 
ATOM     50  C   UNL A   1      38.204  31.147  30.815  1.00  0.00     0.037 A 
ATOM     51  C   UNL A   1      44.998  30.960  30.162  1.00  0.00     0.049 A 
ATOM     52  C   UNL A   1      39.389  31.889  31.319  1.00  0.00     0.074 A 
ATOM     53  C   UNL A   1      45.551  29.953  30.929  1.00  0.00     0.029 A 
ATOM     54  N   UNL A   1      44.238  31.708  31.027  1.00  0.00    -0.354 N 
ATOM     55  N   UNL A   1      40.078  31.518  32.364  1.00  0.00    -0.248 NA
ATOM     56  C   UNL A   1      40.093  32.747  30.377  1.00  0.00     0.031 C 
ATOM     57  C   UNL A   1      44.690  29.843  32.060  1.00  0.00     0.029 A 
ATOM     58  C   UNL A   1      43.719  30.839  31.953  1.00  0.00     0.049 A 
ATOM     59  H   UNL A   1      44.092  32.681  30.990  1.00  0.00     0.167 HD
ATOM     60  C   UNL A   1      41.401  31.733  32.011  1.00  0.00     0.074 A 
ATOM     61  C   UNL A   1      41.345  32.559  30.805  1.00  0.00     0.031 C 
ATOM     62  C   UNL A   1      42.409  30.985  32.546  1.00  0.00     0.037 A 
BRANCH  49  63
ATOM     63  C   UNL A   1      45.205  32.433  28.061  1.00  0.00     0.064 A 
ATOM     64  C   UNL A   1      44.225  33.416  27.806  1.00  0.00     0.173 A 
ATOM     65  C   UNL A   1      46.432  32.608  27.387  1.00  0.00     0.173 A 
ATOM     66  F   UNL A   1      43.014  33.339  28.376  1.00  0.00    -0.203 F 
ATOM     67  C   UNL A   1      44.438  34.452  26.890  1.00  0.00     0.198 A 
ATOM     68  C   UNL A   1      46.659  33.673  26.515  1.00  0.00     0.198 A 
ATOM     69  F   UNL A   1      47.414  31.701  27.458  1.00  0.00    -0.203 F 
ATOM     70  F   UNL A   1      43.438  35.291  26.590  1.00  0.00    -0.200 F 
ATOM     71  C   UNL A   1      45.653  34.576  26.243  1.00  0.00     0.200 A 
ATOM     72  F   UNL A   1      47.836  33.765  25.882  1.00  0.00    -0.200 F 
ATOM     73  F   UNL A   1      45.840  35.531  25.322  1.00  0.00    -0.200 F 
ENDBRANCH  49  63
BRANCH  50  74
ATOM     74  C   UNL A   1      36.885  31.783  30.594  1.00  0.00     0.064 A 
ATOM     75  C   UNL A   1      35.973  31.957  31.646  1.00  0.00     0.173 A 
ATOM     76  C   UNL A   1      36.598  32.472  29.398  1.00  0.00     0.173 A 
ATOM     77  F   UNL A   1      36.195  31.374  32.833  1.00  0.00    -0.203 F 
ATOM     78  C   UNL A   1      34.851  32.785  31.516  1.00  0.00     0.198 A 
ATOM     79  C   UNL A   1      35.478  33.293  29.267  1.00  0.00     0.198 A 
ATOM     80  F   UNL A   1      37.450  32.436  28.363  1.00  0.00    -0.203 F 
ATOM     81  F   UNL A   1      34.033  32.972  32.562  1.00  0.00    -0.200 F 
ATOM     82  C   UNL A   1      34.610  33.460  30.330  1.00  0.00     0.200 A 
ATOM     83  F   UNL A   1      35.278  33.969  28.126  1.00  0.00    -0.200 F 
ATOM     84  F   UNL A   1      33.571  34.299  30.225  1.00  0.00    -0.200 F 
ENDBRANCH  50  74
BRANCH  62  85
ATOM     85  C   UNL A   1      42.081  30.047  33.677  1.00  0.00     0.064 A 
ATOM     86  C   UNL A   1      41.687  28.709  33.495  1.00  0.00     0.173 A 
ATOM     87  C   UNL A   1      42.369  30.456  34.986  1.00  0.00     0.173 A 
ATOM     88  F   UNL A   1      41.491  28.207  32.272  1.00  0.00    -0.203 F 
ATOM     89  C   UNL A   1      41.561  27.835  34.573  1.00  0.00     0.198 A 
ATOM     90  C   UNL A   1      42.278  29.570  36.057  1.00  0.00     0.198 A 
ATOM     91  F   UNL A   1      42.807  31.703  35.218  1.00  0.00    -0.203 F 
ATOM     92  F   UNL A   1      41.187  26.562  34.366  1.00  0.00    -0.200 F 
ATOM     93  C   UNL A   1      41.868  28.263  35.852  1.00  0.00     0.200 A 
ATOM     94  F   UNL A   1      42.627  29.976  37.286  1.00  0.00    -0.200 F 
ATOM     95  F   UNL A   1      41.800  27.408  36.882  1.00  0.00    -0.200 F 
ENDBRANCH  62  85
ENDBRANCH  36  37
ENDBRANCH  28  31
ENDBRANCH  26  27
ENDBRANCH  25  26
ENDBRANCH   1  25
TORSDOF 13
ENDMDL
MODEL 2
REMARK VINA RESULT:     -12.9      0.469      1.628
REMARK SMILES O=C(Cn1c(=O)n(Cc2cccnc2)c(=O)c2sccc21)NCCCNC(=O)c1ccc(-c2c3nc(c(-c4c(F)c(F)c(F)c(F)c4F)c4ccc([nH]4)c(-c4c(F)c(F)c(F)c(F)c4F)c4nc(c(-c5c(F)c(F)c(F)c(F)c5F)c5ccc2[nH]5)C=C4)C=C3)cc1
REMARK SMILES IDX 23 1 22 2 1 3 2 4 3 6 4 7 5 8 21 9 6 10 7 11 17 12 20 13
REMARK SMILES IDX 15 14 18 15 19 16 16 17 8 18 9 19 10 20 14 21 11 22 13 23
REMARK SMILES IDX 12 24 24 25 25 26 26 27 27 28 28 30 29 31 30 32 91 33 31 34
REMARK SMILES IDX 90 35 32 36 33 37 34 38 84 39 35 40 89 41 83 42 85 43 36 44
REMARK SMILES IDX 88 45 82 46 81 47 37 49 69 50 49 51 68 52 50 53 53 54 67 55
REMARK SMILES IDX 86 56 51 57 52 58 66 60 87 61 54 62 38 63 39 64 47 65 40 66
REMARK SMILES IDX 41 67 45 68 48 69 42 70 43 71 46 72 44 73 70 74 71 75 79 76
REMARK SMILES IDX 72 77 73 78 77 79 80 80 74 81 75 82 78 83 76 84 55 85 56 86
REMARK SMILES IDX 64 87 57 88 58 89 62 90 65 91 59 92 60 93 63 94 61 95
REMARK H PARENT 22 5 26 29 85 48 53 59
REMARK Flexibility Score: inf
ROOT
ATOM      1  C   UNL A   1      36.346  21.735  25.346  1.00  0.00     0.117 C 
ENDROOT
BRANCH   1   2
ATOM      2  N   UNL A   1      34.939  21.871  24.998  1.00  0.00    -0.354 N 
ATOM      3  O   UNL A   1      34.169  21.694  27.140  1.00  0.00    -0.273 OA
ATOM      4  C   UNL A   1      33.996  22.075  25.982  1.00  0.00     0.240 C 
ATOM      5  H   UNL A   1      34.661  21.819  24.056  1.00  0.00     0.163 HD
BRANCH   4   6
ATOM      6  C   UNL A   1      32.635  22.644  25.541  1.00  0.00     0.227 C 
BRANCH   6   7
ATOM      7  N   UNL A   1      32.486  24.067  25.168  1.00  0.00    -0.283 N 
ATOM      8  C   UNL A   1      31.895  24.956  26.088  1.00  0.00     0.332 A 
ATOM      9  C   UNL A   1      32.579  24.451  23.819  1.00  0.00     0.070 A 
ATOM     10  O   UNL A   1      31.596  24.595  27.226  1.00  0.00    -0.247 OA
ATOM     11  N   UNL A   1      31.659  26.267  25.665  1.00  0.00    -0.254 N 
ATOM     12  C   UNL A   1      32.111  25.676  23.425  1.00  0.00     0.116 A 
ATOM     13  C   UNL A   1      33.038  23.700  22.692  1.00  0.00     0.039 A 
ATOM     14  C   UNL A   1      31.534  26.630  24.324  1.00  0.00     0.274 A 
ATOM     15  S   UNL A   1      32.238  25.953  21.756  1.00  0.00    -0.136 S 
ATOM     16  C   UNL A   1      32.913  24.401  21.509  1.00  0.00     0.068 A 
ATOM     17  O   UNL A   1      30.949  27.647  23.961  1.00  0.00    -0.268 OA
BRANCH  11  18
ATOM     18  C   UNL A   1      31.257  27.261  26.660  1.00  0.00     0.168 C 
BRANCH  18  19
ATOM     19  C   UNL A   1      32.278  28.364  26.846  1.00  0.00    -0.010 A 
ATOM     20  C   UNL A   1      33.652  28.101  26.887  1.00  0.00     0.009 A 
ATOM     21  C   UNL A   1      31.890  29.693  27.017  1.00  0.00     0.116 A 
ATOM     22  C   UNL A   1      34.554  29.144  27.099  1.00  0.00     0.020 A 
ATOM     23  N   UNL A   1      32.745  30.725  27.202  1.00  0.00    -0.264 NA
ATOM     24  C   UNL A   1      34.058  30.428  27.246  1.00  0.00     0.111 A 
ENDBRANCH  18  19
ENDBRANCH  11  18
ENDBRANCH   6   7
ENDBRANCH   4   6
ENDBRANCH   1   2
BRANCH   1  25
ATOM     25  C   UNL A   1      37.156  23.023  25.232  1.00  0.00     0.042 C 
BRANCH  25  26
ATOM     26  C   UNL A   1      38.021  23.279  26.453  1.00  0.00     0.118 C 
BRANCH  26  27
ATOM     27  N   UNL A   1      39.218  22.436  26.521  1.00  0.00    -0.352 N 
ATOM     28  C   UNL A   1      40.538  22.854  26.588  1.00  0.00     0.251 C 
ATOM     29  H   UNL A   1      39.066  21.463  26.519  1.00  0.00     0.163 HD
ATOM     30  O   UNL A   1      41.463  22.100  26.358  1.00  0.00    -0.269 OA
BRANCH  28  31
ATOM     31  C   UNL A   1      40.789  24.258  26.963  1.00  0.00     0.039 A 
ATOM     32  C   UNL A   1      40.322  25.321  26.186  1.00  0.00     0.014 A 
ATOM     33  C   UNL A   1      41.454  24.482  28.164  1.00  0.00     0.014 A 
ATOM     34  C   UNL A   1      40.458  26.618  26.678  1.00  0.00     0.010 A 
ATOM     35  C   UNL A   1      41.438  25.733  28.717  1.00  0.00     0.010 A 
ATOM     36  C   UNL A   1      41.000  26.814  27.956  1.00  0.00    -0.014 A 
BRANCH  36  37
ATOM     37  C   UNL A   1      41.051  28.137  28.568  1.00  0.00     0.031 A 
ATOM     38  C   UNL A   1      42.109  29.054  28.049  1.00  0.00     0.074 A 
ATOM     39  C   UNL A   1      40.050  28.577  29.362  1.00  0.00     0.049 A 
ATOM     40  N   UNL A   1      43.040  29.653  28.719  1.00  0.00    -0.248 NA
ATOM     41  C   UNL A   1      42.196  29.274  26.594  1.00  0.00     0.031 C 
ATOM     42  C   UNL A   1      38.794  27.903  29.718  1.00  0.00     0.029 A 
ATOM     43  N   UNL A   1      39.895  29.801  29.931  1.00  0.00    -0.354 N 
ATOM     44  C   UNL A   1      43.744  30.438  27.807  1.00  0.00     0.074 A 
ATOM     45  C   UNL A   1      43.262  30.072  26.500  1.00  0.00     0.031 C 
ATOM     46  C   UNL A   1      37.921  28.802  30.222  1.00  0.00     0.029 A 
ATOM     47  C   UNL A   1      38.610  30.067  30.388  1.00  0.00     0.049 A 
ATOM     48  H   UNL A   1      40.633  30.446  30.013  1.00  0.00     0.167 HD
ATOM     49  C   UNL A   1      44.550  31.459  28.215  1.00  0.00     0.037 A 
ATOM     50  C   UNL A   1      38.145  31.256  30.840  1.00  0.00     0.037 A 
ATOM     51  C   UNL A   1      44.862  31.347  29.615  1.00  0.00     0.049 A 
ATOM     52  C   UNL A   1      39.330  32.075  31.206  1.00  0.00     0.074 A 
ATOM     53  C   UNL A   1      45.527  30.405  30.377  1.00  0.00     0.029 A 
ATOM     54  N   UNL A   1      44.140  32.102  30.507  1.00  0.00    -0.354 N 
ATOM     55  N   UNL A   1      40.121  31.788  32.204  1.00  0.00    -0.248 NA
ATOM     56  C   UNL A   1      39.910  32.917  30.169  1.00  0.00     0.031 C 
ATOM     57  C   UNL A   1      44.770  30.313  31.581  1.00  0.00     0.029 A 
ATOM     58  C   UNL A   1      43.744  31.256  31.513  1.00  0.00     0.049 A 
ATOM     59  H   UNL A   1      43.944  33.064  30.438  1.00  0.00     0.167 HD
ATOM     60  C   UNL A   1      41.398  32.046  31.729  1.00  0.00     0.074 A 
ATOM     61  C   UNL A   1      41.201  32.808  30.496  1.00  0.00     0.031 C 
ATOM     62  C   UNL A   1      42.484  31.372  32.209  1.00  0.00     0.037 A 
BRANCH  49  63
ATOM     63  C   UNL A   1      44.820  32.721  27.439  1.00  0.00     0.064 A 
ATOM     64  C   UNL A   1      46.026  32.853  26.718  1.00  0.00     0.173 A 
ATOM     65  C   UNL A   1      44.082  33.911  27.611  1.00  0.00     0.173 A 
ATOM     66  F   UNL A   1      46.818  31.791  26.511  1.00  0.00    -0.203 F 
ATOM     67  C   UNL A   1      46.487  34.094  26.268  1.00  0.00     0.198 A 
ATOM     68  C   UNL A   1      44.520  35.139  27.115  1.00  0.00     0.198 A 
ATOM     69  F   UNL A   1      42.972  33.953  28.358  1.00  0.00    -0.203 F 
ATOM     70  F   UNL A   1      47.694  34.188  25.694  1.00  0.00    -0.200 F 
ATOM     71  C   UNL A   1      45.735  35.236  26.472  1.00  0.00     0.200 A 
ATOM     72  F   UNL A   1      43.787  36.239  27.340  1.00  0.00    -0.200 F 
ATOM     73  F   UNL A   1      46.202  36.435  26.095  1.00  0.00    -0.200 F 
ENDBRANCH  49  63
BRANCH  50  74
ATOM     74  C   UNL A   1      36.783  31.820  30.704  1.00  0.00     0.064 A 
ATOM     75  C   UNL A   1      35.977  32.060  31.828  1.00  0.00     0.173 A 
ATOM     76  C   UNL A   1      36.342  32.381  29.488  1.00  0.00     0.173 A 
ATOM     77  F   UNL A   1      36.347  31.602  33.032  1.00  0.00    -0.203 F 
ATOM     78  C   UNL A   1      34.810  32.831  31.743  1.00  0.00     0.198 A 
ATOM     79  C   UNL A   1      35.177  33.144  29.403  1.00  0.00     0.198 A 
ATOM     80  F   UNL A   1      37.084  32.277  28.375  1.00  0.00    -0.203 F 
ATOM     81  F   UNL A   1      34.097  33.087  32.849  1.00  0.00    -0.200 F 
ATOM     82  C   UNL A   1      34.418  33.380  30.534  1.00  0.00     0.200 A 
ATOM     83  F   UNL A   1      34.830  33.700  28.234  1.00  0.00    -0.200 F 
ATOM     84  F   UNL A   1      33.335  34.167  30.464  1.00  0.00    -0.200 F 
ENDBRANCH  50  74
BRANCH  62  85
ATOM     85  C   UNL A   1      42.298  30.477  33.405  1.00  0.00     0.064 A 
ATOM     86  C   UNL A   1      42.307  30.936  34.735  1.00  0.00     0.173 A 
ATOM     87  C   UNL A   1      41.901  29.151  33.190  1.00  0.00     0.173 A 
ATOM     88  F   UNL A   1      42.575  32.214  35.023  1.00  0.00    -0.203 F 
ATOM     89  C   UNL A   1      41.961  30.101  35.795  1.00  0.00     0.198 A 
ATOM     90  C   UNL A   1      41.520  28.329  34.248  1.00  0.00     0.198 A 
ATOM     91  F   UNL A   1      41.816  28.671  31.939  1.00  0.00    -0.203 F 
ATOM     92  F   UNL A   1      41.975  30.571  37.052  1.00  0.00    -0.200 F 
ATOM     93  C   UNL A   1      41.557  28.801  35.550  1.00  0.00     0.200 A 
ATOM     94  F   UNL A   1      41.080  27.088  33.999  1.00  0.00    -0.200 F 
ATOM     95  F   UNL A   1      41.171  28.013  36.564  1.00  0.00    -0.200 F 
ENDBRANCH  62  85
ENDBRANCH  36  37
ENDBRANCH  28  31
ENDBRANCH  26  27
ENDBRANCH  25  26
ENDBRANCH   1  25
TORSDOF 13
ENDMDL
MODEL 3
REMARK VINA RESULT:     -12.7      3.213      8.871
REMARK SMILES O=C(Cn1c(=O)n(Cc2cccnc2)c(=O)c2sccc21)NCCCNC(=O)c1ccc(-c2c3nc(c(-c4c(F)c(F)c(F)c(F)c4F)c4ccc([nH]4)c(-c4c(F)c(F)c(F)c(F)c4F)c4nc(c(-c5c(F)c(F)c(F)c(F)c5F)c5ccc2[nH]5)C=C4)C=C3)cc1
REMARK SMILES IDX 23 1 22 2 1 3 2 4 3 6 4 7 5 8 21 9 6 10 7 11 17 12 20 13
REMARK SMILES IDX 15 14 18 15 19 16 16 17 8 18 9 19 10 20 14 21 11 22 13 23
REMARK SMILES IDX 12 24 24 25 25 26 26 27 27 28 28 30 29 31 30 32 91 33 31 34
REMARK SMILES IDX 90 35 32 36 33 37 34 38 84 39 35 40 89 41 83 42 85 43 36 44
REMARK SMILES IDX 88 45 82 46 81 47 37 49 69 50 49 51 68 52 50 53 53 54 67 55
REMARK SMILES IDX 86 56 51 57 52 58 66 60 87 61 54 62 38 63 39 64 47 65 40 66
REMARK SMILES IDX 41 67 45 68 48 69 42 70 43 71 46 72 44 73 70 74 71 75 79 76
REMARK SMILES IDX 72 77 73 78 77 79 80 80 74 81 75 82 78 83 76 84 55 85 56 86
REMARK SMILES IDX 64 87 57 88 58 89 62 90 65 91 59 92 60 93 63 94 61 95
REMARK H PARENT 22 5 26 29 85 48 53 59
REMARK Flexibility Score: inf
ROOT
ATOM      1  C   UNL A   1      32.505  30.086  25.704  1.00  0.00     0.117 C 
ENDROOT
BRANCH   1   2
ATOM      2  N   UNL A   1      31.880  29.060  24.882  1.00  0.00    -0.354 N 
ATOM      3  O   UNL A   1      33.504  29.048  23.278  1.00  0.00    -0.273 OA
ATOM      4  C   UNL A   1      32.580  28.471  23.852  1.00  0.00     0.240 C 
ATOM      5  H   UNL A   1      30.953  28.784  25.065  1.00  0.00     0.163 HD
BRANCH   4   6
ATOM      6  C   UNL A   1      32.052  27.124  23.325  1.00  0.00     0.227 C 
BRANCH   6   7
ATOM      7  N   UNL A   1      32.500  25.844  23.914  1.00  0.00    -0.283 N 
ATOM      8  C   UNL A   1      33.473  25.084  23.234  1.00  0.00     0.332 A 
ATOM      9  C   UNL A   1      31.726  25.221  24.907  1.00  0.00     0.070 A 
ATOM     10  O   UNL A   1      34.028  25.511  22.222  1.00  0.00    -0.247 OA
ATOM     11  N   UNL A   1      33.791  23.825  23.752  1.00  0.00    -0.254 N 
ATOM     12  C   UNL A   1      31.936  23.901  25.207  1.00  0.00     0.116 A 
ATOM     13  C   UNL A   1      30.625  25.740  25.658  1.00  0.00     0.039 A 
ATOM     14  C   UNL A   1      32.934  23.094  24.573  1.00  0.00     0.274 A 
ATOM     15  S   UNL A   1      30.873  23.288  26.379  1.00  0.00    -0.136 S 
ATOM     16  C   UNL A   1      30.073  24.795  26.501  1.00  0.00     0.068 A 
ATOM     17  O   UNL A   1      33.011  21.874  24.699  1.00  0.00    -0.268 OA
BRANCH  11  18
ATOM     18  C   UNL A   1      34.947  23.115  23.202  1.00  0.00     0.168 C 
BRANCH  18  19
ATOM     19  C   UNL A   1      36.061  22.921  24.210  1.00  0.00    -0.010 A 
ATOM     20  C   UNL A   1      36.417  23.922  25.121  1.00  0.00     0.009 A 
ATOM     21  C   UNL A   1      36.805  21.742  24.252  1.00  0.00     0.116 A 
ATOM     22  C   UNL A   1      37.475  23.712  26.006  1.00  0.00     0.020 A 
ATOM     23  N   UNL A   1      37.821  21.506  25.114  1.00  0.00    -0.264 NA
ATOM     24  C   UNL A   1      38.138  22.498  25.967  1.00  0.00     0.111 A 
ENDBRANCH  18  19
ENDBRANCH  11  18
ENDBRANCH   6   7
ENDBRANCH   4   6
ENDBRANCH   1   2
BRANCH   1  25
ATOM     25  C   UNL A   1      33.079  29.581  27.024  1.00  0.00     0.042 C 
BRANCH  25  26
ATOM     26  C   UNL A   1      34.452  30.154  27.321  1.00  0.00     0.118 C 
BRANCH  26  27
ATOM     27  N   UNL A   1      34.447  31.220  28.327  1.00  0.00    -0.352 N 
ATOM     28  C   UNL A   1      35.355  31.408  29.357  1.00  0.00     0.251 C 
ATOM     29  H   UNL A   1      33.716  31.876  28.263  1.00  0.00     0.163 HD
ATOM     30  O   UNL A   1      35.116  32.139  30.299  1.00  0.00    -0.269 OA
BRANCH  28  31
ATOM     31  C   UNL A   1      36.641  30.694  29.270  1.00  0.00     0.039 A 
ATOM     32  C   UNL A   1      37.850  31.373  29.093  1.00  0.00     0.014 A 
ATOM     33  C   UNL A   1      36.611  29.314  29.443  1.00  0.00     0.014 A 
ATOM     34  C   UNL A   1      39.040  30.653  29.178  1.00  0.00     0.010 A 
ATOM     35  C   UNL A   1      37.777  28.641  29.688  1.00  0.00     0.010 A 
ATOM     36  C   UNL A   1      38.995  29.288  29.496  1.00  0.00    -0.014 A 
BRANCH  36  37
ATOM     37  C   UNL A   1      40.212  28.516  29.718  1.00  0.00     0.031 A 
ATOM     38  C   UNL A   1      40.623  28.341  31.143  1.00  0.00     0.074 A 
ATOM     39  C   UNL A   1      40.776  27.801  28.719  1.00  0.00     0.049 A 
ATOM     40  N   UNL A   1      41.751  28.659  31.689  1.00  0.00    -0.248 NA
ATOM     41  C   UNL A   1      39.630  27.822  32.101  1.00  0.00     0.031 C 
ATOM     42  C   UNL A   1      40.313  27.629  27.335  1.00  0.00     0.029 A 
ATOM     43  N   UNL A   1      41.844  26.963  28.774  1.00  0.00    -0.354 N 
ATOM     44  C   UNL A   1      41.677  28.254  33.021  1.00  0.00     0.074 A 
ATOM     45  C   UNL A   1      40.310  27.860  33.248  1.00  0.00     0.031 C 
ATOM     46  C   UNL A   1      40.938  26.572  26.773  1.00  0.00     0.029 A 
ATOM     47  C   UNL A   1      41.964  26.108  27.686  1.00  0.00     0.049 A 
ATOM     48  H   UNL A   1      42.481  26.963  29.524  1.00  0.00     0.167 HD
ATOM     49  C   UNL A   1      42.794  28.110  33.789  1.00  0.00     0.037 A 
ATOM     50  C   UNL A   1      42.830  25.073  27.565  1.00  0.00     0.037 A 
ATOM     51  C   UNL A   1      43.921  28.778  33.196  1.00  0.00     0.049 A 
ATOM     52  C   UNL A   1      43.917  25.298  28.553  1.00  0.00     0.074 A 
ATOM     53  C   UNL A   1      44.201  30.095  32.887  1.00  0.00     0.029 A 
ATOM     54  N   UNL A   1      44.817  28.030  32.472  1.00  0.00    -0.354 N 
ATOM     55  N   UNL A   1      44.777  26.276  28.465  1.00  0.00    -0.248 NA
ATOM     56  C   UNL A   1      43.737  24.740  29.886  1.00  0.00     0.031 C 
ATOM     57  C   UNL A   1      44.868  30.039  31.628  1.00  0.00     0.029 A 
ATOM     58  C   UNL A   1      45.024  28.695  31.289  1.00  0.00     0.049 A 
ATOM     59  H   UNL A   1      45.230  27.180  32.747  1.00  0.00     0.167 HD
ATOM     60  C   UNL A   1      44.926  26.735  29.765  1.00  0.00     0.074 A 
ATOM     61  C   UNL A   1      44.318  25.704  30.607  1.00  0.00     0.031 C 
ATOM     62  C   UNL A   1      45.257  28.033  30.027  1.00  0.00     0.037 A 
BRANCH  49  63
ATOM     63  C   UNL A   1      42.956  27.124  34.916  1.00  0.00     0.064 A 
ATOM     64  C   UNL A   1      43.267  27.591  36.212  1.00  0.00     0.173 A 
ATOM     65  C   UNL A   1      43.107  25.736  34.718  1.00  0.00     0.173 A 
ATOM     66  F   UNL A   1      43.180  28.896  36.508  1.00  0.00    -0.203 F 
ATOM     67  C   UNL A   1      43.759  26.739  37.206  1.00  0.00     0.198 A 
ATOM     68  C   UNL A   1      43.548  24.881  35.729  1.00  0.00     0.198 A 
ATOM     69  F   UNL A   1      42.944  25.171  33.516  1.00  0.00    -0.203 F 
ATOM     70  F   UNL A   1      44.154  27.247  38.381  1.00  0.00    -0.200 F 
ATOM     71  C   UNL A   1      43.903  25.387  36.962  1.00  0.00     0.200 A 
ATOM     72  F   UNL A   1      43.700  23.576  35.467  1.00  0.00    -0.200 F 
ATOM     73  F   UNL A   1      44.429  24.579  37.892  1.00  0.00    -0.200 F 
ENDBRANCH  49  63
BRANCH  50  74
ATOM     74  C   UNL A   1      42.626  23.783  26.867  1.00  0.00     0.064 A 
ATOM     75  C   UNL A   1      43.541  23.319  25.910  1.00  0.00     0.173 A 
ATOM     76  C   UNL A   1      41.664  22.855  27.314  1.00  0.00     0.173 A 
ATOM     77  F   UNL A   1      44.517  24.123  25.465  1.00  0.00    -0.203 F 
ATOM     78  C   UNL A   1      43.508  21.999  25.443  1.00  0.00     0.198 A 
ATOM     79  C   UNL A   1      41.628  21.541  26.845  1.00  0.00     0.198 A 
ATOM     80  F   UNL A   1      40.797  23.178  28.286  1.00  0.00    -0.203 F 
ATOM     81  F   UNL A   1      44.435  21.575  24.572  1.00  0.00    -0.200 F 
ATOM     82  C   UNL A   1      42.558  21.109  25.918  1.00  0.00     0.200 A 
ATOM     83  F   UNL A   1      40.727  20.682  27.341  1.00  0.00    -0.200 F 
ATOM     84  F   UNL A   1      42.564  19.830  25.517  1.00  0.00    -0.200 F 
ENDBRANCH  50  74
BRANCH  62  85
ATOM     85  C   UNL A   1      45.649  28.917  28.873  1.00  0.00     0.064 A 
ATOM     86  C   UNL A   1      44.740  29.709  28.149  1.00  0.00     0.173 A 
ATOM     87  C   UNL A   1      47.013  29.121  28.624  1.00  0.00     0.173 A 
ATOM     88  F   UNL A   1      43.428  29.653  28.394  1.00  0.00    -0.203 F 
ATOM     89  C   UNL A   1      45.175  30.637  27.204  1.00  0.00     0.198 A 
ATOM     90  C   UNL A   1      47.447  30.075  27.706  1.00  0.00     0.198 A 
ATOM     91  F   UNL A   1      47.932  28.437  29.325  1.00  0.00    -0.203 F 
ATOM     92  F   UNL A   1      44.282  31.382  26.534  1.00  0.00    -0.200 F 
ATOM     93  C   UNL A   1      46.529  30.828  26.993  1.00  0.00     0.200 A 
ATOM     94  F   UNL A   1      48.759  30.292  27.544  1.00  0.00    -0.200 F 
ATOM     95  F   UNL A   1      46.949  31.759  26.125  1.00  0.00    -0.200 F 
ENDBRANCH  62  85
ENDBRANCH  36  37
ENDBRANCH  28  31
ENDBRANCH  26  27
ENDBRANCH  25  26
ENDBRANCH   1  25
TORSDOF 13
ENDMDL
