MODEL 1
REMARK VINA RESULT:     -11.6      0.000      0.000
REMARK SMILES CC[C@](O)(c1ccc(O)cc1)[C@H](F)C(=O)NCCCNC(=O)c1ccc(-c2c3nc(c(-c4c(F)c(F)c(F)c(F)c4F)c4ccc([nH]4)c(-c4c(F)c(F)c(F)c(F)c4F)c4nc(c(-c5c(F)c(F)c(F)c(F)c5F)c5ccc2[nH]5)C=C4)C=C3)cc1
REMARK SMILES IDX 17 1 16 2 14 3 15 4 12 6 13 7 3 8 2 9 1 10 5 11 6 12 11 13
REMARK SMILES IDX 7 14 10 15 8 16 9 17 4 19 18 21 19 22 20 23 21 24 22 26
REMARK SMILES IDX 23 27 24 28 85 29 25 30 84 31 26 32 27 33 28 34 78 35 29 36
REMARK SMILES IDX 83 37 77 38 79 39 30 40 82 41 76 42 75 43 31 45 63 46 43 47
REMARK SMILES IDX 62 48 44 49 47 50 61 51 80 52 45 53 46 54 60 56 81 57 48 58
REMARK SMILES IDX 32 59 33 60 41 61 34 62 35 63 39 64 42 65 36 66 37 67 40 68
REMARK SMILES IDX 38 69 64 70 65 71 73 72 66 73 67 74 71 75 74 76 68 77 69 78
REMARK SMILES IDX 72 79 70 80 49 81 50 82 58 83 51 84 52 85 56 86 59 87 53 88
REMARK SMILES IDX 54 89 57 90 55 91
REMARK H PARENT 16 5 9 18 4 20 20 25 79 44 47 55
REMARK Flexibility Score: inf
ROOT
ATOM      1  C   UNL A   1      31.365  30.693  26.746  1.00  0.00     0.117 C 
ENDROOT
BRANCH   1   2
ATOM      2  N   UNL A   1      32.656  30.025  26.835  1.00  0.00    -0.353 N 
ATOM      3  C   UNL A   1      33.358  29.361  25.863  1.00  0.00     0.257 C 
ATOM      4  O   UNL A   1      34.510  29.017  26.138  1.00  0.00    -0.272 OA
ATOM      5  H   UNL A   1      33.086  30.054  27.719  1.00  0.00     0.163 HD
BRANCH   3   6
ATOM      6  C   UNL A   1      32.726  29.091  24.500  1.00  0.00     0.291 C 
ATOM      7  F   UNL A   1      33.620  29.330  23.492  1.00  0.00    -0.233 F 
BRANCH   6   8
ATOM      8  C   UNL A   1      32.078  27.672  24.362  1.00  0.00     0.130 C 
BRANCH   8   9
ATOM      9  C   UNL A   1      32.876  26.678  23.461  1.00  0.00     0.040 C 
ATOM     10  C   UNL A   1      33.813  25.710  24.179  1.00  0.00     0.007 C 
ENDBRANCH   8   9
BRANCH   8  11
ATOM     11  C   UNL A   1      30.629  27.888  23.863  1.00  0.00    -0.013 A 
ATOM     12  C   UNL A   1      29.668  26.862  23.928  1.00  0.00     0.010 A 
ATOM     13  C   UNL A   1      30.185  29.168  23.469  1.00  0.00     0.010 A 
ATOM     14  C   UNL A   1      28.330  27.097  23.591  1.00  0.00     0.046 A 
ATOM     15  C   UNL A   1      28.847  29.406  23.140  1.00  0.00     0.046 A 
ATOM     16  C   UNL A   1      27.931  28.369  23.203  1.00  0.00     0.115 A 
BRANCH  16  17
ATOM     17  O   UNL A   1      26.633  28.649  22.895  1.00  0.00    -0.508 OA
ATOM     18  H   UNL A   1      26.142  28.061  22.354  1.00  0.00     0.293 HD
ENDBRANCH  16  17
ENDBRANCH   8  11
BRANCH   8  19
ATOM     19  O   UNL A   1      32.026  27.096  25.683  1.00  0.00    -0.382 OA
ATOM     20  H   UNL A   1      32.895  27.177  26.106  1.00  0.00     0.212 HD
ENDBRANCH   8  19
ENDBRANCH   6   8
ENDBRANCH   3   6
ENDBRANCH   1   2
BRANCH   1  21
ATOM     21  C   UNL A   1      31.492  32.184  26.516  1.00  0.00     0.042 C 
BRANCH  21  22
ATOM     22  C   UNL A   1      32.658  32.816  27.261  1.00  0.00     0.118 C 
BRANCH  22  23
ATOM     23  N   UNL A   1      32.422  34.207  27.644  1.00  0.00    -0.352 N 
ATOM     24  C   UNL A   1      33.002  34.973  28.625  1.00  0.00     0.251 C 
ATOM     25  H   UNL A   1      31.736  34.669  27.110  1.00  0.00     0.163 HD
ATOM     26  O   UNL A   1      32.552  36.086  28.885  1.00  0.00    -0.269 OA
BRANCH  24  27
ATOM     27  C   UNL A   1      34.144  34.441  29.394  1.00  0.00     0.039 A 
ATOM     28  C   UNL A   1      33.907  33.755  30.587  1.00  0.00     0.014 A 
ATOM     29  C   UNL A   1      35.444  34.582  28.913  1.00  0.00     0.014 A 
ATOM     30  C   UNL A   1      34.967  33.117  31.237  1.00  0.00     0.010 A 
ATOM     31  C   UNL A   1      36.469  33.843  29.483  1.00  0.00     0.010 A 
ATOM     32  C   UNL A   1      36.245  33.107  30.655  1.00  0.00    -0.014 A 
BRANCH  32  33
ATOM     33  C   UNL A   1      37.374  32.346  31.248  1.00  0.00     0.031 A 
ATOM     34  C   UNL A   1      37.874  32.702  32.620  1.00  0.00     0.074 A 
ATOM     35  C   UNL A   1      38.012  31.412  30.516  1.00  0.00     0.049 A 
ATOM     36  N   UNL A   1      38.926  32.260  33.262  1.00  0.00    -0.248 NA
ATOM     37  C   UNL A   1      37.119  33.733  33.351  1.00  0.00     0.031 C 
ATOM     38  C   UNL A   1      37.667  31.023  29.147  1.00  0.00     0.029 A 
ATOM     39  N   UNL A   1      39.096  30.626  30.818  1.00  0.00    -0.354 N 
ATOM     40  C   UNL A   1      38.976  32.983  34.446  1.00  0.00     0.074 A 
ATOM     41  C   UNL A   1      37.891  33.938  34.406  1.00  0.00     0.031 C 
ATOM     42  C   UNL A   1      38.497  30.048  28.743  1.00  0.00     0.029 A 
ATOM     43  C   UNL A   1      39.459  29.773  29.805  1.00  0.00     0.049 A 
ATOM     44  H   UNL A   1      39.569  30.671  31.681  1.00  0.00     0.167 HD
ATOM     45  C   UNL A   1      39.829  32.844  35.488  1.00  0.00     0.037 A 
ATOM     46  C   UNL A   1      40.456  28.872  29.743  1.00  0.00     0.037 A 
ATOM     47  C   UNL A   1      40.871  31.854  35.546  1.00  0.00     0.049 A 
ATOM     48  C   UNL A   1      41.368  28.708  30.927  1.00  0.00     0.074 A 
ATOM     49  C   UNL A   1      41.739  31.573  36.585  1.00  0.00     0.029 A 
ATOM     50  N   UNL A   1      41.179  30.977  34.516  1.00  0.00    -0.354 N 
ATOM     51  N   UNL A   1      41.366  29.351  32.069  1.00  0.00    -0.248 NA
ATOM     52  C   UNL A   1      42.421  27.688  30.814  1.00  0.00     0.031 C 
ATOM     53  C   UNL A   1      42.595  30.547  36.172  1.00  0.00     0.029 A 
ATOM     54  C   UNL A   1      42.232  30.160  34.892  1.00  0.00     0.049 A 
ATOM     55  H   UNL A   1      40.716  30.940  33.649  1.00  0.00     0.167 HD
ATOM     56  C   UNL A   1      42.392  28.799  32.822  1.00  0.00     0.074 A 
ATOM     57  C   UNL A   1      42.990  27.758  32.009  1.00  0.00     0.031 C 
ATOM     58  C   UNL A   1      42.805  29.123  34.071  1.00  0.00     0.037 A 
BRANCH  45  59
ATOM     59  C   UNL A   1      39.653  33.776  36.652  1.00  0.00     0.064 A 
ATOM     60  C   UNL A   1      40.288  35.028  36.695  1.00  0.00     0.173 A 
ATOM     61  C   UNL A   1      38.841  33.416  37.738  1.00  0.00     0.173 A 
ATOM     62  F   UNL A   1      41.087  35.415  35.689  1.00  0.00    -0.203 F 
ATOM     63  C   UNL A   1      40.151  35.864  37.800  1.00  0.00     0.198 A 
ATOM     64  C   UNL A   1      38.680  34.270  38.826  1.00  0.00     0.198 A 
ATOM     65  F   UNL A   1      38.208  32.234  37.748  1.00  0.00    -0.203 F 
ATOM     66  F   UNL A   1      40.821  37.025  37.846  1.00  0.00    -0.200 F 
ATOM     67  C   UNL A   1      39.343  35.488  38.861  1.00  0.00     0.200 A 
ATOM     68  F   UNL A   1      37.889  33.911  39.847  1.00  0.00    -0.200 F 
ATOM     69  F   UNL A   1      39.213  36.294  39.924  1.00  0.00    -0.200 F 
ENDBRANCH  45  59
BRANCH  46  70
ATOM     70  C   UNL A   1      40.609  28.020  28.535  1.00  0.00     0.064 A 
ATOM     71  C   UNL A   1      39.979  26.769  28.462  1.00  0.00     0.173 A 
ATOM     72  C   UNL A   1      41.369  28.435  27.433  1.00  0.00     0.173 A 
ATOM     73  F   UNL A   1      39.257  26.322  29.499  1.00  0.00    -0.203 F 
ATOM     74  C   UNL A   1      40.115  25.960  27.336  1.00  0.00     0.198 A 
ATOM     75  C   UNL A   1      41.484  27.634  26.297  1.00  0.00     0.198 A 
ATOM     76  F   UNL A   1      41.984  29.626  27.451  1.00  0.00    -0.203 F 
ATOM     77  F   UNL A   1      39.533  24.753  27.308  1.00  0.00    -0.200 F 
ATOM     78  C   UNL A   1      40.862  26.395  26.253  1.00  0.00     0.200 A 
ATOM     79  F   UNL A   1      42.195  28.064  25.246  1.00  0.00    -0.200 F 
ATOM     80  F   UNL A   1      40.988  25.619  25.168  1.00  0.00    -0.200 F 
ENDBRANCH  46  70
BRANCH  58  81
ATOM     81  C   UNL A   1      43.930  28.321  34.651  1.00  0.00     0.064 A 
ATOM     82  C   UNL A   1      43.698  27.133  35.360  1.00  0.00     0.173 A 
ATOM     83  C   UNL A   1      45.261  28.723  34.457  1.00  0.00     0.173 A 
ATOM     84  F   UNL A   1      42.443  26.715  35.583  1.00  0.00    -0.203 F 
ATOM     85  C   UNL A   1      44.757  26.388  35.872  1.00  0.00     0.198 A 
ATOM     86  C   UNL A   1      46.317  27.962  34.947  1.00  0.00     0.198 A 
ATOM     87  F   UNL A   1      45.535  29.848  33.781  1.00  0.00    -0.203 F 
ATOM     88  F   UNL A   1      44.511  25.279  36.583  1.00  0.00    -0.200 F 
ATOM     89  C   UNL A   1      46.064  26.799  35.659  1.00  0.00     0.200 A 
ATOM     90  F   UNL A   1      47.580  28.353  34.730  1.00  0.00    -0.200 F 
ATOM     91  F   UNL A   1      47.083  26.076  36.147  1.00  0.00    -0.200 F 
ENDBRANCH  58  81
ENDBRANCH  32  33
ENDBRANCH  24  27
ENDBRANCH  22  23
ENDBRANCH  21  22
ENDBRANCH   1  21
TORSDOF 15
ENDMDL
MODEL 2
REMARK VINA RESULT:     -11.6      0.606      7.596
REMARK SMILES CC[C@](O)(c1ccc(O)cc1)[C@H](F)C(=O)NCCCNC(=O)c1ccc(-c2c3nc(c(-c4c(F)c(F)c(F)c(F)c4F)c4ccc([nH]4)c(-c4c(F)c(F)c(F)c(F)c4F)c4nc(c(-c5c(F)c(F)c(F)c(F)c5F)c5ccc2[nH]5)C=C4)C=C3)cc1
REMARK SMILES IDX 17 1 16 2 14 3 15 4 12 6 13 7 3 8 2 9 1 10 5 11 6 12 11 13
REMARK SMILES IDX 7 14 10 15 8 16 9 17 4 19 18 21 19 22 20 23 21 24 22 26
REMARK SMILES IDX 23 27 24 28 85 29 25 30 84 31 26 32 27 33 28 34 78 35 29 36
REMARK SMILES IDX 83 37 77 38 79 39 30 40 82 41 76 42 75 43 31 45 63 46 43 47
REMARK SMILES IDX 62 48 44 49 47 50 61 51 80 52 45 53 46 54 60 56 81 57 48 58
REMARK SMILES IDX 32 59 33 60 41 61 34 62 35 63 39 64 42 65 36 66 37 67 40 68
REMARK SMILES IDX 38 69 64 70 65 71 73 72 66 73 67 74 71 75 74 76 68 77 69 78
REMARK SMILES IDX 72 79 70 80 49 81 50 82 58 83 51 84 52 85 56 86 59 87 53 88
REMARK SMILES IDX 54 89 57 90 55 91
REMARK H PARENT 16 5 9 18 4 20 20 25 79 44 47 55
REMARK Flexibility Score: inf
ROOT
ATOM      1  C   UNL A   1      31.557  30.493  26.896  1.00  0.00     0.117 C 
ENDROOT
BRANCH   1   2
ATOM      2  N   UNL A   1      32.836  29.797  26.921  1.00  0.00    -0.353 N 
ATOM      3  C   UNL A   1      33.513  29.189  25.897  1.00  0.00     0.257 C 
ATOM      4  O   UNL A   1      34.662  28.805  26.132  1.00  0.00    -0.272 OA
ATOM      5  H   UNL A   1      33.277  29.756  27.800  1.00  0.00     0.163 HD
BRANCH   3   6
ATOM      6  C   UNL A   1      32.860  29.027  24.527  1.00  0.00     0.291 C 
ATOM      7  F   UNL A   1      33.764  29.256  23.525  1.00  0.00    -0.233 F 
BRANCH   6   8
ATOM      8  C   UNL A   1      32.122  27.660  24.325  1.00  0.00     0.130 C 
BRANCH   8   9
ATOM      9  C   UNL A   1      32.869  26.648  23.400  1.00  0.00     0.040 C 
ATOM     10  C   UNL A   1      33.780  25.637  24.091  1.00  0.00     0.007 C 
ENDBRANCH   8   9
BRANCH   8  11
ATOM     11  C   UNL A   1      30.700  27.990  23.811  1.00  0.00    -0.013 A 
ATOM     12  C   UNL A   1      29.675  27.026  23.812  1.00  0.00     0.010 A 
ATOM     13  C   UNL A   1      30.345  29.313  23.470  1.00  0.00     0.010 A 
ATOM     14  C   UNL A   1      28.361  27.361  23.463  1.00  0.00     0.046 A 
ATOM     15  C   UNL A   1      29.032  29.650  23.129  1.00  0.00     0.046 A 
ATOM     16  C   UNL A   1      28.051  28.672  23.128  1.00  0.00     0.115 A 
BRANCH  16  17
ATOM     17  O   UNL A   1      26.780  29.048  22.811  1.00  0.00    -0.508 OA
ATOM     18  H   UNL A   1      26.617  29.904  22.466  1.00  0.00     0.293 HD
ENDBRANCH  16  17
ENDBRANCH   8  11
BRANCH   8  19
ATOM     19  O   UNL A   1      32.008  27.040  25.622  1.00  0.00    -0.382 OA
ATOM     20  H   UNL A   1      32.742  27.330  26.185  1.00  0.00     0.212 HD
ENDBRANCH   8  19
ENDBRANCH   6   8
ENDBRANCH   3   6
ENDBRANCH   1   2
BRANCH   1  21
ATOM     21  C   UNL A   1      31.698  31.964  26.566  1.00  0.00     0.042 C 
BRANCH  21  22
ATOM     22  C   UNL A   1      32.749  32.676  27.405  1.00  0.00     0.118 C 
BRANCH  22  23
ATOM     23  N   UNL A   1      32.444  34.083  27.653  1.00  0.00    -0.352 N 
ATOM     24  C   UNL A   1      32.978  34.965  28.560  1.00  0.00     0.251 C 
ATOM     25  H   UNL A   1      31.740  34.459  27.077  1.00  0.00     0.163 HD
ATOM     26  O   UNL A   1      32.473  36.075  28.712  1.00  0.00    -0.269 OA
BRANCH  24  27
ATOM     27  C   UNL A   1      34.138  34.565  29.379  1.00  0.00     0.039 A 
ATOM     28  C   UNL A   1      33.929  34.061  30.665  1.00  0.00     0.014 A 
ATOM     29  C   UNL A   1      35.429  34.645  28.859  1.00  0.00     0.014 A 
ATOM     30  C   UNL A   1      35.007  33.537  31.383  1.00  0.00     0.010 A 
ATOM     31  C   UNL A   1      36.472  34.009  29.515  1.00  0.00     0.010 A 
ATOM     32  C   UNL A   1      36.276  33.453  30.787  1.00  0.00    -0.014 A 
BRANCH  32  33
ATOM     33  C   UNL A   1      37.423  32.799  31.466  1.00  0.00     0.031 A 
ATOM     34  C   UNL A   1      38.125  31.647  30.803  1.00  0.00     0.074 A 
ATOM     35  C   UNL A   1      37.762  33.171  32.716  1.00  0.00     0.049 A 
ATOM     36  N   UNL A   1      39.052  30.854  31.278  1.00  0.00    -0.248 NA
ATOM     37  C   UNL A   1      37.691  31.307  29.438  1.00  0.00     0.031 C 
ATOM     38  C   UNL A   1      37.114  34.228  33.494  1.00  0.00     0.029 A 
ATOM     39  N   UNL A   1      38.734  32.690  33.558  1.00  0.00    -0.354 N 
ATOM     40  C   UNL A   1      39.279  29.907  30.289  1.00  0.00     0.074 A 
ATOM     41  C   UNL A   1      38.350  30.181  29.216  1.00  0.00     0.031 C 
ATOM     42  C   UNL A   1      37.729  34.340  34.683  1.00  0.00     0.029 A 
ATOM     43  C   UNL A   1      38.784  33.337  34.768  1.00  0.00     0.049 A 
ATOM     44  H   UNL A   1      39.337  31.949  33.316  1.00  0.00     0.167 HD
ATOM     45  C   UNL A   1      40.202  28.917  30.261  1.00  0.00     0.037 A 
ATOM     46  C   UNL A   1      39.593  33.141  35.826  1.00  0.00     0.037 A 
ATOM     47  C   UNL A   1      41.161  28.684  31.307  1.00  0.00     0.049 A 
ATOM     48  C   UNL A   1      40.636  32.059  35.758  1.00  0.00     0.074 A 
ATOM     49  C   UNL A   1      42.191  27.761  31.346  1.00  0.00     0.029 A 
ATOM     50  N   UNL A   1      41.210  29.391  32.500  1.00  0.00    -0.354 N 
ATOM     51  N   UNL A   1      40.888  31.211  34.790  1.00  0.00    -0.248 NA
ATOM     52  C   UNL A   1      41.509  31.910  36.930  1.00  0.00     0.031 C 
ATOM     53  C   UNL A   1      42.842  27.887  32.578  1.00  0.00     0.029 A 
ATOM     54  C   UNL A   1      42.247  28.917  33.287  1.00  0.00     0.049 A 
ATOM     55  H   UNL A   1      40.600  30.121  32.749  1.00  0.00     0.167 HD
ATOM     56  C   UNL A   1      41.963  30.448  35.221  1.00  0.00     0.074 A 
ATOM     57  C   UNL A   1      42.324  30.942  36.535  1.00  0.00     0.031 C 
ATOM     58  C   UNL A   1      42.595  29.430  34.588  1.00  0.00     0.037 A 
BRANCH  45  59
ATOM     59  C   UNL A   1      40.222  28.026  29.052  1.00  0.00     0.064 A 
ATOM     60  C   UNL A   1      39.512  26.814  29.019  1.00  0.00     0.173 A 
ATOM     61  C   UNL A   1      40.957  28.386  27.914  1.00  0.00     0.173 A 
ATOM     62  F   UNL A   1      38.805  26.416  30.087  1.00  0.00    -0.203 F 
ATOM     63  C   UNL A   1      39.574  25.977  27.908  1.00  0.00     0.198 A 
ATOM     64  C   UNL A   1      40.989  27.562  26.791  1.00  0.00     0.198 A 
ATOM     65  F   UNL A   1      41.651  29.533  27.890  1.00  0.00    -0.203 F 
ATOM     66  F   UNL A   1      38.942  24.796  27.926  1.00  0.00    -0.200 F 
ATOM     67  C   UNL A   1      40.306  26.354  26.793  1.00  0.00     0.200 A 
ATOM     68  F   UNL A   1      41.688  27.932  25.709  1.00  0.00    -0.200 F 
ATOM     69  F   UNL A   1      40.366  25.547  25.725  1.00  0.00    -0.200 F 
ENDBRANCH  45  59
BRANCH  46  70
ATOM     70  C   UNL A   1      39.482  34.023  37.016  1.00  0.00     0.064 A 
ATOM     71  C   UNL A   1      38.728  33.625  38.129  1.00  0.00     0.173 A 
ATOM     72  C   UNL A   1      40.129  35.265  37.074  1.00  0.00     0.173 A 
ATOM     73  F   UNL A   1      38.076  32.453  38.112  1.00  0.00    -0.203 F 
ATOM     74  C   UNL A   1      38.614  34.443  39.251  1.00  0.00     0.198 A 
ATOM     75  C   UNL A   1      40.033  36.072  38.208  1.00  0.00     0.198 A 
ATOM     76  F   UNL A   1      40.867  35.687  36.039  1.00  0.00    -0.203 F 
ATOM     77  F   UNL A   1      37.856  34.054  40.287  1.00  0.00    -0.200 F 
ATOM     78  C   UNL A   1      39.272  35.663  39.292  1.00  0.00     0.200 A 
ATOM     79  F   UNL A   1      40.682  37.244  38.250  1.00  0.00    -0.200 F 
ATOM     80  F   UNL A   1      39.166  36.447  40.374  1.00  0.00    -0.200 F 
ENDBRANCH  46  70
BRANCH  58  81
ATOM     81  C   UNL A   1      43.764  28.807  35.289  1.00  0.00     0.064 A 
ATOM     82  C   UNL A   1      45.074  29.265  35.086  1.00  0.00     0.173 A 
ATOM     83  C   UNL A   1      43.566  27.768  36.211  1.00  0.00     0.173 A 
ATOM     84  F   UNL A   1      45.316  30.247  34.204  1.00  0.00    -0.203 F 
ATOM     85  C   UNL A   1      46.146  28.690  35.763  1.00  0.00     0.198 A 
ATOM     86  C   UNL A   1      44.635  27.214  36.907  1.00  0.00     0.198 A 
ATOM     87  F   UNL A   1      42.331  27.299  36.446  1.00  0.00    -0.203 F 
ATOM     88  F   UNL A   1      47.393  29.114  35.521  1.00  0.00    -0.200 F 
ATOM     89  C   UNL A   1      45.924  27.671  36.677  1.00  0.00     0.200 A 
ATOM     90  F   UNL A   1      44.420  26.238  37.799  1.00  0.00    -0.200 F 
ATOM     91  F   UNL A   1      46.957  27.123  37.334  1.00  0.00    -0.200 F 
ENDBRANCH  58  81
ENDBRANCH  32  33
ENDBRANCH  24  27
ENDBRANCH  22  23
ENDBRANCH  21  22
ENDBRANCH   1  21
TORSDOF 15
ENDMDL
MODEL 3
REMARK VINA RESULT:     -11.6      0.282      1.187
REMARK SMILES CC[C@](O)(c1ccc(O)cc1)[C@H](F)C(=O)NCCCNC(=O)c1ccc(-c2c3nc(c(-c4c(F)c(F)c(F)c(F)c4F)c4ccc([nH]4)c(-c4c(F)c(F)c(F)c(F)c4F)c4nc(c(-c5c(F)c(F)c(F)c(F)c5F)c5ccc2[nH]5)C=C4)C=C3)cc1
REMARK SMILES IDX 17 1 16 2 14 3 15 4 12 6 13 7 3 8 2 9 1 10 5 11 6 12 11 13
REMARK SMILES IDX 7 14 10 15 8 16 9 17 4 19 18 21 19 22 20 23 21 24 22 26
REMARK SMILES IDX 23 27 24 28 85 29 25 30 84 31 26 32 27 33 28 34 78 35 29 36
REMARK SMILES IDX 83 37 77 38 79 39 30 40 82 41 76 42 75 43 31 45 63 46 43 47
REMARK SMILES IDX 62 48 44 49 47 50 61 51 80 52 45 53 46 54 60 56 81 57 48 58
REMARK SMILES IDX 32 59 33 60 41 61 34 62 35 63 39 64 42 65 36 66 37 67 40 68
REMARK SMILES IDX 38 69 64 70 65 71 73 72 66 73 67 74 71 75 74 76 68 77 69 78
REMARK SMILES IDX 72 79 70 80 49 81 50 82 58 83 51 84 52 85 56 86 59 87 53 88
REMARK SMILES IDX 54 89 57 90 55 91
REMARK H PARENT 16 5 9 18 4 20 20 25 79 44 47 55
REMARK Flexibility Score: inf
ROOT
ATOM      1  C   UNL A   1      31.431  30.698  26.429  1.00  0.00     0.117 C 
ENDROOT
BRANCH   1   2
ATOM      2  N   UNL A   1      32.720  30.132  26.799  1.00  0.00    -0.353 N 
ATOM      3  C   UNL A   1      33.571  29.354  26.059  1.00  0.00     0.257 C 
ATOM      4  O   UNL A   1      34.686  29.129  26.537  1.00  0.00    -0.272 OA
ATOM      5  H   UNL A   1      33.024  30.336  27.713  1.00  0.00     0.163 HD
BRANCH   3   6
ATOM      6  C   UNL A   1      33.142  28.819  24.696  1.00  0.00     0.291 C 
ATOM      7  F   UNL A   1      34.189  28.832  23.814  1.00  0.00    -0.233 F 
BRANCH   6   8
ATOM      8  C   UNL A   1      32.456  27.412  24.744  1.00  0.00     0.130 C 
BRANCH   8   9
ATOM      9  C   UNL A   1      33.269  26.268  24.060  1.00  0.00     0.040 C 
ATOM     10  C   UNL A   1      34.122  25.397  24.978  1.00  0.00     0.007 C 
ENDBRANCH   8   9
BRANCH   8  11
ATOM     11  C   UNL A   1      31.045  27.580  24.131  1.00  0.00    -0.013 A 
ATOM     12  C   UNL A   1      30.031  26.629  24.347  1.00  0.00     0.010 A 
ATOM     13  C   UNL A   1      30.685  28.770  23.464  1.00  0.00     0.010 A 
ATOM     14  C   UNL A   1      28.723  26.844  23.895  1.00  0.00     0.046 A 
ATOM     15  C   UNL A   1      29.378  28.990  23.020  1.00  0.00     0.046 A 
ATOM     16  C   UNL A   1      28.408  28.025  23.238  1.00  0.00     0.115 A 
BRANCH  16  17
ATOM     17  O   UNL A   1      27.142  28.289  22.808  1.00  0.00    -0.508 OA
ATOM     18  H   UNL A   1      26.975  29.042  22.276  1.00  0.00     0.293 HD
ENDBRANCH  16  17
ENDBRANCH   8  11
BRANCH   8  19
ATOM     19  O   UNL A   1      32.312  27.054  26.133  1.00  0.00    -0.382 OA
ATOM     20  H   UNL A   1      32.143  26.102  26.207  1.00  0.00     0.212 HD
ENDBRANCH   8  19
ENDBRANCH   6   8
ENDBRANCH   3   6
ENDBRANCH   1   2
BRANCH   1  21
ATOM     21  C   UNL A   1      31.407  32.209  26.522  1.00  0.00     0.042 C 
BRANCH  21  22
ATOM     22  C   UNL A   1      32.553  32.785  27.341  1.00  0.00     0.118 C 
BRANCH  22  23
ATOM     23  N   UNL A   1      32.385  34.200  27.666  1.00  0.00    -0.352 N 
ATOM     24  C   UNL A   1      33.016  34.981  28.603  1.00  0.00     0.251 C 
ATOM     25  H   UNL A   1      31.710  34.669  27.125  1.00  0.00     0.163 HD
ATOM     26  O   UNL A   1      32.620  36.123  28.822  1.00  0.00    -0.269 OA
BRANCH  24  27
ATOM     27  C   UNL A   1      34.148  34.432  29.375  1.00  0.00     0.039 A 
ATOM     28  C   UNL A   1      33.894  33.696  30.535  1.00  0.00     0.014 A 
ATOM     29  C   UNL A   1      35.456  34.608  28.929  1.00  0.00     0.014 A 
ATOM     30  C   UNL A   1      34.948  33.045  31.182  1.00  0.00     0.010 A 
ATOM     31  C   UNL A   1      36.478  33.859  29.492  1.00  0.00     0.010 A 
ATOM     32  C   UNL A   1      36.238  33.073  30.628  1.00  0.00    -0.014 A 
BRANCH  32  33
ATOM     33  C   UNL A   1      37.363  32.303  31.215  1.00  0.00     0.031 A 
ATOM     34  C   UNL A   1      37.864  32.645  32.591  1.00  0.00     0.074 A 
ATOM     35  C   UNL A   1      37.998  31.373  30.475  1.00  0.00     0.049 A 
ATOM     36  N   UNL A   1      38.914  32.193  33.229  1.00  0.00    -0.248 NA
ATOM     37  C   UNL A   1      37.113  33.673  33.331  1.00  0.00     0.031 C 
ATOM     38  C   UNL A   1      37.652  30.998  29.103  1.00  0.00     0.029 A 
ATOM     39  N   UNL A   1      39.079  30.581  30.771  1.00  0.00    -0.354 N 
ATOM     40  C   UNL A   1      38.966  32.906  34.419  1.00  0.00     0.074 A 
ATOM     41  C   UNL A   1      37.885  33.865  34.387  1.00  0.00     0.031 C 
ATOM     42  C   UNL A   1      38.479  30.023  28.691  1.00  0.00     0.029 A 
ATOM     43  C   UNL A   1      39.439  29.735  29.751  1.00  0.00     0.049 A 
ATOM     44  H   UNL A   1      39.551  30.616  31.635  1.00  0.00     0.167 HD
ATOM     45  C   UNL A   1      39.817  32.753  35.461  1.00  0.00     0.037 A 
ATOM     46  C   UNL A   1      40.433  28.830  29.681  1.00  0.00     0.037 A 
ATOM     47  C   UNL A   1      40.855  31.760  35.511  1.00  0.00     0.049 A 
ATOM     48  C   UNL A   1      41.343  28.652  30.865  1.00  0.00     0.074 A 
ATOM     49  C   UNL A   1      41.722  31.466  36.548  1.00  0.00     0.029 A 
ATOM     50  N   UNL A   1      41.161  30.890  34.473  1.00  0.00    -0.354 N 
ATOM     51  N   UNL A   1      41.343  29.286  32.013  1.00  0.00    -0.248 NA
ATOM     52  C   UNL A   1      42.392  27.629  30.743  1.00  0.00     0.031 C 
ATOM     53  C   UNL A   1      42.574  30.440  36.126  1.00  0.00     0.029 A 
ATOM     54  C   UNL A   1      42.211  30.066  34.843  1.00  0.00     0.049 A 
ATOM     55  H   UNL A   1      40.699  30.863  33.605  1.00  0.00     0.167 HD
ATOM     56  C   UNL A   1      42.367  28.722  32.761  1.00  0.00     0.074 A 
ATOM     57  C   UNL A   1      42.961  27.686  31.939  1.00  0.00     0.031 C 
ATOM     58  C   UNL A   1      42.780  29.034  34.013  1.00  0.00     0.037 A 
BRANCH  45  59
ATOM     59  C   UNL A   1      39.645  33.676  36.633  1.00  0.00     0.064 A 
ATOM     60  C   UNL A   1      38.853  33.323  37.738  1.00  0.00     0.173 A 
ATOM     61  C   UNL A   1      40.277  34.928  36.654  1.00  0.00     0.173 A 
ATOM     62  F   UNL A   1      38.214  32.144  37.762  1.00  0.00    -0.203 F 
ATOM     63  C   UNL A   1      38.667  34.206  38.799  1.00  0.00     0.198 A 
ATOM     64  C   UNL A   1      40.116  35.794  37.733  1.00  0.00     0.198 A 
ATOM     65  F   UNL A   1      41.048  35.315  35.627  1.00  0.00    -0.203 F 
ATOM     66  F   UNL A   1      37.853  33.873  39.810  1.00  0.00    -0.200 F 
ATOM     67  C   UNL A   1      39.303  35.437  38.799  1.00  0.00     0.200 A 
ATOM     68  F   UNL A   1      40.740  36.980  37.737  1.00  0.00    -0.200 F 
ATOM     69  F   UNL A   1      39.122  36.287  39.819  1.00  0.00    -0.200 F 
ENDBRANCH  45  59
BRANCH  46  70
ATOM     70  C   UNL A   1      40.583  27.988  28.466  1.00  0.00     0.064 A 
ATOM     71  C   UNL A   1      39.953  26.739  28.384  1.00  0.00     0.173 A 
ATOM     72  C   UNL A   1      41.341  28.413  27.366  1.00  0.00     0.173 A 
ATOM     73  F   UNL A   1      39.233  26.283  29.419  1.00  0.00    -0.203 F 
ATOM     74  C   UNL A   1      40.087  25.938  27.251  1.00  0.00     0.198 A 
ATOM     75  C   UNL A   1      41.454  27.622  26.224  1.00  0.00     0.198 A 
ATOM     76  F   UNL A   1      41.957  29.603  27.393  1.00  0.00    -0.203 F 
ATOM     77  F   UNL A   1      39.504  24.732  27.213  1.00  0.00    -0.200 F 
ATOM     78  C   UNL A   1      40.832  26.383  26.170  1.00  0.00     0.200 A 
ATOM     79  F   UNL A   1      42.163  28.060  25.174  1.00  0.00    -0.200 F 
ATOM     80  F   UNL A   1      40.955  25.616  25.078  1.00  0.00    -0.200 F 
ENDBRANCH  46  70
BRANCH  58  81
ATOM     81  C   UNL A   1      43.902  28.222  34.587  1.00  0.00     0.064 A 
ATOM     82  C   UNL A   1      43.667  27.012  35.257  1.00  0.00     0.173 A 
ATOM     83  C   UNL A   1      45.232  28.638  34.425  1.00  0.00     0.173 A 
ATOM     84  F   UNL A   1      42.411  26.580  35.448  1.00  0.00    -0.203 F 
ATOM     85  C   UNL A   1      44.722  26.259  35.763  1.00  0.00     0.198 A 
ATOM     86  C   UNL A   1      46.286  27.870  34.909  1.00  0.00     0.198 A 
ATOM     87  F   UNL A   1      45.509  29.785  33.787  1.00  0.00    -0.203 F 
ATOM     88  F   UNL A   1      44.473  25.129  36.437  1.00  0.00    -0.200 F 
ATOM     89  C   UNL A   1      46.030  26.685  35.582  1.00  0.00     0.200 A 
ATOM     90  F   UNL A   1      47.549  28.275  34.723  1.00  0.00    -0.200 F 
ATOM     91  F   UNL A   1      47.046  25.955  36.065  1.00  0.00    -0.200 F 
ENDBRANCH  58  81
ENDBRANCH  32  33
ENDBRANCH  24  27
ENDBRANCH  22  23
ENDBRANCH  21  22
ENDBRANCH   1  21
TORSDOF 15
ENDMDL
