MODEL 1
REMARK VINA RESULT:     -13.1      0.000      0.000
REMARK SMILES CNC(=O)c1cc(S(=O)(=O)N2CCC(C(=O)NCCCNC(=O)c3ccc(-c4c5nc(c(-c6c(F)c(F)c(F)c(F)c6F)c6ccc([nH]6)c(-c6c(F)c(F)c(F)c(F)c6F)c6nc(c(-c7c(F)c(F)c(F)c(F)c7F)c7ccc4[nH]7)C=C6)C=C5)cc3)CC2)ccc1OC
REMARK SMILES IDX 18 1 17 2 15 3 16 4 14 6 11 7 12 8 88 9 13 10 87 11 8 12
REMARK SMILES IDX 9 13 10 14 7 15 5 16 6 17 91 18 90 19 89 20 3 21 1 22 2 23
REMARK SMILES IDX 4 25 92 26 93 27 19 28 20 29 21 30 22 31 23 33 24 34 25 35
REMARK SMILES IDX 86 36 26 37 85 38 27 39 28 40 29 41 79 42 30 43 84 44 78 45
REMARK SMILES IDX 80 46 31 47 83 48 77 49 76 50 32 52 64 53 44 54 63 55 45 56
REMARK SMILES IDX 48 57 62 58 81 59 46 60 47 61 61 63 82 64 49 65 33 66 34 67
REMARK SMILES IDX 42 68 35 69 36 70 40 71 43 72 37 73 38 74 41 75 39 76 65 77
REMARK SMILES IDX 66 78 74 79 67 80 68 81 72 82 75 83 69 84 70 85 73 86 71 87
REMARK SMILES IDX 50 88 51 89 59 90 52 91 53 92 57 93 60 94 54 95 55 96 58 97
REMARK SMILES IDX 56 98
REMARK H PARENT 17 5 2 24 21 32 80 51 48 62
REMARK Flexibility Score: inf
ROOT
ATOM      1  C   UNL A   1      31.442  31.034  26.338  1.00  0.00     0.117 C 
ENDROOT
BRANCH   1   2
ATOM      2  N   UNL A   1      32.543  30.412  27.059  1.00  0.00    -0.356 N 
ATOM      3  C   UNL A   1      33.175  29.222  26.887  1.00  0.00     0.223 C 
ATOM      4  O   UNL A   1      34.071  28.927  27.680  1.00  0.00    -0.275 OA
ATOM      5  H   UNL A   1      32.893  30.951  27.806  1.00  0.00     0.163 HD
BRANCH   3   6
ATOM      6  C   UNL A   1      32.811  28.276  25.758  1.00  0.00     0.081 C 
ATOM      7  N   UNL A   1      33.235  25.982  24.072  1.00  0.00    -0.198 NA
ATOM      8  C   UNL A   1      33.489  27.335  23.535  1.00  0.00     0.103 C 
ATOM      9  C   UNL A   1      32.263  25.853  25.184  1.00  0.00     0.103 C 
ATOM     10  C   UNL A   1      33.861  28.286  24.654  1.00  0.00     0.030 C 
ATOM     11  C   UNL A   1      32.473  26.882  26.281  1.00  0.00     0.030 C 
BRANCH   7  12
ATOM     12  S   UNL A   1      33.230  24.710  22.928  1.00  0.00     0.243 S 
ATOM     13  O   UNL A   1      33.906  25.203  21.745  1.00  0.00    -0.207 OA
ATOM     14  O   UNL A   1      31.890  24.174  22.863  1.00  0.00    -0.207 OA
BRANCH  12  15
ATOM     15  C   UNL A   1      34.261  23.407  23.582  1.00  0.00     0.083 A 
ATOM     16  C   UNL A   1      34.352  21.283  24.749  1.00  0.00     0.083 A 
ATOM     17  C   UNL A   1      33.611  22.364  24.250  1.00  0.00     0.039 A 
ATOM     18  C   UNL A   1      35.730  21.211  24.513  1.00  0.00     0.131 A 
ATOM     19  C   UNL A   1      36.379  22.275  23.891  1.00  0.00     0.048 A 
ATOM     20  C   UNL A   1      35.649  23.371  23.432  1.00  0.00     0.025 A 
BRANCH  16  21
ATOM     21  C   UNL A   1      33.602  20.252  25.493  1.00  0.00     0.254 C 
ATOM     22  C   UNL A   1      33.731  21.496  27.703  1.00  0.00     0.143 C 
ATOM     23  N   UNL A   1      33.369  20.398  26.835  1.00  0.00    -0.355 N 
ATOM     24  H   UNL A   1      32.891  19.653  27.267  1.00  0.00     0.163 HD
ATOM     25  O   UNL A   1      33.166  19.278  24.886  1.00  0.00    -0.269 OA
ENDBRANCH  16  21
BRANCH  18  26
ATOM     26  O   UNL A   1      36.541  20.173  24.883  1.00  0.00    -0.496 OA
ATOM     27  C   UNL A   1      37.904  20.574  25.032  1.00  0.00     0.278 C 
ENDBRANCH  18  26
ENDBRANCH  12  15
ENDBRANCH   7  12
ENDBRANCH   3   6
ENDBRANCH   1   2
BRANCH   1  28
ATOM     28  C   UNL A   1      31.414  32.543  26.522  1.00  0.00     0.042 C 
BRANCH  28  29
ATOM     29  C   UNL A   1      32.609  33.080  27.292  1.00  0.00     0.118 C 
BRANCH  29  30
ATOM     30  N   UNL A   1      32.418  34.456  27.727  1.00  0.00    -0.352 N 
ATOM     31  C   UNL A   1      33.000  35.144  28.762  1.00  0.00     0.251 C 
ATOM     32  H   UNL A   1      31.772  34.972  27.196  1.00  0.00     0.163 HD
ATOM     33  O   UNL A   1      32.550  36.237  29.095  1.00  0.00    -0.269 OA
BRANCH  31  34
ATOM     34  C   UNL A   1      34.152  34.570  29.488  1.00  0.00     0.039 A 
ATOM     35  C   UNL A   1      33.935  33.953  30.722  1.00  0.00     0.014 A 
ATOM     36  C   UNL A   1      35.445  34.661  28.969  1.00  0.00     0.014 A 
ATOM     37  C   UNL A   1      35.006  33.371  31.403  1.00  0.00     0.010 A 
ATOM     38  C   UNL A   1      36.493  34.001  29.599  1.00  0.00     0.010 A 
ATOM     39  C   UNL A   1      36.287  33.360  30.828  1.00  0.00    -0.014 A 
BRANCH  39  40
ATOM     40  C   UNL A   1      37.436  32.714  31.507  1.00  0.00     0.031 A 
ATOM     41  C   UNL A   1      38.151  31.570  30.842  1.00  0.00     0.074 A 
ATOM     42  C   UNL A   1      37.789  33.106  32.745  1.00  0.00     0.049 A 
ATOM     43  N   UNL A   1      39.112  30.812  31.304  1.00  0.00    -0.248 NA
ATOM     44  C   UNL A   1      37.702  31.212  29.487  1.00  0.00     0.031 C 
ATOM     45  C   UNL A   1      37.146  34.175  33.511  1.00  0.00     0.029 A 
ATOM     46  N   UNL A   1      38.775  32.644  33.580  1.00  0.00    -0.354 N 
ATOM     47  C   UNL A   1      39.364  29.877  30.308  1.00  0.00     0.074 A 
ATOM     48  C   UNL A   1      38.419  30.126  29.242  1.00  0.00     0.031 C 
ATOM     49  C   UNL A   1      37.775  34.308  34.690  1.00  0.00     0.029 A 
ATOM     50  C   UNL A   1      38.838  33.311  34.778  1.00  0.00     0.049 A 
ATOM     51  H   UNL A   1      39.379  31.903  33.343  1.00  0.00     0.167 HD
ATOM     52  C   UNL A   1      40.316  28.914  30.274  1.00  0.00     0.037 A 
ATOM     53  C   UNL A   1      39.662  33.137  35.827  1.00  0.00     0.037 A 
ATOM     54  C   UNL A   1      41.277  28.691  31.321  1.00  0.00     0.049 A 
ATOM     55  C   UNL A   1      40.709  32.059  35.767  1.00  0.00     0.074 A 
ATOM     56  C   UNL A   1      42.317  27.780  31.360  1.00  0.00     0.029 A 
ATOM     57  N   UNL A   1      41.317  29.397  32.515  1.00  0.00    -0.354 N 
ATOM     58  N   UNL A   1      40.971  31.213  34.801  1.00  0.00    -0.248 NA
ATOM     59  C   UNL A   1      41.576  31.915  36.944  1.00  0.00     0.031 C 
ATOM     60  C   UNL A   1      42.967  27.912  32.593  1.00  0.00     0.029 A 
ATOM     61  C   UNL A   1      42.355  28.932  33.305  1.00  0.00     0.049 A 
ATOM     62  H   UNL A   1      40.699  30.122  32.763  1.00  0.00     0.167 HD
ATOM     63  C   UNL A   1      42.048  30.455  35.240  1.00  0.00     0.074 A 
ATOM     64  C   UNL A   1      42.396  30.949  36.557  1.00  0.00     0.031 C 
ATOM     65  C   UNL A   1      42.691  29.442  34.608  1.00  0.00     0.037 A 
BRANCH  52  66
ATOM     66  C   UNL A   1      40.360  28.035  29.058  1.00  0.00     0.064 A 
ATOM     67  C   UNL A   1      41.103  28.392  27.922  1.00  0.00     0.173 A 
ATOM     68  C   UNL A   1      39.656  26.823  29.027  1.00  0.00     0.173 A 
ATOM     69  F   UNL A   1      41.783  29.549  27.895  1.00  0.00    -0.203 F 
ATOM     70  C   UNL A   1      41.111  27.585  26.788  1.00  0.00     0.198 A 
ATOM     71  C   UNL A   1      39.688  26.004  27.901  1.00  0.00     0.198 A 
ATOM     72  F   UNL A   1      38.932  26.433  30.087  1.00  0.00    -0.203 F 
ATOM     73  F   UNL A   1      41.779  27.976  25.694  1.00  0.00    -0.200 F 
ATOM     74  C   UNL A   1      40.407  26.390  26.779  1.00  0.00     0.200 A 
ATOM     75  F   UNL A   1      39.016  24.845  27.897  1.00  0.00    -0.200 F 
ATOM     76  F   UNL A   1      40.412  25.615  25.686  1.00  0.00    -0.200 F 
ENDBRANCH  52  66
BRANCH  53  77
ATOM     77  C   UNL A   1      39.558  34.034  37.005  1.00  0.00     0.064 A 
ATOM     78  C   UNL A   1      38.818  33.647  38.130  1.00  0.00     0.173 A 
ATOM     79  C   UNL A   1      40.198  35.281  37.039  1.00  0.00     0.173 A 
ATOM     80  F   UNL A   1      38.172  32.473  38.135  1.00  0.00    -0.203 F 
ATOM     81  C   UNL A   1      38.711  34.480  39.242  1.00  0.00     0.198 A 
ATOM     82  C   UNL A   1      40.110  36.103  38.160  1.00  0.00     0.198 A 
ATOM     83  F   UNL A   1      40.921  35.693  35.987  1.00  0.00    -0.203 F 
ATOM     84  F   UNL A   1      37.969  34.102  40.291  1.00  0.00    -0.200 F 
ATOM     85  C   UNL A   1      39.362  35.705  39.259  1.00  0.00     0.200 A 
ATOM     86  F   UNL A   1      40.748  37.281  38.176  1.00  0.00    -0.200 F 
ATOM     87  F   UNL A   1      39.264  36.503  40.330  1.00  0.00    -0.200 F 
ENDBRANCH  53  77
BRANCH  65  88
ATOM     88  C   UNL A   1      43.859  28.826  35.319  1.00  0.00     0.064 A 
ATOM     89  C   UNL A   1      43.693  27.759  36.213  1.00  0.00     0.173 A 
ATOM     90  C   UNL A   1      45.160  29.287  35.073  1.00  0.00     0.173 A 
ATOM     91  F   UNL A   1      42.466  27.296  36.492  1.00  0.00    -0.203 F 
ATOM     92  C   UNL A   1      44.790  27.187  36.852  1.00  0.00     0.198 A 
ATOM     93  C   UNL A   1      46.257  28.696  35.694  1.00  0.00     0.198 A 
ATOM     94  F   UNL A   1      45.370  30.302  34.222  1.00  0.00    -0.203 F 
ATOM     95  F   UNL A   1      44.607  26.196  37.735  1.00  0.00    -0.200 F 
ATOM     96  C   UNL A   1      46.070  27.652  36.588  1.00  0.00     0.200 A 
ATOM     97  F   UNL A   1      47.494  29.138  35.430  1.00  0.00    -0.200 F 
ATOM     98  F   UNL A   1      47.125  27.096  37.200  1.00  0.00    -0.200 F 
ENDBRANCH  65  88
ENDBRANCH  39  40
ENDBRANCH  31  34
ENDBRANCH  29  30
ENDBRANCH  28  29
ENDBRANCH   1  28
TORSDOF 14
ENDMDL
MODEL 2
REMARK VINA RESULT:     -13.0      0.445      1.663
REMARK SMILES CNC(=O)c1cc(S(=O)(=O)N2CCC(C(=O)NCCCNC(=O)c3ccc(-c4c5nc(c(-c6c(F)c(F)c(F)c(F)c6F)c6ccc([nH]6)c(-c6c(F)c(F)c(F)c(F)c6F)c6nc(c(-c7c(F)c(F)c(F)c(F)c7F)c7ccc4[nH]7)C=C6)C=C5)cc3)CC2)ccc1OC
REMARK SMILES IDX 18 1 17 2 15 3 16 4 14 6 11 7 12 8 88 9 13 10 87 11 8 12
REMARK SMILES IDX 9 13 10 14 7 15 5 16 6 17 91 18 90 19 89 20 3 21 1 22 2 23
REMARK SMILES IDX 4 25 92 26 93 27 19 28 20 29 21 30 22 31 23 33 24 34 25 35
REMARK SMILES IDX 86 36 26 37 85 38 27 39 28 40 29 41 79 42 30 43 84 44 78 45
REMARK SMILES IDX 80 46 31 47 83 48 77 49 76 50 32 52 64 53 44 54 63 55 45 56
REMARK SMILES IDX 48 57 62 58 81 59 46 60 47 61 61 63 82 64 49 65 33 66 34 67
REMARK SMILES IDX 42 68 35 69 36 70 40 71 43 72 37 73 38 74 41 75 39 76 65 77
REMARK SMILES IDX 66 78 74 79 67 80 68 81 72 82 75 83 69 84 70 85 73 86 71 87
REMARK SMILES IDX 50 88 51 89 59 90 52 91 53 92 57 93 60 94 54 95 55 96 58 97
REMARK SMILES IDX 56 98
REMARK H PARENT 17 5 2 24 21 32 80 51 48 62
REMARK Flexibility Score: inf
ROOT
ATOM      1  C   UNL A   1      31.417  31.098  26.501  1.00  0.00     0.117 C 
ENDROOT
BRANCH   1   2
ATOM      2  N   UNL A   1      32.565  30.498  27.165  1.00  0.00    -0.356 N 
ATOM      3  C   UNL A   1      33.232  29.337  26.939  1.00  0.00     0.223 C 
ATOM      4  O   UNL A   1      34.166  29.054  27.692  1.00  0.00    -0.275 OA
ATOM      5  H   UNL A   1      32.923  31.031  27.912  1.00  0.00     0.163 HD
BRANCH   3   6
ATOM      6  C   UNL A   1      32.859  28.406  25.800  1.00  0.00     0.081 C 
ATOM      7  N   UNL A   1      33.136  26.014  24.223  1.00  0.00    -0.198 NA
ATOM      8  C   UNL A   1      33.628  27.300  23.685  1.00  0.00     0.103 C 
ATOM      9  C   UNL A   1      32.047  26.058  25.227  1.00  0.00     0.103 C 
ATOM     10  C   UNL A   1      34.009  28.234  24.814  1.00  0.00     0.030 C 
ATOM     11  C   UNL A   1      32.281  27.090  26.316  1.00  0.00     0.030 C 
BRANCH   7  12
ATOM     12  S   UNL A   1      33.074  24.712  23.115  1.00  0.00     0.243 S 
ATOM     13  O   UNL A   1      33.701  25.169  21.891  1.00  0.00    -0.207 OA
ATOM     14  O   UNL A   1      31.730  24.184  23.121  1.00  0.00    -0.207 OA
BRANCH  12  15
ATOM     15  C   UNL A   1      34.126  23.420  23.757  1.00  0.00     0.083 A 
ATOM     16  C   UNL A   1      34.334  21.542  25.278  1.00  0.00     0.083 A 
ATOM     17  C   UNL A   1      33.584  22.607  24.758  1.00  0.00     0.039 A 
ATOM     18  C   UNL A   1      35.594  21.248  24.744  1.00  0.00     0.131 A 
ATOM     19  C   UNL A   1      36.150  22.092  23.784  1.00  0.00     0.048 A 
ATOM     20  C   UNL A   1      35.421  23.176  23.297  1.00  0.00     0.025 A 
BRANCH  16  21
ATOM     21  C   UNL A   1      33.717  20.765  26.370  1.00  0.00     0.254 C 
ATOM     22  C   UNL A   1      33.082  18.818  24.869  1.00  0.00     0.143 C 
ATOM     23  N   UNL A   1      33.149  19.544  26.117  1.00  0.00    -0.355 N 
ATOM     24  H   UNL A   1      32.730  19.102  26.890  1.00  0.00     0.163 HD
ATOM     25  O   UNL A   1      33.747  21.216  27.512  1.00  0.00    -0.269 OA
ENDBRANCH  16  21
BRANCH  18  26
ATOM     26  O   UNL A   1      36.384  20.194  25.115  1.00  0.00    -0.496 OA
ATOM     27  C   UNL A   1      37.777  20.504  25.040  1.00  0.00     0.278 C 
ENDBRANCH  18  26
ENDBRANCH  12  15
ENDBRANCH   7  12
ENDBRANCH   3   6
ENDBRANCH   1   2
BRANCH   1  28
ATOM     28  C   UNL A   1      31.439  32.617  26.574  1.00  0.00     0.042 C 
BRANCH  28  29
ATOM     29  C   UNL A   1      32.645  33.168  27.317  1.00  0.00     0.118 C 
BRANCH  29  30
ATOM     30  N   UNL A   1      32.429  34.525  27.799  1.00  0.00    -0.352 N 
ATOM     31  C   UNL A   1      32.989  35.184  28.864  1.00  0.00     0.251 C 
ATOM     32  H   UNL A   1      31.781  35.050  27.278  1.00  0.00     0.163 HD
ATOM     33  O   UNL A   1      32.520  36.259  29.230  1.00  0.00    -0.269 OA
BRANCH  31  34
ATOM     34  C   UNL A   1      34.142  34.602  29.582  1.00  0.00     0.039 A 
ATOM     35  C   UNL A   1      33.936  34.026  30.838  1.00  0.00     0.014 A 
ATOM     36  C   UNL A   1      35.425  34.644  29.032  1.00  0.00     0.014 A 
ATOM     37  C   UNL A   1      35.007  33.436  31.513  1.00  0.00     0.010 A 
ATOM     38  C   UNL A   1      36.470  33.975  29.659  1.00  0.00     0.010 A 
ATOM     39  C   UNL A   1      36.275  33.376  30.911  1.00  0.00    -0.014 A 
BRANCH  39  40
ATOM     40  C   UNL A   1      37.421  32.719  31.584  1.00  0.00     0.031 A 
ATOM     41  C   UNL A   1      38.125  31.572  30.914  1.00  0.00     0.074 A 
ATOM     42  C   UNL A   1      37.782  33.106  32.821  1.00  0.00     0.049 A 
ATOM     43  N   UNL A   1      39.083  30.806  31.370  1.00  0.00    -0.248 NA
ATOM     44  C   UNL A   1      37.668  31.220  29.560  1.00  0.00     0.031 C 
ATOM     45  C   UNL A   1      37.150  34.178  33.592  1.00  0.00     0.029 A 
ATOM     46  N   UNL A   1      38.768  32.635  33.651  1.00  0.00    -0.354 N 
ATOM     47  C   UNL A   1      39.323  29.870  30.372  1.00  0.00     0.074 A 
ATOM     48  C   UNL A   1      38.376  30.129  29.309  1.00  0.00     0.031 C 
ATOM     49  C   UNL A   1      37.785  34.304  34.769  1.00  0.00     0.029 A 
ATOM     50  C   UNL A   1      38.840  33.299  34.850  1.00  0.00     0.049 A 
ATOM     51  H   UNL A   1      39.365  31.891  33.410  1.00  0.00     0.167 HD
ATOM     52  C   UNL A   1      40.268  28.900  30.332  1.00  0.00     0.037 A 
ATOM     53  C   UNL A   1      39.667  33.117  35.897  1.00  0.00     0.037 A 
ATOM     54  C   UNL A   1      41.232  28.669  31.375  1.00  0.00     0.049 A 
ATOM     55  C   UNL A   1      40.706  32.032  35.830  1.00  0.00     0.074 A 
ATOM     56  C   UNL A   1      42.265  27.750  31.408  1.00  0.00     0.029 A 
ATOM     57  N   UNL A   1      41.281  29.372  32.570  1.00  0.00    -0.354 N 
ATOM     58  N   UNL A   1      40.958  31.185  34.861  1.00  0.00    -0.248 NA
ATOM     59  C   UNL A   1      41.576  31.879  37.004  1.00  0.00     0.031 C 
ATOM     60  C   UNL A   1      42.920  27.874  32.638  1.00  0.00     0.029 A 
ATOM     61  C   UNL A   1      42.319  28.897  33.355  1.00  0.00     0.049 A 
ATOM     62  H   UNL A   1      40.670  30.101  32.822  1.00  0.00     0.167 HD
ATOM     63  C   UNL A   1      42.031  30.419  35.294  1.00  0.00     0.074 A 
ATOM     64  C   UNL A   1      42.388  30.907  36.611  1.00  0.00     0.031 C 
ATOM     65  C   UNL A   1      42.664  29.403  34.658  1.00  0.00     0.037 A 
BRANCH  52  66
ATOM     66  C   UNL A   1      40.300  28.024  29.114  1.00  0.00     0.064 A 
ATOM     67  C   UNL A   1      39.586  26.818  29.059  1.00  0.00     0.173 A 
ATOM     68  C   UNL A   1      41.048  28.396  27.987  1.00  0.00     0.173 A 
ATOM     69  F   UNL A   1      38.867  26.410  30.116  1.00  0.00    -0.203 F 
ATOM     70  C   UNL A   1      39.649  25.998  27.936  1.00  0.00     0.198 A 
ATOM     71  C   UNL A   1      41.086  27.588  26.854  1.00  0.00     0.198 A 
ATOM     72  F   UNL A   1      41.747  29.541  27.986  1.00  0.00    -0.203 F 
ATOM     73  F   UNL A   1      39.007  24.821  27.930  1.00  0.00    -0.200 F 
ATOM     74  C   UNL A   1      40.395  26.385  26.833  1.00  0.00     0.200 A 
ATOM     75  F   UNL A   1      41.799  27.967  25.785  1.00  0.00    -0.200 F 
ATOM     76  F   UNL A   1      40.458  25.594  25.753  1.00  0.00    -0.200 F 
ENDBRANCH  52  66
BRANCH  53  77
ATOM     77  C   UNL A   1      39.575  34.012  37.076  1.00  0.00     0.064 A 
ATOM     78  C   UNL A   1      38.832  33.631  38.202  1.00  0.00     0.173 A 
ATOM     79  C   UNL A   1      40.228  35.252  37.112  1.00  0.00     0.173 A 
ATOM     80  F   UNL A   1      38.174  32.463  38.205  1.00  0.00    -0.203 F 
ATOM     81  C   UNL A   1      38.736  34.462  39.316  1.00  0.00     0.198 A 
ATOM     82  C   UNL A   1      40.150  36.073  38.235  1.00  0.00     0.198 A 
ATOM     83  F   UNL A   1      40.953  35.660  36.060  1.00  0.00    -0.203 F 
ATOM     84  F   UNL A   1      37.991  34.090  40.365  1.00  0.00    -0.200 F 
ATOM     85  C   UNL A   1      39.399  35.680  39.334  1.00  0.00     0.200 A 
ATOM     86  F   UNL A   1      40.800  37.244  38.253  1.00  0.00    -0.200 F 
ATOM     87  F   UNL A   1      39.311  36.477  40.407  1.00  0.00    -0.200 F 
ENDBRANCH  53  77
BRANCH  65  88
ATOM     88  C   UNL A   1      43.830  28.776  35.363  1.00  0.00     0.064 A 
ATOM     89  C   UNL A   1      45.140  29.234  35.165  1.00  0.00     0.173 A 
ATOM     90  C   UNL A   1      43.626  27.730  36.275  1.00  0.00     0.173 A 
ATOM     91  F   UNL A   1      45.385  30.221  34.290  1.00  0.00    -0.203 F 
ATOM     92  C   UNL A   1      46.208  28.652  35.841  1.00  0.00     0.198 A 
ATOM     93  C   UNL A   1      44.694  27.167  36.968  1.00  0.00     0.198 A 
ATOM     94  F   UNL A   1      42.390  27.260  36.502  1.00  0.00    -0.203 F 
ATOM     95  F   UNL A   1      47.458  29.076  35.606  1.00  0.00    -0.200 F 
ATOM     96  C   UNL A   1      45.984  27.624  36.745  1.00  0.00     0.200 A 
ATOM     97  F   UNL A   1      44.475  26.182  37.849  1.00  0.00    -0.200 F 
ATOM     98  F   UNL A   1      47.015  27.070  37.398  1.00  0.00    -0.200 F 
ENDBRANCH  65  88
ENDBRANCH  39  40
ENDBRANCH  31  34
ENDBRANCH  29  30
ENDBRANCH  28  29
ENDBRANCH   1  28
TORSDOF 14
ENDMDL
MODEL 3
REMARK VINA RESULT:     -12.9      5.217     10.207
REMARK SMILES CNC(=O)c1cc(S(=O)(=O)N2CCC(C(=O)NCCCNC(=O)c3ccc(-c4c5nc(c(-c6c(F)c(F)c(F)c(F)c6F)c6ccc([nH]6)c(-c6c(F)c(F)c(F)c(F)c6F)c6nc(c(-c7c(F)c(F)c(F)c(F)c7F)c7ccc4[nH]7)C=C6)C=C5)cc3)CC2)ccc1OC
REMARK SMILES IDX 18 1 17 2 15 3 16 4 14 6 11 7 12 8 88 9 13 10 87 11 8 12
REMARK SMILES IDX 9 13 10 14 7 15 5 16 6 17 91 18 90 19 89 20 3 21 1 22 2 23
REMARK SMILES IDX 4 25 92 26 93 27 19 28 20 29 21 30 22 31 23 33 24 34 25 35
REMARK SMILES IDX 86 36 26 37 85 38 27 39 28 40 29 41 79 42 30 43 84 44 78 45
REMARK SMILES IDX 80 46 31 47 83 48 77 49 76 50 32 52 64 53 44 54 63 55 45 56
REMARK SMILES IDX 48 57 62 58 81 59 46 60 47 61 61 63 82 64 49 65 33 66 34 67
REMARK SMILES IDX 42 68 35 69 36 70 40 71 43 72 37 73 38 74 41 75 39 76 65 77
REMARK SMILES IDX 66 78 74 79 67 80 68 81 72 82 75 83 69 84 70 85 73 86 71 87
REMARK SMILES IDX 50 88 51 89 59 90 52 91 53 92 57 93 60 94 54 95 55 96 58 97
REMARK SMILES IDX 56 98
REMARK H PARENT 17 5 2 24 21 32 80 51 48 62
REMARK Flexibility Score: inf
ROOT
ATOM      1  C   UNL A   1      37.519  20.447  24.888  1.00  0.00     0.117 C 
ENDROOT
BRANCH   1   2
ATOM      2  N   UNL A   1      37.971  21.730  25.407  1.00  0.00    -0.356 N 
ATOM      3  C   UNL A   1      37.297  22.875  25.688  1.00  0.00     0.223 C 
ATOM      4  O   UNL A   1      37.948  23.841  26.092  1.00  0.00    -0.275 OA
ATOM      5  H   UNL A   1      38.938  21.775  25.586  1.00  0.00     0.163 HD
BRANCH   3   6
ATOM      6  C   UNL A   1      35.792  22.982  25.524  1.00  0.00     0.081 C 
ATOM      7  N   UNL A   1      33.239  24.260  25.888  1.00  0.00    -0.198 NA
ATOM      8  C   UNL A   1      33.576  23.068  26.694  1.00  0.00     0.103 C 
ATOM      9  C   UNL A   1      33.911  24.418  24.577  1.00  0.00     0.103 C 
ATOM     10  C   UNL A   1      35.076  22.956  26.870  1.00  0.00     0.030 C 
ATOM     11  C   UNL A   1      35.407  24.165  24.639  1.00  0.00     0.030 C 
BRANCH   7  12
ATOM     12  S   UNL A   1      31.609  24.775  25.955  1.00  0.00     0.243 S 
ATOM     13  O   UNL A   1      31.119  24.455  27.282  1.00  0.00    -0.207 OA
ATOM     14  O   UNL A   1      30.940  24.294  24.769  1.00  0.00    -0.207 OA
BRANCH  12  15
ATOM     15  C   UNL A   1      31.612  26.557  25.845  1.00  0.00     0.083 A 
ATOM     16  C   UNL A   1      31.283  28.503  24.436  1.00  0.00     0.083 A 
ATOM     17  C   UNL A   1      31.344  27.110  24.589  1.00  0.00     0.039 A 
ATOM     18  C   UNL A   1      31.416  29.336  25.553  1.00  0.00     0.131 A 
ATOM     19  C   UNL A   1      31.733  28.782  26.791  1.00  0.00     0.048 A 
ATOM     20  C   UNL A   1      31.836  27.399  26.936  1.00  0.00     0.025 A 
BRANCH  16  21
ATOM     21  C   UNL A   1      31.053  29.012  23.070  1.00  0.00     0.254 C 
ATOM     22  C   UNL A   1      33.518  29.001  22.458  1.00  0.00     0.143 C 
ATOM     23  N   UNL A   1      32.110  29.234  22.227  1.00  0.00    -0.355 N 
ATOM     24  H   UNL A   1      31.879  29.604  21.344  1.00  0.00     0.163 HD
ATOM     25  O   UNL A   1      29.901  29.203  22.691  1.00  0.00    -0.269 OA
ENDBRANCH  16  21
BRANCH  18  26
ATOM     26  O   UNL A   1      31.301  30.699  25.540  1.00  0.00    -0.496 OA
ATOM     27  C   UNL A   1      31.808  31.300  26.734  1.00  0.00     0.278 C 
ENDBRANCH  18  26
ENDBRANCH  12  15
ENDBRANCH   7  12
ENDBRANCH   3   6
ENDBRANCH   1   2
BRANCH   1  28
ATOM     28  C   UNL A   1      38.562  19.355  25.070  1.00  0.00     0.042 C 
BRANCH  28  29
ATOM     29  C   UNL A   1      39.608  19.688  26.121  1.00  0.00     0.118 C 
BRANCH  29  30
ATOM     30  N   UNL A   1      40.809  18.876  25.987  1.00  0.00    -0.352 N 
ATOM     31  C   UNL A   1      42.130  19.247  25.968  1.00  0.00     0.251 C 
ATOM     32  H   UNL A   1      40.648  17.910  25.896  1.00  0.00     0.163 HD
ATOM     33  O   UNL A   1      42.987  18.433  25.636  1.00  0.00    -0.269 OA
BRANCH  31  34
ATOM     34  C   UNL A   1      42.525  20.625  26.329  1.00  0.00     0.039 A 
ATOM     35  C   UNL A   1      42.756  21.551  25.310  1.00  0.00     0.014 A 
ATOM     36  C   UNL A   1      42.690  20.997  27.665  1.00  0.00     0.014 A 
ATOM     37  C   UNL A   1      43.091  22.868  25.634  1.00  0.00     0.010 A 
ATOM     38  C   UNL A   1      42.931  22.327  27.989  1.00  0.00     0.010 A 
ATOM     39  C   UNL A   1      43.146  23.273  26.977  1.00  0.00    -0.014 A 
BRANCH  39  40
ATOM     40  C   UNL A   1      43.458  24.673  27.352  1.00  0.00     0.031 A 
ATOM     41  C   UNL A   1      44.888  25.134  27.400  1.00  0.00     0.074 A 
ATOM     42  C   UNL A   1      42.466  25.505  27.718  1.00  0.00     0.049 A 
ATOM     43  N   UNL A   1      45.377  26.283  27.792  1.00  0.00    -0.248 NA
ATOM     44  C   UNL A   1      45.908  24.160  26.979  1.00  0.00     0.031 C 
ATOM     45  C   UNL A   1      41.042  25.163  27.753  1.00  0.00     0.029 A 
ATOM     46  N   UNL A   1      42.505  26.811  28.136  1.00  0.00    -0.354 N 
ATOM     47  C   UNL A   1      46.757  26.159  27.688  1.00  0.00     0.074 A 
ATOM     48  C   UNL A   1      47.031  24.808  27.249  1.00  0.00     0.031 C 
ATOM     49  C   UNL A   1      40.342  26.242  28.139  1.00  0.00     0.029 A 
ATOM     50  C   UNL A   1      41.267  27.336  28.414  1.00  0.00     0.049 A 
ATOM     51  H   UNL A   1      43.341  27.323  28.229  1.00  0.00     0.167 HD
ATOM     52  C   UNL A   1      47.709  27.097  27.910  1.00  0.00     0.037 A 
ATOM     53  C   UNL A   1      40.921  28.564  28.843  1.00  0.00     0.037 A 
ATOM     54  C   UNL A   1      47.431  28.450  28.312  1.00  0.00     0.049 A 
ATOM     55  C   UNL A   1      41.996  29.587  29.086  1.00  0.00     0.074 A 
ATOM     56  C   UNL A   1      48.319  29.493  28.510  1.00  0.00     0.029 A 
ATOM     57  N   UNL A   1      46.163  28.948  28.571  1.00  0.00    -0.354 N 
ATOM     58  N   UNL A   1      43.293  29.476  28.936  1.00  0.00    -0.248 NA
ATOM     59  C   UNL A   1      41.556  30.908  29.556  1.00  0.00     0.031 C 
ATOM     60  C   UNL A   1      47.590  30.614  28.921  1.00  0.00     0.029 A 
ATOM     61  C   UNL A   1      46.244  30.280  28.942  1.00  0.00     0.049 A 
ATOM     62  H   UNL A   1      45.328  28.431  28.502  1.00  0.00     0.167 HD
ATOM     63  C   UNL A   1      43.823  30.715  29.265  1.00  0.00     0.074 A 
ATOM     64  C   UNL A   1      42.704  31.567  29.615  1.00  0.00     0.031 C 
ATOM     65  C   UNL A   1      45.119  31.113  29.277  1.00  0.00     0.037 A 
BRANCH  52  66
ATOM     66  C   UNL A   1      49.138  26.682  27.716  1.00  0.00     0.064 A 
ATOM     67  C   UNL A   1      49.708  26.589  26.437  1.00  0.00     0.173 A 
ATOM     68  C   UNL A   1      49.950  26.379  28.819  1.00  0.00     0.173 A 
ATOM     69  F   UNL A   1      48.969  26.854  25.348  1.00  0.00    -0.203 F 
ATOM     70  C   UNL A   1      51.025  26.172  26.267  1.00  0.00     0.198 A 
ATOM     71  C   UNL A   1      51.275  25.991  28.648  1.00  0.00     0.198 A 
ATOM     72  F   UNL A   1      49.456  26.455  30.064  1.00  0.00    -0.203 F 
ATOM     73  F   UNL A   1      51.528  26.033  25.033  1.00  0.00    -0.200 F 
ATOM     74  C   UNL A   1      51.809  25.878  27.372  1.00  0.00     0.200 A 
ATOM     75  F   UNL A   1      52.036  25.715  29.716  1.00  0.00    -0.200 F 
ATOM     76  F   UNL A   1      53.076  25.474  27.208  1.00  0.00    -0.200 F 
ENDBRANCH  52  66
BRANCH  53  77
ATOM     77  C   UNL A   1      39.488  28.906  29.024  1.00  0.00     0.064 A 
ATOM     78  C   UNL A   1      38.722  29.357  27.941  1.00  0.00     0.173 A 
ATOM     79  C   UNL A   1      38.853  28.781  30.268  1.00  0.00     0.173 A 
ATOM     80  F   UNL A   1      39.292  29.510  26.737  1.00  0.00    -0.203 F 
ATOM     81  C   UNL A   1      37.377  29.682  28.097  1.00  0.00     0.198 A 
ATOM     82  C   UNL A   1      37.502  29.086  30.419  1.00  0.00     0.198 A 
ATOM     83  F   UNL A   1      39.544  28.351  31.334  1.00  0.00    -0.203 F 
ATOM     84  F   UNL A   1      36.676  30.144  27.053  1.00  0.00    -0.200 F 
ATOM     85  C   UNL A   1      36.766  29.542  29.334  1.00  0.00     0.200 A 
ATOM     86  F   UNL A   1      36.913  28.938  31.613  1.00  0.00    -0.200 F 
ATOM     87  F   UNL A   1      35.471  29.849  29.483  1.00  0.00    -0.200 F 
ENDBRANCH  53  77
BRANCH  65  88
ATOM     88  C   UNL A   1      45.392  32.541  29.645  1.00  0.00     0.064 A 
ATOM     89  C   UNL A   1      45.697  32.913  30.962  1.00  0.00     0.173 A 
ATOM     90  C   UNL A   1      45.385  33.539  28.660  1.00  0.00     0.173 A 
ATOM     91  F   UNL A   1      45.699  31.996  31.939  1.00  0.00    -0.203 F 
ATOM     92  C   UNL A   1      45.965  34.241  31.283  1.00  0.00     0.198 A 
ATOM     93  C   UNL A   1      45.678  34.862  28.980  1.00  0.00     0.198 A 
ATOM     94  F   UNL A   1      45.104  33.231  27.385  1.00  0.00    -0.203 F 
ATOM     95  F   UNL A   1      46.213  34.584  32.554  1.00  0.00    -0.200 F 
ATOM     96  C   UNL A   1      45.961  35.212  30.292  1.00  0.00     0.200 A 
ATOM     97  F   UNL A   1      45.685  35.797  28.021  1.00  0.00    -0.200 F 
ATOM     98  F   UNL A   1      46.225  36.489  30.603  1.00  0.00    -0.200 F 
ENDBRANCH  65  88
ENDBRANCH  39  40
ENDBRANCH  31  34
ENDBRANCH  29  30
ENDBRANCH  28  29
ENDBRANCH   1  28
TORSDOF 14
ENDMDL
