MODEL 1
REMARK VINA RESULT:     -12.8      0.000      0.000
REMARK SMILES CC[C@](C)([NH3+])C(=O)Nc1ccc(C(F)(F)F)cc1C(=O)NCCCNC(=O)c1ccc(-c2c3nc(c(-c4c(F)c(F)c(F)c(F)c4F)c4ccc([nH]4)c(-c4c(F)c(F)c(F)c(F)c4F)c4nc(c(-c5c(F)c(F)c(F)c(F)c5F)c5ccc2[nH]5)C=C4)C=C3)cc1
REMARK SMILES IDX 22 1 21 2 19 3 20 4 18 6 9 7 10 8 11 9 17 10 12 11 8 12 6 13
REMARK SMILES IDX 7 14 3 16 4 17 2 18 1 19 5 20 13 24 14 25 15 26 16 27 23 28
REMARK SMILES IDX 24 29 25 30 26 31 27 33 28 34 29 35 90 36 30 37 89 38 31 39
REMARK SMILES IDX 32 40 33 41 83 42 34 43 88 44 82 45 84 46 35 47 87 48 81 49
REMARK SMILES IDX 80 50 36 52 68 53 48 54 67 55 49 56 52 57 66 58 85 59 50 60
REMARK SMILES IDX 51 61 65 63 86 64 53 65 37 66 38 67 46 68 39 69 40 70 44 71
REMARK SMILES IDX 47 72 41 73 42 74 45 75 43 76 69 77 70 78 78 79 71 80 72 81
REMARK SMILES IDX 76 82 79 83 73 84 74 85 77 86 75 87 54 88 55 89 63 90 56 91
REMARK SMILES IDX 57 92 61 93 64 94 58 95 59 96 62 97 60 98
REMARK H PARENT 21 5 8 15 5 21 5 22 5 23 25 32 84 51 52 62
REMARK Flexibility Score: inf
ROOT
ATOM      1  C   UNL A   1      36.742  22.035  25.351  1.00  0.00     0.118 C 
ENDROOT
BRANCH   1   2
ATOM      2  N   UNL A   1      35.844  21.836  26.463  1.00  0.00    -0.352 N 
ATOM      3  C   UNL A   1      34.511  21.504  26.481  1.00  0.00     0.253 C 
ATOM      4  O   UNL A   1      34.005  21.333  27.595  1.00  0.00    -0.269 OA
ATOM      5  H   UNL A   1      36.252  21.959  27.351  1.00  0.00     0.163 HD
BRANCH   3   6
ATOM      6  C   UNL A   1      33.615  21.462  25.273  1.00  0.00     0.063 A 
ATOM      7  C   UNL A   1      32.800  20.418  24.796  1.00  0.00     0.054 A 
ATOM      8  C   UNL A   1      32.292  20.491  23.485  1.00  0.00     0.027 A 
ATOM      9  C   UNL A   1      32.394  21.655  22.727  1.00  0.00     0.015 A 
ATOM     10  C   UNL A   1      33.671  22.651  24.500  1.00  0.00     0.029 A 
ATOM     11  C   UNL A   1      33.028  22.776  23.258  1.00  0.00     0.056 A 
BRANCH   7  12
ATOM     12  N   UNL A   1      32.419  19.243  25.454  1.00  0.00    -0.320 N 
ATOM     13  C   UNL A   1      32.733  17.925  25.296  1.00  0.00     0.285 C 
ATOM     14  O   UNL A   1      32.023  17.146  25.952  1.00  0.00    -0.267 OA
ATOM     15  H   UNL A   1      31.785  19.403  26.191  1.00  0.00     0.170 HD
BRANCH  13  16
ATOM     16  C   UNL A   1      33.994  17.399  24.556  1.00  0.00     0.171 C 
ATOM     17  C   UNL A   1      33.679  17.312  23.050  1.00  0.00     0.090 C 
BRANCH  16  18
ATOM     18  C   UNL A   1      34.381  16.025  25.145  1.00  0.00     0.075 C 
ATOM     19  C   UNL A   1      35.876  15.829  25.379  1.00  0.00     0.011 C 
ENDBRANCH  16  18
BRANCH  16  20
ATOM     20  N   UNL A   1      35.149  18.302  24.674  1.00  0.00    -0.345 N 
ATOM     21  H   UNL A   1      34.825  19.243  24.896  1.00  0.00     0.345 HD
ATOM     22  H   UNL A   1      35.659  18.318  23.790  1.00  0.00     0.345 HD
ATOM     23  H   UNL A   1      35.765  17.970  25.415  1.00  0.00     0.345 HD
ENDBRANCH  16  20
ENDBRANCH  13  16
ENDBRANCH   7  12
BRANCH  11  24
ATOM     24  C   UNL A   1      33.028  24.079  22.494  1.00  0.00     0.416 C 
ATOM     25  F   UNL A   1      32.954  23.895  21.149  1.00  0.00    -0.166 F 
ATOM     26  F   UNL A   1      31.964  24.866  22.824  1.00  0.00    -0.166 F 
ATOM     27  F   UNL A   1      34.133  24.841  22.716  1.00  0.00    -0.166 F 
ENDBRANCH  11  24
ENDBRANCH   3   6
ENDBRANCH   1   2
BRANCH   1  28
ATOM     28  C   UNL A   1      37.694  20.889  25.073  1.00  0.00     0.042 C 
BRANCH  28  29
ATOM     29  C   UNL A   1      39.000  20.991  25.859  1.00  0.00     0.118 C 
BRANCH  29  30
ATOM     30  N   UNL A   1      39.824  19.779  25.859  1.00  0.00    -0.352 N 
ATOM     31  C   UNL A   1      41.163  19.570  26.126  1.00  0.00     0.251 C 
ATOM     32  H   UNL A   1      39.331  18.960  25.624  1.00  0.00     0.163 HD
ATOM     33  O   UNL A   1      41.641  18.447  26.069  1.00  0.00    -0.269 OA
BRANCH  31  34
ATOM     34  C   UNL A   1      42.050  20.718  26.412  1.00  0.00     0.039 A 
ATOM     35  C   UNL A   1      42.530  21.483  25.344  1.00  0.00     0.014 A 
ATOM     36  C   UNL A   1      42.344  21.089  27.718  1.00  0.00     0.014 A 
ATOM     37  C   UNL A   1      43.168  22.700  25.598  1.00  0.00     0.010 A 
ATOM     38  C   UNL A   1      42.844  22.359  27.967  1.00  0.00     0.010 A 
ATOM     39  C   UNL A   1      43.248  23.190  26.911  1.00  0.00    -0.014 A 
BRANCH  39  40
ATOM     40  C   UNL A   1      43.731  24.562  27.220  1.00  0.00     0.031 A 
ATOM     41  C   UNL A   1      42.768  25.586  27.761  1.00  0.00     0.074 A 
ATOM     42  C   UNL A   1      44.992  24.924  26.906  1.00  0.00     0.049 A 
ATOM     43  N   UNL A   1      42.922  26.878  27.903  1.00  0.00    -0.248 NA
ATOM     44  C   UNL A   1      41.433  25.098  28.143  1.00  0.00     0.031 C 
ATOM     45  C   UNL A   1      46.010  24.051  26.317  1.00  0.00     0.029 A 
ATOM     46  N   UNL A   1      45.631  26.134  27.028  1.00  0.00    -0.354 N 
ATOM     47  C   UNL A   1      41.695  27.355  28.343  1.00  0.00     0.074 A 
ATOM     48  C   UNL A   1      40.789  26.229  28.385  1.00  0.00     0.031 C 
ATOM     49  C   UNL A   1      47.153  24.740  26.169  1.00  0.00     0.029 A 
ATOM     50  C   UNL A   1      46.938  26.115  26.601  1.00  0.00     0.049 A 
ATOM     51  H   UNL A   1      45.194  26.940  27.386  1.00  0.00     0.167 HD
ATOM     52  C   UNL A   1      41.360  28.614  28.715  1.00  0.00     0.037 A 
ATOM     53  C   UNL A   1      47.855  27.100  26.559  1.00  0.00     0.037 A 
ATOM     54  C   UNL A   1      42.280  29.718  28.742  1.00  0.00     0.049 A 
ATOM     55  C   UNL A   1      47.469  28.479  27.021  1.00  0.00     0.074 A 
ATOM     56  C   UNL A   1      42.055  31.020  29.151  1.00  0.00     0.029 A 
ATOM     57  N   UNL A   1      43.612  29.639  28.365  1.00  0.00    -0.354 N 
ATOM     58  N   UNL A   1      46.314  28.910  27.469  1.00  0.00    -0.248 NA
ATOM     59  C   UNL A   1      48.516  29.510  26.975  1.00  0.00     0.031 C 
ATOM     60  C   UNL A   1      43.250  31.734  29.011  1.00  0.00     0.029 A 
ATOM     61  C   UNL A   1      44.225  30.868  28.542  1.00  0.00     0.049 A 
ATOM     62  H   UNL A   1      44.056  28.829  28.024  1.00  0.00     0.167 HD
ATOM     63  C   UNL A   1      46.505  30.246  27.787  1.00  0.00     0.074 A 
ATOM     64  C   UNL A   1      47.888  30.555  27.494  1.00  0.00     0.031 C 
ATOM     65  C   UNL A   1      45.612  31.141  28.275  1.00  0.00     0.037 A 
BRANCH  52  66
ATOM     66  C   UNL A   1      39.945  28.850  29.155  1.00  0.00     0.064 A 
ATOM     67  C   UNL A   1      39.566  28.707  30.499  1.00  0.00     0.173 A 
ATOM     68  C   UNL A   1      38.963  29.241  28.234  1.00  0.00     0.173 A 
ATOM     69  F   UNL A   1      40.465  28.320  31.416  1.00  0.00    -0.203 F 
ATOM     70  C   UNL A   1      38.249  28.914  30.898  1.00  0.00     0.198 A 
ATOM     71  C   UNL A   1      37.654  29.478  28.642  1.00  0.00     0.198 A 
ATOM     72  F   UNL A   1      39.273  29.395  26.938  1.00  0.00    -0.203 F 
ATOM     73  F   UNL A   1      37.900  28.718  32.177  1.00  0.00    -0.200 F 
ATOM     74  C   UNL A   1      37.295  29.306  29.971  1.00  0.00     0.200 A 
ATOM     75  F   UNL A   1      36.734  29.868  27.748  1.00  0.00    -0.200 F 
ATOM     76  F   UNL A   1      36.029  29.511  30.358  1.00  0.00    -0.200 F 
ENDBRANCH  52  66
BRANCH  53  77
ATOM     77  C   UNL A   1      49.242  26.820  26.101  1.00  0.00     0.064 A 
ATOM     78  C   UNL A   1      49.602  27.025  24.761  1.00  0.00     0.173 A 
ATOM     79  C   UNL A   1      50.220  26.321  26.971  1.00  0.00     0.173 A 
ATOM     80  F   UNL A   1      48.694  27.481  23.886  1.00  0.00    -0.203 F 
ATOM     81  C   UNL A   1      50.880  26.711  24.302  1.00  0.00     0.198 A 
ATOM     82  C   UNL A   1      51.507  26.032  26.516  1.00  0.00     0.198 A 
ATOM     83  F   UNL A   1      49.929  26.113  28.263  1.00  0.00    -0.203 F 
ATOM     84  F   UNL A   1      51.180  26.863  23.005  1.00  0.00    -0.200 F 
ATOM     85  C   UNL A   1      51.832  26.217  25.180  1.00  0.00     0.200 A 
ATOM     86  F   UNL A   1      52.428  25.566  27.370  1.00  0.00    -0.200 F 
ATOM     87  F   UNL A   1      53.058  25.909  24.738  1.00  0.00    -0.200 F 
ENDBRANCH  53  77
BRANCH  65  88
ATOM     88  C   UNL A   1      46.117  32.519  28.577  1.00  0.00     0.064 A 
ATOM     89  C   UNL A   1      46.053  33.549  27.628  1.00  0.00     0.173 A 
ATOM     90  C   UNL A   1      46.627  32.822  29.848  1.00  0.00     0.173 A 
ATOM     91  F   UNL A   1      45.587  33.302  26.394  1.00  0.00    -0.203 F 
ATOM     92  C   UNL A   1      46.500  34.830  27.935  1.00  0.00     0.198 A 
ATOM     93  C   UNL A   1      47.049  34.109  30.160  1.00  0.00     0.198 A 
ATOM     94  F   UNL A   1      46.702  31.870  30.791  1.00  0.00    -0.203 F 
ATOM     95  F   UNL A   1      46.466  35.792  27.002  1.00  0.00    -0.200 F 
ATOM     96  C   UNL A   1      46.991  35.111  29.203  1.00  0.00     0.200 A 
ATOM     97  F   UNL A   1      47.513  34.383  31.387  1.00  0.00    -0.200 F 
ATOM     98  F   UNL A   1      47.413  36.348  29.499  1.00  0.00    -0.200 F 
ENDBRANCH  65  88
ENDBRANCH  39  40
ENDBRANCH  31  34
ENDBRANCH  29  30
ENDBRANCH  28  29
ENDBRANCH   1  28
TORSDOF 15
ENDMDL
MODEL 2
REMARK VINA RESULT:     -12.8      6.154     10.217
REMARK SMILES CC[C@](C)([NH3+])C(=O)Nc1ccc(C(F)(F)F)cc1C(=O)NCCCNC(=O)c1ccc(-c2c3nc(c(-c4c(F)c(F)c(F)c(F)c4F)c4ccc([nH]4)c(-c4c(F)c(F)c(F)c(F)c4F)c4nc(c(-c5c(F)c(F)c(F)c(F)c5F)c5ccc2[nH]5)C=C4)C=C3)cc1
REMARK SMILES IDX 22 1 21 2 19 3 20 4 18 6 9 7 10 8 11 9 17 10 12 11 8 12 6 13
REMARK SMILES IDX 7 14 3 16 4 17 2 18 1 19 5 20 13 24 14 25 15 26 16 27 23 28
REMARK SMILES IDX 24 29 25 30 26 31 27 33 28 34 29 35 90 36 30 37 89 38 31 39
REMARK SMILES IDX 32 40 33 41 83 42 34 43 88 44 82 45 84 46 35 47 87 48 81 49
REMARK SMILES IDX 80 50 36 52 68 53 48 54 67 55 49 56 52 57 66 58 85 59 50 60
REMARK SMILES IDX 51 61 65 63 86 64 53 65 37 66 38 67 46 68 39 69 40 70 44 71
REMARK SMILES IDX 47 72 41 73 42 74 45 75 43 76 69 77 70 78 78 79 71 80 72 81
REMARK SMILES IDX 76 82 79 83 73 84 74 85 77 86 75 87 54 88 55 89 63 90 56 91
REMARK SMILES IDX 57 92 61 93 64 94 58 95 59 96 62 97 60 98
REMARK H PARENT 21 5 8 15 5 21 5 22 5 23 25 32 84 51 52 62
REMARK Flexibility Score: inf
ROOT
ATOM      1  C   UNL A   1      32.021  30.431  26.554  1.00  0.00     0.118 C 
ENDROOT
BRANCH   1   2
ATOM      2  N   UNL A   1      32.790  30.078  25.385  1.00  0.00    -0.352 N 
ATOM      3  C   UNL A   1      32.461  29.292  24.307  1.00  0.00     0.253 C 
ATOM      4  O   UNL A   1      33.304  29.217  23.408  1.00  0.00    -0.269 OA
ATOM      5  H   UNL A   1      33.697  30.462  25.356  1.00  0.00     0.163 HD
BRANCH   3   6
ATOM      6  C   UNL A   1      31.228  28.434  24.208  1.00  0.00     0.063 A 
ATOM      7  C   UNL A   1      31.063  27.066  24.491  1.00  0.00     0.054 A 
ATOM      8  C   UNL A   1      29.905  26.408  24.034  1.00  0.00     0.027 A 
ATOM      9  C   UNL A   1      28.829  27.112  23.501  1.00  0.00     0.015 A 
ATOM     10  C   UNL A   1      30.104  29.136  23.701  1.00  0.00     0.029 A 
ATOM     11  C   UNL A   1      28.891  28.500  23.393  1.00  0.00     0.056 A 
BRANCH   7  12
ATOM     12  N   UNL A   1      31.933  26.208  25.174  1.00  0.00    -0.320 N 
ATOM     13  C   UNL A   1      32.581  25.055  24.840  1.00  0.00     0.285 C 
ATOM     14  O   UNL A   1      33.111  24.468  25.796  1.00  0.00    -0.267 OA
ATOM     15  H   UNL A   1      32.118  26.500  26.096  1.00  0.00     0.170 HD
BRANCH  13  16
ATOM     16  C   UNL A   1      32.857  24.586  23.384  1.00  0.00     0.171 C 
ATOM     17  C   UNL A   1      33.954  23.504  23.417  1.00  0.00     0.090 C 
BRANCH  16  18
ATOM     18  C   UNL A   1      33.276  25.808  22.538  1.00  0.00     0.075 C 
ATOM     19  C   UNL A   1      32.527  25.956  21.217  1.00  0.00     0.011 C 
ENDBRANCH  16  18
BRANCH  16  20
ATOM     20  N   UNL A   1      31.689  23.956  22.751  1.00  0.00    -0.345 N 
ATOM     21  H   UNL A   1      31.962  23.556  21.853  1.00  0.00     0.345 HD
ATOM     22  H   UNL A   1      30.962  24.657  22.604  1.00  0.00     0.345 HD
ATOM     23  H   UNL A   1      31.331  23.218  23.357  1.00  0.00     0.345 HD
ENDBRANCH  16  20
ENDBRANCH  13  16
ENDBRANCH   7  12
BRANCH  11  24
ATOM     24  C   UNL A   1      27.681  29.279  22.937  1.00  0.00     0.416 C 
ATOM     25  F   UNL A   1      27.728  29.590  21.614  1.00  0.00    -0.166 F 
ATOM     26  F   UNL A   1      26.524  28.580  23.116  1.00  0.00    -0.166 F 
ATOM     27  F   UNL A   1      27.508  30.454  23.601  1.00  0.00    -0.166 F 
ENDBRANCH  11  24
ENDBRANCH   3   6
ENDBRANCH   1   2
BRANCH   1  28
ATOM     28  C   UNL A   1      31.668  31.899  26.680  1.00  0.00     0.042 C 
BRANCH  28  29
ATOM     29  C   UNL A   1      32.807  32.743  27.250  1.00  0.00     0.118 C 
BRANCH  29  30
ATOM     30  N   UNL A   1      32.433  34.098  27.662  1.00  0.00    -0.352 N 
ATOM     31  C   UNL A   1      32.990  34.975  28.572  1.00  0.00     0.251 C 
ATOM     32  H   UNL A   1      31.635  34.450  27.206  1.00  0.00     0.163 HD
ATOM     33  O   UNL A   1      32.500  36.081  28.751  1.00  0.00    -0.269 OA
BRANCH  31  34
ATOM     34  C   UNL A   1      34.145  34.555  29.396  1.00  0.00     0.039 A 
ATOM     35  C   UNL A   1      33.910  34.024  30.668  1.00  0.00     0.014 A 
ATOM     36  C   UNL A   1      35.440  34.608  28.894  1.00  0.00     0.014 A 
ATOM     37  C   UNL A   1      34.954  33.407  31.362  1.00  0.00     0.010 A 
ATOM     38  C   UNL A   1      36.438  33.872  29.514  1.00  0.00     0.010 A 
ATOM     39  C   UNL A   1      36.206  33.247  30.749  1.00  0.00    -0.014 A 
BRANCH  39  40
ATOM     40  C   UNL A   1      37.288  32.425  31.353  1.00  0.00     0.031 A 
ATOM     41  C   UNL A   1      37.782  32.746  32.739  1.00  0.00     0.074 A 
ATOM     42  C   UNL A   1      37.907  31.475  30.622  1.00  0.00     0.049 A 
ATOM     43  N   UNL A   1      38.838  32.299  33.370  1.00  0.00    -0.248 NA
ATOM     44  C   UNL A   1      37.011  33.746  33.498  1.00  0.00     0.031 C 
ATOM     45  C   UNL A   1      37.574  31.105  29.244  1.00  0.00     0.029 A 
ATOM     46  N   UNL A   1      38.962  30.652  30.934  1.00  0.00    -0.354 N 
ATOM     47  C   UNL A   1      38.881  32.996  34.570  1.00  0.00     0.074 A 
ATOM     48  C   UNL A   1      37.785  33.939  34.555  1.00  0.00     0.031 C 
ATOM     49  C   UNL A   1      38.377  30.104  28.848  1.00  0.00     0.029 A 
ATOM     50  C   UNL A   1      39.316  29.795  29.919  1.00  0.00     0.049 A 
ATOM     51  H   UNL A   1      39.422  30.674  31.804  1.00  0.00     0.167 HD
ATOM     52  C   UNL A   1      39.735  32.841  35.609  1.00  0.00     0.037 A 
ATOM     53  C   UNL A   1      40.292  28.871  29.860  1.00  0.00     0.037 A 
ATOM     54  C   UNL A   1      40.781  31.855  35.653  1.00  0.00     0.049 A 
ATOM     55  C   UNL A   1      41.199  28.687  31.047  1.00  0.00     0.074 A 
ATOM     56  C   UNL A   1      41.667  31.581  36.679  1.00  0.00     0.029 A 
ATOM     57  N   UNL A   1      41.061  30.962  34.629  1.00  0.00    -0.354 N 
ATOM     58  N   UNL A   1      41.207  29.329  32.190  1.00  0.00    -0.248 NA
ATOM     59  C   UNL A   1      42.233  27.648  30.936  1.00  0.00     0.031 C 
ATOM     60  C   UNL A   1      42.493  30.528  36.271  1.00  0.00     0.029 A 
ATOM     61  C   UNL A   1      42.101  30.129  35.003  1.00  0.00     0.049 A 
ATOM     62  H   UNL A   1      40.589  30.926  33.766  1.00  0.00     0.167 HD
ATOM     63  C   UNL A   1      42.218  28.751  32.943  1.00  0.00     0.074 A 
ATOM     64  C   UNL A   1      42.796  27.700  32.134  1.00  0.00     0.031 C 
ATOM     65  C   UNL A   1      42.635  29.067  34.193  1.00  0.00     0.037 A 
BRANCH  52  66
ATOM     66  C   UNL A   1      39.548  33.739  36.796  1.00  0.00     0.064 A 
ATOM     67  C   UNL A   1      38.762  33.346  37.890  1.00  0.00     0.173 A 
ATOM     68  C   UNL A   1      40.174  34.992  36.853  1.00  0.00     0.173 A 
ATOM     69  F   UNL A   1      38.129  32.163  37.878  1.00  0.00    -0.203 F 
ATOM     70  C   UNL A   1      38.582  34.190  38.982  1.00  0.00     0.198 A 
ATOM     71  C   UNL A   1      40.017  35.821  37.961  1.00  0.00     0.198 A 
ATOM     72  F   UNL A   1      40.940  35.414  35.835  1.00  0.00    -0.203 F 
ATOM     73  F   UNL A   1      37.781  33.816  39.990  1.00  0.00    -0.200 F 
ATOM     74  C   UNL A   1      39.215  35.423  39.020  1.00  0.00     0.200 A 
ATOM     75  F   UNL A   1      40.638  37.007  38.003  1.00  0.00    -0.200 F 
ATOM     76  F   UNL A   1      39.044  36.232  40.076  1.00  0.00    -0.200 F 
ENDBRANCH  52  66
BRANCH  53  77
ATOM     77  C   UNL A   1      40.447  28.014  28.655  1.00  0.00     0.064 A 
ATOM     78  C   UNL A   1      39.819  26.763  28.586  1.00  0.00     0.173 A 
ATOM     79  C   UNL A   1      41.241  28.406  27.568  1.00  0.00     0.173 A 
ATOM     80  F   UNL A   1      39.066  26.336  29.611  1.00  0.00    -0.203 F 
ATOM     81  C   UNL A   1      40.002  25.922  27.490  1.00  0.00     0.198 A 
ATOM     82  C   UNL A   1      41.403  27.575  26.459  1.00  0.00     0.198 A 
ATOM     83  F   UNL A   1      41.860  29.595  27.581  1.00  0.00    -0.203 F 
ATOM     84  F   UNL A   1      39.434  24.709  27.477  1.00  0.00    -0.200 F 
ATOM     85  C   UNL A   1      40.792  26.329  26.427  1.00  0.00     0.200 A 
ATOM     86  F   UNL A   1      42.158  27.976  25.428  1.00  0.00    -0.200 F 
ATOM     87  F   UNL A   1      40.974  25.519  25.376  1.00  0.00    -0.200 F 
ENDBRANCH  53  77
BRANCH  65  88
ATOM     88  C   UNL A   1      43.728  28.229  34.783  1.00  0.00     0.064 A 
ATOM     89  C   UNL A   1      45.078  28.592  34.664  1.00  0.00     0.173 A 
ATOM     90  C   UNL A   1      43.416  27.075  35.517  1.00  0.00     0.173 A 
ATOM     91  F   UNL A   1      45.424  29.678  33.958  1.00  0.00    -0.203 F 
ATOM     92  C   UNL A   1      46.078  27.816  35.243  1.00  0.00     0.198 A 
ATOM     93  C   UNL A   1      44.416  26.317  36.116  1.00  0.00     0.198 A 
ATOM     94  F   UNL A   1      42.138  26.692  35.663  1.00  0.00    -0.203 F 
ATOM     95  F   UNL A   1      47.364  28.158  35.085  1.00  0.00    -0.200 F 
ATOM     96  C   UNL A   1      45.746  26.684  35.975  1.00  0.00     0.200 A 
ATOM     97  F   UNL A   1      44.095  25.230  36.831  1.00  0.00    -0.200 F 
ATOM     98  F   UNL A   1      46.710  25.944  36.538  1.00  0.00    -0.200 F 
ENDBRANCH  65  88
ENDBRANCH  39  40
ENDBRANCH  31  34
ENDBRANCH  29  30
ENDBRANCH  28  29
ENDBRANCH   1  28
TORSDOF 15
ENDMDL
MODEL 3
REMARK VINA RESULT:     -12.7      6.548     10.601
REMARK SMILES CC[C@](C)([NH3+])C(=O)Nc1ccc(C(F)(F)F)cc1C(=O)NCCCNC(=O)c1ccc(-c2c3nc(c(-c4c(F)c(F)c(F)c(F)c4F)c4ccc([nH]4)c(-c4c(F)c(F)c(F)c(F)c4F)c4nc(c(-c5c(F)c(F)c(F)c(F)c5F)c5ccc2[nH]5)C=C4)C=C3)cc1
REMARK SMILES IDX 22 1 21 2 19 3 20 4 18 6 9 7 10 8 11 9 17 10 12 11 8 12 6 13
REMARK SMILES IDX 7 14 3 16 4 17 2 18 1 19 5 20 13 24 14 25 15 26 16 27 23 28
REMARK SMILES IDX 24 29 25 30 26 31 27 33 28 34 29 35 90 36 30 37 89 38 31 39
REMARK SMILES IDX 32 40 33 41 83 42 34 43 88 44 82 45 84 46 35 47 87 48 81 49
REMARK SMILES IDX 80 50 36 52 68 53 48 54 67 55 49 56 52 57 66 58 85 59 50 60
REMARK SMILES IDX 51 61 65 63 86 64 53 65 37 66 38 67 46 68 39 69 40 70 44 71
REMARK SMILES IDX 47 72 41 73 42 74 45 75 43 76 69 77 70 78 78 79 71 80 72 81
REMARK SMILES IDX 76 82 79 83 73 84 74 85 77 86 75 87 54 88 55 89 63 90 56 91
REMARK SMILES IDX 57 92 61 93 64 94 58 95 59 96 62 97 60 98
REMARK H PARENT 21 5 8 15 5 21 5 22 5 23 25 32 84 51 52 62
REMARK Flexibility Score: inf
ROOT
ATOM      1  C   UNL A   1      32.289  30.020  26.401  1.00  0.00     0.118 C 
ENDROOT
BRANCH   1   2
ATOM      2  N   UNL A   1      32.979  29.861  25.143  1.00  0.00    -0.352 N 
ATOM      3  C   UNL A   1      32.614  29.178  24.008  1.00  0.00     0.253 C 
ATOM      4  O   UNL A   1      33.382  29.269  23.045  1.00  0.00    -0.269 OA
ATOM      5  H   UNL A   1      33.852  30.314  25.091  1.00  0.00     0.163 HD
BRANCH   3   6
ATOM      6  C   UNL A   1      31.438  28.245  23.902  1.00  0.00     0.063 A 
ATOM      7  C   UNL A   1      30.287  28.339  23.098  1.00  0.00     0.054 A 
ATOM      8  C   UNL A   1      29.181  27.519  23.388  1.00  0.00     0.027 A 
ATOM      9  C   UNL A   1      29.269  26.474  24.306  1.00  0.00     0.015 A 
ATOM     10  C   UNL A   1      31.518  27.149  24.802  1.00  0.00     0.029 A 
ATOM     11  C   UNL A   1      30.467  26.235  24.974  1.00  0.00     0.056 A 
BRANCH   7  12
ATOM     12  N   UNL A   1      30.054  29.189  22.010  1.00  0.00    -0.320 N 
ATOM     13  C   UNL A   1      29.295  30.307  21.829  1.00  0.00     0.285 C 
ATOM     14  O   UNL A   1      29.185  30.667  20.646  1.00  0.00    -0.267 OA
ATOM     15  H   UNL A   1      30.545  28.920  21.200  1.00  0.00     0.170 HD
BRANCH  13  16
ATOM     16  C   UNL A   1      28.777  31.220  22.976  1.00  0.00     0.171 C 
ATOM     17  C   UNL A   1      27.468  30.621  23.527  1.00  0.00     0.090 C 
BRANCH  16  18
ATOM     18  C   UNL A   1      28.571  32.647  22.422  1.00  0.00     0.075 C 
ATOM     19  C   UNL A   1      29.233  33.751  23.242  1.00  0.00     0.011 C 
ENDBRANCH  16  18
BRANCH  16  20
ATOM     20  N   UNL A   1      29.700  31.289  24.118  1.00  0.00    -0.345 N 
ATOM     21  H   UNL A   1      29.465  32.094  24.698  1.00  0.00     0.345 HD
ATOM     22  H   UNL A   1      30.657  31.384  23.777  1.00  0.00     0.345 HD
ATOM     23  H   UNL A   1      29.620  30.436  24.672  1.00  0.00     0.345 HD
ENDBRANCH  16  20
ENDBRANCH  13  16
ENDBRANCH   7  12
BRANCH  11  24
ATOM     24  C   UNL A   1      30.606  25.028  25.870  1.00  0.00     0.416 C 
ATOM     25  F   UNL A   1      31.645  25.141  26.740  1.00  0.00    -0.166 F 
ATOM     26  F   UNL A   1      29.496  24.827  26.636  1.00  0.00    -0.166 F 
ATOM     27  F   UNL A   1      30.800  23.865  25.192  1.00  0.00    -0.166 F 
ENDBRANCH  11  24
ENDBRANCH   3   6
ENDBRANCH   1   2
BRANCH   1  28
ATOM     28  C   UNL A   1      31.843  31.432  26.723  1.00  0.00     0.042 C 
BRANCH  28  29
ATOM     29  C   UNL A   1      32.971  32.308  27.266  1.00  0.00     0.118 C 
BRANCH  29  30
ATOM     30  N   UNL A   1      32.582  33.675  27.622  1.00  0.00    -0.352 N 
ATOM     31  C   UNL A   1      33.118  34.588  28.509  1.00  0.00     0.251 C 
ATOM     32  H   UNL A   1      31.791  34.005  27.139  1.00  0.00     0.163 HD
ATOM     33  O   UNL A   1      32.619  35.696  28.639  1.00  0.00    -0.269 OA
BRANCH  31  34
ATOM     34  C   UNL A   1      34.260  34.205  29.368  1.00  0.00     0.039 A 
ATOM     35  C   UNL A   1      34.009  33.509  30.555  1.00  0.00     0.014 A 
ATOM     36  C   UNL A   1      35.568  34.457  28.975  1.00  0.00     0.014 A 
ATOM     37  C   UNL A   1      35.072  32.934  31.255  1.00  0.00     0.010 A 
ATOM     38  C   UNL A   1      36.605  33.768  29.587  1.00  0.00     0.010 A 
ATOM     39  C   UNL A   1      36.371  32.983  30.726  1.00  0.00    -0.014 A 
BRANCH  39  40
ATOM     40  C   UNL A   1      37.501  32.221  31.319  1.00  0.00     0.031 A 
ATOM     41  C   UNL A   1      38.000  32.578  32.694  1.00  0.00     0.074 A 
ATOM     42  C   UNL A   1      38.154  31.295  30.585  1.00  0.00     0.049 A 
ATOM     43  N   UNL A   1      39.087  32.189  33.311  1.00  0.00    -0.248 NA
ATOM     44  C   UNL A   1      37.194  33.545  33.457  1.00  0.00     0.031 C 
ATOM     45  C   UNL A   1      37.818  30.898  29.216  1.00  0.00     0.029 A 
ATOM     46  N   UNL A   1      39.253  30.528  30.887  1.00  0.00    -0.354 N 
ATOM     47  C   UNL A   1      39.115  32.896  34.504  1.00  0.00     0.074 A 
ATOM     48  C   UNL A   1      37.973  33.784  34.501  1.00  0.00     0.031 C 
ATOM     49  C   UNL A   1      38.663  29.934  28.814  1.00  0.00     0.029 A 
ATOM     50  C   UNL A   1      39.633  29.681  29.873  1.00  0.00     0.049 A 
ATOM     51  H   UNL A   1      39.726  30.580  31.749  1.00  0.00     0.167 HD
ATOM     52  C   UNL A   1      39.992  32.793  35.531  1.00  0.00     0.037 A 
ATOM     53  C   UNL A   1      40.652  28.805  29.804  1.00  0.00     0.037 A 
ATOM     54  C   UNL A   1      41.085  31.860  35.566  1.00  0.00     0.049 A 
ATOM     55  C   UNL A   1      41.586  28.677  30.978  1.00  0.00     0.074 A 
ATOM     56  C   UNL A   1      42.000  31.638  36.579  1.00  0.00     0.029 A 
ATOM     57  N   UNL A   1      41.393  30.973  34.545  1.00  0.00    -0.354 N 
ATOM     58  N   UNL A   1      41.580  29.328  32.116  1.00  0.00    -0.248 NA
ATOM     59  C   UNL A   1      42.668  27.689  30.858  1.00  0.00     0.031 C 
ATOM     60  C   UNL A   1      42.871  30.623  36.166  1.00  0.00     0.029 A 
ATOM     61  C   UNL A   1      42.479  30.195  34.908  1.00  0.00     0.049 A 
ATOM     62  H   UNL A   1      40.910  30.906  33.689  1.00  0.00     0.167 HD
ATOM     63  C   UNL A   1      42.631  28.807  32.857  1.00  0.00     0.074 A 
ATOM     64  C   UNL A   1      43.246  27.778  32.047  1.00  0.00     0.031 C 
ATOM     65  C   UNL A   1      43.051  29.154  34.098  1.00  0.00     0.037 A 
BRANCH  52  66
ATOM     66  C   UNL A   1      39.780  33.690  36.714  1.00  0.00     0.064 A 
ATOM     67  C   UNL A   1      40.381  34.956  36.786  1.00  0.00     0.173 A 
ATOM     68  C   UNL A   1      38.953  33.294  37.775  1.00  0.00     0.173 A 
ATOM     69  F   UNL A   1      41.193  35.375  35.804  1.00  0.00    -0.203 F 
ATOM     70  C   UNL A   1      40.190  35.778  37.894  1.00  0.00     0.198 A 
ATOM     71  C   UNL A   1      38.739  34.132  38.866  1.00  0.00     0.198 A 
ATOM     72  F   UNL A   1      38.351  32.096  37.754  1.00  0.00    -0.203 F 
ATOM     73  F   UNL A   1      40.820  36.959  37.965  1.00  0.00    -0.200 F 
ATOM     74  C   UNL A   1      39.364  35.369  38.929  1.00  0.00     0.200 A 
ATOM     75  F   UNL A   1      37.932  33.741  39.862  1.00  0.00    -0.200 F 
ATOM     76  F   UNL A   1      39.177  36.164  39.992  1.00  0.00    -0.200 F 
ENDBRANCH  52  66
BRANCH  53  77
ATOM     77  C   UNL A   1      40.831  27.947  28.604  1.00  0.00     0.064 A 
ATOM     78  C   UNL A   1      41.602  28.392  27.521  1.00  0.00     0.173 A 
ATOM     79  C   UNL A   1      40.219  26.690  28.497  1.00  0.00     0.173 A 
ATOM     80  F   UNL A   1      42.190  29.596  27.568  1.00  0.00    -0.203 F 
ATOM     81  C   UNL A   1      41.730  27.625  26.363  1.00  0.00     0.198 A 
ATOM     82  C   UNL A   1      40.370  25.913  27.349  1.00  0.00     0.198 A 
ATOM     83  F   UNL A   1      39.475  26.216  29.507  1.00  0.00    -0.203 F 
ATOM     84  F   UNL A   1      42.427  28.100  25.322  1.00  0.00    -0.200 F 
ATOM     85  C   UNL A   1      41.116  26.386  26.279  1.00  0.00     0.200 A 
ATOM     86  F   UNL A   1      39.783  24.710  27.276  1.00  0.00    -0.200 F 
ATOM     87  F   UNL A   1      41.233  25.652  25.165  1.00  0.00    -0.200 F 
ENDBRANCH  53  77
BRANCH  65  88
ATOM     88  C   UNL A   1      44.194  28.375  34.677  1.00  0.00     0.064 A 
ATOM     89  C   UNL A   1      45.522  28.801  34.530  1.00  0.00     0.173 A 
ATOM     90  C   UNL A   1      43.950  27.216  35.427  1.00  0.00     0.173 A 
ATOM     91  F   UNL A   1      45.803  29.896  33.809  1.00  0.00    -0.203 F 
ATOM     92  C   UNL A   1      46.568  28.081  35.099  1.00  0.00     0.198 A 
ATOM     93  C   UNL A   1      44.996  26.512  36.015  1.00  0.00     0.198 A 
ATOM     94  F   UNL A   1      42.695  26.772  35.598  1.00  0.00    -0.203 F 
ATOM     95  F   UNL A   1      47.833  28.483  34.916  1.00  0.00    -0.200 F 
ATOM     96  C   UNL A   1      46.304  26.942  35.847  1.00  0.00     0.200 A 
ATOM     97  F   UNL A   1      44.739  25.419  36.746  1.00  0.00    -0.200 F 
ATOM     98  F   UNL A   1      47.312  26.255  36.401  1.00  0.00    -0.200 F 
ENDBRANCH  65  88
ENDBRANCH  39  40
ENDBRANCH  31  34
ENDBRANCH  29  30
ENDBRANCH  28  29
ENDBRANCH   1  28
TORSDOF 15
ENDMDL
