MODEL 1
REMARK VINA RESULT:     -13.6      0.000      0.000
REMARK SMILES O=C(NCCCNC(=O)c1cccc(Nc2nc(-c3ccc(F)cc3F)cs2)c1)c1ccc(-c2c3nc(c(-c4c(F)c(F)c(F)c(F)c4F)c4ccc([nH]4)c(-c4c(F)c(F)c(F)c(F)c4F)c4nc(c(-c5c(F)c(F)c(F)c(F)c5F)c5ccc2[nH]5)C=C4)C=C3)cc1
REMARK SMILES IDX 5 1 4 2 3 3 1 4 2 5 30 7 31 8 92 9 32 10 91 11 33 12 34 13
REMARK SMILES IDX 35 14 85 15 36 16 90 17 84 18 86 19 37 20 89 21 83 22 82 23
REMARK SMILES IDX 38 25 70 26 50 27 69 28 51 29 54 30 68 31 87 32 52 33 53 34
REMARK SMILES IDX 67 36 88 37 55 38 39 39 40 40 48 41 41 42 42 43 46 44 49 45
REMARK SMILES IDX 43 46 44 47 47 48 45 49 71 50 72 51 80 52 73 53 74 54 78 55
REMARK SMILES IDX 81 56 75 57 76 58 79 59 77 60 56 61 57 62 65 63 58 64 59 65
REMARK SMILES IDX 63 66 66 67 60 68 61 69 64 70 62 71 6 72 7 73 8 74 9 76
REMARK SMILES IDX 10 77 11 78 29 79 12 80 14 81 13 82 15 83 16 85 17 86 28 87
REMARK SMILES IDX 18 88 27 89 19 90 20 91 25 92 21 93 24 94 26 95 22 96 23 97
REMARK H PARENT 3 6 86 24 54 35 7 75 15 84
REMARK Flexibility Score: inf
ROOT
ATOM      1  C   UNL A   1      31.082  31.538  25.911  1.00  0.00     0.042 C 
ENDROOT
BRANCH   1   2
ATOM      2  C   UNL A   1      32.258  31.990  26.761  1.00  0.00     0.118 C 
BRANCH   2   3
ATOM      3  N   UNL A   1      32.193  33.402  27.117  1.00  0.00    -0.352 N 
ATOM      4  O   UNL A   1      32.638  35.280  28.282  1.00  0.00    -0.269 OA
ATOM      5  C   UNL A   1      32.961  34.131  27.993  1.00  0.00     0.251 C 
ATOM      6  H   UNL A   1      31.489  33.914  26.658  1.00  0.00     0.163 HD
BRANCH   5   7
ATOM      7  C   UNL A   1      34.163  33.528  28.607  1.00  0.00     0.039 A 
ATOM      8  C   UNL A   1      34.047  32.457  29.493  1.00  0.00     0.014 A 
ATOM      9  C   UNL A   1      35.426  34.032  28.282  1.00  0.00     0.014 A 
ATOM     10  C   UNL A   1      35.163  32.012  30.188  1.00  0.00     0.010 A 
ATOM     11  C   UNL A   1      36.564  33.501  28.895  1.00  0.00     0.010 A 
ATOM     12  C   UNL A   1      36.438  32.508  29.879  1.00  0.00    -0.014 A 
BRANCH  12  13
ATOM     13  C   UNL A   1      37.623  31.912  30.544  1.00  0.00     0.031 A 
ATOM     14  C   UNL A   1      38.042  32.332  31.923  1.00  0.00     0.074 A 
ATOM     15  C   UNL A   1      38.310  30.956  29.888  1.00  0.00     0.049 A 
ATOM     16  N   UNL A   1      39.049  31.904  32.645  1.00  0.00    -0.248 NA
ATOM     17  C   UNL A   1      37.238  33.374  32.578  1.00  0.00     0.031 C 
ATOM     18  C   UNL A   1      38.003  30.478  28.538  1.00  0.00     0.029 A 
ATOM     19  N   UNL A   1      39.394  30.207  30.266  1.00  0.00    -0.354 N 
ATOM     20  C   UNL A   1      39.010  32.634  33.826  1.00  0.00     0.074 A 
ATOM     21  C   UNL A   1      37.898  33.554  33.713  1.00  0.00     0.031 C 
ATOM     22  C   UNL A   1      38.847  29.488  28.217  1.00  0.00     0.029 A 
ATOM     23  C   UNL A   1      39.801  29.313  29.305  1.00  0.00     0.049 A 
ATOM     24  H   UNL A   1      39.838  30.299  31.139  1.00  0.00     0.167 HD
ATOM     25  C   UNL A   1      39.826  32.537  34.904  1.00  0.00     0.037 A 
ATOM     26  C   UNL A   1      40.845  28.465  29.286  1.00  0.00     0.037 A 
ATOM     27  C   UNL A   1      40.925  31.609  35.007  1.00  0.00     0.049 A 
ATOM     28  C   UNL A   1      41.749  28.402  30.481  1.00  0.00     0.074 A 
ATOM     29  C   UNL A   1      41.783  31.403  36.073  1.00  0.00     0.029 A 
ATOM     30  N   UNL A   1      41.324  30.739  34.002  1.00  0.00    -0.354 N 
ATOM     31  N   UNL A   1      41.677  29.067  31.609  1.00  0.00    -0.248 NA
ATOM     32  C   UNL A   1      42.883  27.474  30.402  1.00  0.00     0.031 C 
ATOM     33  C   UNL A   1      42.737  30.454  35.692  1.00  0.00     0.029 A 
ATOM     34  C   UNL A   1      42.436  30.018  34.412  1.00  0.00     0.049 A 
ATOM     35  H   UNL A   1      40.883  30.647  33.127  1.00  0.00     0.167 HD
ATOM     36  C   UNL A   1      42.740  28.625  32.380  1.00  0.00     0.074 A 
ATOM     37  C   UNL A   1      43.431  27.617  31.600  1.00  0.00     0.031 C 
ATOM     38  C   UNL A   1      43.113  29.021  33.622  1.00  0.00     0.037 A 
BRANCH  25  39
ATOM     39  C   UNL A   1      39.582  33.475  36.053  1.00  0.00     0.064 A 
ATOM     40  C   UNL A   1      38.745  33.133  37.126  1.00  0.00     0.173 A 
ATOM     41  C   UNL A   1      40.233  34.718  36.104  1.00  0.00     0.173 A 
ATOM     42  F   UNL A   1      38.092  31.961  37.126  1.00  0.00    -0.203 F 
ATOM     43  C   UNL A   1      38.547  34.010  38.190  1.00  0.00     0.198 A 
ATOM     44  C   UNL A   1      40.057  35.580  37.183  1.00  0.00     0.198 A 
ATOM     45  F   UNL A   1      41.052  35.094  35.109  1.00  0.00    -0.203 F 
ATOM     46  F   UNL A   1      37.705  33.682  39.180  1.00  0.00    -0.200 F 
ATOM     47  C   UNL A   1      39.208  35.230  38.222  1.00  0.00     0.200 A 
ATOM     48  F   UNL A   1      40.710  36.750  37.220  1.00  0.00    -0.200 F 
ATOM     49  F   UNL A   1      39.022  36.068  39.250  1.00  0.00    -0.200 F 
ENDBRANCH  25  39
BRANCH  26  50
ATOM     50  C   UNL A   1      41.089  27.627  28.084  1.00  0.00     0.064 A 
ATOM     51  C   UNL A   1      41.886  28.088  27.028  1.00  0.00     0.173 A 
ATOM     52  C   UNL A   1      40.542  26.339  27.975  1.00  0.00     0.173 A 
ATOM     53  F   UNL A   1      42.418  29.319  27.079  1.00  0.00    -0.203 F 
ATOM     54  C   UNL A   1      42.114  27.300  25.902  1.00  0.00     0.198 A 
ATOM     55  C   UNL A   1      40.799  25.539  26.865  1.00  0.00     0.198 A 
ATOM     56  F   UNL A   1      39.780  25.847  28.963  1.00  0.00    -0.203 F 
ATOM     57  F   UNL A   1      42.843  27.781  24.887  1.00  0.00    -0.200 F 
ATOM     58  C   UNL A   1      41.577  26.023  25.825  1.00  0.00     0.200 A 
ATOM     59  F   UNL A   1      40.296  24.298  26.806  1.00  0.00    -0.200 F 
ATOM     60  F   UNL A   1      41.805  25.262  24.747  1.00  0.00    -0.200 F 
ENDBRANCH  26  50
BRANCH  38  61
ATOM     61  C   UNL A   1      44.307  28.337  34.225  1.00  0.00     0.064 A 
ATOM     62  C   UNL A   1      44.187  27.140  34.946  1.00  0.00     0.173 A 
ATOM     63  C   UNL A   1      45.593  28.875  34.055  1.00  0.00     0.173 A 
ATOM     64  F   UNL A   1      42.978  26.595  35.152  1.00  0.00    -0.203 F 
ATOM     65  C   UNL A   1      45.305  26.523  35.500  1.00  0.00     0.198 A 
ATOM     66  C   UNL A   1      46.712  28.237  34.582  1.00  0.00     0.198 A 
ATOM     67  F   UNL A   1      45.764  30.015  33.370  1.00  0.00    -0.203 F 
ATOM     68  F   UNL A   1      45.159  25.410  36.234  1.00  0.00    -0.200 F 
ATOM     69  C   UNL A   1      46.567  27.067  35.312  1.00  0.00     0.200 A 
ATOM     70  F   UNL A   1      47.931  28.756  34.386  1.00  0.00    -0.200 F 
ATOM     71  F   UNL A   1      47.642  26.468  35.841  1.00  0.00    -0.200 F 
ENDBRANCH  38  61
ENDBRANCH  12  13
ENDBRANCH   5   7
ENDBRANCH   2   3
ENDBRANCH   1   2
BRANCH   1  72
ATOM     72  C   UNL A   1      31.319  30.228  25.177  1.00  0.00     0.118 C 
BRANCH  72  73
ATOM     73  N   UNL A   1      30.490  30.107  23.986  1.00  0.00    -0.352 N 
ATOM     74  C   UNL A   1      30.594  29.248  22.923  1.00  0.00     0.251 C 
ATOM     75  H   UNL A   1      29.738  30.740  23.937  1.00  0.00     0.163 HD
ATOM     76  O   UNL A   1      29.932  29.451  21.909  1.00  0.00    -0.269 OA
BRANCH  74  77
ATOM     77  C   UNL A   1      31.496  28.082  22.991  1.00  0.00     0.041 A 
ATOM     78  C   UNL A   1      32.862  28.296  23.168  1.00  0.00     0.014 A 
ATOM     79  C   UNL A   1      31.001  26.783  22.819  1.00  0.00     0.040 A 
ATOM     80  C   UNL A   1      33.717  27.203  23.258  1.00  0.00     0.003 A 
ATOM     81  C   UNL A   1      31.849  25.673  22.904  1.00  0.00     0.041 A 
ATOM     82  C   UNL A   1      33.207  25.905  23.156  1.00  0.00     0.026 A 
BRANCH  81  83
ATOM     83  N   UNL A   1      31.291  24.391  22.744  1.00  0.00    -0.332 N 
ATOM     84  H   UNL A   1      30.624  24.286  22.027  1.00  0.00     0.169 HD
BRANCH  83  85
ATOM     85  C   UNL A   1      31.574  23.289  23.472  1.00  0.00     0.187 A 
ATOM     86  N   UNL A   1      32.074  22.156  23.027  1.00  0.00    -0.220 NA
ATOM     87  S   UNL A   1      31.252  23.312  25.170  1.00  0.00    -0.105 S 
ATOM     88  C   UNL A   1      32.186  21.245  24.056  1.00  0.00     0.086 A 
ATOM     89  C   UNL A   1      31.706  21.666  25.276  1.00  0.00     0.097 A 
BRANCH  88  90
ATOM     90  C   UNL A   1      32.765  19.936  23.853  1.00  0.00     0.037 A 
ATOM     91  C   UNL A   1      32.175  19.029  22.962  1.00  0.00     0.016 A 
ATOM     92  C   UNL A   1      33.902  19.552  24.572  1.00  0.00     0.135 A 
ATOM     93  C   UNL A   1      32.717  17.751  22.814  1.00  0.00     0.040 A 
ATOM     94  C   UNL A   1      34.444  18.279  24.427  1.00  0.00     0.079 A 
ATOM     95  F   UNL A   1      34.476  20.394  25.445  1.00  0.00    -0.206 F 
ATOM     96  C   UNL A   1      33.842  17.389  23.550  1.00  0.00     0.126 A 
ATOM     97  F   UNL A   1      34.347  16.155  23.415  1.00  0.00    -0.207 F 
ENDBRANCH  88  90
ENDBRANCH  83  85
ENDBRANCH  81  83
ENDBRANCH  74  77
ENDBRANCH  72  73
ENDBRANCH   1  72
TORSDOF 13
ENDMDL
MODEL 2
REMARK VINA RESULT:     -13.5      5.194      8.623
REMARK SMILES O=C(NCCCNC(=O)c1cccc(Nc2nc(-c3ccc(F)cc3F)cs2)c1)c1ccc(-c2c3nc(c(-c4c(F)c(F)c(F)c(F)c4F)c4ccc([nH]4)c(-c4c(F)c(F)c(F)c(F)c4F)c4nc(c(-c5c(F)c(F)c(F)c(F)c5F)c5ccc2[nH]5)C=C4)C=C3)cc1
REMARK SMILES IDX 5 1 4 2 3 3 1 4 2 5 30 7 31 8 92 9 32 10 91 11 33 12 34 13
REMARK SMILES IDX 35 14 85 15 36 16 90 17 84 18 86 19 37 20 89 21 83 22 82 23
REMARK SMILES IDX 38 25 70 26 50 27 69 28 51 29 54 30 68 31 87 32 52 33 53 34
REMARK SMILES IDX 67 36 88 37 55 38 39 39 40 40 48 41 41 42 42 43 46 44 49 45
REMARK SMILES IDX 43 46 44 47 47 48 45 49 71 50 72 51 80 52 73 53 74 54 78 55
REMARK SMILES IDX 81 56 75 57 76 58 79 59 77 60 56 61 57 62 65 63 58 64 59 65
REMARK SMILES IDX 63 66 66 67 60 68 61 69 64 70 62 71 6 72 7 73 8 74 9 76
REMARK SMILES IDX 10 77 11 78 29 79 12 80 14 81 13 82 15 83 16 85 17 86 28 87
REMARK SMILES IDX 18 88 27 89 19 90 20 91 25 92 21 93 24 94 26 95 22 96 23 97
REMARK H PARENT 3 6 86 24 54 35 7 75 15 84
REMARK Flexibility Score: inf
ROOT
ATOM      1  C   UNL A   1      35.200  33.379  28.016  1.00  0.00     0.042 C 
ENDROOT
BRANCH   1   2
ATOM      2  C   UNL A   1      34.585  32.393  28.995  1.00  0.00     0.118 C 
BRANCH   2   3
ATOM      3  N   UNL A   1      34.010  31.224  28.341  1.00  0.00    -0.352 N 
ATOM      4  O   UNL A   1      33.976  29.276  27.206  1.00  0.00    -0.269 OA
ATOM      5  C   UNL A   1      34.613  30.075  27.887  1.00  0.00     0.251 C 
ATOM      6  H   UNL A   1      33.036  31.263  28.203  1.00  0.00     0.163 HD
BRANCH   5   7
ATOM      7  C   UNL A   1      36.034  29.810  28.195  1.00  0.00     0.039 A 
ATOM      8  C   UNL A   1      37.027  30.076  27.252  1.00  0.00     0.014 A 
ATOM      9  C   UNL A   1      36.381  29.303  29.450  1.00  0.00     0.014 A 
ATOM     10  C   UNL A   1      38.332  29.669  27.490  1.00  0.00     0.010 A 
ATOM     11  C   UNL A   1      37.717  29.003  29.733  1.00  0.00     0.010 A 
ATOM     12  C   UNL A   1      38.699  29.152  28.742  1.00  0.00    -0.014 A 
BRANCH  12  13
ATOM     13  C   UNL A   1      40.129  28.856  29.007  1.00  0.00     0.031 A 
ATOM     14  C   UNL A   1      41.006  29.825  29.746  1.00  0.00     0.074 A 
ATOM     15  C   UNL A   1      40.625  27.675  28.588  1.00  0.00     0.049 A 
ATOM     16  N   UNL A   1      42.273  29.713  30.062  1.00  0.00    -0.248 NA
ATOM     17  C   UNL A   1      40.392  31.088  30.178  1.00  0.00     0.031 C 
ATOM     18  C   UNL A   1      39.868  26.662  27.848  1.00  0.00     0.029 A 
ATOM     19  N   UNL A   1      41.869  27.119  28.731  1.00  0.00    -0.354 N 
ATOM     20  C   UNL A   1      42.610  30.893  30.712  1.00  0.00     0.074 A 
ATOM     21  C   UNL A   1      41.423  31.721  30.719  1.00  0.00     0.031 C 
ATOM     22  C   UNL A   1      40.648  25.592  27.641  1.00  0.00     0.029 A 
ATOM     23  C   UNL A   1      41.978  25.872  28.165  1.00  0.00     0.049 A 
ATOM     24  H   UNL A   1      42.612  27.568  29.194  1.00  0.00     0.167 HD
ATOM     25  C   UNL A   1      43.801  31.245  31.256  1.00  0.00     0.037 A 
ATOM     26  C   UNL A   1      43.039  25.053  28.053  1.00  0.00     0.037 A 
ATOM     27  C   UNL A   1      44.974  30.406  31.250  1.00  0.00     0.049 A 
ATOM     28  C   UNL A   1      44.352  25.483  28.637  1.00  0.00     0.074 A 
ATOM     29  C   UNL A   1      46.215  30.654  31.812  1.00  0.00     0.029 A 
ATOM     30  N   UNL A   1      45.054  29.161  30.642  1.00  0.00    -0.354 N 
ATOM     31  N   UNL A   1      44.647  26.583  29.287  1.00  0.00    -0.248 NA
ATOM     32  C   UNL A   1      45.482  24.561  28.471  1.00  0.00     0.031 C 
ATOM     33  C   UNL A   1      47.061  29.588  31.493  1.00  0.00     0.029 A 
ATOM     34  C   UNL A   1      46.333  28.643  30.788  1.00  0.00     0.049 A 
ATOM     35  H   UNL A   1      44.313  28.711  30.176  1.00  0.00     0.167 HD
ATOM     36  C   UNL A   1      45.987  26.478  29.624  1.00  0.00     0.074 A 
ATOM     37  C   UNL A   1      46.443  25.195  29.126  1.00  0.00     0.031 C 
ATOM     38  C   UNL A   1      46.772  27.366  30.284  1.00  0.00     0.037 A 
BRANCH  25  39
ATOM     39  C   UNL A   1      43.908  32.607  31.882  1.00  0.00     0.064 A 
ATOM     40  C   UNL A   1      44.129  33.762  31.116  1.00  0.00     0.173 A 
ATOM     41  C   UNL A   1      43.739  32.766  33.268  1.00  0.00     0.173 A 
ATOM     42  F   UNL A   1      44.304  33.668  29.789  1.00  0.00    -0.203 F 
ATOM     43  C   UNL A   1      44.207  35.017  31.715  1.00  0.00     0.198 A 
ATOM     44  C   UNL A   1      43.787  34.026  33.859  1.00  0.00     0.198 A 
ATOM     45  F   UNL A   1      43.516  31.698  34.049  1.00  0.00    -0.203 F 
ATOM     46  F   UNL A   1      44.468  36.099  30.968  1.00  0.00    -0.200 F 
ATOM     47  C   UNL A   1      44.029  35.149  33.084  1.00  0.00     0.200 A 
ATOM     48  F   UNL A   1      43.598  34.153  35.180  1.00  0.00    -0.200 F 
ATOM     49  F   UNL A   1      44.096  36.359  33.656  1.00  0.00    -0.200 F 
ENDBRANCH  25  39
BRANCH  26  50
ATOM     50  C   UNL A   1      42.894  23.756  27.342  1.00  0.00     0.064 A 
ATOM     51  C   UNL A   1      43.273  23.619  26.000  1.00  0.00     0.173 A 
ATOM     52  C   UNL A   1      42.389  22.623  27.998  1.00  0.00     0.173 A 
ATOM     53  F   UNL A   1      43.747  24.678  25.326  1.00  0.00    -0.203 F 
ATOM     54  C   UNL A   1      43.137  22.401  25.337  1.00  0.00     0.198 A 
ATOM     55  C   UNL A   1      42.286  21.398  27.343  1.00  0.00     0.198 A 
ATOM     56  F   UNL A   1      42.021  22.699  29.285  1.00  0.00    -0.203 F 
ATOM     57  F   UNL A   1      43.465  22.308  24.041  1.00  0.00    -0.200 F 
ATOM     58  C   UNL A   1      42.651  21.290  26.011  1.00  0.00     0.200 A 
ATOM     59  F   UNL A   1      41.838  20.323  28.006  1.00  0.00    -0.200 F 
ATOM     60  F   UNL A   1      42.530  20.118  25.374  1.00  0.00    -0.200 F 
ENDBRANCH  26  50
BRANCH  38  61
ATOM     61  C   UNL A   1      48.197  26.964  30.531  1.00  0.00     0.064 A 
ATOM     62  C   UNL A   1      48.567  26.214  31.658  1.00  0.00     0.173 A 
ATOM     63  C   UNL A   1      49.202  27.311  29.615  1.00  0.00     0.173 A 
ATOM     64  F   UNL A   1      47.648  25.872  32.574  1.00  0.00    -0.203 F 
ATOM     65  C   UNL A   1      49.895  25.853  31.872  1.00  0.00     0.198 A 
ATOM     66  C   UNL A   1      50.522  26.919  29.815  1.00  0.00     0.198 A 
ATOM     67  F   UNL A   1      48.901  28.023  28.519  1.00  0.00    -0.203 F 
ATOM     68  F   UNL A   1      50.234  25.185  32.984  1.00  0.00    -0.200 F 
ATOM     69  C   UNL A   1      50.869  26.198  30.948  1.00  0.00     0.200 A 
ATOM     70  F   UNL A   1      51.459  27.242  28.913  1.00  0.00    -0.200 F 
ATOM     71  F   UNL A   1      52.145  25.845  31.153  1.00  0.00    -0.200 F 
ENDBRANCH  38  61
ENDBRANCH  12  13
ENDBRANCH   5   7
ENDBRANCH   2   3
ENDBRANCH   1   2
BRANCH   1  72
ATOM     72  C   UNL A   1      35.273  34.804  28.541  1.00  0.00     0.118 C 
BRANCH  72  73
ATOM     73  N   UNL A   1      34.044  35.544  28.295  1.00  0.00    -0.352 N 
ATOM     74  C   UNL A   1      33.131  36.056  29.181  1.00  0.00     0.251 C 
ATOM     75  H   UNL A   1      33.837  35.702  27.346  1.00  0.00     0.163 HD
ATOM     76  O   UNL A   1      32.044  36.453  28.771  1.00  0.00    -0.269 OA
BRANCH  74  77
ATOM     77  C   UNL A   1      33.449  36.132  30.619  1.00  0.00     0.041 A 
ATOM     78  C   UNL A   1      33.551  37.386  31.221  1.00  0.00     0.014 A 
ATOM     79  C   UNL A   1      33.706  34.971  31.359  1.00  0.00     0.040 A 
ATOM     80  C   UNL A   1      33.826  37.469  32.581  1.00  0.00     0.003 A 
ATOM     81  C   UNL A   1      33.988  35.037  32.728  1.00  0.00     0.041 A 
ATOM     82  C   UNL A   1      34.013  36.302  33.330  1.00  0.00     0.026 A 
BRANCH  81  83
ATOM     83  N   UNL A   1      34.217  33.836  33.423  1.00  0.00    -0.332 N 
ATOM     84  H   UNL A   1      33.437  33.250  33.560  1.00  0.00     0.169 HD
BRANCH  83  85
ATOM     85  C   UNL A   1      35.394  33.402  33.923  1.00  0.00     0.187 A 
ATOM     86  N   UNL A   1      36.122  32.402  33.474  1.00  0.00    -0.220 NA
ATOM     87  S   UNL A   1      36.052  34.202  35.307  1.00  0.00    -0.105 S 
ATOM     88  C   UNL A   1      37.237  32.228  34.265  1.00  0.00     0.086 A 
ATOM     89  C   UNL A   1      37.323  33.059  35.361  1.00  0.00     0.097 A 
BRANCH  88  90
ATOM     90  C   UNL A   1      38.240  31.232  33.959  1.00  0.00     0.037 A 
ATOM     91  C   UNL A   1      39.569  31.416  34.362  1.00  0.00     0.016 A 
ATOM     92  C   UNL A   1      37.894  30.090  33.229  1.00  0.00     0.135 A 
ATOM     93  C   UNL A   1      40.535  30.469  34.017  1.00  0.00     0.040 A 
ATOM     94  C   UNL A   1      38.854  29.144  32.883  1.00  0.00     0.079 A 
ATOM     95  F   UNL A   1      36.632  29.898  32.817  1.00  0.00    -0.206 F 
ATOM     96  C   UNL A   1      40.168  29.347  33.278  1.00  0.00     0.126 A 
ATOM     97  F   UNL A   1      41.104  28.450  32.937  1.00  0.00    -0.207 F 
ENDBRANCH  88  90
ENDBRANCH  83  85
ENDBRANCH  81  83
ENDBRANCH  74  77
ENDBRANCH  72  73
ENDBRANCH   1  72
TORSDOF 13
ENDMDL
MODEL 3
REMARK VINA RESULT:     -13.4      5.316     10.821
REMARK SMILES O=C(NCCCNC(=O)c1cccc(Nc2nc(-c3ccc(F)cc3F)cs2)c1)c1ccc(-c2c3nc(c(-c4c(F)c(F)c(F)c(F)c4F)c4ccc([nH]4)c(-c4c(F)c(F)c(F)c(F)c4F)c4nc(c(-c5c(F)c(F)c(F)c(F)c5F)c5ccc2[nH]5)C=C4)C=C3)cc1
REMARK SMILES IDX 5 1 4 2 3 3 1 4 2 5 30 7 31 8 92 9 32 10 91 11 33 12 34 13
REMARK SMILES IDX 35 14 85 15 36 16 90 17 84 18 86 19 37 20 89 21 83 22 82 23
REMARK SMILES IDX 38 25 70 26 50 27 69 28 51 29 54 30 68 31 87 32 52 33 53 34
REMARK SMILES IDX 67 36 88 37 55 38 39 39 40 40 48 41 41 42 42 43 46 44 49 45
REMARK SMILES IDX 43 46 44 47 47 48 45 49 71 50 72 51 80 52 73 53 74 54 78 55
REMARK SMILES IDX 81 56 75 57 76 58 79 59 77 60 56 61 57 62 65 63 58 64 59 65
REMARK SMILES IDX 63 66 66 67 60 68 61 69 64 70 62 71 6 72 7 73 8 74 9 76
REMARK SMILES IDX 10 77 11 78 29 79 12 80 14 81 13 82 15 83 16 85 17 86 28 87
REMARK SMILES IDX 18 88 27 89 19 90 20 91 25 92 21 93 24 94 26 95 22 96 23 97
REMARK H PARENT 3 6 86 24 54 35 7 75 15 84
REMARK Flexibility Score: inf
ROOT
ATOM      1  C   UNL A   1      37.246  19.587  24.925  1.00  0.00     0.042 C 
ENDROOT
BRANCH   1   2
ATOM      2  C   UNL A   1      38.465  20.257  25.536  1.00  0.00     0.118 C 
BRANCH   2   3
ATOM      3  N   UNL A   1      39.567  19.331  25.771  1.00  0.00    -0.352 N 
ATOM      4  O   UNL A   1      41.697  18.664  26.092  1.00  0.00    -0.269 OA
ATOM      5  C   UNL A   1      40.877  19.579  26.105  1.00  0.00     0.251 C 
ATOM      6  H   UNL A   1      39.336  18.379  25.676  1.00  0.00     0.163 HD
BRANCH   5   7
ATOM      7  C   UNL A   1      41.309  20.948  26.455  1.00  0.00     0.039 A 
ATOM      8  C   UNL A   1      41.757  21.827  25.469  1.00  0.00     0.014 A 
ATOM      9  C   UNL A   1      41.251  21.366  27.788  1.00  0.00     0.014 A 
ATOM     10  C   UNL A   1      42.315  23.045  25.830  1.00  0.00     0.010 A 
ATOM     11  C   UNL A   1      41.704  22.642  28.136  1.00  0.00     0.010 A 
ATOM     12  C   UNL A   1      42.271  23.480  27.163  1.00  0.00    -0.014 A 
BRANCH  12  13
ATOM     13  C   UNL A   1      42.751  24.845  27.491  1.00  0.00     0.031 A 
ATOM     14  C   UNL A   1      44.166  25.265  27.215  1.00  0.00     0.074 A 
ATOM     15  C   UNL A   1      41.876  25.719  28.026  1.00  0.00     0.049 A 
ATOM     16  N   UNL A   1      44.740  26.422  27.437  1.00  0.00    -0.248 NA
ATOM     17  C   UNL A   1      45.059  24.258  26.623  1.00  0.00     0.031 C 
ATOM     18  C   UNL A   1      40.480  25.417  28.351  1.00  0.00     0.029 A 
ATOM     19  N   UNL A   1      42.020  27.036  28.378  1.00  0.00    -0.354 N 
ATOM     20  C   UNL A   1      46.060  26.277  27.031  1.00  0.00     0.074 A 
ATOM     21  C   UNL A   1      46.211  24.911  26.575  1.00  0.00     0.031 C 
ATOM     22  C   UNL A   1      39.884  26.525  28.812  1.00  0.00     0.029 A 
ATOM     23  C   UNL A   1      40.873  27.593  28.887  1.00  0.00     0.049 A 
ATOM     24  H   UNL A   1      42.863  27.534  28.277  1.00  0.00     0.167 HD
ATOM     25  C   UNL A   1      47.049  27.204  27.033  1.00  0.00     0.037 A 
ATOM     26  C   UNL A   1      40.644  28.821  29.388  1.00  0.00     0.037 A 
ATOM     27  C   UNL A   1      46.883  28.565  27.482  1.00  0.00     0.049 A 
ATOM     28  C   UNL A   1      41.767  29.816  29.407  1.00  0.00     0.074 A 
ATOM     29  C   UNL A   1      47.811  29.592  27.484  1.00  0.00     0.029 A 
ATOM     30  N   UNL A   1      45.713  29.085  28.017  1.00  0.00    -0.354 N 
ATOM     31  N   UNL A   1      42.999  29.680  28.980  1.00  0.00    -0.248 NA
ATOM     32  C   UNL A   1      41.470  31.134  29.980  1.00  0.00     0.031 C 
ATOM     33  C   UNL A   1      47.222  30.714  28.076  1.00  0.00     0.029 A 
ATOM     34  C   UNL A   1      45.906  30.410  28.383  1.00  0.00     0.049 A 
ATOM     35  H   UNL A   1      44.870  28.588  28.122  1.00  0.00     0.167 HD
ATOM     36  C   UNL A   1      43.618  30.898  29.214  1.00  0.00     0.074 A 
ATOM     37  C   UNL A   1      42.619  31.768  29.800  1.00  0.00     0.031 C 
ATOM     38  C   UNL A   1      44.902  31.261  28.968  1.00  0.00     0.037 A 
BRANCH  25  39
ATOM     39  C   UNL A   1      48.411  26.776  26.563  1.00  0.00     0.064 A 
ATOM     40  C   UNL A   1      49.325  26.138  27.415  1.00  0.00     0.173 A 
ATOM     41  C   UNL A   1      48.790  26.964  25.223  1.00  0.00     0.173 A 
ATOM     42  F   UNL A   1      49.019  25.939  28.706  1.00  0.00    -0.203 F 
ATOM     43  C   UNL A   1      50.575  25.733  26.953  1.00  0.00     0.198 A 
ATOM     44  C   UNL A   1      50.028  26.530  24.757  1.00  0.00     0.198 A 
ATOM     45  F   UNL A   1      47.952  27.560  24.361  1.00  0.00    -0.203 F 
ATOM     46  F   UNL A   1      51.450  25.170  27.799  1.00  0.00    -0.200 F 
ATOM     47  C   UNL A   1      50.923  25.922  25.624  1.00  0.00     0.200 A 
ATOM     48  F   UNL A   1      50.355  26.698  23.469  1.00  0.00    -0.200 F 
ATOM     49  F   UNL A   1      52.123  25.523  25.180  1.00  0.00    -0.200 F 
ENDBRANCH  25  39
BRANCH  26  50
ATOM     50  C   UNL A   1      39.300  29.157  29.923  1.00  0.00     0.064 A 
ATOM     51  C   UNL A   1      38.951  28.858  31.246  1.00  0.00     0.173 A 
ATOM     52  C   UNL A   1      38.343  29.803  29.125  1.00  0.00     0.173 A 
ATOM     53  F   UNL A   1      39.826  28.227  32.044  1.00  0.00    -0.203 F 
ATOM     54  C   UNL A   1      37.690  29.175  31.746  1.00  0.00     0.198 A 
ATOM     55  C   UNL A   1      37.095  30.151  29.636  1.00  0.00     0.198 A 
ATOM     56  F   UNL A   1      38.631  30.120  27.854  1.00  0.00    -0.203 F 
ATOM     57  F   UNL A   1      37.365  28.838  33.001  1.00  0.00    -0.200 F 
ATOM     58  C   UNL A   1      36.766  29.829  30.943  1.00  0.00     0.200 A 
ATOM     59  F   UNL A   1      36.215  30.802  28.863  1.00  0.00    -0.200 F 
ATOM     60  F   UNL A   1      35.558  30.143  31.428  1.00  0.00    -0.200 F 
ENDBRANCH  26  50
BRANCH  38  61
ATOM     61  C   UNL A   1      45.286  32.673  29.306  1.00  0.00     0.064 A 
ATOM     62  C   UNL A   1      45.125  33.722  28.388  1.00  0.00     0.173 A 
ATOM     63  C   UNL A   1      45.799  32.985  30.575  1.00  0.00     0.173 A 
ATOM     64  F   UNL A   1      44.655  33.474  27.155  1.00  0.00    -0.203 F 
ATOM     65  C   UNL A   1      45.490  35.024  28.718  1.00  0.00     0.198 A 
ATOM     66  C   UNL A   1      46.132  34.293  30.912  1.00  0.00     0.198 A 
ATOM     67  F   UNL A   1      45.969  32.020  31.491  1.00  0.00    -0.203 F 
ATOM     68  F   UNL A   1      45.379  36.000  27.806  1.00  0.00    -0.200 F 
ATOM     69  C   UNL A   1      45.985  35.311  29.981  1.00  0.00     0.200 A 
ATOM     70  F   UNL A   1      46.596  34.570  32.138  1.00  0.00    -0.200 F 
ATOM     71  F   UNL A   1      46.331  36.566  30.299  1.00  0.00    -0.200 F 
ENDBRANCH  38  61
ENDBRANCH  12  13
ENDBRANCH   5   7
ENDBRANCH   2   3
ENDBRANCH   1   2
BRANCH   1  72
ATOM     72  C   UNL A   1      35.974  20.412  25.025  1.00  0.00     0.118 C 
BRANCH  72  73
ATOM     73  N   UNL A   1      34.777  19.585  24.968  1.00  0.00    -0.352 N 
ATOM     74  C   UNL A   1      33.491  19.868  25.349  1.00  0.00     0.251 C 
ATOM     75  H   UNL A   1      34.912  18.683  24.597  1.00  0.00     0.163 HD
ATOM     76  O   UNL A   1      32.667  18.961  25.430  1.00  0.00    -0.269 OA
BRANCH  74  77
ATOM     77  C   UNL A   1      33.093  21.254  25.661  1.00  0.00     0.041 A 
ATOM     78  C   UNL A   1      33.722  21.914  26.716  1.00  0.00     0.014 A 
ATOM     79  C   UNL A   1      32.058  21.879  24.954  1.00  0.00     0.040 A 
ATOM     80  C   UNL A   1      33.372  23.229  27.002  1.00  0.00     0.003 A 
ATOM     81  C   UNL A   1      31.691  23.200  25.232  1.00  0.00     0.041 A 
ATOM     82  C   UNL A   1      32.386  23.872  26.247  1.00  0.00     0.026 A 
BRANCH  81  83
ATOM     83  N   UNL A   1      30.659  23.782  24.474  1.00  0.00    -0.332 N 
ATOM     84  H   UNL A   1      29.836  23.252  24.369  1.00  0.00     0.169 HD
BRANCH  83  85
ATOM     85  C   UNL A   1      30.679  24.993  23.875  1.00  0.00     0.187 A 
ATOM     86  N   UNL A   1      29.826  25.978  24.058  1.00  0.00    -0.220 NA
ATOM     87  S   UNL A   1      31.928  25.330  22.729  1.00  0.00    -0.105 S 
ATOM     88  C   UNL A   1      30.142  27.043  23.242  1.00  0.00     0.086 A 
ATOM     89  C   UNL A   1      31.202  26.840  22.386  1.00  0.00     0.097 A 
BRANCH  88  90
ATOM     90  C   UNL A   1      29.399  28.282  23.286  1.00  0.00     0.037 A 
ATOM     91  C   UNL A   1      28.033  28.302  22.975  1.00  0.00     0.016 A 
ATOM     92  C   UNL A   1      30.048  29.479  23.608  1.00  0.00     0.135 A 
ATOM     93  C   UNL A   1      27.340  29.515  22.974  1.00  0.00     0.040 A 
ATOM     94  C   UNL A   1      29.361  30.688  23.608  1.00  0.00     0.079 A 
ATOM     95  F   UNL A   1      31.359  29.490  23.893  1.00  0.00    -0.206 F 
ATOM     96  C   UNL A   1      28.012  30.694  23.286  1.00  0.00     0.126 A 
ATOM     97  F   UNL A   1      27.344  31.855  23.268  1.00  0.00    -0.207 F 
ENDBRANCH  88  90
ENDBRANCH  83  85
ENDBRANCH  81  83
ENDBRANCH  74  77
ENDBRANCH  72  73
ENDBRANCH   1  72
TORSDOF 13
ENDMDL
