MODEL 1
REMARK VINA RESULT:     -11.3      0.000      0.000
REMARK SMILES CC(C)Cc1ccc(C[N@@H+]2CCO[C@@H](C(=O)NCCCNC(=O)c3ccc(-c4c5nc(c(-c6c(F)c(F)c(F)c(F)c6F)c6ccc([nH]6)c(-c6c(F)c(F)c(F)c(F)c6F)c6nc(c(-c7c(F)c(F)c(F)c(F)c7F)c7ccc4[nH]7)C=C6)C=C5)cc3)C2)cc1
REMARK SMILES IDX 18 1 17 2 15 3 16 4 14 6 10 7 11 8 87 9 12 11 13 12 9 13
REMARK SMILES IDX 8 14 5 15 6 16 89 17 7 18 88 19 4 20 2 21 1 22 3 23 19 24
REMARK SMILES IDX 20 25 21 26 22 27 23 29 24 30 25 31 86 32 26 33 85 34 27 35
REMARK SMILES IDX 28 36 29 37 79 38 30 39 84 40 78 41 80 42 31 43 83 44 77 45
REMARK SMILES IDX 76 46 32 48 64 49 44 50 63 51 45 52 48 53 62 54 81 55 46 56
REMARK SMILES IDX 47 57 61 59 82 60 49 61 33 62 34 63 42 64 35 65 36 66 40 67
REMARK SMILES IDX 43 68 37 69 38 70 41 71 39 72 65 73 66 74 74 75 67 76 68 77
REMARK SMILES IDX 72 78 75 79 69 80 70 81 73 82 71 83 50 84 51 85 59 86 52 87
REMARK SMILES IDX 53 88 57 89 60 90 54 91 55 92 58 93 56 94
REMARK H PARENT 17 5 10 10 21 28 80 47 48 58
REMARK Flexibility Score: inf
ROOT
ATOM      1  C   UNL A   1      40.807  19.688  26.176  1.00  0.00     0.117 C 
ENDROOT
BRANCH   1   2
ATOM      2  N   UNL A   1      41.714  18.665  26.679  1.00  0.00    -0.354 N 
ATOM      3  C   UNL A   1      43.009  18.395  26.310  1.00  0.00     0.255 C 
ATOM      4  O   UNL A   1      43.577  17.441  26.849  1.00  0.00    -0.272 OA
ATOM      5  H   UNL A   1      41.347  18.087  27.386  1.00  0.00     0.163 HD
BRANCH   3   6
ATOM      6  C   UNL A   1      43.690  19.224  25.213  1.00  0.00     0.261 C 
ATOM      7  N   UNL A   1      45.096  21.370  25.103  1.00  0.00    -0.327 N 
ATOM      8  C   UNL A   1      46.164  20.489  24.622  1.00  0.00     0.291 C 
ATOM      9  C   UNL A   1      44.056  20.606  25.801  1.00  0.00     0.305 C 
ATOM     10  H   UNL A   1      45.541  21.965  25.801  1.00  0.00     0.348 HD
ATOM     11  C   UNL A   1      45.672  19.215  23.909  1.00  0.00     0.222 C 
ATOM     12  O   UNL A   1      44.803  18.453  24.737  1.00  0.00    -0.357 OA
BRANCH   7  13
ATOM     13  C   UNL A   1      44.633  22.431  24.203  1.00  0.00     0.299 C 
BRANCH  13  14
ATOM     14  C   UNL A   1      44.701  23.854  24.702  1.00  0.00     0.006 A 
ATOM     15  C   UNL A   1      44.901  26.557  25.510  1.00  0.00    -0.048 A 
ATOM     16  C   UNL A   1      46.040  25.813  25.201  1.00  0.00     0.004 A 
ATOM     17  C   UNL A   1      43.651  25.927  25.426  1.00  0.00     0.004 A 
ATOM     18  C   UNL A   1      45.945  24.463  24.888  1.00  0.00     0.010 A 
ATOM     19  C   UNL A   1      43.550  24.595  24.999  1.00  0.00     0.010 A 
BRANCH  15  20
ATOM     20  C   UNL A   1      45.038  28.011  25.896  1.00  0.00     0.038 C 
BRANCH  20  21
ATOM     21  C   UNL A   1      44.252  28.437  27.159  1.00  0.00    -0.013 C 
ATOM     22  C   UNL A   1      45.078  29.227  28.180  1.00  0.00     0.008 C 
ATOM     23  C   UNL A   1      43.053  29.296  26.743  1.00  0.00     0.008 C 
ENDBRANCH  20  21
ENDBRANCH  15  20
ENDBRANCH  13  14
ENDBRANCH   7  13
ENDBRANCH   3   6
ENDBRANCH   1   2
BRANCH   1  24
ATOM     24  C   UNL A   1      40.745  20.898  27.094  1.00  0.00     0.042 C 
BRANCH  24  25
ATOM     25  C   UNL A   1      40.810  22.218  26.348  1.00  0.00     0.118 C 
BRANCH  25  26
ATOM     26  N   UNL A   1      39.517  22.613  25.804  1.00  0.00    -0.352 N 
ATOM     27  C   UNL A   1      38.725  23.687  26.124  1.00  0.00     0.251 C 
ATOM     28  H   UNL A   1      39.159  22.022  25.104  1.00  0.00     0.163 HD
ATOM     29  O   UNL A   1      37.575  23.753  25.700  1.00  0.00    -0.269 OA
BRANCH  27  30
ATOM     30  C   UNL A   1      39.250  24.751  27.003  1.00  0.00     0.039 A 
ATOM     31  C   UNL A   1      40.066  25.743  26.456  1.00  0.00     0.014 A 
ATOM     32  C   UNL A   1      38.929  24.777  28.362  1.00  0.00     0.014 A 
ATOM     33  C   UNL A   1      40.498  26.802  27.256  1.00  0.00     0.010 A 
ATOM     34  C   UNL A   1      39.279  25.878  29.134  1.00  0.00     0.010 A 
ATOM     35  C   UNL A   1      40.070  26.900  28.590  1.00  0.00    -0.014 A 
BRANCH  35  36
ATOM     36  C   UNL A   1      40.440  28.056  29.443  1.00  0.00     0.031 A 
ATOM     37  C   UNL A   1      41.748  28.052  30.184  1.00  0.00     0.074 A 
ATOM     38  C   UNL A   1      39.565  29.066  29.617  1.00  0.00     0.049 A 
ATOM     39  N   UNL A   1      42.204  28.905  31.066  1.00  0.00    -0.248 NA
ATOM     40  C   UNL A   1      42.653  26.922  29.919  1.00  0.00     0.031 C 
ATOM     41  C   UNL A   1      38.249  29.164  28.983  1.00  0.00     0.029 A 
ATOM     42  N   UNL A   1      39.643  30.194  30.396  1.00  0.00    -0.354 N 
ATOM     43  C   UNL A   1      43.434  28.406  31.471  1.00  0.00     0.074 A 
ATOM     44  C   UNL A   1      43.629  27.149  30.784  1.00  0.00     0.031 C 
ATOM     45  C   UNL A   1      37.652  30.298  29.383  1.00  0.00     0.029 A 
ATOM     46  C   UNL A   1      38.518  30.980  30.340  1.00  0.00     0.049 A 
ATOM     47  H   UNL A   1      40.430  30.418  30.942  1.00  0.00     0.167 HD
ATOM     48  C   UNL A   1      44.330  28.959  32.324  1.00  0.00     0.037 A 
ATOM     49  C   UNL A   1      38.211  32.114  30.999  1.00  0.00     0.037 A 
ATOM     50  C   UNL A   1      44.136  30.221  32.988  1.00  0.00     0.049 A 
ATOM     51  C   UNL A   1      39.211  32.692  31.966  1.00  0.00     0.074 A 
ATOM     52  C   UNL A   1      45.007  30.895  33.826  1.00  0.00     0.029 A 
ATOM     53  N   UNL A   1      42.989  30.994  32.896  1.00  0.00    -0.354 N 
ATOM     54  N   UNL A   1      40.400  32.246  32.292  1.00  0.00    -0.248 NA
ATOM     55  C   UNL A   1      38.827  33.932  32.655  1.00  0.00     0.031 C 
ATOM     56  C   UNL A   1      44.363  32.046  34.288  1.00  0.00     0.029 A 
ATOM     57  C   UNL A   1      43.117  32.125  33.686  1.00  0.00     0.049 A 
ATOM     58  H   UNL A   1      42.200  30.772  32.349  1.00  0.00     0.167 HD
ATOM     59  C   UNL A   1      40.920  33.166  33.193  1.00  0.00     0.074 A 
ATOM     60  C   UNL A   1      39.920  34.199  33.358  1.00  0.00     0.031 C 
ATOM     61  C   UNL A   1      42.119  33.155  33.826  1.00  0.00     0.037 A 
BRANCH  48  62
ATOM     62  C   UNL A   1      45.600  28.201  32.589  1.00  0.00     0.064 A 
ATOM     63  C   UNL A   1      45.662  27.174  33.542  1.00  0.00     0.173 A 
ATOM     64  C   UNL A   1      46.761  28.482  31.853  1.00  0.00     0.173 A 
ATOM     65  F   UNL A   1      44.582  26.871  34.281  1.00  0.00    -0.203 F 
ATOM     66  C   UNL A   1      46.845  26.477  33.771  1.00  0.00     0.198 A 
ATOM     67  C   UNL A   1      47.933  27.759  32.059  1.00  0.00     0.198 A 
ATOM     68  F   UNL A   1      46.757  29.450  30.924  1.00  0.00    -0.203 F 
ATOM     69  F   UNL A   1      46.893  25.536  34.723  1.00  0.00    -0.200 F 
ATOM     70  C   UNL A   1      47.977  26.764  33.024  1.00  0.00     0.200 A 
ATOM     71  F   UNL A   1      49.021  28.027  31.324  1.00  0.00    -0.200 F 
ATOM     72  F   UNL A   1      49.112  26.086  33.237  1.00  0.00    -0.200 F 
ENDBRANCH  48  62
BRANCH  49  73
ATOM     73  C   UNL A   1      36.905  32.784  30.762  1.00  0.00     0.064 A 
ATOM     74  C   UNL A   1      35.872  32.702  31.706  1.00  0.00     0.173 A 
ATOM     75  C   UNL A   1      36.658  33.511  29.588  1.00  0.00     0.173 A 
ATOM     76  F   UNL A   1      36.051  32.003  32.835  1.00  0.00    -0.203 F 
ATOM     77  C   UNL A   1      34.635  33.302  31.475  1.00  0.00     0.198 A 
ATOM     78  C   UNL A   1      35.432  34.136  29.372  1.00  0.00     0.198 A 
ATOM     79  F   UNL A   1      37.614  33.625  28.654  1.00  0.00    -0.203 F 
ATOM     80  F   UNL A   1      33.649  33.164  32.371  1.00  0.00    -0.200 F 
ATOM     81  C   UNL A   1      34.418  34.023  30.311  1.00  0.00     0.200 A 
ATOM     82  F   UNL A   1      35.233  34.847  28.254  1.00  0.00    -0.200 F 
ATOM     83  F   UNL A   1      33.231  34.603  30.091  1.00  0.00    -0.200 F 
ENDBRANCH  49  73
BRANCH  61  84
ATOM     84  C   UNL A   1      42.446  34.317  34.718  1.00  0.00     0.064 A 
ATOM     85  C   UNL A   1      43.070  35.474  34.229  1.00  0.00     0.173 A 
ATOM     86  C   UNL A   1      42.065  34.297  36.070  1.00  0.00     0.173 A 
ATOM     87  F   UNL A   1      43.467  35.537  32.950  1.00  0.00    -0.203 F 
ATOM     88  C   UNL A   1      43.315  36.561  35.064  1.00  0.00     0.198 A 
ATOM     89  C   UNL A   1      42.281  35.398  36.892  1.00  0.00     0.198 A 
ATOM     90  F   UNL A   1      41.458  33.218  36.585  1.00  0.00    -0.203 F 
ATOM     91  F   UNL A   1      43.947  37.641  34.585  1.00  0.00    -0.200 F 
ATOM     92  C   UNL A   1      42.909  36.527  36.390  1.00  0.00     0.200 A 
ATOM     93  F   UNL A   1      41.873  35.369  38.168  1.00  0.00    -0.200 F 
ATOM     94  F   UNL A   1      43.130  37.582  37.186  1.00  0.00    -0.200 F 
ENDBRANCH  61  84
ENDBRANCH  35  36
ENDBRANCH  27  30
ENDBRANCH  25  26
ENDBRANCH  24  25
ENDBRANCH   1  24
TORSDOF 14
ENDMDL
MODEL 2
REMARK VINA RESULT:     -11.3      4.867     10.093
REMARK SMILES CC(C)Cc1ccc(C[N@@H+]2CCO[C@@H](C(=O)NCCCNC(=O)c3ccc(-c4c5nc(c(-c6c(F)c(F)c(F)c(F)c6F)c6ccc([nH]6)c(-c6c(F)c(F)c(F)c(F)c6F)c6nc(c(-c7c(F)c(F)c(F)c(F)c7F)c7ccc4[nH]7)C=C6)C=C5)cc3)C2)cc1
REMARK SMILES IDX 18 1 17 2 15 3 16 4 14 6 10 7 11 8 87 9 12 11 13 12 9 13
REMARK SMILES IDX 8 14 5 15 6 16 89 17 7 18 88 19 4 20 2 21 1 22 3 23 19 24
REMARK SMILES IDX 20 25 21 26 22 27 23 29 24 30 25 31 86 32 26 33 85 34 27 35
REMARK SMILES IDX 28 36 29 37 79 38 30 39 84 40 78 41 80 42 31 43 83 44 77 45
REMARK SMILES IDX 76 46 32 48 64 49 44 50 63 51 45 52 48 53 62 54 81 55 46 56
REMARK SMILES IDX 47 57 61 59 82 60 49 61 33 62 34 63 42 64 35 65 36 66 40 67
REMARK SMILES IDX 43 68 37 69 38 70 41 71 39 72 65 73 66 74 74 75 67 76 68 77
REMARK SMILES IDX 72 78 75 79 69 80 70 81 73 82 71 83 50 84 51 85 59 86 52 87
REMARK SMILES IDX 53 88 57 89 60 90 54 91 55 92 58 93 56 94
REMARK H PARENT 17 5 10 10 21 28 80 47 48 58
REMARK Flexibility Score: inf
ROOT
ATOM      1  C   UNL A   1      31.718  30.714  26.111  1.00  0.00     0.117 C 
ENDROOT
BRANCH   1   2
ATOM      2  N   UNL A   1      31.028  30.455  24.854  1.00  0.00    -0.354 N 
ATOM      3  C   UNL A   1      30.989  29.306  24.105  1.00  0.00     0.255 C 
ATOM      4  O   UNL A   1      30.368  29.329  23.039  1.00  0.00    -0.272 OA
ATOM      5  H   UNL A   1      30.515  31.213  24.492  1.00  0.00     0.163 HD
BRANCH   3   6
ATOM      6  C   UNL A   1      31.756  28.057  24.563  1.00  0.00     0.261 C 
ATOM      7  N   UNL A   1      31.865  25.585  23.880  1.00  0.00    -0.327 N 
ATOM      8  C   UNL A   1      33.253  25.882  23.514  1.00  0.00     0.291 C 
ATOM      9  C   UNL A   1      31.065  26.812  23.962  1.00  0.00     0.305 C 
ATOM     10  H   UNL A   1      31.497  25.046  23.096  1.00  0.00     0.348 HD
ATOM     11  C   UNL A   1      33.886  27.048  24.299  1.00  0.00     0.222 C 
ATOM     12  O   UNL A   1      33.125  28.240  24.171  1.00  0.00    -0.357 OA
BRANCH   7  13
ATOM     13  C   UNL A   1      31.638  24.586  24.930  1.00  0.00     0.299 C 
BRANCH  13  14
ATOM     14  C   UNL A   1      32.313  23.245  24.783  1.00  0.00     0.006 A 
ATOM     15  C   UNL A   1      33.536  20.698  24.646  1.00  0.00    -0.048 A 
ATOM     16  C   UNL A   1      33.875  21.605  25.650  1.00  0.00     0.004 A 
ATOM     17  C   UNL A   1      32.583  21.085  23.694  1.00  0.00     0.004 A 
ATOM     18  C   UNL A   1      33.338  22.886  25.664  1.00  0.00     0.010 A 
ATOM     19  C   UNL A   1      31.957  22.337  23.777  1.00  0.00     0.010 A 
BRANCH  15  20
ATOM     20  C   UNL A   1      34.174  19.329  24.627  1.00  0.00     0.038 C 
BRANCH  20  21
ATOM     21  C   UNL A   1      33.256  18.178  24.153  1.00  0.00    -0.013 C 
ATOM     22  C   UNL A   1      33.989  17.045  23.426  1.00  0.00     0.008 C 
ATOM     23  C   UNL A   1      32.528  17.581  25.361  1.00  0.00     0.008 C 
ENDBRANCH  20  21
ENDBRANCH  15  20
ENDBRANCH  13  14
ENDBRANCH   7  13
ENDBRANCH   3   6
ENDBRANCH   1   2
BRANCH   1  24
ATOM     24  C   UNL A   1      31.420  32.104  26.651  1.00  0.00     0.042 C 
BRANCH  24  25
ATOM     25  C   UNL A   1      32.614  32.749  27.330  1.00  0.00     0.118 C 
BRANCH  25  26
ATOM     26  N   UNL A   1      32.390  34.160  27.625  1.00  0.00    -0.352 N 
ATOM     27  C   UNL A   1      32.983  34.961  28.567  1.00  0.00     0.251 C 
ATOM     28  H   UNL A   1      31.712  34.602  27.065  1.00  0.00     0.163 HD
ATOM     29  O   UNL A   1      32.529  36.077  28.803  1.00  0.00    -0.269 OA
BRANCH  27  30
ATOM     30  C   UNL A   1      34.155  34.468  29.318  1.00  0.00     0.039 A 
ATOM     31  C   UNL A   1      33.961  33.880  30.570  1.00  0.00     0.014 A 
ATOM     32  C   UNL A   1      35.442  34.578  28.785  1.00  0.00     0.014 A 
ATOM     33  C   UNL A   1      35.049  33.332  31.251  1.00  0.00     0.010 A 
ATOM     34  C   UNL A   1      36.507  33.950  29.419  1.00  0.00     0.010 A 
ATOM     35  C   UNL A   1      36.324  33.324  30.660  1.00  0.00    -0.014 A 
BRANCH  35  36
ATOM     36  C   UNL A   1      37.483  32.674  31.318  1.00  0.00     0.031 A 
ATOM     37  C   UNL A   1      38.176  31.522  30.646  1.00  0.00     0.074 A 
ATOM     38  C   UNL A   1      37.857  33.064  32.552  1.00  0.00     0.049 A 
ATOM     39  N   UNL A   1      39.127  30.746  31.102  1.00  0.00    -0.248 NA
ATOM     40  C   UNL A   1      37.718  31.175  29.291  1.00  0.00     0.031 C 
ATOM     41  C   UNL A   1      37.238  34.145  33.322  1.00  0.00     0.029 A 
ATOM     42  N   UNL A   1      38.837  32.584  33.385  1.00  0.00    -0.354 N 
ATOM     43  C   UNL A   1      39.366  29.816  30.101  1.00  0.00     0.074 A 
ATOM     44  C   UNL A   1      38.424  30.084  29.038  1.00  0.00     0.031 C 
ATOM     45  C   UNL A   1      37.864  34.257  34.505  1.00  0.00     0.029 A 
ATOM     46  C   UNL A   1      38.892  33.225  34.598  1.00  0.00     0.049 A 
ATOM     47  H   UNL A   1      39.443  31.849  33.136  1.00  0.00     0.167 HD
ATOM     48  C   UNL A   1      40.303  28.837  30.063  1.00  0.00     0.037 A 
ATOM     49  C   UNL A   1      39.670  32.994  35.673  1.00  0.00     0.037 A 
ATOM     50  C   UNL A   1      41.250  28.589  31.118  1.00  0.00     0.049 A 
ATOM     51  C   UNL A   1      40.682  31.881  35.619  1.00  0.00     0.074 A 
ATOM     52  C   UNL A   1      42.276  27.661  31.154  1.00  0.00     0.029 A 
ATOM     53  N   UNL A   1      41.282  29.268  32.328  1.00  0.00    -0.354 N 
ATOM     54  N   UNL A   1      40.945  31.048  34.641  1.00  0.00    -0.248 NA
ATOM     55  C   UNL A   1      41.508  31.675  36.817  1.00  0.00     0.031 C 
ATOM     56  C   UNL A   1      42.890  27.738  32.407  1.00  0.00     0.029 A 
ATOM     57  C   UNL A   1      42.291  28.759  33.128  1.00  0.00     0.049 A 
ATOM     58  H   UNL A   1      40.677  30.004  32.579  1.00  0.00     0.167 HD
ATOM     59  C   UNL A   1      41.987  30.247  35.090  1.00  0.00     0.074 A 
ATOM     60  C   UNL A   1      42.313  30.697  36.426  1.00  0.00     0.031 C 
ATOM     61  C   UNL A   1      42.616  29.231  34.451  1.00  0.00     0.037 A 
BRANCH  48  62
ATOM     62  C   UNL A   1      40.348  27.961  28.845  1.00  0.00     0.064 A 
ATOM     63  C   UNL A   1      41.109  28.302  27.717  1.00  0.00     0.173 A 
ATOM     64  C   UNL A   1      39.651  26.743  28.820  1.00  0.00     0.173 A 
ATOM     65  F   UNL A   1      41.788  29.460  27.685  1.00  0.00    -0.203 F 
ATOM     66  C   UNL A   1      41.146  27.474  26.598  1.00  0.00     0.198 A 
ATOM     67  C   UNL A   1      39.718  25.901  27.713  1.00  0.00     0.198 A 
ATOM     68  F   UNL A   1      38.912  26.364  29.873  1.00  0.00    -0.203 F 
ATOM     69  F   UNL A   1      41.838  27.847  25.513  1.00  0.00    -0.200 F 
ATOM     70  C   UNL A   1      40.458  26.271  26.600  1.00  0.00     0.200 A 
ATOM     71  F   UNL A   1      39.065  24.730  27.724  1.00  0.00    -0.200 F 
ATOM     72  F   UNL A   1      40.502  25.470  25.527  1.00  0.00    -0.200 F 
ENDBRANCH  48  62
BRANCH  49  73
ATOM     73  C   UNL A   1      39.531  33.840  36.889  1.00  0.00     0.064 A 
ATOM     74  C   UNL A   1      38.740  33.424  37.968  1.00  0.00     0.173 A 
ATOM     75  C   UNL A   1      40.176  35.081  36.994  1.00  0.00     0.173 A 
ATOM     76  F   UNL A   1      38.087  32.255  37.908  1.00  0.00    -0.203 F 
ATOM     77  C   UNL A   1      38.581  34.226  39.097  1.00  0.00     0.198 A 
ATOM     78  C   UNL A   1      40.042  35.868  38.136  1.00  0.00     0.198 A 
ATOM     79  F   UNL A   1      40.949  35.525  35.992  1.00  0.00    -0.203 F 
ATOM     80  F   UNL A   1      37.778  33.827  40.092  1.00  0.00    -0.200 F 
ATOM     81  C   UNL A   1      39.237  35.445  39.182  1.00  0.00     0.200 A 
ATOM     82  F   UNL A   1      40.692  37.037  38.221  1.00  0.00    -0.200 F 
ATOM     83  F   UNL A   1      39.087  36.214  40.268  1.00  0.00    -0.200 F 
ENDBRANCH  49  73
BRANCH  61  84
ATOM     84  C   UNL A   1      43.758  28.562  35.161  1.00  0.00     0.064 A 
ATOM     85  C   UNL A   1      45.067  29.060  35.091  1.00  0.00     0.173 A 
ATOM     86  C   UNL A   1      43.522  27.446  35.980  1.00  0.00     0.173 A 
ATOM     87  F   UNL A   1      45.348  30.114  34.310  1.00  0.00    -0.203 F 
ATOM     88  C   UNL A   1      46.101  28.455  35.802  1.00  0.00     0.198 A 
ATOM     89  C   UNL A   1      44.551  26.866  36.715  1.00  0.00     0.198 A 
ATOM     90  F   UNL A   1      42.286  26.936  36.088  1.00  0.00    -0.203 F 
ATOM     91  F   UNL A   1      47.351  28.923  35.689  1.00  0.00    -0.200 F 
ATOM     92  C   UNL A   1      45.839  27.367  36.622  1.00  0.00     0.200 A 
ATOM     93  F   UNL A   1      44.293  25.826  37.519  1.00  0.00    -0.200 F 
ATOM     94  F   UNL A   1      46.833  26.799  37.319  1.00  0.00    -0.200 F 
ENDBRANCH  61  84
ENDBRANCH  35  36
ENDBRANCH  27  30
ENDBRANCH  25  26
ENDBRANCH  24  25
ENDBRANCH   1  24
TORSDOF 14
ENDMDL
MODEL 3
REMARK VINA RESULT:     -11.2      5.229     10.291
REMARK SMILES CC(C)Cc1ccc(C[N@@H+]2CCO[C@@H](C(=O)NCCCNC(=O)c3ccc(-c4c5nc(c(-c6c(F)c(F)c(F)c(F)c6F)c6ccc([nH]6)c(-c6c(F)c(F)c(F)c(F)c6F)c6nc(c(-c7c(F)c(F)c(F)c(F)c7F)c7ccc4[nH]7)C=C6)C=C5)cc3)C2)cc1
REMARK SMILES IDX 18 1 17 2 15 3 16 4 14 6 10 7 11 8 87 9 12 11 13 12 9 13
REMARK SMILES IDX 8 14 5 15 6 16 89 17 7 18 88 19 4 20 2 21 1 22 3 23 19 24
REMARK SMILES IDX 20 25 21 26 22 27 23 29 24 30 25 31 86 32 26 33 85 34 27 35
REMARK SMILES IDX 28 36 29 37 79 38 30 39 84 40 78 41 80 42 31 43 83 44 77 45
REMARK SMILES IDX 76 46 32 48 64 49 44 50 63 51 45 52 48 53 62 54 81 55 46 56
REMARK SMILES IDX 47 57 61 59 82 60 49 61 33 62 34 63 42 64 35 65 36 66 40 67
REMARK SMILES IDX 43 68 37 69 38 70 41 71 39 72 65 73 66 74 74 75 67 76 68 77
REMARK SMILES IDX 72 78 75 79 69 80 70 81 73 82 71 83 50 84 51 85 59 86 52 87
REMARK SMILES IDX 53 88 57 89 60 90 54 91 55 92 58 93 56 94
REMARK H PARENT 17 5 10 10 21 28 80 47 48 58
REMARK Flexibility Score: inf
ROOT
ATOM      1  C   UNL A   1      31.738  30.700  26.216  1.00  0.00     0.117 C 
ENDROOT
BRANCH   1   2
ATOM      2  N   UNL A   1      33.049  30.244  26.659  1.00  0.00    -0.354 N 
ATOM      3  C   UNL A   1      33.605  28.991  26.579  1.00  0.00     0.255 C 
ATOM      4  O   UNL A   1      34.727  28.824  27.064  1.00  0.00    -0.272 OA
ATOM      5  H   UNL A   1      33.617  30.932  27.073  1.00  0.00     0.163 HD
BRANCH   3   6
ATOM      6  C   UNL A   1      32.814  27.831  25.960  1.00  0.00     0.261 C 
ATOM      7  N   UNL A   1      33.319  25.858  24.396  1.00  0.00    -0.327 N 
ATOM      8  C   UNL A   1      32.974  25.024  25.552  1.00  0.00     0.291 C 
ATOM      9  C   UNL A   1      33.653  27.225  24.812  1.00  0.00     0.305 C 
ATOM     10  H   UNL A   1      34.174  25.447  24.022  1.00  0.00     0.348 HD
ATOM     11  C   UNL A   1      32.001  25.682  26.549  1.00  0.00     0.222 C 
ATOM     12  O   UNL A   1      32.499  26.923  27.027  1.00  0.00    -0.357 OA
BRANCH   7  13
ATOM     13  C   UNL A   1      32.493  25.726  23.192  1.00  0.00     0.299 C 
BRANCH  13  14
ATOM     14  C   UNL A   1      31.343  26.688  23.020  1.00  0.00     0.006 A 
ATOM     15  C   UNL A   1      29.173  28.495  22.848  1.00  0.00    -0.048 A 
ATOM     16  C   UNL A   1      29.038  27.270  23.501  1.00  0.00     0.004 A 
ATOM     17  C   UNL A   1      30.409  28.805  22.263  1.00  0.00     0.004 A 
ATOM     18  C   UNL A   1      30.078  26.349  23.509  1.00  0.00     0.010 A 
ATOM     19  C   UNL A   1      31.493  27.921  22.372  1.00  0.00     0.010 A 
BRANCH  15  20
ATOM     20  C   UNL A   1      28.009  29.456  22.811  1.00  0.00     0.038 C 
BRANCH  20  21
ATOM     21  C   UNL A   1      28.377  30.929  22.510  1.00  0.00    -0.013 C 
ATOM     22  C   UNL A   1      28.028  31.387  21.089  1.00  0.00     0.008 C 
ATOM     23  C   UNL A   1      27.653  31.845  23.501  1.00  0.00     0.008 C 
ENDBRANCH  20  21
ENDBRANCH  15  20
ENDBRANCH  13  14
ENDBRANCH   7  13
ENDBRANCH   3   6
ENDBRANCH   1   2
BRANCH   1  24
ATOM     24  C   UNL A   1      31.478  32.148  26.600  1.00  0.00     0.042 C 
BRANCH  24  25
ATOM     25  C   UNL A   1      32.639  32.788  27.340  1.00  0.00     0.118 C 
BRANCH  25  26
ATOM     26  N   UNL A   1      32.406  34.198  27.626  1.00  0.00    -0.352 N 
ATOM     27  C   UNL A   1      32.989  35.007  28.568  1.00  0.00     0.251 C 
ATOM     28  H   UNL A   1      31.730  34.634  27.059  1.00  0.00     0.163 HD
ATOM     29  O   UNL A   1      32.528  36.122  28.795  1.00  0.00    -0.269 OA
BRANCH  27  30
ATOM     30  C   UNL A   1      34.159  34.524  29.329  1.00  0.00     0.039 A 
ATOM     31  C   UNL A   1      33.967  33.997  30.607  1.00  0.00     0.014 A 
ATOM     32  C   UNL A   1      35.442  34.582  28.778  1.00  0.00     0.014 A 
ATOM     33  C   UNL A   1      35.051  33.457  31.302  1.00  0.00     0.010 A 
ATOM     34  C   UNL A   1      36.501  33.962  29.429  1.00  0.00     0.010 A 
ATOM     35  C   UNL A   1      36.318  33.396  30.699  1.00  0.00    -0.014 A 
BRANCH  35  36
ATOM     36  C   UNL A   1      37.472  32.752  31.374  1.00  0.00     0.031 A 
ATOM     37  C   UNL A   1      38.159  31.582  30.728  1.00  0.00     0.074 A 
ATOM     38  C   UNL A   1      37.844  33.164  32.601  1.00  0.00     0.049 A 
ATOM     39  N   UNL A   1      39.104  30.810  31.203  1.00  0.00    -0.248 NA
ATOM     40  C   UNL A   1      37.704  31.211  29.378  1.00  0.00     0.031 C 
ATOM     41  C   UNL A   1      37.228  34.264  33.347  1.00  0.00     0.029 A 
ATOM     42  N   UNL A   1      38.818  32.694  33.447  1.00  0.00    -0.354 N 
ATOM     43  C   UNL A   1      39.340  29.858  30.221  1.00  0.00     0.074 A 
ATOM     44  C   UNL A   1      38.404  30.111  29.149  1.00  0.00     0.031 C 
ATOM     45  C   UNL A   1      37.851  34.395  34.530  1.00  0.00     0.029 A 
ATOM     46  C   UNL A   1      38.872  33.359  34.648  1.00  0.00     0.049 A 
ATOM     47  H   UNL A   1      39.420  31.951  33.215  1.00  0.00     0.167 HD
ATOM     48  C   UNL A   1      40.270  28.873  30.206  1.00  0.00     0.037 A 
ATOM     49  C   UNL A   1      39.645  33.145  35.729  1.00  0.00     0.037 A 
ATOM     50  C   UNL A   1      41.213  28.640  31.270  1.00  0.00     0.049 A 
ATOM     51  C   UNL A   1      40.650  32.024  35.701  1.00  0.00     0.074 A 
ATOM     52  C   UNL A   1      42.232  27.706  31.327  1.00  0.00     0.029 A 
ATOM     53  N   UNL A   1      41.245  29.343  32.465  1.00  0.00    -0.354 N 
ATOM     54  N   UNL A   1      40.912  31.171  34.741  1.00  0.00    -0.248 NA
ATOM     55  C   UNL A   1      41.471  31.838  36.906  1.00  0.00     0.031 C 
ATOM     56  C   UNL A   1      42.842  27.804  32.581  1.00  0.00     0.029 A 
ATOM     57  C   UNL A   1      42.248  28.843  33.279  1.00  0.00     0.049 A 
ATOM     58  H   UNL A   1      40.644  30.087  32.699  1.00  0.00     0.167 HD
ATOM     59  C   UNL A   1      41.946  30.372  35.210  1.00  0.00     0.074 A 
ATOM     60  C   UNL A   1      42.271  30.846  36.538  1.00  0.00     0.031 C 
ATOM     61  C   UNL A   1      42.571  29.339  34.594  1.00  0.00     0.037 A 
BRANCH  48  62
ATOM     62  C   UNL A   1      40.314  27.972  29.006  1.00  0.00     0.064 A 
ATOM     63  C   UNL A   1      41.063  28.297  27.865  1.00  0.00     0.173 A 
ATOM     64  C   UNL A   1      39.629  26.747  29.012  1.00  0.00     0.173 A 
ATOM     65  F   UNL A   1      41.730  29.460  27.803  1.00  0.00    -0.203 F 
ATOM     66  C   UNL A   1      41.099  27.447  26.763  1.00  0.00     0.198 A 
ATOM     67  C   UNL A   1      39.696  25.883  27.922  1.00  0.00     0.198 A 
ATOM     68  F   UNL A   1      38.903  26.382  30.079  1.00  0.00    -0.203 F 
ATOM     69  F   UNL A   1      41.778  27.804  25.665  1.00  0.00    -0.200 F 
ATOM     70  C   UNL A   1      40.422  26.237  26.795  1.00  0.00     0.200 A 
ATOM     71  F   UNL A   1      39.054  24.706  27.962  1.00  0.00    -0.200 F 
ATOM     72  F   UNL A   1      40.466  25.414  25.739  1.00  0.00    -0.200 F 
ENDBRANCH  48  62
BRANCH  49  73
ATOM     73  C   UNL A   1      39.507  34.016  36.927  1.00  0.00     0.064 A 
ATOM     74  C   UNL A   1      40.171  35.249  37.001  1.00  0.00     0.173 A 
ATOM     75  C   UNL A   1      38.720  33.634  38.023  1.00  0.00     0.173 A 
ATOM     76  F   UNL A   1      40.952  35.650  35.988  1.00  0.00    -0.203 F 
ATOM     77  C   UNL A   1      40.071  36.054  38.134  1.00  0.00     0.198 A 
ATOM     78  C   UNL A   1      38.595  34.454  39.142  1.00  0.00     0.198 A 
ATOM     79  F   UNL A   1      38.059  32.467  38.003  1.00  0.00    -0.203 F 
ATOM     80  F   UNL A   1      40.757  37.203  38.199  1.00  0.00    -0.200 F 
ATOM     81  C   UNL A   1      39.278  35.660  39.201  1.00  0.00     0.200 A 
ATOM     82  F   UNL A   1      37.814  34.077  40.163  1.00  0.00    -0.200 F 
ATOM     83  F   UNL A   1      39.179  36.436  40.288  1.00  0.00    -0.200 F 
ENDBRANCH  49  73
BRANCH  61  84
ATOM     84  C   UNL A   1      43.706  28.678  35.321  1.00  0.00     0.064 A 
ATOM     85  C   UNL A   1      45.032  29.111  35.176  1.00  0.00     0.173 A 
ATOM     86  C   UNL A   1      43.450  27.639  36.231  1.00  0.00     0.173 A 
ATOM     87  F   UNL A   1      45.331  30.089  34.308  1.00  0.00    -0.203 F 
ATOM     88  C   UNL A   1      46.061  28.518  35.902  1.00  0.00     0.198 A 
ATOM     89  C   UNL A   1      44.476  27.072  36.979  1.00  0.00     0.198 A 
ATOM     90  F   UNL A   1      42.199  27.193  36.413  1.00  0.00    -0.203 F 
ATOM     91  F   UNL A   1      47.326  28.921  35.717  1.00  0.00    -0.200 F 
ATOM     92  C   UNL A   1      45.781  27.508  36.811  1.00  0.00     0.200 A 
ATOM     93  F   UNL A   1      44.201  26.109  37.869  1.00  0.00    -0.200 F 
ATOM     94  F   UNL A   1      46.772  26.952  37.521  1.00  0.00    -0.200 F 
ENDBRANCH  61  84
ENDBRANCH  35  36
ENDBRANCH  27  30
ENDBRANCH  25  26
ENDBRANCH  24  25
ENDBRANCH   1  24
TORSDOF 14
ENDMDL
