MODEL 1
REMARK VINA RESULT:     -12.2      0.000      0.000
REMARK SMILES CC(=O)Oc1ccccc1C(=O)NCCCNC(=O)c1ccc(-c2c3nc(c(-c4c(F)c(F)c(F)c(F)c4F)c4ccc([nH]4)c(-c4c(F)c(F)c(F)c(F)c4F)c4nc(c(-c5c(F)c(F)c(F)c(F)c5F)c5ccc2[nH]5)C=C4)C=C3)cc1
REMARK SMILES IDX 15 1 14 2 13 3 11 4 12 5 10 7 5 8 6 9 7 10 9 11 8 12 4 13
REMARK SMILES IDX 2 14 1 15 3 16 16 17 17 18 18 19 19 21 20 22 21 23 82 24
REMARK SMILES IDX 22 25 81 26 23 27 24 28 25 29 75 30 26 31 80 32 74 33 76 34
REMARK SMILES IDX 27 35 79 36 73 37 72 38 28 40 60 41 40 42 59 43 41 44 44 45
REMARK SMILES IDX 58 46 77 47 42 48 43 49 57 51 78 52 45 53 29 54 30 55 38 56
REMARK SMILES IDX 31 57 32 58 36 59 39 60 33 61 34 62 37 63 35 64 61 65 62 66
REMARK SMILES IDX 70 67 63 68 64 69 68 70 71 71 65 72 66 73 69 74 67 75 46 76
REMARK SMILES IDX 47 77 55 78 48 79 49 80 53 81 56 82 50 83 51 84 54 85 52 86
REMARK H PARENT 13 6 17 20 76 39 44 50
REMARK Flexibility Score: inf
ROOT
ATOM      1  C   UNL A   1      31.458  32.010  26.492  1.00  0.00     0.042 C 
ENDROOT
BRANCH   1   2
ATOM      2  C   UNL A   1      31.634  30.529  26.265  1.00  0.00     0.118 C 
BRANCH   2   3
ATOM      3  N   UNL A   1      32.633  30.125  25.316  1.00  0.00    -0.352 N 
ATOM      4  C   UNL A   1      32.518  29.220  24.285  1.00  0.00     0.255 C 
ATOM      5  O   UNL A   1      33.476  29.127  23.515  1.00  0.00    -0.269 OA
ATOM      6  H   UNL A   1      33.515  30.550  25.416  1.00  0.00     0.163 HD
BRANCH   4   7
ATOM      7  C   UNL A   1      31.372  28.271  24.136  1.00  0.00     0.082 A 
ATOM      8  C   UNL A   1      30.347  28.260  23.177  1.00  0.00     0.143 A 
ATOM      9  C   UNL A   1      29.281  27.350  23.272  1.00  0.00     0.048 A 
ATOM     10  C   UNL A   1      29.246  26.404  24.291  1.00  0.00     0.004 A 
ATOM     11  C   UNL A   1      31.330  27.275  25.137  1.00  0.00     0.018 A 
ATOM     12  C   UNL A   1      30.280  26.355  25.217  1.00  0.00     0.001 A 
BRANCH   8  13
ATOM     13  O   UNL A   1      30.173  29.202  22.146  1.00  0.00    -0.426 OA
BRANCH  13  14
ATOM     14  C   UNL A   1      29.019  29.975  22.095  1.00  0.00     0.308 C 
ATOM     15  C   UNL A   1      29.002  30.886  23.294  1.00  0.00     0.139 C 
ATOM     16  O   UNL A   1      28.154  29.929  21.227  1.00  0.00    -0.252 OA
ENDBRANCH  13  14
ENDBRANCH   8  13
ENDBRANCH   4   7
ENDBRANCH   2   3
ENDBRANCH   1   2
BRANCH   1  17
ATOM     17  C   UNL A   1      32.603  32.685  27.229  1.00  0.00     0.118 C 
BRANCH  17  18
ATOM     18  N   UNL A   1      32.354  34.076  27.614  1.00  0.00    -0.352 N 
ATOM     19  C   UNL A   1      32.942  34.913  28.536  1.00  0.00     0.251 C 
ATOM     20  H   UNL A   1      31.620  34.497  27.112  1.00  0.00     0.163 HD
ATOM     21  O   UNL A   1      32.450  36.022  28.734  1.00  0.00    -0.269 OA
BRANCH  19  22
ATOM     22  C   UNL A   1      34.119  34.490  29.329  1.00  0.00     0.039 A 
ATOM     23  C   UNL A   1      33.933  33.961  30.612  1.00  0.00     0.014 A 
ATOM     24  C   UNL A   1      35.410  34.606  28.826  1.00  0.00     0.014 A 
ATOM     25  C   UNL A   1      35.025  33.447  31.321  1.00  0.00     0.010 A 
ATOM     26  C   UNL A   1      36.462  33.952  29.452  1.00  0.00     0.010 A 
ATOM     27  C   UNL A   1      36.290  33.377  30.717  1.00  0.00    -0.014 A 
BRANCH  27  28
ATOM     28  C   UNL A   1      37.456  32.736  31.382  1.00  0.00     0.031 A 
ATOM     29  C   UNL A   1      38.162  31.582  30.713  1.00  0.00     0.074 A 
ATOM     30  C   UNL A   1      37.814  33.117  32.625  1.00  0.00     0.049 A 
ATOM     31  N   UNL A   1      39.108  30.806  31.179  1.00  0.00    -0.248 NA
ATOM     32  C   UNL A   1      37.711  31.219  29.359  1.00  0.00     0.031 C 
ATOM     33  C   UNL A   1      37.163  34.168  33.412  1.00  0.00     0.029 A 
ATOM     34  N   UNL A   1      38.805  32.653  33.454  1.00  0.00    -0.354 N 
ATOM     35  C   UNL A   1      39.334  29.854  30.192  1.00  0.00     0.074 A 
ATOM     36  C   UNL A   1      38.380  30.100  29.136  1.00  0.00     0.031 C 
ATOM     37  C   UNL A   1      37.792  34.291  34.591  1.00  0.00     0.029 A 
ATOM     38  C   UNL A   1      38.859  33.299  34.666  1.00  0.00     0.049 A 
ATOM     39  H   UNL A   1      39.420  31.927  33.204  1.00  0.00     0.167 HD
ATOM     40  C   UNL A   1      40.277  28.883  30.153  1.00  0.00     0.037 A 
ATOM     41  C   UNL A   1      39.671  33.106  35.723  1.00  0.00     0.037 A 
ATOM     42  C   UNL A   1      41.260  28.678  31.182  1.00  0.00     0.049 A 
ATOM     43  C   UNL A   1      40.729  32.037  35.642  1.00  0.00     0.074 A 
ATOM     44  C   UNL A   1      42.313  27.781  31.201  1.00  0.00     0.029 A 
ATOM     45  N   UNL A   1      41.311  29.385  32.374  1.00  0.00    -0.354 N 
ATOM     46  N   UNL A   1      40.987  31.200  34.668  1.00  0.00    -0.248 NA
ATOM     47  C   UNL A   1      41.614  31.892  36.806  1.00  0.00     0.031 C 
ATOM     48  C   UNL A   1      42.969  27.908  32.429  1.00  0.00     0.029 A 
ATOM     49  C   UNL A   1      42.363  28.927  33.148  1.00  0.00     0.049 A 
ATOM     50  H   UNL A   1      40.690  30.104  32.632  1.00  0.00     0.167 HD
ATOM     51  C   UNL A   1      42.080  30.452  35.085  1.00  0.00     0.074 A 
ATOM     52  C   UNL A   1      42.447  30.948  36.395  1.00  0.00     0.031 C 
ATOM     53  C   UNL A   1      42.719  29.443  34.445  1.00  0.00     0.037 A 
BRANCH  40  54
ATOM     54  C   UNL A   1      40.303  27.979  28.952  1.00  0.00     0.064 A 
ATOM     55  C   UNL A   1      41.044  28.298  27.803  1.00  0.00     0.173 A 
ATOM     56  C   UNL A   1      39.613  26.757  28.967  1.00  0.00     0.173 A 
ATOM     57  F   UNL A   1      41.711  29.459  27.730  1.00  0.00    -0.203 F 
ATOM     58  C   UNL A   1      41.066  27.443  26.703  1.00  0.00     0.198 A 
ATOM     59  C   UNL A   1      39.669  25.888  27.879  1.00  0.00     0.198 A 
ATOM     60  F   UNL A   1      38.893  26.399  30.040  1.00  0.00    -0.203 F 
ATOM     61  F   UNL A   1      41.737  27.795  25.597  1.00  0.00    -0.200 F 
ATOM     62  C   UNL A   1      40.388  26.235  26.746  1.00  0.00     0.200 A 
ATOM     63  F   UNL A   1      39.023  24.714  27.929  1.00  0.00    -0.200 F 
ATOM     64  F   UNL A   1      40.422  25.408  25.692  1.00  0.00    -0.200 F 
ENDBRANCH  40  54
BRANCH  41  65
ATOM     65  C   UNL A   1      39.537  33.956  36.937  1.00  0.00     0.064 A 
ATOM     66  C   UNL A   1      38.779  33.527  38.038  1.00  0.00     0.173 A 
ATOM     67  C   UNL A   1      40.146  35.217  37.022  1.00  0.00     0.173 A 
ATOM     68  F   UNL A   1      38.162  32.337  38.000  1.00  0.00    -0.203 F 
ATOM     69  C   UNL A   1      38.611  34.337  39.159  1.00  0.00     0.198 A 
ATOM     70  C   UNL A   1      40.006  36.012  38.158  1.00  0.00     0.198 A 
ATOM     71  F   UNL A   1      40.889  35.673  36.002  1.00  0.00    -0.203 F 
ATOM     72  F   UNL A   1      37.836  33.923  40.170  1.00  0.00    -0.200 F 
ATOM     73  C   UNL A   1      39.228  35.576  39.221  1.00  0.00     0.200 A 
ATOM     74  F   UNL A   1      40.619  37.201  38.220  1.00  0.00    -0.200 F 
ATOM     75  F   UNL A   1      39.070  36.354  40.300  1.00  0.00    -0.200 F 
ENDBRANCH  41  65
BRANCH  53  76
ATOM     76  C   UNL A   1      43.909  28.835  35.132  1.00  0.00     0.064 A 
ATOM     77  C   UNL A   1      45.210  29.314  34.916  1.00  0.00     0.173 A 
ATOM     78  C   UNL A   1      43.736  27.788  36.050  1.00  0.00     0.173 A 
ATOM     79  F   UNL A   1      45.428  30.304  34.037  1.00  0.00    -0.203 F 
ATOM     80  C   UNL A   1      46.297  28.748  35.574  1.00  0.00     0.198 A 
ATOM     81  C   UNL A   1      44.822  27.249  36.733  1.00  0.00     0.198 A 
ATOM     82  F   UNL A   1      42.512  27.301  36.300  1.00  0.00    -0.203 F 
ATOM     83  F   UNL A   1      47.537  29.185  35.313  1.00  0.00    -0.200 F 
ATOM     84  C   UNL A   1      46.102  27.722  36.488  1.00  0.00     0.200 A 
ATOM     85  F   UNL A   1      44.630  26.271  37.628  1.00  0.00    -0.200 F 
ATOM     86  F   UNL A   1      47.150  27.185  37.127  1.00  0.00    -0.200 F 
ENDBRANCH  53  76
ENDBRANCH  27  28
ENDBRANCH  19  22
ENDBRANCH  17  18
ENDBRANCH   1  17
TORSDOF 12
ENDMDL
MODEL 2
REMARK VINA RESULT:     -12.1      0.105      1.663
REMARK SMILES CC(=O)Oc1ccccc1C(=O)NCCCNC(=O)c1ccc(-c2c3nc(c(-c4c(F)c(F)c(F)c(F)c4F)c4ccc([nH]4)c(-c4c(F)c(F)c(F)c(F)c4F)c4nc(c(-c5c(F)c(F)c(F)c(F)c5F)c5ccc2[nH]5)C=C4)C=C3)cc1
REMARK SMILES IDX 15 1 14 2 13 3 11 4 12 5 10 7 5 8 6 9 7 10 9 11 8 12 4 13
REMARK SMILES IDX 2 14 1 15 3 16 16 17 17 18 18 19 19 21 20 22 21 23 82 24
REMARK SMILES IDX 22 25 81 26 23 27 24 28 25 29 75 30 26 31 80 32 74 33 76 34
REMARK SMILES IDX 27 35 79 36 73 37 72 38 28 40 60 41 40 42 59 43 41 44 44 45
REMARK SMILES IDX 58 46 77 47 42 48 43 49 57 51 78 52 45 53 29 54 30 55 38 56
REMARK SMILES IDX 31 57 32 58 36 59 39 60 33 61 34 62 37 63 35 64 61 65 62 66
REMARK SMILES IDX 70 67 63 68 64 69 68 70 71 71 65 72 66 73 69 74 67 75 46 76
REMARK SMILES IDX 47 77 55 78 48 79 49 80 53 81 56 82 50 83 51 84 54 85 52 86
REMARK H PARENT 13 6 17 20 76 39 44 50
REMARK Flexibility Score: inf
ROOT
ATOM      1  C   UNL A   1      31.492  32.000  26.554  1.00  0.00     0.042 C 
ENDROOT
BRANCH   1   2
ATOM      2  C   UNL A   1      31.665  30.514  26.355  1.00  0.00     0.118 C 
BRANCH   2   3
ATOM      3  N   UNL A   1      32.691  30.090  25.444  1.00  0.00    -0.352 N 
ATOM      4  C   UNL A   1      32.587  29.217  24.385  1.00  0.00     0.255 C 
ATOM      5  O   UNL A   1      33.577  29.100  23.659  1.00  0.00    -0.269 OA
ATOM      6  H   UNL A   1      33.584  30.472  25.597  1.00  0.00     0.163 HD
BRANCH   4   7
ATOM      7  C   UNL A   1      31.410  28.323  24.156  1.00  0.00     0.082 A 
ATOM      8  C   UNL A   1      30.395  28.422  23.191  1.00  0.00     0.143 A 
ATOM      9  C   UNL A   1      29.296  27.546  23.209  1.00  0.00     0.048 A 
ATOM     10  C   UNL A   1      29.219  26.527  24.154  1.00  0.00     0.004 A 
ATOM     11  C   UNL A   1      31.323  27.257  25.077  1.00  0.00     0.018 A 
ATOM     12  C   UNL A   1      30.241  26.371  25.080  1.00  0.00     0.001 A 
BRANCH   8  13
ATOM     13  O   UNL A   1      30.264  29.445  22.235  1.00  0.00    -0.426 OA
BRANCH  13  14
ATOM     14  C   UNL A   1      29.063  30.132  22.108  1.00  0.00     0.308 C 
ATOM     15  C   UNL A   1      28.904  31.039  23.301  1.00  0.00     0.139 C 
ATOM     16  O   UNL A   1      28.260  30.024  21.188  1.00  0.00    -0.252 OA
ENDBRANCH  13  14
ENDBRANCH   8  13
ENDBRANCH   4   7
ENDBRANCH   2   3
ENDBRANCH   1   2
BRANCH   1  17
ATOM     17  C   UNL A   1      32.646  32.689  27.263  1.00  0.00     0.118 C 
BRANCH  17  18
ATOM     18  N   UNL A   1      32.395  34.080  27.642  1.00  0.00    -0.352 N 
ATOM     19  C   UNL A   1      32.978  34.921  28.563  1.00  0.00     0.251 C 
ATOM     20  H   UNL A   1      31.662  34.500  27.135  1.00  0.00     0.163 HD
ATOM     21  O   UNL A   1      32.484  36.031  28.756  1.00  0.00    -0.269 OA
BRANCH  19  22
ATOM     22  C   UNL A   1      34.152  34.502  29.363  1.00  0.00     0.039 A 
ATOM     23  C   UNL A   1      33.962  33.991  30.653  1.00  0.00     0.014 A 
ATOM     24  C   UNL A   1      35.444  34.604  28.859  1.00  0.00     0.014 A 
ATOM     25  C   UNL A   1      35.051  33.480  31.369  1.00  0.00     0.010 A 
ATOM     26  C   UNL A   1      36.491  33.953  29.495  1.00  0.00     0.010 A 
ATOM     27  C   UNL A   1      36.315  33.395  30.767  1.00  0.00    -0.014 A 
BRANCH  27  28
ATOM     28  C   UNL A   1      37.477  32.756  31.441  1.00  0.00     0.031 A 
ATOM     29  C   UNL A   1      38.184  31.597  30.783  1.00  0.00     0.074 A 
ATOM     30  C   UNL A   1      37.831  33.144  32.684  1.00  0.00     0.049 A 
ATOM     31  N   UNL A   1      39.128  30.823  31.258  1.00  0.00    -0.248 NA
ATOM     32  C   UNL A   1      37.739  31.227  29.429  1.00  0.00     0.031 C 
ATOM     33  C   UNL A   1      37.178  34.201  33.461  1.00  0.00     0.029 A 
ATOM     34  N   UNL A   1      38.818  32.684  33.520  1.00  0.00    -0.354 N 
ATOM     35  C   UNL A   1      39.356  29.863  30.278  1.00  0.00     0.074 A 
ATOM     36  C   UNL A   1      38.407  30.105  29.216  1.00  0.00     0.031 C 
ATOM     37  C   UNL A   1      37.802  34.331  34.642  1.00  0.00     0.029 A 
ATOM     38  C   UNL A   1      38.867  33.338  34.728  1.00  0.00     0.049 A 
ATOM     39  H   UNL A   1      39.433  31.956  33.277  1.00  0.00     0.167 HD
ATOM     40  C   UNL A   1      40.298  28.891  30.249  1.00  0.00     0.037 A 
ATOM     41  C   UNL A   1      39.674  33.150  35.790  1.00  0.00     0.037 A 
ATOM     42  C   UNL A   1      41.276  28.690  31.284  1.00  0.00     0.049 A 
ATOM     43  C   UNL A   1      40.730  32.078  35.720  1.00  0.00     0.074 A 
ATOM     44  C   UNL A   1      42.327  27.792  31.313  1.00  0.00     0.029 A 
ATOM     45  N   UNL A   1      41.322  29.405  32.472  1.00  0.00    -0.354 N 
ATOM     46  N   UNL A   1      40.991  31.235  34.752  1.00  0.00    -0.248 NA
ATOM     47  C   UNL A   1      41.610  31.940  36.889  1.00  0.00     0.031 C 
ATOM     48  C   UNL A   1      42.978  27.926  32.544  1.00  0.00     0.029 A 
ATOM     49  C   UNL A   1      42.370  28.950  33.253  1.00  0.00     0.049 A 
ATOM     50  H   UNL A   1      40.702  30.127  32.723  1.00  0.00     0.167 HD
ATOM     51  C   UNL A   1      42.081  30.487  35.179  1.00  0.00     0.074 A 
ATOM     52  C   UNL A   1      42.444  30.991  36.487  1.00  0.00     0.031 C 
ATOM     53  C   UNL A   1      42.722  29.474  34.548  1.00  0.00     0.037 A 
BRANCH  40  54
ATOM     54  C   UNL A   1      40.327  27.980  29.054  1.00  0.00     0.064 A 
ATOM     55  C   UNL A   1      39.595  26.782  29.018  1.00  0.00     0.173 A 
ATOM     56  C   UNL A   1      41.062  28.331  27.910  1.00  0.00     0.173 A 
ATOM     57  F   UNL A   1      38.886  26.393  30.088  1.00  0.00    -0.203 F 
ATOM     58  C   UNL A   1      39.624  25.956  27.898  1.00  0.00     0.198 A 
ATOM     59  C   UNL A   1      41.059  27.519  26.778  1.00  0.00     0.198 A 
ATOM     60  F   UNL A   1      41.776  29.465  27.886  1.00  0.00    -0.203 F 
ATOM     61  F   UNL A   1      38.961  24.791  27.910  1.00  0.00    -0.200 F 
ATOM     62  C   UNL A   1      40.347  26.329  26.775  1.00  0.00     0.200 A 
ATOM     63  F   UNL A   1      41.747  27.889  25.689  1.00  0.00    -0.200 F 
ATOM     64  F   UNL A   1      40.363  25.539  25.694  1.00  0.00    -0.200 F 
ENDBRANCH  40  54
BRANCH  41  65
ATOM     65  C   UNL A   1      39.536  34.008  36.998  1.00  0.00     0.064 A 
ATOM     66  C   UNL A   1      38.779  33.583  38.101  1.00  0.00     0.173 A 
ATOM     67  C   UNL A   1      40.140  35.271  37.074  1.00  0.00     0.173 A 
ATOM     68  F   UNL A   1      38.167  32.390  38.072  1.00  0.00    -0.203 F 
ATOM     69  C   UNL A   1      38.608  34.400  39.217  1.00  0.00     0.198 A 
ATOM     70  C   UNL A   1      39.996  36.074  38.205  1.00  0.00     0.198 A 
ATOM     71  F   UNL A   1      40.882  35.724  36.052  1.00  0.00    -0.203 F 
ATOM     72  F   UNL A   1      37.833  33.991  40.231  1.00  0.00    -0.200 F 
ATOM     73  C   UNL A   1      39.220  35.642  39.270  1.00  0.00     0.200 A 
ATOM     74  F   UNL A   1      40.604  37.266  38.259  1.00  0.00    -0.200 F 
ATOM     75  F   UNL A   1      39.058  36.427  40.344  1.00  0.00    -0.200 F 
ENDBRANCH  41  65
BRANCH  53  76
ATOM     76  C   UNL A   1      43.907  28.868  35.244  1.00  0.00     0.064 A 
ATOM     77  C   UNL A   1      43.767  27.806  36.149  1.00  0.00     0.173 A 
ATOM     78  C   UNL A   1      45.203  29.330  34.965  1.00  0.00     0.173 A 
ATOM     79  F   UNL A   1      42.549  27.338  36.460  1.00  0.00    -0.203 F 
ATOM     80  C   UNL A   1      44.880  27.247  36.772  1.00  0.00     0.198 A 
ATOM     81  C   UNL A   1      46.314  28.745  35.563  1.00  0.00     0.198 A 
ATOM     82  F   UNL A   1      45.391  30.337  34.099  1.00  0.00    -0.203 F 
ATOM     83  F   UNL A   1      44.719  26.269  37.674  1.00  0.00    -0.200 F 
ATOM     84  C   UNL A   1      46.153  27.711  36.472  1.00  0.00     0.200 A 
ATOM     85  F   UNL A   1      47.544  29.182  35.258  1.00  0.00    -0.200 F 
ATOM     86  F   UNL A   1      47.223  27.165  37.066  1.00  0.00    -0.200 F 
ENDBRANCH  53  76
ENDBRANCH  27  28
ENDBRANCH  19  22
ENDBRANCH  17  18
ENDBRANCH   1  17
TORSDOF 12
ENDMDL
MODEL 3
REMARK VINA RESULT:     -12.0      6.670     11.778
REMARK SMILES CC(=O)Oc1ccccc1C(=O)NCCCNC(=O)c1ccc(-c2c3nc(c(-c4c(F)c(F)c(F)c(F)c4F)c4ccc([nH]4)c(-c4c(F)c(F)c(F)c(F)c4F)c4nc(c(-c5c(F)c(F)c(F)c(F)c5F)c5ccc2[nH]5)C=C4)C=C3)cc1
REMARK SMILES IDX 15 1 14 2 13 3 11 4 12 5 10 7 5 8 6 9 7 10 9 11 8 12 4 13
REMARK SMILES IDX 2 14 1 15 3 16 16 17 17 18 18 19 19 21 20 22 21 23 82 24
REMARK SMILES IDX 22 25 81 26 23 27 24 28 25 29 75 30 26 31 80 32 74 33 76 34
REMARK SMILES IDX 27 35 79 36 73 37 72 38 28 40 60 41 40 42 59 43 41 44 44 45
REMARK SMILES IDX 58 46 77 47 42 48 43 49 57 51 78 52 45 53 29 54 30 55 38 56
REMARK SMILES IDX 31 57 32 58 36 59 39 60 33 61 34 62 37 63 35 64 61 65 62 66
REMARK SMILES IDX 70 67 63 68 64 69 68 70 71 71 65 72 66 73 69 74 67 75 46 76
REMARK SMILES IDX 47 77 55 78 48 79 49 80 53 81 56 82 50 83 51 84 54 85 52 86
REMARK H PARENT 13 6 17 20 76 39 44 50
REMARK Flexibility Score: inf
ROOT
ATOM      1  C   UNL A   1      37.747  19.916  24.888  1.00  0.00     0.042 C 
ENDROOT
BRANCH   1   2
ATOM      2  C   UNL A   1      36.674  20.973  24.805  1.00  0.00     0.118 C 
BRANCH   2   3
ATOM      3  N   UNL A   1      35.791  21.103  25.931  1.00  0.00    -0.352 N 
ATOM      4  C   UNL A   1      34.416  21.068  25.947  1.00  0.00     0.255 C 
ATOM      5  O   UNL A   1      33.871  21.072  27.053  1.00  0.00    -0.269 OA
ATOM      6  H   UNL A   1      36.227  21.233  26.803  1.00  0.00     0.163 HD
BRANCH   4   7
ATOM      7  C   UNL A   1      33.566  21.161  24.720  1.00  0.00     0.082 A 
ATOM      8  C   UNL A   1      32.830  20.158  24.071  1.00  0.00     0.143 A 
ATOM      9  C   UNL A   1      32.184  20.413  22.850  1.00  0.00     0.048 A 
ATOM     10  C   UNL A   1      32.217  21.683  22.284  1.00  0.00     0.004 A 
ATOM     11  C   UNL A   1      33.550  22.450  24.141  1.00  0.00     0.018 A 
ATOM     12  C   UNL A   1      32.888  22.708  22.937  1.00  0.00     0.001 A 
BRANCH   8  13
ATOM     13  O   UNL A   1      32.775  18.803  24.447  1.00  0.00    -0.426 OA
BRANCH  13  14
ATOM     14  C   UNL A   1      33.469  17.847  23.717  1.00  0.00     0.308 C 
ATOM     15  C   UNL A   1      34.811  17.632  24.367  1.00  0.00     0.139 C 
ATOM     16  O   UNL A   1      33.069  17.271  22.710  1.00  0.00    -0.252 OA
ENDBRANCH  13  14
ENDBRANCH   8  13
ENDBRANCH   4   7
ENDBRANCH   2   3
ENDBRANCH   1   2
BRANCH   1  17
ATOM     17  C   UNL A   1      38.969  20.307  25.702  1.00  0.00     0.118 C 
BRANCH  17  18
ATOM     18  N   UNL A   1      39.991  19.265  25.821  1.00  0.00    -0.352 N 
ATOM     19  C   UNL A   1      41.343  19.303  26.077  1.00  0.00     0.251 C 
ATOM     20  H   UNL A   1      39.640  18.354  25.692  1.00  0.00     0.163 HD
ATOM     21  O   UNL A   1      41.993  18.261  26.008  1.00  0.00    -0.269 OA
BRANCH  19  22
ATOM     22  C   UNL A   1      42.040  20.573  26.383  1.00  0.00     0.039 A 
ATOM     23  C   UNL A   1      42.463  21.398  25.333  1.00  0.00     0.014 A 
ATOM     24  C   UNL A   1      42.285  20.968  27.694  1.00  0.00     0.014 A 
ATOM     25  C   UNL A   1      43.013  22.655  25.611  1.00  0.00     0.010 A 
ATOM     26  C   UNL A   1      42.674  22.271  27.966  1.00  0.00     0.010 A 
ATOM     27  C   UNL A   1      43.060  23.130  26.930  1.00  0.00    -0.014 A 
BRANCH  27  28
ATOM     28  C   UNL A   1      43.527  24.502  27.267  1.00  0.00     0.031 A 
ATOM     29  C   UNL A   1      42.549  25.519  27.800  1.00  0.00     0.074 A 
ATOM     30  C   UNL A   1      44.798  24.864  26.999  1.00  0.00     0.049 A 
ATOM     31  N   UNL A   1      42.723  26.797  28.030  1.00  0.00    -0.248 NA
ATOM     32  C   UNL A   1      41.177  25.051  28.062  1.00  0.00     0.031 C 
ATOM     33  C   UNL A   1      45.823  23.996  26.413  1.00  0.00     0.029 A 
ATOM     34  N   UNL A   1      45.444  26.064  27.170  1.00  0.00    -0.354 N 
ATOM     35  C   UNL A   1      41.481  27.280  28.426  1.00  0.00     0.074 A 
ATOM     36  C   UNL A   1      40.548  26.182  28.336  1.00  0.00     0.031 C 
ATOM     37  C   UNL A   1      46.973  24.680  26.305  1.00  0.00     0.029 A 
ATOM     38  C   UNL A   1      46.758  26.046  26.769  1.00  0.00     0.049 A 
ATOM     39  H   UNL A   1      45.006  26.861  27.546  1.00  0.00     0.167 HD
ATOM     40  C   UNL A   1      41.156  28.520  28.863  1.00  0.00     0.037 A 
ATOM     41  C   UNL A   1      47.683  27.025  26.766  1.00  0.00     0.037 A 
ATOM     42  C   UNL A   1      42.102  29.595  29.004  1.00  0.00     0.049 A 
ATOM     43  C   UNL A   1      47.302  28.388  27.282  1.00  0.00     0.074 A 
ATOM     44  C   UNL A   1      41.896  30.862  29.518  1.00  0.00     0.029 A 
ATOM     45  N   UNL A   1      43.436  29.523  28.630  1.00  0.00    -0.354 N 
ATOM     46  N   UNL A   1      46.146  28.808  27.734  1.00  0.00    -0.248 NA
ATOM     47  C   UNL A   1      48.358  29.410  27.293  1.00  0.00     0.031 C 
ATOM     48  C   UNL A   1      43.093  31.576  29.406  1.00  0.00     0.029 A 
ATOM     49  C   UNL A   1      44.060  30.733  28.880  1.00  0.00     0.049 A 
ATOM     50  H   UNL A   1      43.874  28.730  28.245  1.00  0.00     0.167 HD
ATOM     51  C   UNL A   1      46.342  30.130  28.113  1.00  0.00     0.074 A 
ATOM     52  C   UNL A   1      47.733  30.435  27.854  1.00  0.00     0.031 C 
ATOM     53  C   UNL A   1      45.450  31.013  28.626  1.00  0.00     0.037 A 
BRANCH  40  54
ATOM     54  C   UNL A   1      39.723  28.779  29.236  1.00  0.00     0.064 A 
ATOM     55  C   UNL A   1      39.245  28.554  30.536  1.00  0.00     0.173 A 
ATOM     56  C   UNL A   1      38.826  29.300  28.291  1.00  0.00     0.173 A 
ATOM     57  F   UNL A   1      40.057  28.045  31.475  1.00  0.00    -0.203 F 
ATOM     58  C   UNL A   1      37.917  28.810  30.868  1.00  0.00     0.198 A 
ATOM     59  C   UNL A   1      37.508  29.590  28.637  1.00  0.00     0.198 A 
ATOM     60  F   UNL A   1      39.228  29.539  27.034  1.00  0.00    -0.203 F 
ATOM     61  F   UNL A   1      37.472  28.536  32.102  1.00  0.00    -0.200 F 
ATOM     62  C   UNL A   1      37.053  29.338  29.921  1.00  0.00     0.200 A 
ATOM     63  F   UNL A   1      36.677  30.113  27.723  1.00  0.00    -0.200 F 
ATOM     64  F   UNL A   1      35.778  29.596  30.246  1.00  0.00    -0.200 F 
ENDBRANCH  40  54
BRANCH  41  65
ATOM     65  C   UNL A   1      49.064  26.750  26.284  1.00  0.00     0.064 A 
ATOM     66  C   UNL A   1      49.422  26.989  24.948  1.00  0.00     0.173 A 
ATOM     67  C   UNL A   1      50.049  26.232  27.137  1.00  0.00     0.173 A 
ATOM     68  F   UNL A   1      48.512  27.468  24.088  1.00  0.00    -0.203 F 
ATOM     69  C   UNL A   1      50.701  26.691  24.480  1.00  0.00     0.198 A 
ATOM     70  C   UNL A   1      51.337  25.967  26.675  1.00  0.00     0.198 A 
ATOM     71  F   UNL A   1      49.764  25.993  28.426  1.00  0.00    -0.203 F 
ATOM     72  F   UNL A   1      50.996  26.877  23.186  1.00  0.00    -0.200 F 
ATOM     73  C   UNL A   1      51.658  26.186  25.344  1.00  0.00     0.200 A 
ATOM     74  F   UNL A   1      52.265  25.494  27.519  1.00  0.00    -0.200 F 
ATOM     75  F   UNL A   1      52.888  25.901  24.895  1.00  0.00    -0.200 F 
ENDBRANCH  41  65
BRANCH  53  76
ATOM     76  C   UNL A   1      45.959  32.380  28.980  1.00  0.00     0.064 A 
ATOM     77  C   UNL A   1      45.930  33.439  28.061  1.00  0.00     0.173 A 
ATOM     78  C   UNL A   1      46.441  32.643  30.272  1.00  0.00     0.173 A 
ATOM     79  F   UNL A   1      45.492  33.235  26.809  1.00  0.00    -0.203 F 
ATOM     80  C   UNL A   1      46.393  34.704  28.413  1.00  0.00     0.198 A 
ATOM     81  C   UNL A   1      46.868  33.917  30.631  1.00  0.00     0.198 A 
ATOM     82  F   UNL A   1      46.480  31.667  31.191  1.00  0.00    -0.203 F 
ATOM     83  F   UNL A   1      46.406  35.687  27.503  1.00  0.00    -0.200 F 
ATOM     84  C   UNL A   1      46.853  34.944  29.700  1.00  0.00     0.200 A 
ATOM     85  F   UNL A   1      47.295  34.151  31.879  1.00  0.00    -0.200 F 
ATOM     86  F   UNL A   1      47.288  36.165  30.040  1.00  0.00    -0.200 F 
ENDBRANCH  53  76
ENDBRANCH  27  28
ENDBRANCH  19  22
ENDBRANCH  17  18
ENDBRANCH   1  17
TORSDOF 12
ENDMDL
