MODEL 1
REMARK VINA RESULT:     -12.6      0.000      0.000
REMARK SMILES O=C(NCCCNC(=O)C1(C/C=C/c2ccccc2)CCCCC1)c1ccc(-c2c3nc(c(-c4c(F)c(F)c(F)c(F)c4F)c4ccc([nH]4)c(-c4c(F)c(F)c(F)c(F)c4F)c4nc(c(-c5c(F)c(F)c(F)c(F)c5F)c5ccc2[nH]5)C=C4)C=C3)cc1
REMARK SMILES IDX 5 1 4 2 3 3 1 4 2 5 25 7 26 8 87 9 27 10 86 11 28 12 29 13
REMARK SMILES IDX 30 14 80 15 31 16 85 17 79 18 81 19 32 20 84 21 78 22 77 23
REMARK SMILES IDX 33 25 65 26 45 27 64 28 46 29 49 30 63 31 82 32 47 33 48 34
REMARK SMILES IDX 62 36 83 37 50 38 34 39 35 40 43 41 36 42 37 43 41 44 44 45
REMARK SMILES IDX 38 46 39 47 42 48 40 49 66 50 67 51 75 52 68 53 69 54 73 55
REMARK SMILES IDX 76 56 70 57 71 58 74 59 72 60 51 61 52 62 60 63 53 64 54 65
REMARK SMILES IDX 58 66 61 67 55 68 56 69 59 70 57 71 6 72 7 73 8 74 9 76
REMARK SMILES IDX 10 77 20 78 24 79 21 80 23 81 22 82 11 83 12 84 13 85 14 86
REMARK SMILES IDX 15 87 19 88 16 89 18 90 17 91
REMARK H PARENT 3 6 81 24 49 35 7 75
REMARK Flexibility Score: inf
ROOT
ATOM      1  C   UNL A   1      33.462  28.997  23.739  1.00  0.00     0.042 C 
ENDROOT
BRANCH   1   2
ATOM      2  C   UNL A   1      33.280  28.969  25.251  1.00  0.00     0.118 C 
BRANCH   2   3
ATOM      3  N   UNL A   1      32.789  30.243  25.774  1.00  0.00    -0.352 N 
ATOM      4  O   UNL A   1      32.500  31.908  27.262  1.00  0.00    -0.269 OA
ATOM      5  C   UNL A   1      33.208  31.000  26.842  1.00  0.00     0.251 C 
ATOM      6  H   UNL A   1      32.029  30.624  25.276  1.00  0.00     0.163 HD
BRANCH   5   7
ATOM      7  C   UNL A   1      34.503  30.714  27.492  1.00  0.00     0.039 A 
ATOM      8  C   UNL A   1      34.805  29.424  27.921  1.00  0.00     0.014 A 
ATOM      9  C   UNL A   1      35.440  31.741  27.655  1.00  0.00     0.014 A 
ATOM     10  C   UNL A   1      35.935  29.202  28.692  1.00  0.00     0.010 A 
ATOM     11  C   UNL A   1      36.643  31.483  28.320  1.00  0.00     0.010 A 
ATOM     12  C   UNL A   1      36.878  30.223  28.889  1.00  0.00    -0.014 A 
BRANCH  12  13
ATOM     13  C   UNL A   1      38.109  29.916  29.661  1.00  0.00     0.031 A 
ATOM     14  C   UNL A   1      38.288  30.410  31.070  1.00  0.00     0.074 A 
ATOM     15  C   UNL A   1      39.042  29.123  29.096  1.00  0.00     0.049 A 
ATOM     16  N   UNL A   1      39.270  30.182  31.905  1.00  0.00    -0.248 NA
ATOM     17  C   UNL A   1      37.234  31.283  31.611  1.00  0.00     0.031 C 
ATOM     18  C   UNL A   1      38.979  28.591  27.733  1.00  0.00     0.029 A 
ATOM     19  N   UNL A   1      40.202  28.597  29.602  1.00  0.00    -0.354 N 
ATOM     20  C   UNL A   1      38.970  30.902  33.054  1.00  0.00     0.074 A 
ATOM     21  C   UNL A   1      37.727  31.597  32.802  1.00  0.00     0.031 C 
ATOM     22  C   UNL A   1      40.011  27.760  27.535  1.00  0.00     0.029 A 
ATOM     23  C   UNL A   1      40.849  27.759  28.727  1.00  0.00     0.049 A 
ATOM     24  H   UNL A   1      40.538  28.799  30.505  1.00  0.00     0.167 HD
ATOM     25  C   UNL A   1      39.666  30.967  34.215  1.00  0.00     0.037 A 
ATOM     26  C   UNL A   1      41.999  27.074  28.863  1.00  0.00     0.037 A 
ATOM     27  C   UNL A   1      40.892  30.252  34.465  1.00  0.00     0.049 A 
ATOM     28  C   UNL A   1      42.754  27.178  30.157  1.00  0.00     0.074 A 
ATOM     29  C   UNL A   1      41.654  30.221  35.620  1.00  0.00     0.029 A 
ATOM     30  N   UNL A   1      41.537  29.440  33.540  1.00  0.00    -0.354 N 
ATOM     31  N   UNL A   1      42.441  27.835  31.247  1.00  0.00    -0.248 NA
ATOM     32  C   UNL A   1      44.023  26.447  30.236  1.00  0.00     0.031 C 
ATOM     33  C   UNL A   1      42.788  29.437  35.376  1.00  0.00     0.029 A 
ATOM     34  C   UNL A   1      42.700  28.925  34.091  1.00  0.00     0.049 A 
ATOM     35  H   UNL A   1      41.215  29.258  32.627  1.00  0.00     0.167 HD
ATOM     36  C   UNL A   1      43.458  27.574  32.153  1.00  0.00     0.074 A 
ATOM     37  C   UNL A   1      44.387  26.682  31.489  1.00  0.00     0.031 C 
ATOM     38  C   UNL A   1      43.609  28.031  33.420  1.00  0.00     0.037 A 
BRANCH  25  39
ATOM     39  C   UNL A   1      39.137  31.866  35.298  1.00  0.00     0.064 A 
ATOM     40  C   UNL A   1      38.361  31.377  36.359  1.00  0.00     0.173 A 
ATOM     41  C   UNL A   1      39.446  33.236  35.294  1.00  0.00     0.173 A 
ATOM     42  F   UNL A   1      38.025  30.079  36.408  1.00  0.00    -0.203 F 
ATOM     43  C   UNL A   1      37.891  32.228  37.358  1.00  0.00     0.198 A 
ATOM     44  C   UNL A   1      39.002  34.077  36.310  1.00  0.00     0.198 A 
ATOM     45  F   UNL A   1      40.191  33.758  34.307  1.00  0.00    -0.203 F 
ATOM     46  F   UNL A   1      37.109  31.745  38.334  1.00  0.00    -0.200 F 
ATOM     47  C   UNL A   1      38.218  33.575  37.336  1.00  0.00     0.200 A 
ATOM     48  F   UNL A   1      39.332  35.377  36.294  1.00  0.00    -0.200 F 
ATOM     49  F   UNL A   1      37.771  34.391  38.302  1.00  0.00    -0.200 F 
ENDBRANCH  25  39
BRANCH  26  50
ATOM     50  C   UNL A   1      42.497  26.231  27.744  1.00  0.00     0.064 A 
ATOM     51  C   UNL A   1      42.085  24.899  27.606  1.00  0.00     0.173 A 
ATOM     52  C   UNL A   1      43.391  26.741  26.791  1.00  0.00     0.173 A 
ATOM     53  F   UNL A   1      41.245  24.361  28.501  1.00  0.00    -0.203 F 
ATOM     54  C   UNL A   1      42.565  24.103  26.567  1.00  0.00     0.198 A 
ATOM     55  C   UNL A   1      43.842  25.955  25.734  1.00  0.00     0.198 A 
ATOM     56  F   UNL A   1      43.811  28.012  26.874  1.00  0.00    -0.203 F 
ATOM     57  F   UNL A   1      42.192  22.819  26.485  1.00  0.00    -0.200 F 
ATOM     58  C   UNL A   1      43.437  24.634  25.629  1.00  0.00     0.200 A 
ATOM     59  F   UNL A   1      44.670  26.478  24.819  1.00  0.00    -0.200 F 
ATOM     60  F   UNL A   1      43.892  23.869  24.627  1.00  0.00    -0.200 F 
ENDBRANCH  26  50
BRANCH  38  61
ATOM     61  C   UNL A   1      44.799  27.530  34.186  1.00  0.00     0.064 A 
ATOM     62  C   UNL A   1      44.747  26.355  34.951  1.00  0.00     0.173 A 
ATOM     63  C   UNL A   1      46.013  28.233  34.145  1.00  0.00     0.173 A 
ATOM     64  F   UNL A   1      43.606  25.655  35.038  1.00  0.00    -0.203 F 
ATOM     65  C   UNL A   1      45.855  25.924  35.677  1.00  0.00     0.198 A 
ATOM     66  C   UNL A   1      47.128  27.780  34.842  1.00  0.00     0.198 A 
ATOM     67  F   UNL A   1      46.117  29.359  33.423  1.00  0.00    -0.203 F 
ATOM     68  F   UNL A   1      45.764  24.835  36.452  1.00  0.00    -0.200 F 
ATOM     69  C   UNL A   1      47.045  26.633  35.616  1.00  0.00     0.200 A 
ATOM     70  F   UNL A   1      48.282  28.458  34.770  1.00  0.00    -0.200 F 
ATOM     71  F   UNL A   1      48.112  26.216  36.314  1.00  0.00    -0.200 F 
ENDBRANCH  38  61
ENDBRANCH  12  13
ENDBRANCH   5   7
ENDBRANCH   2   3
ENDBRANCH   1   2
BRANCH   1  72
ATOM     72  C   UNL A   1      32.320  28.308  23.013  1.00  0.00     0.117 C 
BRANCH  72  73
ATOM     73  N   UNL A   1      32.794  27.457  21.939  1.00  0.00    -0.356 N 
ATOM     74  C   UNL A   1      32.932  26.124  21.745  1.00  0.00     0.226 C 
ATOM     75  H   UNL A   1      33.091  27.977  21.156  1.00  0.00     0.163 HD
ATOM     76  O   UNL A   1      33.277  25.821  20.593  1.00  0.00    -0.274 OA
BRANCH  74  77
ATOM     77  C   UNL A   1      32.764  25.021  22.826  1.00  0.00     0.053 C 
ATOM     78  C   UNL A   1      31.306  24.807  23.297  1.00  0.00     0.017 C 
ATOM     79  C   UNL A   1      33.245  23.704  22.140  1.00  0.00     0.017 C 
ATOM     80  C   UNL A   1      31.029  23.508  24.051  1.00  0.00     0.001 C 
ATOM     81  C   UNL A   1      32.984  22.434  22.940  1.00  0.00     0.001 C 
ATOM     82  C   UNL A   1      31.508  22.296  23.274  1.00  0.00     0.000 C 
BRANCH  77  83
ATOM     83  C   UNL A   1      33.636  25.418  24.062  1.00  0.00     0.044 C 
BRANCH  83  84
ATOM     84  C   UNL A   1      34.859  24.573  24.315  1.00  0.00    -0.025 C 
ATOM     85  C   UNL A   1      35.332  24.259  25.533  1.00  0.00     0.004 C 
BRANCH  85  86
ATOM     86  C   UNL A   1      36.566  23.485  25.719  1.00  0.00    -0.026 A 
ATOM     87  C   UNL A   1      37.671  24.071  26.348  1.00  0.00     0.008 A 
ATOM     88  C   UNL A   1      36.681  22.179  25.224  1.00  0.00     0.008 A 
ATOM     89  C   UNL A   1      38.862  23.352  26.500  1.00  0.00     0.001 A 
ATOM     90  C   UNL A   1      37.871  21.462  25.375  1.00  0.00     0.001 A 
ATOM     91  C   UNL A   1      38.960  22.049  26.016  1.00  0.00     0.000 A 
ENDBRANCH  85  86
ENDBRANCH  83  84
ENDBRANCH  77  83
ENDBRANCH  74  77
ENDBRANCH  72  73
ENDBRANCH   1  72
TORSDOF 13
ENDMDL
MODEL 2
REMARK VINA RESULT:     -12.4      0.441      2.120
REMARK SMILES O=C(NCCCNC(=O)C1(C/C=C/c2ccccc2)CCCCC1)c1ccc(-c2c3nc(c(-c4c(F)c(F)c(F)c(F)c4F)c4ccc([nH]4)c(-c4c(F)c(F)c(F)c(F)c4F)c4nc(c(-c5c(F)c(F)c(F)c(F)c5F)c5ccc2[nH]5)C=C4)C=C3)cc1
REMARK SMILES IDX 5 1 4 2 3 3 1 4 2 5 25 7 26 8 87 9 27 10 86 11 28 12 29 13
REMARK SMILES IDX 30 14 80 15 31 16 85 17 79 18 81 19 32 20 84 21 78 22 77 23
REMARK SMILES IDX 33 25 65 26 45 27 64 28 46 29 49 30 63 31 82 32 47 33 48 34
REMARK SMILES IDX 62 36 83 37 50 38 34 39 35 40 43 41 36 42 37 43 41 44 44 45
REMARK SMILES IDX 38 46 39 47 42 48 40 49 66 50 67 51 75 52 68 53 69 54 73 55
REMARK SMILES IDX 76 56 70 57 71 58 74 59 72 60 51 61 52 62 60 63 53 64 54 65
REMARK SMILES IDX 58 66 61 67 55 68 56 69 59 70 57 71 6 72 7 73 8 74 9 76
REMARK SMILES IDX 10 77 20 78 24 79 21 80 23 81 22 82 11 83 12 84 13 85 14 86
REMARK SMILES IDX 15 87 19 88 16 89 18 90 17 91
REMARK H PARENT 3 6 81 24 49 35 7 75
REMARK Flexibility Score: inf
ROOT
ATOM      1  C   UNL A   1      33.446  28.997  23.925  1.00  0.00     0.042 C 
ENDROOT
BRANCH   1   2
ATOM      2  C   UNL A   1      33.284  29.062  25.438  1.00  0.00     0.118 C 
BRANCH   2   3
ATOM      3  N   UNL A   1      32.866  30.387  25.894  1.00  0.00    -0.352 N 
ATOM      4  O   UNL A   1      32.687  32.145  27.289  1.00  0.00    -0.269 OA
ATOM      5  C   UNL A   1      33.341  31.180  26.911  1.00  0.00     0.251 C 
ATOM      6  H   UNL A   1      32.118  30.777  25.386  1.00  0.00     0.163 HD
BRANCH   5   7
ATOM      7  C   UNL A   1      34.632  30.865  27.558  1.00  0.00     0.039 A 
ATOM      8  C   UNL A   1      34.900  29.572  27.999  1.00  0.00     0.014 A 
ATOM      9  C   UNL A   1      35.597  31.867  27.704  1.00  0.00     0.014 A 
ATOM     10  C   UNL A   1      36.027  29.327  28.767  1.00  0.00     0.010 A 
ATOM     11  C   UNL A   1      36.796  31.584  28.366  1.00  0.00     0.010 A 
ATOM     12  C   UNL A   1      36.999  30.323  28.947  1.00  0.00    -0.014 A 
BRANCH  12  13
ATOM     13  C   UNL A   1      38.226  29.990  29.716  1.00  0.00     0.031 A 
ATOM     14  C   UNL A   1      38.413  30.472  31.128  1.00  0.00     0.074 A 
ATOM     15  C   UNL A   1      39.145  29.186  29.146  1.00  0.00     0.049 A 
ATOM     16  N   UNL A   1      39.393  30.223  31.961  1.00  0.00    -0.248 NA
ATOM     17  C   UNL A   1      37.376  31.359  31.676  1.00  0.00     0.031 C 
ATOM     18  C   UNL A   1      39.071  28.664  27.778  1.00  0.00     0.029 A 
ATOM     19  N   UNL A   1      40.296  28.637  29.646  1.00  0.00    -0.354 N 
ATOM     20  C   UNL A   1      39.106  30.939  33.115  1.00  0.00     0.074 A 
ATOM     21  C   UNL A   1      37.874  31.657  32.868  1.00  0.00     0.031 C 
ATOM     22  C   UNL A   1      40.089  27.817  27.574  1.00  0.00     0.029 A 
ATOM     23  C   UNL A   1      40.929  27.794  28.765  1.00  0.00     0.049 A 
ATOM     24  H   UNL A   1      40.637  28.827  30.550  1.00  0.00     0.167 HD
ATOM     25  C   UNL A   1      39.804  30.985  34.276  1.00  0.00     0.037 A 
ATOM     26  C   UNL A   1      42.066  27.089  28.896  1.00  0.00     0.037 A 
ATOM     27  C   UNL A   1      41.018  30.247  34.519  1.00  0.00     0.049 A 
ATOM     28  C   UNL A   1      42.824  27.172  30.190  1.00  0.00     0.074 A 
ATOM     29  C   UNL A   1      41.780  30.196  35.674  1.00  0.00     0.029 A 
ATOM     30  N   UNL A   1      41.648  29.432  33.589  1.00  0.00    -0.354 N 
ATOM     31  N   UNL A   1      42.523  27.826  31.284  1.00  0.00    -0.248 NA
ATOM     32  C   UNL A   1      44.080  26.419  30.263  1.00  0.00     0.031 C 
ATOM     33  C   UNL A   1      42.900  29.395  35.423  1.00  0.00     0.029 A 
ATOM     34  C   UNL A   1      42.803  28.893  34.136  1.00  0.00     0.049 A 
ATOM     35  H   UNL A   1      41.323  29.261  32.675  1.00  0.00     0.167 HD
ATOM     36  C   UNL A   1      43.536  27.542  32.188  1.00  0.00     0.074 A 
ATOM     37  C   UNL A   1      44.449  26.640  31.517  1.00  0.00     0.031 C 
ATOM     38  C   UNL A   1      43.696  27.988  33.457  1.00  0.00     0.037 A 
BRANCH  25  39
ATOM     39  C   UNL A   1      39.291  31.886  35.365  1.00  0.00     0.064 A 
ATOM     40  C   UNL A   1      39.599  33.254  35.407  1.00  0.00     0.173 A 
ATOM     41  C   UNL A   1      38.444  31.377  36.363  1.00  0.00     0.173 A 
ATOM     42  F   UNL A   1      40.413  33.791  34.486  1.00  0.00    -0.203 F 
ATOM     43  C   UNL A   1      39.102  34.071  36.421  1.00  0.00     0.198 A 
ATOM     44  C   UNL A   1      37.924  32.203  37.355  1.00  0.00     0.198 A 
ATOM     45  F   UNL A   1      38.110  30.078  36.368  1.00  0.00    -0.203 F 
ATOM     46  F   UNL A   1      39.452  35.364  36.469  1.00  0.00    -0.200 F 
ATOM     47  C   UNL A   1      38.260  33.547  37.389  1.00  0.00     0.200 A 
ATOM     48  F   UNL A   1      37.098  31.696  38.282  1.00  0.00    -0.200 F 
ATOM     49  F   UNL A   1      37.778  34.336  38.360  1.00  0.00    -0.200 F 
ENDBRANCH  25  39
BRANCH  26  50
ATOM     50  C   UNL A   1      42.549  26.246  27.771  1.00  0.00     0.064 A 
ATOM     51  C   UNL A   1      43.419  26.764  26.802  1.00  0.00     0.173 A 
ATOM     52  C   UNL A   1      42.154  24.906  27.645  1.00  0.00     0.173 A 
ATOM     53  F   UNL A   1      43.812  28.043  26.870  1.00  0.00    -0.203 F 
ATOM     54  C   UNL A   1      43.858  25.979  25.737  1.00  0.00     0.198 A 
ATOM     55  C   UNL A   1      42.622  24.112  26.600  1.00  0.00     0.198 A 
ATOM     56  F   UNL A   1      41.329  24.359  28.550  1.00  0.00    -0.203 F 
ATOM     57  F   UNL A   1      44.651  26.512  24.798  1.00  0.00    -0.200 F 
ATOM     58  C   UNL A   1      43.465  24.652  25.642  1.00  0.00     0.200 A 
ATOM     59  F   UNL A   1      42.254  22.826  26.523  1.00  0.00    -0.200 F 
ATOM     60  F   UNL A   1      43.893  23.896  24.622  1.00  0.00    -0.200 F 
ENDBRANCH  26  50
BRANCH  38  61
ATOM     61  C   UNL A   1      44.878  27.463  34.220  1.00  0.00     0.064 A 
ATOM     62  C   UNL A   1      46.112  28.129  34.228  1.00  0.00     0.173 A 
ATOM     63  C   UNL A   1      44.768  26.277  34.964  1.00  0.00     0.173 A 
ATOM     64  F   UNL A   1      46.275  29.257  33.520  1.00  0.00    -0.203 F 
ATOM     65  C   UNL A   1      47.203  27.609  34.920  1.00  0.00     0.198 A 
ATOM     66  C   UNL A   1      45.849  25.779  35.683  1.00  0.00     0.198 A 
ATOM     67  F   UNL A   1      43.607  25.605  34.995  1.00  0.00    -0.203 F 
ATOM     68  F   UNL A   1      48.389  28.228  34.861  1.00  0.00    -0.200 F 
ATOM     69  C   UNL A   1      47.068  26.439  35.652  1.00  0.00     0.200 A 
ATOM     70  F   UNL A   1      45.712  24.656  36.403  1.00  0.00    -0.200 F 
ATOM     71  F   UNL A   1      48.118  25.939  36.319  1.00  0.00    -0.200 F 
ENDBRANCH  38  61
ENDBRANCH  12  13
ENDBRANCH   5   7
ENDBRANCH   2   3
ENDBRANCH   1   2
BRANCH   1  72
ATOM     72  C   UNL A   1      32.309  28.241  23.260  1.00  0.00     0.117 C 
BRANCH  72  73
ATOM     73  N   UNL A   1      32.782  27.378  22.194  1.00  0.00    -0.356 N 
ATOM     74  C   UNL A   1      32.952  26.045  22.026  1.00  0.00     0.226 C 
ATOM     75  H   UNL A   1      33.045  27.888  21.393  1.00  0.00     0.163 HD
ATOM     76  O   UNL A   1      33.278  25.725  20.874  1.00  0.00    -0.274 OA
BRANCH  74  77
ATOM     77  C   UNL A   1      32.840  24.964  23.136  1.00  0.00     0.053 C 
ATOM     78  C   UNL A   1      33.177  25.471  24.557  1.00  0.00     0.017 C 
ATOM     79  C   UNL A   1      31.342  24.526  23.126  1.00  0.00     0.017 C 
ATOM     80  C   UNL A   1      32.721  24.582  25.712  1.00  0.00     0.001 C 
ATOM     81  C   UNL A   1      30.935  23.609  24.273  1.00  0.00     0.001 C 
ATOM     82  C   UNL A   1      31.244  24.251  25.615  1.00  0.00     0.000 C 
BRANCH  77  83
ATOM     83  C   UNL A   1      33.818  23.798  22.775  1.00  0.00     0.044 C 
BRANCH  83  84
ATOM     84  C   UNL A   1      35.090  23.719  23.581  1.00  0.00    -0.025 C 
ATOM     85  C   UNL A   1      35.608  22.585  24.082  1.00  0.00     0.004 C 
BRANCH  85  86
ATOM     86  C   UNL A   1      36.818  22.577  24.916  1.00  0.00    -0.026 A 
ATOM     87  C   UNL A   1      37.198  23.732  25.609  1.00  0.00     0.008 A 
ATOM     88  C   UNL A   1      37.638  21.443  24.985  1.00  0.00     0.008 A 
ATOM     89  C   UNL A   1      38.366  23.743  26.378  1.00  0.00     0.001 A 
ATOM     90  C   UNL A   1      38.806  21.455  25.752  1.00  0.00     0.001 A 
ATOM     91  C   UNL A   1      39.168  22.605  26.451  1.00  0.00     0.000 A 
ENDBRANCH  85  86
ENDBRANCH  83  84
ENDBRANCH  77  83
ENDBRANCH  74  77
ENDBRANCH  72  73
ENDBRANCH   1  72
TORSDOF 13
ENDMDL
MODEL 3
REMARK VINA RESULT:     -12.4      1.636      3.795
REMARK SMILES O=C(NCCCNC(=O)C1(C/C=C/c2ccccc2)CCCCC1)c1ccc(-c2c3nc(c(-c4c(F)c(F)c(F)c(F)c4F)c4ccc([nH]4)c(-c4c(F)c(F)c(F)c(F)c4F)c4nc(c(-c5c(F)c(F)c(F)c(F)c5F)c5ccc2[nH]5)C=C4)C=C3)cc1
REMARK SMILES IDX 5 1 4 2 3 3 1 4 2 5 25 7 26 8 87 9 27 10 86 11 28 12 29 13
REMARK SMILES IDX 30 14 80 15 31 16 85 17 79 18 81 19 32 20 84 21 78 22 77 23
REMARK SMILES IDX 33 25 65 26 45 27 64 28 46 29 49 30 63 31 82 32 47 33 48 34
REMARK SMILES IDX 62 36 83 37 50 38 34 39 35 40 43 41 36 42 37 43 41 44 44 45
REMARK SMILES IDX 38 46 39 47 42 48 40 49 66 50 67 51 75 52 68 53 69 54 73 55
REMARK SMILES IDX 76 56 70 57 71 58 74 59 72 60 51 61 52 62 60 63 53 64 54 65
REMARK SMILES IDX 58 66 61 67 55 68 56 69 59 70 57 71 6 72 7 73 8 74 9 76
REMARK SMILES IDX 10 77 20 78 24 79 21 80 23 81 22 82 11 83 12 84 13 85 14 86
REMARK SMILES IDX 15 87 19 88 16 89 18 90 17 91
REMARK H PARENT 3 6 81 24 49 35 7 75
REMARK Flexibility Score: inf
ROOT
ATOM      1  C   UNL A   1      31.845  28.659  26.501  1.00  0.00     0.042 C 
ENDROOT
BRANCH   1   2
ATOM      2  C   UNL A   1      32.915  29.595  25.956  1.00  0.00     0.118 C 
BRANCH   2   3
ATOM      3  N   UNL A   1      32.667  30.990  26.318  1.00  0.00    -0.352 N 
ATOM      4  O   UNL A   1      32.746  32.859  27.571  1.00  0.00    -0.269 OA
ATOM      5  C   UNL A   1      33.273  31.800  27.249  1.00  0.00     0.251 C 
ATOM      6  H   UNL A   1      31.943  31.422  25.809  1.00  0.00     0.163 HD
BRANCH   5   7
ATOM      7  C   UNL A   1      34.549  31.392  27.870  1.00  0.00     0.039 A 
ATOM      8  C   UNL A   1      34.734  30.081  28.303  1.00  0.00     0.014 A 
ATOM      9  C   UNL A   1      35.586  32.323  28.001  1.00  0.00     0.014 A 
ATOM     10  C   UNL A   1      35.855  29.754  29.048  1.00  0.00     0.010 A 
ATOM     11  C   UNL A   1      36.774  31.952  28.639  1.00  0.00     0.010 A 
ATOM     12  C   UNL A   1      36.898  30.678  29.213  1.00  0.00    -0.014 A 
BRANCH  12  13
ATOM     13  C   UNL A   1      38.112  30.257  29.958  1.00  0.00     0.031 A 
ATOM     14  C   UNL A   1      38.336  30.677  31.383  1.00  0.00     0.074 A 
ATOM     15  C   UNL A   1      38.985  29.428  29.350  1.00  0.00     0.049 A 
ATOM     16  N   UNL A   1      39.308  30.349  32.198  1.00  0.00    -0.248 NA
ATOM     17  C   UNL A   1      37.349  31.595  31.973  1.00  0.00     0.031 C 
ATOM     18  C   UNL A   1      38.874  28.959  27.966  1.00  0.00     0.029 A 
ATOM     19  N   UNL A   1      40.111  28.804  29.819  1.00  0.00    -0.354 N 
ATOM     20  C   UNL A   1      39.067  31.037  33.379  1.00  0.00     0.074 A 
ATOM     21  C   UNL A   1      37.872  31.825  33.170  1.00  0.00     0.031 C 
ATOM     22  C   UNL A   1      39.846  28.070  27.721  1.00  0.00     0.029 A 
ATOM     23  C   UNL A   1      40.692  27.962  28.903  1.00  0.00     0.049 A 
ATOM     24  H   UNL A   1      40.468  28.944  30.726  1.00  0.00     0.167 HD
ATOM     25  C   UNL A   1      39.776  31.006  34.534  1.00  0.00     0.037 A 
ATOM     26  C   UNL A   1      41.794  27.196  28.997  1.00  0.00     0.037 A 
ATOM     27  C   UNL A   1      40.952  30.200  34.739  1.00  0.00     0.049 A 
ATOM     28  C   UNL A   1      42.565  27.194  30.285  1.00  0.00     0.074 A 
ATOM     29  C   UNL A   1      41.721  30.068  35.883  1.00  0.00     0.029 A 
ATOM     30  N   UNL A   1      41.533  29.387  33.774  1.00  0.00    -0.354 N 
ATOM     31  N   UNL A   1      42.306  27.823  31.405  1.00  0.00    -0.248 NA
ATOM     32  C   UNL A   1      43.782  26.376  30.320  1.00  0.00     0.031 C 
ATOM     33  C   UNL A   1      42.796  29.221  35.593  1.00  0.00     0.029 A 
ATOM     34  C   UNL A   1      42.663  28.771  34.290  1.00  0.00     0.049 A 
ATOM     35  H   UNL A   1      41.192  29.265  32.858  1.00  0.00     0.167 HD
ATOM     36  C   UNL A   1      43.311  27.456  32.288  1.00  0.00     0.074 A 
ATOM     37  C   UNL A   1      44.172  26.533  31.576  1.00  0.00     0.031 C 
ATOM     38  C   UNL A   1      43.504  27.847  33.571  1.00  0.00     0.037 A 
BRANCH  25  39
ATOM     39  C   UNL A   1      39.318  31.892  35.659  1.00  0.00     0.064 A 
ATOM     40  C   UNL A   1      38.399  31.454  36.624  1.00  0.00     0.173 A 
ATOM     41  C   UNL A   1      39.840  33.188  35.795  1.00  0.00     0.173 A 
ATOM     42  F   UNL A   1      37.859  30.229  36.537  1.00  0.00    -0.203 F 
ATOM     43  C   UNL A   1      37.998  32.290  37.665  1.00  0.00     0.198 A 
ATOM     44  C   UNL A   1      39.462  34.009  36.855  1.00  0.00     0.198 A 
ATOM     45  F   UNL A   1      40.728  33.657  34.906  1.00  0.00    -0.203 F 
ATOM     46  F   UNL A   1      37.080  31.867  38.546  1.00  0.00    -0.200 F 
ATOM     47  C   UNL A   1      38.535  33.563  37.784  1.00  0.00     0.200 A 
ATOM     48  F   UNL A   1      39.994  35.233  36.975  1.00  0.00    -0.200 F 
ATOM     49  F   UNL A   1      38.153  34.362  38.790  1.00  0.00    -0.200 F 
ENDBRANCH  25  39
BRANCH  26  50
ATOM     50  C   UNL A   1      42.224  26.370  27.838  1.00  0.00     0.064 A 
ATOM     51  C   UNL A   1      41.654  25.113  27.597  1.00  0.00     0.173 A 
ATOM     52  C   UNL A   1      43.210  26.821  26.949  1.00  0.00     0.173 A 
ATOM     53  F   UNL A   1      40.720  24.630  28.428  1.00  0.00    -0.203 F 
ATOM     54  C   UNL A   1      42.069  24.330  26.521  1.00  0.00     0.198 A 
ATOM     55  C   UNL A   1      43.599  26.054  25.854  1.00  0.00     0.198 A 
ATOM     56  F   UNL A   1      43.782  28.021  27.130  1.00  0.00    -0.203 F 
ATOM     57  F   UNL A   1      41.542  23.111  26.341  1.00  0.00    -0.200 F 
ATOM     58  C   UNL A   1      43.036  24.804  25.647  1.00  0.00     0.200 A 
ATOM     59  F   UNL A   1      44.519  26.525  25.001  1.00  0.00    -0.200 F 
ATOM     60  F   UNL A   1      43.429  24.053  24.609  1.00  0.00    -0.200 F 
ENDBRANCH  26  50
BRANCH  38  61
ATOM     61  C   UNL A   1      44.663  27.235  34.303  1.00  0.00     0.064 A 
ATOM     62  C   UNL A   1      45.921  27.856  34.351  1.00  0.00     0.173 A 
ATOM     63  C   UNL A   1      44.508  26.014  34.975  1.00  0.00     0.173 A 
ATOM     64  F   UNL A   1      46.127  29.016  33.710  1.00  0.00    -0.203 F 
ATOM     65  C   UNL A   1      46.990  27.256  35.013  1.00  0.00     0.198 A 
ATOM     66  C   UNL A   1      45.568  25.435  35.666  1.00  0.00     0.198 A 
ATOM     67  F   UNL A   1      43.324  25.383  34.966  1.00  0.00    -0.203 F 
ATOM     68  F   UNL A   1      48.198  27.835  34.991  1.00  0.00    -0.200 F 
ATOM     69  C   UNL A   1      46.811  26.051  35.675  1.00  0.00     0.200 A 
ATOM     70  F   UNL A   1      45.389  24.278  36.318  1.00  0.00    -0.200 F 
ATOM     71  F   UNL A   1      47.840  25.475  36.313  1.00  0.00    -0.200 F 
ENDBRANCH  38  61
ENDBRANCH  12  13
ENDBRANCH   5   7
ENDBRANCH   2   3
ENDBRANCH   1   2
BRANCH   1  72
ATOM     72  C   UNL A   1      32.401  27.284  26.828  1.00  0.00     0.117 C 
BRANCH  72  73
ATOM     73  N   UNL A   1      31.360  26.275  26.876  1.00  0.00    -0.356 N 
ATOM     74  C   UNL A   1      30.998  25.216  26.114  1.00  0.00     0.226 C 
ATOM     75  H   UNL A   1      30.768  26.388  27.655  1.00  0.00     0.163 HD
ATOM     76  O   UNL A   1      30.090  24.532  26.608  1.00  0.00    -0.274 OA
BRANCH  74  77
ATOM     77  C   UNL A   1      31.568  24.862  24.712  1.00  0.00     0.053 C 
ATOM     78  C   UNL A   1      32.795  25.704  24.292  1.00  0.00     0.017 C 
ATOM     79  C   UNL A   1      32.023  23.373  24.823  1.00  0.00     0.017 C 
ATOM     80  C   UNL A   1      33.616  25.157  23.127  1.00  0.00     0.001 C 
ATOM     81  C   UNL A   1      32.807  22.853  23.624  1.00  0.00     0.001 C 
ATOM     82  C   UNL A   1      34.030  23.716  23.360  1.00  0.00     0.000 C 
BRANCH  77  83
ATOM     83  C   UNL A   1      30.430  25.075  23.660  1.00  0.00     0.044 C 
BRANCH  83  84
ATOM     84  C   UNL A   1      29.704  26.395  23.720  1.00  0.00    -0.025 C 
ATOM     85  C   UNL A   1      30.027  27.479  22.994  1.00  0.00     0.004 C 
BRANCH  85  86
ATOM     86  C   UNL A   1      29.323  28.759  23.140  1.00  0.00    -0.026 A 
ATOM     87  C   UNL A   1      30.014  29.891  23.589  1.00  0.00     0.008 A 
ATOM     88  C   UNL A   1      27.947  28.859  22.893  1.00  0.00     0.008 A 
ATOM     89  C   UNL A   1      29.345  31.106  23.763  1.00  0.00     0.001 A 
ATOM     90  C   UNL A   1      27.278  30.073  23.068  1.00  0.00     0.001 A 
ATOM     91  C   UNL A   1      27.978  31.197  23.501  1.00  0.00     0.000 A 
ENDBRANCH  85  86
ENDBRANCH  83  84
ENDBRANCH  77  83
ENDBRANCH  74  77
ENDBRANCH  72  73
ENDBRANCH   1  72
TORSDOF 13
ENDMDL
