MODEL 1
REMARK VINA RESULT:     -14.1      0.000      0.000
REMARK SMILES Cc1ccc2c(c1)c(-c1ccnc3c(C)cccc13)c(C)n2CC(=O)NCCCNC(=O)c1ccc(-c2c3nc(c(-c4c(F)c(F)c(F)c(F)c4F)c4ccc([nH]4)c(-c4c(F)c(F)c(F)c(F)c4F)c4nc(c(-c5c(F)c(F)c(F)c(F)c5F)c5ccc2[nH]5)C=C4)C=C3)cc1
REMARK SMILES IDX 28 1 27 2 26 3 24 4 25 5 23 7 22 8 1 9 2 10 3 11 7 12 4 13
REMARK SMILES IDX 6 14 5 15 8 16 20 17 21 18 9 19 10 20 19 21 11 22 13 23
REMARK SMILES IDX 18 24 12 25 14 26 17 27 15 28 16 29 29 30 30 31 31 32 32 34
REMARK SMILES IDX 33 35 34 36 95 37 35 38 94 39 36 40 37 41 38 42 88 43 39 44
REMARK SMILES IDX 93 45 87 46 89 47 40 48 92 49 86 50 85 51 41 53 73 54 53 55
REMARK SMILES IDX 72 56 54 57 57 58 71 59 90 60 55 61 56 62 70 64 91 65 58 66
REMARK SMILES IDX 42 67 43 68 51 69 44 70 45 71 49 72 52 73 46 74 47 75 50 76
REMARK SMILES IDX 48 77 74 78 75 79 83 80 76 81 77 82 81 83 84 84 78 85 79 86
REMARK SMILES IDX 82 87 80 88 59 89 60 90 68 91 61 92 62 93 66 94 69 95 63 96
REMARK SMILES IDX 64 97 67 98 65 99
REMARK H PARENT 26 6 30 33 89 52 57 63
REMARK Flexibility Score: inf
ROOT
ATOM      1  C   UNL A   1      32.842  30.770  26.938  1.00  0.00     0.042 C 
ENDROOT
BRANCH   1   2
ATOM      2  C   UNL A   1      32.688  29.674  25.882  1.00  0.00     0.117 C 
BRANCH   2   3
ATOM      3  N   UNL A   1      31.809  28.598  26.308  1.00  0.00    -0.354 N 
ATOM      4  C   UNL A   1      32.067  27.273  26.504  1.00  0.00     0.239 C 
ATOM      5  O   UNL A   1      31.139  26.569  26.911  1.00  0.00    -0.273 OA
ATOM      6  H   UNL A   1      30.878  28.869  26.482  1.00  0.00     0.163 HD
BRANCH   4   7
ATOM      7  C   UNL A   1      33.453  26.696  26.291  1.00  0.00     0.222 C 
BRANCH   7   8
ATOM      8  N   UNL A   1      33.479  25.583  25.349  1.00  0.00    -0.335 N 
ATOM      9  C   UNL A   1      32.617  25.243  19.769  1.00  0.00     0.044 C 
ATOM     10  C   UNL A   1      32.877  25.415  21.237  1.00  0.00    -0.050 A 
ATOM     11  C   UNL A   1      33.045  26.686  21.787  1.00  0.00     0.005 A 
ATOM     12  C   UNL A   1      33.000  24.286  22.062  1.00  0.00     0.014 A 
ATOM     13  C   UNL A   1      33.287  26.860  23.153  1.00  0.00     0.027 A 
ATOM     14  C   UNL A   1      33.240  24.436  23.445  1.00  0.00     0.008 A 
ATOM     15  C   UNL A   1      33.352  25.721  23.975  1.00  0.00     0.049 A 
ATOM     16  C   UNL A   1      33.405  23.518  24.522  1.00  0.00     0.011 A 
ATOM     17  C   UNL A   1      33.619  24.248  25.683  1.00  0.00     0.024 A 
ATOM     18  C   UNL A   1      33.892  23.757  27.068  1.00  0.00     0.065 C 
BRANCH  16  19
ATOM     19  C   UNL A   1      33.367  22.062  24.475  1.00  0.00    -0.005 A 
ATOM     20  C   UNL A   1      32.121  21.452  24.350  1.00  0.00     0.029 A 
ATOM     21  C   UNL A   1      34.540  21.274  24.593  1.00  0.00     0.008 A 
ATOM     22  C   UNL A   1      32.080  20.077  24.335  1.00  0.00     0.112 A 
ATOM     23  C   UNL A   1      34.387  19.868  24.569  1.00  0.00     0.074 A 
ATOM     24  C   UNL A   1      35.838  21.823  24.742  1.00  0.00     0.011 A 
ATOM     25  N   UNL A   1      33.173  19.293  24.440  1.00  0.00    -0.256 NA
ATOM     26  C   UNL A   1      35.534  19.068  24.688  1.00  0.00    -0.025 A 
ATOM     27  C   UNL A   1      36.962  21.017  24.864  1.00  0.00     0.001 A 
ATOM     28  C   UNL A   1      35.450  17.563  24.663  1.00  0.00     0.047 C 
ATOM     29  C   UNL A   1      36.810  19.642  24.838  1.00  0.00     0.005 A 
ENDBRANCH  16  19
ENDBRANCH   7   8
ENDBRANCH   4   7
ENDBRANCH   2   3
ENDBRANCH   1   2
BRANCH   1  30
ATOM     30  C   UNL A   1      34.205  30.775  27.631  1.00  0.00     0.118 C 
BRANCH  30  31
ATOM     31  N   UNL A   1      34.264  31.631  28.802  1.00  0.00    -0.352 N 
ATOM     32  C   UNL A   1      35.204  31.933  29.743  1.00  0.00     0.251 C 
ATOM     33  H   UNL A   1      33.420  32.112  28.953  1.00  0.00     0.163 HD
ATOM     34  O   UNL A   1      34.885  32.810  30.555  1.00  0.00    -0.269 OA
BRANCH  32  35
ATOM     35  C   UNL A   1      36.521  31.263  29.910  1.00  0.00     0.039 A 
ATOM     36  C   UNL A   1      37.766  31.830  29.645  1.00  0.00     0.014 A 
ATOM     37  C   UNL A   1      36.471  29.912  30.314  1.00  0.00     0.014 A 
ATOM     38  C   UNL A   1      38.914  31.041  29.672  1.00  0.00     0.010 A 
ATOM     39  C   UNL A   1      37.614  29.124  30.358  1.00  0.00     0.010 A 
ATOM     40  C   UNL A   1      38.829  29.678  29.980  1.00  0.00    -0.014 A 
BRANCH  40  41
ATOM     41  C   UNL A   1      40.062  28.895  29.975  1.00  0.00     0.031 A 
ATOM     42  C   UNL A   1      40.704  28.752  31.312  1.00  0.00     0.074 A 
ATOM     43  C   UNL A   1      40.559  28.286  28.877  1.00  0.00     0.049 A 
ATOM     44  N   UNL A   1      41.857  29.197  31.690  1.00  0.00    -0.248 NA
ATOM     45  C   UNL A   1      39.916  28.139  32.392  1.00  0.00     0.031 C 
ATOM     46  C   UNL A   1      39.913  28.113  27.573  1.00  0.00     0.029 A 
ATOM     47  N   UNL A   1      41.741  27.618  28.723  1.00  0.00    -0.354 N 
ATOM     48  C   UNL A   1      42.015  28.787  33.013  1.00  0.00     0.074 A 
ATOM     49  C   UNL A   1      40.746  28.252  33.431  1.00  0.00     0.031 C 
ATOM     50  C   UNL A   1      40.606  27.208  26.843  1.00  0.00     0.029 A 
ATOM     51  C   UNL A   1      41.820  26.859  27.560  1.00  0.00     0.049 A 
ATOM     52  H   UNL A   1      42.473  27.668  29.379  1.00  0.00     0.167 HD
ATOM     53  C   UNL A   1      43.247  28.723  33.588  1.00  0.00     0.037 A 
ATOM     54  C   UNL A   1      42.799  25.980  27.238  1.00  0.00     0.037 A 
ATOM     55  C   UNL A   1      44.210  29.477  32.834  1.00  0.00     0.049 A 
ATOM     56  C   UNL A   1      44.001  26.356  28.016  1.00  0.00     0.074 A 
ATOM     57  C   UNL A   1      44.495  30.808  32.630  1.00  0.00     0.029 A 
ATOM     58  N   UNL A   1      44.838  28.771  31.846  1.00  0.00    -0.354 N 
ATOM     59  N   UNL A   1      44.675  27.455  27.830  1.00  0.00    -0.248 NA
ATOM     60  C   UNL A   1      44.290  25.644  29.255  1.00  0.00     0.031 C 
ATOM     61  C   UNL A   1      45.070  30.886  31.326  1.00  0.00     0.029 A 
ATOM     62  C   UNL A   1      45.148  29.596  30.800  1.00  0.00     0.049 A 
ATOM     63  H   UNL A   1      45.040  27.808  31.882  1.00  0.00     0.167 HD
ATOM     64  C   UNL A   1      45.137  27.790  29.087  1.00  0.00     0.074 A 
ATOM     65  C   UNL A   1      45.030  26.569  29.873  1.00  0.00     0.031 C 
ATOM     66  C   UNL A   1      45.271  29.098  29.448  1.00  0.00     0.037 A 
BRANCH  53  67
ATOM     67  C   UNL A   1      43.688  27.637  34.547  1.00  0.00     0.064 A 
ATOM     68  C   UNL A   1      43.702  26.292  34.116  1.00  0.00     0.173 A 
ATOM     69  C   UNL A   1      43.776  27.823  35.944  1.00  0.00     0.173 A 
ATOM     70  F   UNL A   1      43.588  25.992  32.813  1.00  0.00    -0.203 F 
ATOM     71  C   UNL A   1      43.742  25.224  35.018  1.00  0.00     0.198 A 
ATOM     72  C   UNL A   1      43.865  26.756  36.838  1.00  0.00     0.198 A 
ATOM     73  F   UNL A   1      43.661  29.031  36.508  1.00  0.00    -0.203 F 
ATOM     74  F   UNL A   1      43.635  23.966  34.568  1.00  0.00    -0.200 F 
ATOM     75  C   UNL A   1      43.820  25.456  36.379  1.00  0.00     0.200 A 
ATOM     76  F   UNL A   1      43.911  27.002  38.155  1.00  0.00    -0.200 F 
ATOM     77  F   UNL A   1      43.800  24.438  37.247  1.00  0.00    -0.200 F 
ENDBRANCH  53  67
BRANCH  54  78
ATOM     78  C   UNL A   1      42.687  24.654  26.576  1.00  0.00     0.064 A 
ATOM     79  C   UNL A   1      43.327  24.413  25.347  1.00  0.00     0.173 A 
ATOM     80  C   UNL A   1      42.248  23.520  27.284  1.00  0.00     0.173 A 
ATOM     81  F   UNL A   1      43.799  25.436  24.619  1.00  0.00    -0.203 F 
ATOM     82  C   UNL A   1      43.578  23.115  24.890  1.00  0.00     0.198 A 
ATOM     83  C   UNL A   1      42.492  22.225  26.823  1.00  0.00     0.198 A 
ATOM     84  F   UNL A   1      41.670  23.641  28.487  1.00  0.00    -0.203 F 
ATOM     85  F   UNL A   1      44.272  22.926  23.759  1.00  0.00    -0.200 F 
ATOM     86  C   UNL A   1      43.177  22.022  25.639  1.00  0.00     0.200 A 
ATOM     87  F   UNL A   1      42.128  21.175  27.572  1.00  0.00    -0.200 F 
ATOM     88  F   UNL A   1      43.490  20.779  25.247  1.00  0.00    -0.200 F 
ENDBRANCH  54  78
BRANCH  66  89
ATOM     89  C   UNL A   1      45.361  30.109  28.344  1.00  0.00     0.064 A 
ATOM     90  C   UNL A   1      44.256  30.742  27.752  1.00  0.00     0.173 A 
ATOM     91  C   UNL A   1      46.638  30.528  27.947  1.00  0.00     0.173 A 
ATOM     92  F   UNL A   1      43.006  30.450  28.134  1.00  0.00    -0.203 F 
ATOM     93  C   UNL A   1      44.427  31.729  26.783  1.00  0.00     0.198 A 
ATOM     94  C   UNL A   1      46.806  31.540  27.009  1.00  0.00     0.198 A 
ATOM     95  F   UNL A   1      47.729  29.986  28.512  1.00  0.00    -0.203 F 
ATOM     96  F   UNL A   1      43.359  32.316  26.222  1.00  0.00    -0.200 F 
ATOM     97  C   UNL A   1      45.703  32.134  26.421  1.00  0.00     0.200 A 
ATOM     98  F   UNL A   1      48.041  31.958  26.696  1.00  0.00    -0.200 F 
ATOM     99  F   UNL A   1      45.867  33.118  25.525  1.00  0.00    -0.200 F 
ENDBRANCH  66  89
ENDBRANCH  40  41
ENDBRANCH  32  35
ENDBRANCH  30  31
ENDBRANCH   1  30
TORSDOF 12
ENDMDL
MODEL 2
REMARK VINA RESULT:     -14.0      4.604      8.500
REMARK SMILES Cc1ccc2c(c1)c(-c1ccnc3c(C)cccc13)c(C)n2CC(=O)NCCCNC(=O)c1ccc(-c2c3nc(c(-c4c(F)c(F)c(F)c(F)c4F)c4ccc([nH]4)c(-c4c(F)c(F)c(F)c(F)c4F)c4nc(c(-c5c(F)c(F)c(F)c(F)c5F)c5ccc2[nH]5)C=C4)C=C3)cc1
REMARK SMILES IDX 28 1 27 2 26 3 24 4 25 5 23 7 22 8 1 9 2 10 3 11 7 12 4 13
REMARK SMILES IDX 6 14 5 15 8 16 20 17 21 18 9 19 10 20 19 21 11 22 13 23
REMARK SMILES IDX 18 24 12 25 14 26 17 27 15 28 16 29 29 30 30 31 31 32 32 34
REMARK SMILES IDX 33 35 34 36 95 37 35 38 94 39 36 40 37 41 38 42 88 43 39 44
REMARK SMILES IDX 93 45 87 46 89 47 40 48 92 49 86 50 85 51 41 53 73 54 53 55
REMARK SMILES IDX 72 56 54 57 57 58 71 59 90 60 55 61 56 62 70 64 91 65 58 66
REMARK SMILES IDX 42 67 43 68 51 69 44 70 45 71 49 72 52 73 46 74 47 75 50 76
REMARK SMILES IDX 48 77 74 78 75 79 83 80 76 81 77 82 81 83 84 84 78 85 79 86
REMARK SMILES IDX 82 87 80 88 59 89 60 90 68 91 61 92 62 93 66 94 69 95 63 96
REMARK SMILES IDX 64 97 67 98 65 99
REMARK H PARENT 26 6 30 33 89 52 57 63
REMARK Flexibility Score: inf
ROOT
ATOM      1  C   UNL A   1      34.254  35.231  28.675  1.00  0.00     0.042 C 
ENDROOT
BRANCH   1   2
ATOM      2  C   UNL A   1      33.479  34.882  29.947  1.00  0.00     0.117 C 
BRANCH   2   3
ATOM      3  N   UNL A   1      33.974  35.582  31.120  1.00  0.00    -0.354 N 
ATOM      4  C   UNL A   1      34.877  35.193  32.065  1.00  0.00     0.239 C 
ATOM      5  O   UNL A   1      35.155  36.004  32.952  1.00  0.00    -0.273 OA
ATOM      6  H   UNL A   1      33.596  36.481  31.255  1.00  0.00     0.163 HD
BRANCH   4   7
ATOM      7  C   UNL A   1      35.561  33.841  31.998  1.00  0.00     0.222 C 
BRANCH   7   8
ATOM      8  N   UNL A   1      36.952  33.873  32.434  1.00  0.00    -0.335 N 
ATOM      9  C   UNL A   1      41.833  34.615  29.673  1.00  0.00     0.044 C 
ATOM     10  C   UNL A   1      40.500  34.471  30.346  1.00  0.00    -0.050 A 
ATOM     11  C   UNL A   1      39.321  34.769  29.663  1.00  0.00     0.005 A 
ATOM     12  C   UNL A   1      40.435  34.075  31.691  1.00  0.00     0.014 A 
ATOM     13  C   UNL A   1      38.072  34.638  30.277  1.00  0.00     0.027 A 
ATOM     14  C   UNL A   1      39.185  33.932  32.332  1.00  0.00     0.008 A 
ATOM     15  C   UNL A   1      38.022  34.189  31.608  1.00  0.00     0.049 A 
ATOM     16  C   UNL A   1      38.790  33.552  33.648  1.00  0.00     0.011 A 
ATOM     17  C   UNL A   1      37.404  33.587  33.710  1.00  0.00     0.024 A 
ATOM     18  C   UNL A   1      36.506  33.320  34.874  1.00  0.00     0.065 C 
BRANCH  16  19
ATOM     19  C   UNL A   1      39.643  33.183  34.770  1.00  0.00    -0.005 A 
ATOM     20  C   UNL A   1      39.971  31.838  34.918  1.00  0.00     0.029 A 
ATOM     21  C   UNL A   1      40.100  34.138  35.714  1.00  0.00     0.008 A 
ATOM     22  C   UNL A   1      40.751  31.483  35.995  1.00  0.00     0.112 A 
ATOM     23  C   UNL A   1      40.895  33.668  36.786  1.00  0.00     0.074 A 
ATOM     24  C   UNL A   1      39.792  35.519  35.640  1.00  0.00     0.011 A 
ATOM     25  N   UNL A   1      41.209  32.362  36.910  1.00  0.00    -0.256 NA
ATOM     26  C   UNL A   1      41.356  34.594  37.735  1.00  0.00    -0.025 A 
ATOM     27  C   UNL A   1      40.251  36.422  36.590  1.00  0.00     0.001 A 
ATOM     28  C   UNL A   1      42.213  34.169  38.899  1.00  0.00     0.047 C 
ATOM     29  C   UNL A   1      41.030  35.959  37.636  1.00  0.00     0.005 A 
ENDBRANCH  16  19
ENDBRANCH   7   8
ENDBRANCH   4   7
ENDBRANCH   2   3
ENDBRANCH   1   2
BRANCH   1  30
ATOM     30  C   UNL A   1      35.246  34.152  28.238  1.00  0.00     0.118 C 
BRANCH  30  31
ATOM     31  N   UNL A   1      34.617  32.915  27.814  1.00  0.00    -0.352 N 
ATOM     32  C   UNL A   1      34.918  31.588  27.901  1.00  0.00     0.251 C 
ATOM     33  H   UNL A   1      33.762  33.072  27.352  1.00  0.00     0.163 HD
ATOM     34  O   UNL A   1      34.048  30.813  27.483  1.00  0.00    -0.269 OA
BRANCH  32  35
ATOM     35  C   UNL A   1      36.202  31.012  28.383  1.00  0.00     0.039 A 
ATOM     36  C   UNL A   1      37.225  31.715  29.017  1.00  0.00     0.014 A 
ATOM     37  C   UNL A   1      36.401  29.645  28.101  1.00  0.00     0.014 A 
ATOM     38  C   UNL A   1      38.451  31.097  29.259  1.00  0.00     0.010 A 
ATOM     39  C   UNL A   1      37.615  29.020  28.354  1.00  0.00     0.010 A 
ATOM     40  C   UNL A   1      38.660  29.766  28.882  1.00  0.00    -0.014 A 
BRANCH  40  41
ATOM     41  C   UNL A   1      39.970  29.176  29.143  1.00  0.00     0.031 A 
ATOM     42  C   UNL A   1      40.255  28.926  30.583  1.00  0.00     0.074 A 
ATOM     43  C   UNL A   1      40.838  28.816  28.172  1.00  0.00     0.049 A 
ATOM     44  N   UNL A   1      41.171  29.469  31.317  1.00  0.00    -0.248 NA
ATOM     45  C   UNL A   1      39.334  28.052  31.326  1.00  0.00     0.031 C 
ATOM     46  C   UNL A   1      40.596  28.751  26.728  1.00  0.00     0.029 A 
ATOM     47  N   UNL A   1      42.118  28.354  28.288  1.00  0.00    -0.354 N 
ATOM     48  C   UNL A   1      41.048  28.891  32.580  1.00  0.00     0.074 A 
ATOM     49  C   UNL A   1      39.831  28.124  32.562  1.00  0.00     0.031 C 
ATOM     50  C   UNL A   1      41.606  28.075  26.132  1.00  0.00     0.029 A 
ATOM     51  C   UNL A   1      42.632  27.799  27.122  1.00  0.00     0.049 A 
ATOM     52  H   UNL A   1      42.632  28.409  29.126  1.00  0.00     0.167 HD
ATOM     53  C   UNL A   1      42.078  28.917  33.469  1.00  0.00     0.037 A 
ATOM     54  C   UNL A   1      43.802  27.126  26.999  1.00  0.00     0.037 A 
ATOM     55  C   UNL A   1      43.054  29.906  33.102  1.00  0.00     0.049 A 
ATOM     56  C   UNL A   1      44.671  27.548  28.120  1.00  0.00     0.074 A 
ATOM     57  C   UNL A   1      43.140  31.279  33.129  1.00  0.00     0.029 A 
ATOM     58  N   UNL A   1      44.034  29.453  32.263  1.00  0.00    -0.354 N 
ATOM     59  N   UNL A   1      45.164  28.747  28.249  1.00  0.00    -0.248 NA
ATOM     60  C   UNL A   1      44.749  26.706  29.307  1.00  0.00     0.031 C 
ATOM     61  C   UNL A   1      44.013  31.633  32.056  1.00  0.00     0.029 A 
ATOM     62  C   UNL A   1      44.454  30.462  31.440  1.00  0.00     0.049 A 
ATOM     63  H   UNL A   1      44.388  28.534  32.253  1.00  0.00     0.167 HD
ATOM     64  C   UNL A   1      45.214  28.952  29.613  1.00  0.00     0.074 A 
ATOM     65  C   UNL A   1      45.124  27.623  30.203  1.00  0.00     0.031 C 
ATOM     66  C   UNL A   1      45.013  30.196  30.133  1.00  0.00     0.037 A 
BRANCH  53  67
ATOM     67  C   UNL A   1      42.439  27.773  34.394  1.00  0.00     0.064 A 
ATOM     68  C   UNL A   1      43.071  26.626  33.866  1.00  0.00     0.173 A 
ATOM     69  C   UNL A   1      41.900  27.622  35.690  1.00  0.00     0.173 A 
ATOM     70  F   UNL A   1      43.587  26.640  32.628  1.00  0.00    -0.203 F 
ATOM     71  C   UNL A   1      43.105  25.412  34.560  1.00  0.00     0.198 A 
ATOM     72  C   UNL A   1      41.980  26.423  36.399  1.00  0.00     0.198 A 
ATOM     73  F   UNL A   1      41.176  28.583  36.274  1.00  0.00    -0.203 F 
ATOM     74  F   UNL A   1      43.611  24.319  33.970  1.00  0.00    -0.200 F 
ATOM     75  C   UNL A   1      42.556  25.310  35.825  1.00  0.00     0.200 A 
ATOM     76  F   UNL A   1      41.416  26.338  37.613  1.00  0.00    -0.200 F 
ATOM     77  F   UNL A   1      42.536  24.137  36.469  1.00  0.00    -0.200 F 
ENDBRANCH  53  67
BRANCH  54  78
ATOM     78  C   UNL A   1      44.105  25.913  26.196  1.00  0.00     0.064 A 
ATOM     79  C   UNL A   1      45.284  25.838  25.432  1.00  0.00     0.173 A 
ATOM     80  C   UNL A   1      43.433  24.699  26.427  1.00  0.00     0.173 A 
ATOM     81  F   UNL A   1      46.001  26.944  25.185  1.00  0.00    -0.203 F 
ATOM     82  C   UNL A   1      45.797  24.614  24.989  1.00  0.00     0.198 A 
ATOM     83  C   UNL A   1      43.942  23.478  25.978  1.00  0.00     0.198 A 
ATOM     84  F   UNL A   1      42.327  24.657  27.183  1.00  0.00    -0.203 F 
ATOM     85  F   UNL A   1      46.971  24.574  24.344  1.00  0.00    -0.200 F 
ATOM     86  C   UNL A   1      45.135  23.434  25.281  1.00  0.00     0.200 A 
ATOM     87  F   UNL A   1      43.309  22.340  26.293  1.00  0.00    -0.200 F 
ATOM     88  F   UNL A   1      45.668  22.254  24.932  1.00  0.00    -0.200 F 
ENDBRANCH  54  78
BRANCH  66  89
ATOM     89  C   UNL A   1      45.207  31.363  29.214  1.00  0.00     0.064 A 
ATOM     90  C   UNL A   1      44.192  31.938  28.432  1.00  0.00     0.173 A 
ATOM     91  C   UNL A   1      46.461  31.990  29.211  1.00  0.00     0.173 A 
ATOM     92  F   UNL A   1      42.947  31.443  28.442  1.00  0.00    -0.203 F 
ATOM     93  C   UNL A   1      44.435  33.073  27.659  1.00  0.00     0.198 A 
ATOM     94  C   UNL A   1      46.690  33.143  28.469  1.00  0.00     0.198 A 
ATOM     95  F   UNL A   1      47.455  31.505  29.973  1.00  0.00    -0.203 F 
ATOM     96  F   UNL A   1      43.455  33.603  26.912  1.00  0.00    -0.200 F 
ATOM     97  C   UNL A   1      45.681  33.680  27.688  1.00  0.00     0.200 A 
ATOM     98  F   UNL A   1      47.883  33.750  28.536  1.00  0.00    -0.200 F 
ATOM     99  F   UNL A   1      45.900  34.799  26.983  1.00  0.00    -0.200 F 
ENDBRANCH  66  89
ENDBRANCH  40  41
ENDBRANCH  32  35
ENDBRANCH  30  31
ENDBRANCH   1  30
TORSDOF 12
ENDMDL
MODEL 3
REMARK VINA RESULT:     -13.9      5.136      9.912
REMARK SMILES Cc1ccc2c(c1)c(-c1ccnc3c(C)cccc13)c(C)n2CC(=O)NCCCNC(=O)c1ccc(-c2c3nc(c(-c4c(F)c(F)c(F)c(F)c4F)c4ccc([nH]4)c(-c4c(F)c(F)c(F)c(F)c4F)c4nc(c(-c5c(F)c(F)c(F)c(F)c5F)c5ccc2[nH]5)C=C4)C=C3)cc1
REMARK SMILES IDX 28 1 27 2 26 3 24 4 25 5 23 7 22 8 1 9 2 10 3 11 7 12 4 13
REMARK SMILES IDX 6 14 5 15 8 16 20 17 21 18 9 19 10 20 19 21 11 22 13 23
REMARK SMILES IDX 18 24 12 25 14 26 17 27 15 28 16 29 29 30 30 31 31 32 32 34
REMARK SMILES IDX 33 35 34 36 95 37 35 38 94 39 36 40 37 41 38 42 88 43 39 44
REMARK SMILES IDX 93 45 87 46 89 47 40 48 92 49 86 50 85 51 41 53 73 54 53 55
REMARK SMILES IDX 72 56 54 57 57 58 71 59 90 60 55 61 56 62 70 64 91 65 58 66
REMARK SMILES IDX 42 67 43 68 51 69 44 70 45 71 49 72 52 73 46 74 47 75 50 76
REMARK SMILES IDX 48 77 74 78 75 79 83 80 76 81 77 82 81 83 84 84 78 85 79 86
REMARK SMILES IDX 82 87 80 88 59 89 60 90 68 91 61 92 62 93 66 94 69 95 63 96
REMARK SMILES IDX 64 97 67 98 65 99
REMARK H PARENT 26 6 30 33 89 52 57 63
REMARK Flexibility Score: inf
ROOT
ATOM      1  C   UNL A   1      41.596  25.149  36.131  1.00  0.00     0.042 C 
ENDROOT
BRANCH   1   2
ATOM      2  C   UNL A   1      41.525  26.082  34.921  1.00  0.00     0.117 C 
BRANCH   2   3
ATOM      3  N   UNL A   1      41.160  27.442  35.278  1.00  0.00    -0.354 N 
ATOM      4  C   UNL A   1      40.778  28.489  34.492  1.00  0.00     0.239 C 
ATOM      5  O   UNL A   1      40.481  29.545  35.058  1.00  0.00    -0.273 OA
ATOM      6  H   UNL A   1      41.196  27.641  36.242  1.00  0.00     0.163 HD
BRANCH   4   7
ATOM      7  C   UNL A   1      40.661  28.349  32.987  1.00  0.00     0.222 C 
BRANCH   7   8
ATOM      8  N   UNL A   1      40.021  29.491  32.345  1.00  0.00    -0.335 N 
ATOM      9  C   UNL A   1      42.008  34.390  30.335  1.00  0.00     0.044 C 
ATOM     10  C   UNL A   1      41.558  33.053  30.847  1.00  0.00    -0.050 A 
ATOM     11  C   UNL A   1      42.486  32.059  31.155  1.00  0.00     0.005 A 
ATOM     12  C   UNL A   1      40.187  32.780  30.976  1.00  0.00     0.014 A 
ATOM     13  C   UNL A   1      42.081  30.809  31.633  1.00  0.00     0.027 A 
ATOM     14  C   UNL A   1      39.754  31.527  31.461  1.00  0.00     0.008 A 
ATOM     15  C   UNL A   1      40.707  30.570  31.808  1.00  0.00     0.049 A 
ATOM     16  C   UNL A   1      38.472  30.956  31.707  1.00  0.00     0.011 A 
ATOM     17  C   UNL A   1      38.657  29.669  32.192  1.00  0.00     0.024 A 
ATOM     18  C   UNL A   1      37.635  28.642  32.556  1.00  0.00     0.065 C 
BRANCH  16  19
ATOM     19  C   UNL A   1      37.163  31.565  31.505  1.00  0.00    -0.005 A 
ATOM     20  C   UNL A   1      36.535  31.354  30.280  1.00  0.00     0.029 A 
ATOM     21  C   UNL A   1      36.553  32.383  32.489  1.00  0.00     0.008 A 
ATOM     22  C   UNL A   1      35.313  31.953  30.075  1.00  0.00     0.112 A 
ATOM     23  C   UNL A   1      35.297  32.953  32.177  1.00  0.00     0.074 A 
ATOM     24  C   UNL A   1      37.140  32.658  33.749  1.00  0.00     0.011 A 
ATOM     25  N   UNL A   1      34.698  32.732  30.988  1.00  0.00    -0.256 NA
ATOM     26  C   UNL A   1      34.675  33.769  33.135  1.00  0.00    -0.025 A 
ATOM     27  C   UNL A   1      36.514  33.472  34.684  1.00  0.00     0.001 A 
ATOM     28  C   UNL A   1      33.334  34.406  32.876  1.00  0.00     0.047 C 
ATOM     29  C   UNL A   1      35.284  34.028  34.376  1.00  0.00     0.005 A 
ENDBRANCH  16  19
ENDBRANCH   7   8
ENDBRANCH   4   7
ENDBRANCH   2   3
ENDBRANCH   1   2
BRANCH   1  30
ATOM     30  C   UNL A   1      42.480  25.670  37.265  1.00  0.00     0.118 C 
BRANCH  30  31
ATOM     31  N   UNL A   1      43.669  24.871  37.495  1.00  0.00    -0.352 N 
ATOM     32  C   UNL A   1      44.766  24.521  36.763  1.00  0.00     0.251 C 
ATOM     33  H   UNL A   1      43.691  24.489  38.401  1.00  0.00     0.163 HD
ATOM     34  O   UNL A   1      45.631  23.878  37.370  1.00  0.00    -0.269 OA
BRANCH  32  35
ATOM     35  C   UNL A   1      44.970  24.783  35.313  1.00  0.00     0.039 A 
ATOM     36  C   UNL A   1      45.058  26.038  34.714  1.00  0.00     0.014 A 
ATOM     37  C   UNL A   1      45.010  23.640  34.487  1.00  0.00     0.014 A 
ATOM     38  C   UNL A   1      45.071  26.150  33.326  1.00  0.00     0.010 A 
ATOM     39  C   UNL A   1      45.039  23.745  33.103  1.00  0.00     0.010 A 
ATOM     40  C   UNL A   1      45.011  25.005  32.522  1.00  0.00    -0.014 A 
BRANCH  40  41
ATOM     41  C   UNL A   1      45.009  25.184  31.072  1.00  0.00     0.031 A 
ATOM     42  C   UNL A   1      46.000  26.179  30.575  1.00  0.00     0.074 A 
ATOM     43  C   UNL A   1      44.232  24.469  30.230  1.00  0.00     0.049 A 
ATOM     44  N   UNL A   1      45.766  27.299  29.974  1.00  0.00    -0.248 NA
ATOM     45  C   UNL A   1      47.419  25.953  30.888  1.00  0.00     0.031 C 
ATOM     46  C   UNL A   1      43.418  23.290  30.537  1.00  0.00     0.029 A 
ATOM     47  N   UNL A   1      44.067  24.610  28.881  1.00  0.00    -0.354 N 
ATOM     48  C   UNL A   1      47.013  27.853  29.689  1.00  0.00     0.074 A 
ATOM     49  C   UNL A   1      47.986  27.050  30.381  1.00  0.00     0.031 C 
ATOM     50  C   UNL A   1      43.028  22.698  29.384  1.00  0.00     0.029 A 
ATOM     51  C   UNL A   1      43.430  23.537  28.268  1.00  0.00     0.049 A 
ATOM     52  H   UNL A   1      44.374  25.403  28.385  1.00  0.00     0.167 HD
ATOM     53  C   UNL A   1      47.158  28.803  28.725  1.00  0.00     0.037 A 
ATOM     54  C   UNL A   1      43.285  23.341  26.936  1.00  0.00     0.037 A 
ATOM     55  C   UNL A   1      45.893  29.393  28.385  1.00  0.00     0.049 A 
ATOM     56  C   UNL A   1      43.402  24.664  26.282  1.00  0.00     0.074 A 
ATOM     57  C   UNL A   1      45.016  30.278  28.971  1.00  0.00     0.029 A 
ATOM     58  N   UNL A   1      45.214  28.749  27.388  1.00  0.00    -0.354 N 
ATOM     59  N   UNL A   1      42.533  25.625  26.421  1.00  0.00    -0.248 NA
ATOM     60  C   UNL A   1      44.681  25.053  25.702  1.00  0.00     0.031 C 
ATOM     61  C   UNL A   1      43.724  29.926  28.478  1.00  0.00     0.029 A 
ATOM     62  C   UNL A   1      43.866  28.866  27.583  1.00  0.00     0.049 A 
ATOM     63  H   UNL A   1      45.636  28.272  26.637  1.00  0.00     0.167 HD
ATOM     64  C   UNL A   1      43.287  26.780  26.355  1.00  0.00     0.074 A 
ATOM     65  C   UNL A   1      44.545  26.381  25.738  1.00  0.00     0.031 C 
ATOM     66  C   UNL A   1      42.936  27.877  27.084  1.00  0.00     0.037 A 
BRANCH  53  67
ATOM     67  C   UNL A   1      48.335  28.886  27.776  1.00  0.00     0.064 A 
ATOM     68  C   UNL A   1      48.612  27.800  26.916  1.00  0.00     0.173 A 
ATOM     69  C   UNL A   1      49.377  29.829  27.909  1.00  0.00     0.173 A 
ATOM     70  F   UNL A   1      47.711  26.822  26.740  1.00  0.00    -0.203 F 
ATOM     71  C   UNL A   1      49.854  27.646  26.290  1.00  0.00     0.198 A 
ATOM     72  C   UNL A   1      50.596  29.699  27.244  1.00  0.00     0.198 A 
ATOM     73  F   UNL A   1      49.305  30.848  28.773  1.00  0.00    -0.203 F 
ATOM     74  F   UNL A   1      50.110  26.540  25.578  1.00  0.00    -0.200 F 
ATOM     75  C   UNL A   1      50.846  28.595  26.457  1.00  0.00     0.200 A 
ATOM     76  F   UNL A   1      51.556  30.614  27.443  1.00  0.00    -0.200 F 
ATOM     77  F   UNL A   1      52.054  28.422  25.907  1.00  0.00    -0.200 F 
ENDBRANCH  53  67
BRANCH  54  78
ATOM     78  C   UNL A   1      43.386  22.079  26.157  1.00  0.00     0.064 A 
ATOM     79  C   UNL A   1      44.640  21.588  25.751  1.00  0.00     0.173 A 
ATOM     80  C   UNL A   1      42.311  21.173  26.095  1.00  0.00     0.173 A 
ATOM     81  F   UNL A   1      45.723  22.378  25.803  1.00  0.00    -0.203 F 
ATOM     82  C   UNL A   1      44.821  20.253  25.377  1.00  0.00     0.198 A 
ATOM     83  C   UNL A   1      42.492  19.842  25.713  1.00  0.00     0.198 A 
ATOM     84  F   UNL A   1      41.085  21.529  26.505  1.00  0.00    -0.203 F 
ATOM     85  F   UNL A   1      46.048  19.800  25.085  1.00  0.00    -0.200 F 
ATOM     86  C   UNL A   1      43.750  19.377  25.377  1.00  0.00     0.200 A 
ATOM     87  F   UNL A   1      41.453  18.995  25.749  1.00  0.00    -0.200 F 
ATOM     88  F   UNL A   1      43.935  18.078  25.101  1.00  0.00    -0.200 F 
ENDBRANCH  54  78
BRANCH  66  89
ATOM     89  C   UNL A   1      41.518  27.959  27.562  1.00  0.00     0.064 A 
ATOM     90  C   UNL A   1      41.047  27.398  28.761  1.00  0.00     0.173 A 
ATOM     91  C   UNL A   1      40.622  28.735  26.814  1.00  0.00     0.173 A 
ATOM     92  F   UNL A   1      41.864  26.708  29.568  1.00  0.00    -0.203 F 
ATOM     93  C   UNL A   1      39.728  27.584  29.172  1.00  0.00     0.198 A 
ATOM     94  C   UNL A   1      39.318  28.951  27.246  1.00  0.00     0.198 A 
ATOM     95  F   UNL A   1      41.032  29.328  25.681  1.00  0.00    -0.203 F 
ATOM     96  F   UNL A   1      39.295  27.034  30.317  1.00  0.00    -0.200 F 
ATOM     97  C   UNL A   1      38.870  28.370  28.420  1.00  0.00     0.200 A 
ATOM     98  F   UNL A   1      38.506  29.748  26.537  1.00  0.00    -0.200 F 
ATOM     99  F   UNL A   1      37.616  28.589  28.841  1.00  0.00    -0.200 F 
ENDBRANCH  66  89
ENDBRANCH  40  41
ENDBRANCH  32  35
ENDBRANCH  30  31
ENDBRANCH   1  30
TORSDOF 12
ENDMDL
