MODEL 1
REMARK VINA RESULT:     -12.4      0.000      0.000
REMARK SMILES Cc1cc(N(C)[C@H](C)C(=O)NCCCNC(=O)c2ccc(-c3c4nc(c(-c5c(F)c(F)c(F)c(F)c5F)c5ccc([nH]5)c(-c5c(F)c(F)c(F)c(F)c5F)c5nc(c(-c6c(F)c(F)c(F)c(F)c6F)c6ccc3[nH]6)C=C5)C=C4)cc2)ncc1[N+](=O)[O-]
REMARK SMILES IDX 12 1 11 2 9 3 10 4 7 6 8 7 5 8 6 9 4 10 1 11 2 12 3 13 83 14
REMARK SMILES IDX 82 15 81 16 84 17 85 18 86 19 13 20 14 21 15 22 16 23 17 25
REMARK SMILES IDX 18 26 19 27 80 28 20 29 79 30 21 31 22 32 23 33 73 34 24 35
REMARK SMILES IDX 78 36 72 37 74 38 25 39 77 40 71 41 70 42 26 44 58 45 38 46
REMARK SMILES IDX 57 47 39 48 42 49 56 50 75 51 40 52 41 53 55 55 76 56 43 57
REMARK SMILES IDX 27 58 28 59 36 60 29 61 30 62 34 63 37 64 31 65 32 66 35 67
REMARK SMILES IDX 33 68 59 69 60 70 68 71 61 72 62 73 66 74 69 75 63 76 64 77
REMARK SMILES IDX 67 78 65 79 44 80 45 81 53 82 46 83 47 84 51 85 54 86 48 87
REMARK SMILES IDX 49 88 52 89 50 90
REMARK H PARENT 11 5 15 24 74 43 42 54
REMARK Flexibility Score: inf
ROOT
ATOM      1  C   UNL A   1      31.946  30.615  26.065  1.00  0.00     0.117 C 
ENDROOT
BRANCH   1   2
ATOM      2  N   UNL A   1      31.522  29.486  26.870  1.00  0.00    -0.354 N 
ATOM      3  C   UNL A   1      31.774  28.152  26.737  1.00  0.00     0.242 C 
ATOM      4  O   UNL A   1      31.440  27.448  27.698  1.00  0.00    -0.273 OA
ATOM      5  H   UNL A   1      30.957  29.721  27.642  1.00  0.00     0.163 HD
BRANCH   3   6
ATOM      6  C   UNL A   1      32.418  27.530  25.479  1.00  0.00     0.169 C 
ATOM      7  C   UNL A   1      33.590  26.609  25.827  1.00  0.00     0.042 C 
BRANCH   6   8
ATOM      8  N   UNL A   1      31.469  26.905  24.513  1.00  0.00    -0.348 N 
ATOM      9  C   UNL A   1      31.111  25.498  24.564  1.00  0.00     0.146 C 
BRANCH   8  10
ATOM     10  C   UNL A   1      30.728  27.754  23.695  1.00  0.00     0.129 A 
ATOM     11  C   UNL A   1      27.081  28.633  23.239  1.00  0.00     0.052 C 
ATOM     12  C   UNL A   1      28.565  28.715  23.020  1.00  0.00     0.032 A 
ATOM     13  C   UNL A   1      29.330  27.740  23.693  1.00  0.00     0.057 A 
ATOM     14  C   UNL A   1      29.267  29.655  22.262  1.00  0.00     0.290 A 
ATOM     15  C   UNL A   1      30.653  29.573  22.240  1.00  0.00     0.199 A 
ATOM     16  N   UNL A   1      31.374  28.650  22.926  1.00  0.00    -0.232 NA
BRANCH  14  17
ATOM     17  N   UNL A   1      28.651  30.721  21.478  1.00  0.00     0.064 N 
ATOM     18  O   UNL A   1      28.845  31.887  21.849  1.00  0.00    -0.258 OA
ATOM     19  O   UNL A   1      27.995  30.416  20.475  1.00  0.00    -0.258 OA
ENDBRANCH  14  17
ENDBRANCH   8  10
ENDBRANCH   6   8
ENDBRANCH   3   6
ENDBRANCH   1   2
BRANCH   1  20
ATOM     20  C   UNL A   1      31.561  31.946  26.678  1.00  0.00     0.042 C 
BRANCH  20  21
ATOM     21  C   UNL A   1      32.742  32.674  27.303  1.00  0.00     0.118 C 
BRANCH  21  22
ATOM     22  N   UNL A   1      32.458  34.072  27.613  1.00  0.00    -0.352 N 
ATOM     23  C   UNL A   1      32.984  34.904  28.575  1.00  0.00     0.251 C 
ATOM     24  H   UNL A   1      31.775  34.490  27.039  1.00  0.00     0.163 HD
ATOM     25  O   UNL A   1      32.470  35.991  28.794  1.00  0.00    -0.269 OA
BRANCH  23  26
ATOM     26  C   UNL A   1      34.155  34.465  29.364  1.00  0.00     0.039 A 
ATOM     27  C   UNL A   1      33.958  33.878  30.615  1.00  0.00     0.014 A 
ATOM     28  C   UNL A   1      35.446  34.615  28.857  1.00  0.00     0.014 A 
ATOM     29  C   UNL A   1      35.050  33.352  31.307  1.00  0.00     0.010 A 
ATOM     30  C   UNL A   1      36.507  33.979  29.482  1.00  0.00     0.010 A 
ATOM     31  C   UNL A   1      36.326  33.347  30.720  1.00  0.00    -0.014 A 
BRANCH  31  32
ATOM     32  C   UNL A   1      37.492  32.707  31.379  1.00  0.00     0.031 A 
ATOM     33  C   UNL A   1      38.202  31.567  30.699  1.00  0.00     0.074 A 
ATOM     34  C   UNL A   1      37.855  33.091  32.620  1.00  0.00     0.049 A 
ATOM     35  N   UNL A   1      39.161  30.800  31.151  1.00  0.00    -0.248 NA
ATOM     36  C   UNL A   1      37.746  31.217  29.344  1.00  0.00     0.031 C 
ATOM     37  C   UNL A   1      37.207  34.143  33.406  1.00  0.00     0.029 A 
ATOM     38  N   UNL A   1      38.851  32.630  33.443  1.00  0.00    -0.354 N 
ATOM     39  C   UNL A   1      39.405  29.873  30.147  1.00  0.00     0.074 A 
ATOM     40  C   UNL A   1      38.449  30.123  29.093  1.00  0.00     0.031 C 
ATOM     41  C   UNL A   1      37.843  34.269  34.583  1.00  0.00     0.029 A 
ATOM     42  C   UNL A   1      38.909  33.276  34.655  1.00  0.00     0.049 A 
ATOM     43  H   UNL A   1      39.467  31.905  33.190  1.00  0.00     0.167 HD
ATOM     44  C   UNL A   1      40.364  28.919  30.094  1.00  0.00     0.037 A 
ATOM     45  C   UNL A   1      39.725  33.080  35.708  1.00  0.00     0.037 A 
ATOM     46  C   UNL A   1      41.336  28.697  31.129  1.00  0.00     0.049 A 
ATOM     47  C   UNL A   1      40.779  32.008  35.622  1.00  0.00     0.074 A 
ATOM     48  C   UNL A   1      42.385  27.795  31.150  1.00  0.00     0.029 A 
ATOM     49  N   UNL A   1      41.381  29.391  32.329  1.00  0.00    -0.354 N 
ATOM     50  N   UNL A   1      41.045  31.182  34.639  1.00  0.00    -0.248 NA
ATOM     51  C   UNL A   1      41.654  31.845  36.792  1.00  0.00     0.031 C 
ATOM     52  C   UNL A   1      43.036  27.911  32.381  1.00  0.00     0.029 A 
ATOM     53  C   UNL A   1      42.429  28.925  33.105  1.00  0.00     0.049 A 
ATOM     54  H   UNL A   1      40.761  30.109  32.591  1.00  0.00     0.167 HD
ATOM     55  C   UNL A   1      42.133  30.428  35.056  1.00  0.00     0.074 A 
ATOM     56  C   UNL A   1      42.491  30.906  36.376  1.00  0.00     0.031 C 
ATOM     57  C   UNL A   1      42.780  29.428  34.408  1.00  0.00     0.037 A 
BRANCH  44  58
ATOM     58  C   UNL A   1      40.420  28.054  28.866  1.00  0.00     0.064 A 
ATOM     59  C   UNL A   1      41.186  28.416  27.747  1.00  0.00     0.173 A 
ATOM     60  C   UNL A   1      39.738  26.829  28.824  1.00  0.00     0.173 A 
ATOM     61  F   UNL A   1      41.846  29.584  27.731  1.00  0.00    -0.203 F 
ATOM     62  C   UNL A   1      41.245  27.598  26.623  1.00  0.00     0.198 A 
ATOM     63  C   UNL A   1      39.826  25.997  27.711  1.00  0.00     0.198 A 
ATOM     64  F   UNL A   1      38.993  26.433  29.868  1.00  0.00    -0.203 F 
ATOM     65  F   UNL A   1      41.943  27.989  25.548  1.00  0.00    -0.200 F 
ATOM     66  C   UNL A   1      40.574  26.385  26.610  1.00  0.00     0.200 A 
ATOM     67  F   UNL A   1      39.187  24.820  27.705  1.00  0.00    -0.200 F 
ATOM     68  F   UNL A   1      40.642  25.592  25.531  1.00  0.00    -0.200 F 
ENDBRANCH  44  58
BRANCH  45  69
ATOM     69  C   UNL A   1      39.601  33.926  36.924  1.00  0.00     0.064 A 
ATOM     70  C   UNL A   1      38.835  33.504  38.020  1.00  0.00     0.173 A 
ATOM     71  C   UNL A   1      40.218  35.183  37.009  1.00  0.00     0.173 A 
ATOM     72  F   UNL A   1      38.208  32.318  37.981  1.00  0.00    -0.203 F 
ATOM     73  C   UNL A   1      38.663  34.318  39.138  1.00  0.00     0.198 A 
ATOM     74  C   UNL A   1      40.072  35.983  38.142  1.00  0.00     0.198 A 
ATOM     75  F   UNL A   1      40.970  35.633  35.994  1.00  0.00    -0.203 F 
ATOM     76  F   UNL A   1      37.875  33.913  40.144  1.00  0.00    -0.200 F 
ATOM     77  C   UNL A   1      39.285  35.554  39.200  1.00  0.00     0.200 A 
ATOM     78  F   UNL A   1      40.690  37.170  38.204  1.00  0.00    -0.200 F 
ATOM     79  F   UNL A   1      39.118  36.339  40.273  1.00  0.00    -0.200 F 
ENDBRANCH  45  69
BRANCH  57  80
ATOM     80  C   UNL A   1      43.969  28.818  35.092  1.00  0.00     0.064 A 
ATOM     81  C   UNL A   1      45.264  29.321  34.909  1.00  0.00     0.173 A 
ATOM     82  C   UNL A   1      43.798  27.741  35.976  1.00  0.00     0.173 A 
ATOM     83  F   UNL A   1      45.481  30.340  34.064  1.00  0.00    -0.203 F 
ATOM     84  C   UNL A   1      46.351  28.751  35.567  1.00  0.00     0.198 A 
ATOM     85  C   UNL A   1      44.882  27.196  36.657  1.00  0.00     0.198 A 
ATOM     86  F   UNL A   1      42.578  27.229  36.192  1.00  0.00    -0.203 F 
ATOM     87  F   UNL A   1      47.588  29.215  35.339  1.00  0.00    -0.200 F 
ATOM     88  C   UNL A   1      46.158  27.696  36.446  1.00  0.00     0.200 A 
ATOM     89  F   UNL A   1      44.691  26.189  37.519  1.00  0.00    -0.200 F 
ATOM     90  F   UNL A   1      47.204  27.155  37.085  1.00  0.00    -0.200 F 
ENDBRANCH  57  80
ENDBRANCH  31  32
ENDBRANCH  23  26
ENDBRANCH  21  22
ENDBRANCH  20  21
ENDBRANCH   1  20
TORSDOF 13
ENDMDL
MODEL 2
REMARK VINA RESULT:     -12.3      0.154      1.661
REMARK SMILES Cc1cc(N(C)[C@H](C)C(=O)NCCCNC(=O)c2ccc(-c3c4nc(c(-c5c(F)c(F)c(F)c(F)c5F)c5ccc([nH]5)c(-c5c(F)c(F)c(F)c(F)c5F)c5nc(c(-c6c(F)c(F)c(F)c(F)c6F)c6ccc3[nH]6)C=C5)C=C4)cc2)ncc1[N+](=O)[O-]
REMARK SMILES IDX 12 1 11 2 9 3 10 4 7 6 8 7 5 8 6 9 4 10 1 11 2 12 3 13 83 14
REMARK SMILES IDX 82 15 81 16 84 17 85 18 86 19 13 20 14 21 15 22 16 23 17 25
REMARK SMILES IDX 18 26 19 27 80 28 20 29 79 30 21 31 22 32 23 33 73 34 24 35
REMARK SMILES IDX 78 36 72 37 74 38 25 39 77 40 71 41 70 42 26 44 58 45 38 46
REMARK SMILES IDX 57 47 39 48 42 49 56 50 75 51 40 52 41 53 55 55 76 56 43 57
REMARK SMILES IDX 27 58 28 59 36 60 29 61 30 62 34 63 37 64 31 65 32 66 35 67
REMARK SMILES IDX 33 68 59 69 60 70 68 71 61 72 62 73 66 74 69 75 63 76 64 77
REMARK SMILES IDX 67 78 65 79 44 80 45 81 53 82 46 83 47 84 51 85 54 86 48 87
REMARK SMILES IDX 49 88 52 89 50 90
REMARK H PARENT 11 5 15 24 74 43 42 54
REMARK Flexibility Score: inf
ROOT
ATOM      1  C   UNL A   1      32.054  30.463  26.003  1.00  0.00     0.117 C 
ENDROOT
BRANCH   1   2
ATOM      2  N   UNL A   1      31.592  29.363  26.825  1.00  0.00    -0.354 N 
ATOM      3  C   UNL A   1      31.773  28.016  26.697  1.00  0.00     0.242 C 
ATOM      4  O   UNL A   1      31.426  27.336  27.670  1.00  0.00    -0.273 OA
ATOM      5  H   UNL A   1      31.057  29.631  27.608  1.00  0.00     0.163 HD
BRANCH   3   6
ATOM      6  C   UNL A   1      32.356  27.354  25.429  1.00  0.00     0.169 C 
ATOM      7  C   UNL A   1      33.479  26.368  25.759  1.00  0.00     0.042 C 
BRANCH   6   8
ATOM      8  N   UNL A   1      31.354  26.782  24.484  1.00  0.00    -0.348 N 
ATOM      9  C   UNL A   1      30.923  25.397  24.543  1.00  0.00     0.146 C 
BRANCH   8  10
ATOM     10  C   UNL A   1      30.643  27.671  23.682  1.00  0.00     0.129 A 
ATOM     11  C   UNL A   1      27.014  28.579  23.142  1.00  0.00     0.052 C 
ATOM     12  C   UNL A   1      28.505  28.668  22.979  1.00  0.00     0.032 A 
ATOM     13  C   UNL A   1      29.246  27.661  23.631  1.00  0.00     0.057 A 
ATOM     14  C   UNL A   1      29.233  29.641  22.292  1.00  0.00     0.290 A 
ATOM     15  C   UNL A   1      30.620  29.558  22.314  1.00  0.00     0.199 A 
ATOM     16  N   UNL A   1      31.316  28.601  22.980  1.00  0.00    -0.232 NA
BRANCH  14  17
ATOM     17  N   UNL A   1      28.645  30.745  21.539  1.00  0.00     0.064 N 
ATOM     18  O   UNL A   1      28.028  30.464  20.501  1.00  0.00    -0.258 OA
ATOM     19  O   UNL A   1      28.762  31.893  21.982  1.00  0.00    -0.258 OA
ENDBRANCH  14  17
ENDBRANCH   8  10
ENDBRANCH   6   8
ENDBRANCH   3   6
ENDBRANCH   1   2
BRANCH   1  20
ATOM     20  C   UNL A   1      31.661  31.815  26.562  1.00  0.00     0.042 C 
BRANCH  20  21
ATOM     21  C   UNL A   1      32.809  32.519  27.271  1.00  0.00     0.118 C 
BRANCH  21  22
ATOM     22  N   UNL A   1      32.527  33.919  27.574  1.00  0.00    -0.352 N 
ATOM     23  C   UNL A   1      33.041  34.751  28.542  1.00  0.00     0.251 C 
ATOM     24  H   UNL A   1      31.855  34.339  26.989  1.00  0.00     0.163 HD
ATOM     25  O   UNL A   1      32.529  35.840  28.751  1.00  0.00    -0.269 OA
BRANCH  23  26
ATOM     26  C   UNL A   1      34.198  34.308  29.350  1.00  0.00     0.039 A 
ATOM     27  C   UNL A   1      33.976  33.636  30.553  1.00  0.00     0.014 A 
ATOM     28  C   UNL A   1      35.500  34.540  28.908  1.00  0.00     0.014 A 
ATOM     29  C   UNL A   1      35.061  33.109  31.257  1.00  0.00     0.010 A 
ATOM     30  C   UNL A   1      36.561  33.906  29.535  1.00  0.00     0.010 A 
ATOM     31  C   UNL A   1      36.358  33.191  30.723  1.00  0.00    -0.014 A 
BRANCH  31  32
ATOM     32  C   UNL A   1      37.523  32.556  31.390  1.00  0.00     0.031 A 
ATOM     33  C   UNL A   1      38.239  31.416  30.716  1.00  0.00     0.074 A 
ATOM     34  C   UNL A   1      37.880  32.945  32.630  1.00  0.00     0.049 A 
ATOM     35  N   UNL A   1      39.198  30.652  31.174  1.00  0.00    -0.248 NA
ATOM     36  C   UNL A   1      37.789  31.060  29.360  1.00  0.00     0.031 C 
ATOM     37  C   UNL A   1      37.226  33.998  33.411  1.00  0.00     0.029 A 
ATOM     38  N   UNL A   1      38.873  32.489  33.459  1.00  0.00    -0.354 N 
ATOM     39  C   UNL A   1      39.448  29.722  30.175  1.00  0.00     0.074 A 
ATOM     40  C   UNL A   1      38.496  29.967  29.116  1.00  0.00     0.031 C 
ATOM     41  C   UNL A   1      37.857  34.128  34.590  1.00  0.00     0.029 A 
ATOM     42  C   UNL A   1      38.925  33.138  34.670  1.00  0.00     0.049 A 
ATOM     43  H   UNL A   1      39.492  31.765  33.211  1.00  0.00     0.167 HD
ATOM     44  C   UNL A   1      40.409  28.770  30.128  1.00  0.00     0.037 A 
ATOM     45  C   UNL A   1      39.737  32.948  35.726  1.00  0.00     0.037 A 
ATOM     46  C   UNL A   1      41.378  28.555  31.169  1.00  0.00     0.049 A 
ATOM     47  C   UNL A   1      40.794  31.878  35.649  1.00  0.00     0.074 A 
ATOM     48  C   UNL A   1      42.429  27.655  31.197  1.00  0.00     0.029 A 
ATOM     49  N   UNL A   1      41.416  29.252  32.366  1.00  0.00    -0.354 N 
ATOM     50  N   UNL A   1      41.066  31.050  34.669  1.00  0.00    -0.248 NA
ATOM     51  C   UNL A   1      41.664  31.721  36.823  1.00  0.00     0.031 C 
ATOM     52  C   UNL A   1      43.074  27.776  32.430  1.00  0.00     0.029 A 
ATOM     53  C   UNL A   1      42.462  28.791  33.148  1.00  0.00     0.049 A 
ATOM     54  H   UNL A   1      40.793  29.970  32.623  1.00  0.00     0.167 HD
ATOM     55  C   UNL A   1      42.154  30.300  35.094  1.00  0.00     0.074 A 
ATOM     56  C   UNL A   1      42.505  30.783  36.413  1.00  0.00     0.031 C 
ATOM     57  C   UNL A   1      42.805  29.299  34.451  1.00  0.00     0.037 A 
BRANCH  44  58
ATOM     58  C   UNL A   1      40.473  27.902  28.904  1.00  0.00     0.064 A 
ATOM     59  C   UNL A   1      39.732  26.714  28.807  1.00  0.00     0.173 A 
ATOM     60  C   UNL A   1      41.247  28.283  27.798  1.00  0.00     0.173 A 
ATOM     61  F   UNL A   1      38.987  26.296  29.842  1.00  0.00    -0.203 F 
ATOM     62  C   UNL A   1      39.785  25.926  27.660  1.00  0.00     0.198 A 
ATOM     63  C   UNL A   1      41.271  27.511  26.640  1.00  0.00     0.198 A 
ATOM     64  F   UNL A   1      41.973  29.411  27.836  1.00  0.00    -0.203 F 
ATOM     65  F   UNL A   1      39.108  24.772  27.611  1.00  0.00    -0.200 F 
ATOM     66  C   UNL A   1      40.546  26.331  26.574  1.00  0.00     0.200 A 
ATOM     67  F   UNL A   1      41.997  27.909  25.586  1.00  0.00    -0.200 F 
ATOM     68  F   UNL A   1      40.586  25.578  25.465  1.00  0.00    -0.200 F 
ENDBRANCH  44  58
BRANCH  45  69
ATOM     69  C   UNL A   1      39.605  33.798  36.940  1.00  0.00     0.064 A 
ATOM     70  C   UNL A   1      38.798  33.398  38.014  1.00  0.00     0.173 A 
ATOM     71  C   UNL A   1      40.257  35.036  37.042  1.00  0.00     0.173 A 
ATOM     72  F   UNL A   1      38.138  32.231  37.958  1.00  0.00    -0.203 F 
ATOM     73  C   UNL A   1      38.621  34.217  39.128  1.00  0.00     0.198 A 
ATOM     74  C   UNL A   1      40.105  35.839  38.170  1.00  0.00     0.198 A 
ATOM     75  F   UNL A   1      41.048  35.463  36.047  1.00  0.00    -0.203 F 
ATOM     76  F   UNL A   1      37.795  33.836  40.113  1.00  0.00    -0.200 F 
ATOM     77  C   UNL A   1      39.277  35.435  39.207  1.00  0.00     0.200 A 
ATOM     78  F   UNL A   1      40.755  37.008  38.250  1.00  0.00    -0.200 F 
ATOM     79  F   UNL A   1      39.105  36.224  40.276  1.00  0.00    -0.200 F 
ENDBRANCH  45  69
BRANCH  57  80
ATOM     80  C   UNL A   1      43.993  28.694  35.142  1.00  0.00     0.064 A 
ATOM     81  C   UNL A   1      43.870  27.575  35.977  1.00  0.00     0.173 A 
ATOM     82  C   UNL A   1      45.277  29.218  34.928  1.00  0.00     0.173 A 
ATOM     83  F   UNL A   1      42.662  27.045  36.224  1.00  0.00    -0.203 F 
ATOM     84  C   UNL A   1      44.986  27.018  36.596  1.00  0.00     0.198 A 
ATOM     85  C   UNL A   1      46.394  28.639  35.521  1.00  0.00     0.198 A 
ATOM     86  F   UNL A   1      45.450  30.283  34.131  1.00  0.00    -0.203 F 
ATOM     87  F   UNL A   1      44.839  25.980  37.430  1.00  0.00    -0.200 F 
ATOM     88  C   UNL A   1      46.248  27.545  36.360  1.00  0.00     0.200 A 
ATOM     89  F   UNL A   1      47.614  29.139  35.279  1.00  0.00    -0.200 F 
ATOM     90  F   UNL A   1      47.322  27.002  36.949  1.00  0.00    -0.200 F 
ENDBRANCH  57  80
ENDBRANCH  31  32
ENDBRANCH  23  26
ENDBRANCH  21  22
ENDBRANCH  20  21
ENDBRANCH   1  20
TORSDOF 13
ENDMDL
MODEL 3
REMARK VINA RESULT:     -12.2      0.476      7.461
REMARK SMILES Cc1cc(N(C)[C@H](C)C(=O)NCCCNC(=O)c2ccc(-c3c4nc(c(-c5c(F)c(F)c(F)c(F)c5F)c5ccc([nH]5)c(-c5c(F)c(F)c(F)c(F)c5F)c5nc(c(-c6c(F)c(F)c(F)c(F)c6F)c6ccc3[nH]6)C=C5)C=C4)cc2)ncc1[N+](=O)[O-]
REMARK SMILES IDX 12 1 11 2 9 3 10 4 7 6 8 7 5 8 6 9 4 10 1 11 2 12 3 13 83 14
REMARK SMILES IDX 82 15 81 16 84 17 85 18 86 19 13 20 14 21 15 22 16 23 17 25
REMARK SMILES IDX 18 26 19 27 80 28 20 29 79 30 21 31 22 32 23 33 73 34 24 35
REMARK SMILES IDX 78 36 72 37 74 38 25 39 77 40 71 41 70 42 26 44 58 45 38 46
REMARK SMILES IDX 57 47 39 48 42 49 56 50 75 51 40 52 41 53 55 55 76 56 43 57
REMARK SMILES IDX 27 58 28 59 36 60 29 61 30 62 34 63 37 64 31 65 32 66 35 67
REMARK SMILES IDX 33 68 59 69 60 70 68 71 61 72 62 73 66 74 69 75 63 76 64 77
REMARK SMILES IDX 67 78 65 79 44 80 45 81 53 82 46 83 47 84 51 85 54 86 48 87
REMARK SMILES IDX 49 88 52 89 50 90
REMARK H PARENT 11 5 15 24 74 43 42 54
REMARK Flexibility Score: inf
ROOT
ATOM      1  C   UNL A   1      31.688  30.811  26.006  1.00  0.00     0.117 C 
ENDROOT
BRANCH   1   2
ATOM      2  N   UNL A   1      31.471  29.716  26.931  1.00  0.00    -0.354 N 
ATOM      3  C   UNL A   1      31.843  28.405  26.865  1.00  0.00     0.242 C 
ATOM      4  O   UNL A   1      31.688  27.753  27.904  1.00  0.00    -0.273 OA
ATOM      5  H   UNL A   1      30.970  29.959  27.745  1.00  0.00     0.163 HD
BRANCH   3   6
ATOM      6  C   UNL A   1      32.410  27.747  25.588  1.00  0.00     0.169 C 
ATOM      7  C   UNL A   1      33.617  26.854  25.887  1.00  0.00     0.042 C 
BRANCH   6   8
ATOM      8  N   UNL A   1      31.407  27.075  24.712  1.00  0.00    -0.348 N 
ATOM      9  C   UNL A   1      30.990  25.697  24.911  1.00  0.00     0.146 C 
BRANCH   8  10
ATOM     10  C   UNL A   1      30.681  27.873  23.832  1.00  0.00     0.129 A 
ATOM     11  C   UNL A   1      27.038  28.667  23.216  1.00  0.00     0.052 C 
ATOM     12  C   UNL A   1      28.526  28.765  23.043  1.00  0.00     0.032 A 
ATOM     13  C   UNL A   1      29.284  27.835  23.785  1.00  0.00     0.057 A 
ATOM     14  C   UNL A   1      29.239  29.682  22.267  1.00  0.00     0.290 A 
ATOM     15  C   UNL A   1      30.626  29.624  22.294  1.00  0.00     0.199 A 
ATOM     16  N   UNL A   1      31.338  28.745  23.046  1.00  0.00    -0.232 NA
BRANCH  14  17
ATOM     17  N   UNL A   1      28.632  30.701  21.415  1.00  0.00     0.064 N 
ATOM     18  O   UNL A   1      28.843  31.887  21.706  1.00  0.00    -0.258 OA
ATOM     19  O   UNL A   1      27.969  30.338  20.437  1.00  0.00    -0.258 OA
ENDBRANCH  14  17
ENDBRANCH   8  10
ENDBRANCH   6   8
ENDBRANCH   3   6
ENDBRANCH   1   2
BRANCH   1  20
ATOM     20  C   UNL A   1      31.416  32.164  26.629  1.00  0.00     0.042 C 
BRANCH  20  21
ATOM     21  C   UNL A   1      32.654  32.786  27.259  1.00  0.00     0.118 C 
BRANCH  21  22
ATOM     22  N   UNL A   1      32.458  34.177  27.662  1.00  0.00    -0.352 N 
ATOM     23  C   UNL A   1      33.040  34.911  28.670  1.00  0.00     0.251 C 
ATOM     24  H   UNL A   1      31.800  34.671  27.122  1.00  0.00     0.163 HD
ATOM     25  O   UNL A   1      32.595  36.011  28.963  1.00  0.00    -0.269 OA
BRANCH  23  26
ATOM     26  C   UNL A   1      34.185  34.350  29.418  1.00  0.00     0.039 A 
ATOM     27  C   UNL A   1      33.948  33.568  30.550  1.00  0.00     0.014 A 
ATOM     28  C   UNL A   1      35.492  34.582  28.989  1.00  0.00     0.014 A 
ATOM     29  C   UNL A   1      35.019  32.937  31.186  1.00  0.00     0.010 A 
ATOM     30  C   UNL A   1      36.535  33.853  29.540  1.00  0.00     0.010 A 
ATOM     31  C   UNL A   1      36.314  33.029  30.651  1.00  0.00    -0.014 A 
BRANCH  31  32
ATOM     32  C   UNL A   1      37.461  32.292  31.240  1.00  0.00     0.031 A 
ATOM     33  C   UNL A   1      37.980  32.679  32.598  1.00  0.00     0.074 A 
ATOM     34  C   UNL A   1      38.086  31.339  30.519  1.00  0.00     0.049 A 
ATOM     35  N   UNL A   1      39.036  32.245  33.238  1.00  0.00    -0.248 NA
ATOM     36  C   UNL A   1      37.234  33.724  33.320  1.00  0.00     0.031 C 
ATOM     37  C   UNL A   1      37.715  30.915  29.167  1.00  0.00     0.029 A 
ATOM     38  N   UNL A   1      39.177  30.562  30.820  1.00  0.00    -0.354 N 
ATOM     39  C   UNL A   1      39.087  32.974  34.418  1.00  0.00     0.074 A 
ATOM     40  C   UNL A   1      38.003  33.929  34.378  1.00  0.00     0.031 C 
ATOM     41  C   UNL A   1      38.542  29.935  28.769  1.00  0.00     0.029 A 
ATOM     42  C   UNL A   1      39.531  29.694  29.814  1.00  0.00     0.049 A 
ATOM     43  H   UNL A   1      39.661  30.621  31.674  1.00  0.00     0.167 HD
ATOM     44  C   UNL A   1      39.942  32.838  35.459  1.00  0.00     0.037 A 
ATOM     45  C   UNL A   1      40.545  28.811  29.743  1.00  0.00     0.037 A 
ATOM     46  C   UNL A   1      40.997  31.862  35.510  1.00  0.00     0.049 A 
ATOM     47  C   UNL A   1      41.483  28.684  30.914  1.00  0.00     0.074 A 
ATOM     48  C   UNL A   1      41.883  31.601  36.540  1.00  0.00     0.029 A 
ATOM     49  N   UNL A   1      41.304  30.980  34.485  1.00  0.00    -0.354 N 
ATOM     50  N   UNL A   1      41.480  29.332  32.054  1.00  0.00    -0.248 NA
ATOM     51  C   UNL A   1      42.564  27.696  30.791  1.00  0.00     0.031 C 
ATOM     52  C   UNL A   1      42.756  30.595  36.121  1.00  0.00     0.029 A 
ATOM     53  C   UNL A   1      42.379  30.187  34.851  1.00  0.00     0.049 A 
ATOM     54  H   UNL A   1      40.830  30.925  33.624  1.00  0.00     0.167 HD
ATOM     55  C   UNL A   1      42.532  28.809  32.794  1.00  0.00     0.074 A 
ATOM     56  C   UNL A   1      43.141  27.777  31.981  1.00  0.00     0.031 C 
ATOM     57  C   UNL A   1      42.957  29.152  34.035  1.00  0.00     0.037 A 
BRANCH  44  58
ATOM     58  C   UNL A   1      39.760  33.753  36.636  1.00  0.00     0.064 A 
ATOM     59  C   UNL A   1      40.373  35.014  36.687  1.00  0.00     0.173 A 
ATOM     60  C   UNL A   1      38.929  33.385  37.704  1.00  0.00     0.173 A 
ATOM     61  F   UNL A   1      41.190  35.409  35.698  1.00  0.00    -0.203 F 
ATOM     62  C   UNL A   1      40.183  35.861  37.775  1.00  0.00     0.198 A 
ATOM     63  C   UNL A   1      38.713  34.249  38.775  1.00  0.00     0.198 A 
ATOM     64  F   UNL A   1      38.315  32.191  37.705  1.00  0.00    -0.203 F 
ATOM     65  F   UNL A   1      40.818  37.039  37.824  1.00  0.00    -0.200 F 
ATOM     66  C   UNL A   1      39.345  35.482  38.813  1.00  0.00     0.200 A 
ATOM     67  F   UNL A   1      37.893  33.886  39.771  1.00  0.00    -0.200 F 
ATOM     68  F   UNL A   1      39.151  36.304  39.854  1.00  0.00    -0.200 F 
ENDBRANCH  44  58
BRANCH  45  69
ATOM     69  C   UNL A   1      40.718  27.961  28.536  1.00  0.00     0.064 A 
ATOM     70  C   UNL A   1      41.480  28.404  27.446  1.00  0.00     0.173 A 
ATOM     71  C   UNL A   1      40.106  26.702  28.432  1.00  0.00     0.173 A 
ATOM     72  F   UNL A   1      42.071  29.608  27.488  1.00  0.00    -0.203 F 
ATOM     73  C   UNL A   1      41.597  27.639  26.286  1.00  0.00     0.198 A 
ATOM     74  C   UNL A   1      40.250  25.924  27.284  1.00  0.00     0.198 A 
ATOM     75  F   UNL A   1      39.373  26.225  29.447  1.00  0.00    -0.203 F 
ATOM     76  F   UNL A   1      42.282  28.115  25.238  1.00  0.00    -0.200 F 
ATOM     77  C   UNL A   1      40.985  26.398  26.209  1.00  0.00     0.200 A 
ATOM     78  F   UNL A   1      39.672  24.717  27.221  1.00  0.00    -0.200 F 
ATOM     79  F   UNL A   1      41.094  25.663  25.093  1.00  0.00    -0.200 F 
ENDBRANCH  45  69
BRANCH  57  80
ATOM     80  C   UNL A   1      44.105  28.372  34.610  1.00  0.00     0.064 A 
ATOM     81  C   UNL A   1      45.432  28.803  34.474  1.00  0.00     0.173 A 
ATOM     82  C   UNL A   1      43.864  27.200  35.344  1.00  0.00     0.173 A 
ATOM     83  F   UNL A   1      45.714  29.910  33.770  1.00  0.00    -0.203 F 
ATOM     84  C   UNL A   1      46.480  28.074  35.030  1.00  0.00     0.198 A 
ATOM     85  C   UNL A   1      44.911  26.493  35.926  1.00  0.00     0.198 A 
ATOM     86  F   UNL A   1      42.612  26.751  35.510  1.00  0.00    -0.203 F 
ATOM     87  F   UNL A   1      47.745  28.477  34.845  1.00  0.00    -0.200 F 
ATOM     88  C   UNL A   1      46.218  26.926  35.762  1.00  0.00     0.200 A 
ATOM     89  F   UNL A   1      44.655  25.394  36.647  1.00  0.00    -0.200 F 
ATOM     90  F   UNL A   1      47.227  26.231  36.304  1.00  0.00    -0.200 F 
ENDBRANCH  57  80
ENDBRANCH  31  32
ENDBRANCH  23  26
ENDBRANCH  21  22
ENDBRANCH  20  21
ENDBRANCH   1  20
TORSDOF 13
ENDMDL
