MODEL 1
REMARK VINA RESULT:      -9.8      0.000      0.000
REMARK SMILES COc1ccc([C@@H]2[C@@H](C(=O)c3cccc4c3CCCC4)[C@H](C(=O)NCCCNC(=O)c3ccc(-c4c5nc(c(-c6c(F)c(F)c(F)c(F)c6F)c6ccc([nH]6)c(-c6c(F)c(F)c(F)c(F)c6F)c6nc(c(-c7c(F)c(F)c(F)c(F)c7F)c7ccc4[nH]7)C=C6)C=C5)cc3)SC3=NC(=O)S[C@H]32)cc1
REMARK SMILES IDX 26 1 25 2 24 3 22 4 23 5 21 7 7 8 8 9 100 10 95 11 99 12
REMARK SMILES IDX 94 13 96 14 97 15 98 16 6 17 3 18 4 19 102 20 5 21 101 22
REMARK SMILES IDX 2 23 1 24 9 25 10 26 11 27 12 28 16 29 13 30 15 31 17 32
REMARK SMILES IDX 14 33 20 34 18 35 19 36 27 37 28 38 29 39 30 41 31 42 32 43
REMARK SMILES IDX 93 44 33 45 92 46 34 47 35 48 36 49 86 50 37 51 91 52 85 53
REMARK SMILES IDX 87 54 38 55 90 56 84 57 83 58 39 60 71 61 51 62 70 63 52 64
REMARK SMILES IDX 55 65 69 66 88 67 53 68 54 69 68 71 89 72 56 73 40 74 41 75
REMARK SMILES IDX 49 76 42 77 43 78 47 79 50 80 44 81 45 82 48 83 46 84 72 85
REMARK SMILES IDX 73 86 81 87 74 88 75 89 79 90 82 91 76 92 77 93 80 94 78 95
REMARK SMILES IDX 57 96 58 97 66 98 59 99 60 100 64 101 67 102 61 103 62 104
REMARK SMILES IDX 65 105 63 106
REMARK H PARENT 24 6 28 40 87 59 55 70
REMARK Flexibility Score: inf
ROOT
ATOM      1  C   UNL A   1      49.135  24.697  33.359  1.00  0.00     0.042 C 
ENDROOT
BRANCH   1   2
ATOM      2  C   UNL A   1      48.877  26.031  32.668  1.00  0.00     0.117 C 
BRANCH   2   3
ATOM      3  N   UNL A   1      49.921  26.377  31.715  1.00  0.00    -0.355 N 
ATOM      4  C   UNL A   1      49.906  26.531  30.358  1.00  0.00     0.234 C 
ATOM      5  O   UNL A   1      50.951  26.906  29.817  1.00  0.00    -0.274 OA
ATOM      6  H   UNL A   1      50.804  26.527  32.125  1.00  0.00     0.163 HD
BRANCH   4   7
ATOM      7  C   UNL A   1      48.645  26.280  29.515  1.00  0.00     0.153 C 
ATOM      8  C   UNL A   1      46.911  27.499  27.971  1.00  0.00     0.052 C 
ATOM      9  C   UNL A   1      47.907  27.594  29.172  1.00  0.00     0.093 C 
ATOM     10  C   UNL A   1      47.545  26.841  26.722  1.00  0.00     0.121 C 
ATOM     11  C   UNL A   1      47.975  25.427  26.962  1.00  0.00     0.093 C 
ATOM     12  S   UNL A   1      46.387  26.635  25.315  1.00  0.00    -0.052 SA
ATOM     13  S   UNL A   1      49.137  25.109  28.194  1.00  0.00    -0.095 SA
ATOM     14  N   UNL A   1      47.585  24.467  26.198  1.00  0.00    -0.200 NA
ATOM     15  C   UNL A   1      46.747  24.916  25.208  1.00  0.00     0.306 C 
ATOM     16  O   UNL A   1      46.286  24.232  24.321  1.00  0.00    -0.259 OA
BRANCH   8  17
ATOM     17  C   UNL A   1      46.384  28.880  27.557  1.00  0.00    -0.042 A 
ATOM     18  C   UNL A   1      45.517  31.478  26.884  1.00  0.00     0.118 A 
ATOM     19  C   UNL A   1      46.780  31.039  26.500  1.00  0.00     0.047 A 
ATOM     20  C   UNL A   1      44.681  30.626  27.600  1.00  0.00     0.047 A 
ATOM     21  C   UNL A   1      47.225  29.771  26.874  1.00  0.00     0.008 A 
ATOM     22  C   UNL A   1      45.107  29.333  27.926  1.00  0.00     0.008 A 
BRANCH  18  23
ATOM     23  O   UNL A   1      45.164  32.730  26.463  1.00  0.00    -0.497 OA
ATOM     24  C   UNL A   1      44.152  33.344  27.255  1.00  0.00     0.278 C 
ENDBRANCH  18  23
ENDBRANCH   8  17
BRANCH   9  25
ATOM     25  C   UNL A   1      47.339  28.207  30.502  1.00  0.00     0.168 C 
ATOM     26  O   UNL A   1      46.568  27.556  31.207  1.00  0.00    -0.294 OA
BRANCH  25  27
ATOM     27  C   UNL A   1      47.630  29.620  30.900  1.00  0.00     0.021 A 
ATOM     28  C   UNL A   1      48.710  30.249  30.311  1.00  0.00     0.012 A 
ATOM     29  C   UNL A   1      46.600  30.425  31.387  1.00  0.00    -0.034 A 
ATOM     30  C   UNL A   1      48.550  31.551  29.835  1.00  0.00     0.001 A 
ATOM     31  C   UNL A   1      46.288  31.593  30.679  1.00  0.00    -0.044 A 
ATOM     32  C   UNL A   1      46.625  30.742  32.904  1.00  0.00     0.036 C 
ATOM     33  C   UNL A   1      47.296  32.171  29.907  1.00  0.00     0.004 A 
ATOM     34  C   UNL A   1      44.980  32.278  30.977  1.00  0.00     0.036 C 
ATOM     35  C   UNL A   1      45.440  31.596  33.381  1.00  0.00     0.005 C 
ATOM     36  C   UNL A   1      44.375  31.791  32.304  1.00  0.00     0.005 C 
ENDBRANCH  25  27
ENDBRANCH   9  25
ENDBRANCH   4   7
ENDBRANCH   2   3
ENDBRANCH   1   2
BRANCH   1  37
ATOM     37  C   UNL A   1      47.919  24.105  34.059  1.00  0.00     0.118 C 
BRANCH  37  38
ATOM     38  N   UNL A   1      47.868  24.428  35.477  1.00  0.00    -0.352 N 
ATOM     39  C   UNL A   1      47.084  25.326  36.159  1.00  0.00     0.251 C 
ATOM     40  H   UNL A   1      48.498  23.920  36.039  1.00  0.00     0.163 HD
ATOM     41  O   UNL A   1      47.320  25.551  37.343  1.00  0.00    -0.269 OA
BRANCH  39  42
ATOM     42  C   UNL A   1      45.980  26.047  35.484  1.00  0.00     0.039 A 
ATOM     43  C   UNL A   1      46.247  27.301  34.924  1.00  0.00     0.014 A 
ATOM     44  C   UNL A   1      44.686  25.526  35.426  1.00  0.00     0.014 A 
ATOM     45  C   UNL A   1      45.233  28.000  34.264  1.00  0.00     0.010 A 
ATOM     46  C   UNL A   1      43.703  26.176  34.683  1.00  0.00     0.010 A 
ATOM     47  C   UNL A   1      43.960  27.428  34.107  1.00  0.00    -0.014 A 
BRANCH  47  48
ATOM     48  C   UNL A   1      42.893  28.139  33.355  1.00  0.00     0.031 A 
ATOM     49  C   UNL A   1      42.633  27.821  31.908  1.00  0.00     0.074 A 
ATOM     50  C   UNL A   1      42.173  29.098  33.969  1.00  0.00     0.049 A 
ATOM     51  N   UNL A   1      41.734  28.321  31.096  1.00  0.00    -0.248 NA
ATOM     52  C   UNL A   1      43.518  26.828  31.281  1.00  0.00     0.031 C 
ATOM     53  C   UNL A   1      42.359  29.537  35.353  1.00  0.00     0.029 A 
ATOM     54  N   UNL A   1      41.137  29.871  33.511  1.00  0.00    -0.354 N 
ATOM     55  C   UNL A   1      41.949  27.706  29.870  1.00  0.00     0.074 A 
ATOM     56  C   UNL A   1      43.110  26.857  30.023  1.00  0.00     0.031 C 
ATOM     57  C   UNL A   1      41.433  30.461  35.647  1.00  0.00     0.029 A 
ATOM     58  C   UNL A   1      40.615  30.710  34.464  1.00  0.00     0.049 A 
ATOM     59  H   UNL A   1      40.798  29.828  32.588  1.00  0.00     0.167 HD
ATOM     60  C   UNL A   1      41.227  27.812  28.727  1.00  0.00     0.037 A 
ATOM     61  C   UNL A   1      39.584  31.573  34.396  1.00  0.00     0.037 A 
ATOM     62  C   UNL A   1      40.074  28.662  28.575  1.00  0.00     0.049 A 
ATOM     63  C   UNL A   1      38.817  31.699  33.108  1.00  0.00     0.074 A 
ATOM     64  C   UNL A   1      39.252  28.819  27.473  1.00  0.00     0.029 A 
ATOM     65  N   UNL A   1      39.585  29.513  29.558  1.00  0.00    -0.354 N 
ATOM     66  N   UNL A   1      38.982  31.060  31.976  1.00  0.00    -0.248 NA
ATOM     67  C   UNL A   1      37.708  32.662  33.099  1.00  0.00     0.031 C 
ATOM     68  C   UNL A   1      38.302  29.805  27.769  1.00  0.00     0.029 A 
ATOM     69  C   UNL A   1      38.489  30.214  29.080  1.00  0.00     0.049 A 
ATOM     70  H   UNL A   1      39.962  29.604  30.463  1.00  0.00     0.167 HD
ATOM     71  C   UNL A   1      37.977  31.514  31.131  1.00  0.00     0.074 A 
ATOM     72  C   UNL A   1      37.199  32.471  31.891  1.00  0.00     0.031 C 
ATOM     73  C   UNL A   1      37.722  31.168  29.844  1.00  0.00     0.037 A 
BRANCH  60  74
ATOM     74  C   UNL A   1      41.681  26.989  27.552  1.00  0.00     0.064 A 
ATOM     75  C   UNL A   1      41.554  25.589  27.537  1.00  0.00     0.173 A 
ATOM     76  C   UNL A   1      42.262  27.600  26.429  1.00  0.00     0.173 A 
ATOM     77  F   UNL A   1      41.015  24.950  28.587  1.00  0.00    -0.203 F 
ATOM     78  C   UNL A   1      42.041  24.833  26.474  1.00  0.00     0.198 A 
ATOM     79  C   UNL A   1      42.711  26.843  25.350  1.00  0.00     0.198 A 
ATOM     80  F   UNL A   1      42.401  28.933  26.380  1.00  0.00    -0.203 F 
ATOM     81  F   UNL A   1      41.980  23.495  26.523  1.00  0.00    -0.200 F 
ATOM     82  C   UNL A   1      42.615  25.460  25.379  1.00  0.00     0.200 A 
ATOM     83  F   UNL A   1      43.251  27.453  24.286  1.00  0.00    -0.200 F 
ATOM     84  F   UNL A   1      43.088  24.731  24.360  1.00  0.00    -0.200 F 
ENDBRANCH  60  74
BRANCH  61  85
ATOM     85  C   UNL A   1      39.181  32.342  35.602  1.00  0.00     0.064 A 
ATOM     86  C   UNL A   1      39.669  33.640  35.818  1.00  0.00     0.173 A 
ATOM     87  C   UNL A   1      38.299  31.810  36.553  1.00  0.00     0.173 A 
ATOM     88  F   UNL A   1      40.529  34.185  34.946  1.00  0.00    -0.203 F 
ATOM     89  C   UNL A   1      39.304  34.366  36.949  1.00  0.00     0.198 A 
ATOM     90  C   UNL A   1      37.913  32.550  37.669  1.00  0.00     0.198 A 
ATOM     91  F   UNL A   1      37.798  30.576  36.389  1.00  0.00    -0.203 F 
ATOM     92  F   UNL A   1      39.818  35.587  37.152  1.00  0.00    -0.200 F 
ATOM     93  C   UNL A   1      38.421  33.824  37.869  1.00  0.00     0.200 A 
ATOM     94  F   UNL A   1      37.043  32.030  38.546  1.00  0.00    -0.200 F 
ATOM     95  F   UNL A   1      38.063  34.528  38.952  1.00  0.00    -0.200 F 
ENDBRANCH  61  85
BRANCH  73  96
ATOM     96  C   UNL A   1      36.521  31.798  29.193  1.00  0.00     0.064 A 
ATOM     97  C   UNL A   1      36.473  33.167  28.884  1.00  0.00     0.173 A 
ATOM     98  C   UNL A   1      35.396  31.019  28.878  1.00  0.00     0.173 A 
ATOM     99  F   UNL A   1      37.514  33.961  29.176  1.00  0.00    -0.203 F 
ATOM    100  C   UNL A   1      35.330  33.739  28.332  1.00  0.00     0.198 A 
ATOM    101  C   UNL A   1      34.269  31.587  28.289  1.00  0.00     0.198 A 
ATOM    102  F   UNL A   1      35.388  29.704  29.142  1.00  0.00    -0.203 F 
ATOM    103  F   UNL A   1      35.281  35.061  28.117  1.00  0.00    -0.200 F 
ATOM    104  C   UNL A   1      34.231  32.948  28.032  1.00  0.00     0.200 A 
ATOM    105  F   UNL A   1      33.215  30.818  27.984  1.00  0.00    -0.200 F 
ATOM    106  F   UNL A   1      33.130  33.501  27.504  1.00  0.00    -0.200 F 
ENDBRANCH  73  96
ENDBRANCH  47  48
ENDBRANCH  39  42
ENDBRANCH  37  38
ENDBRANCH   1  37
TORSDOF 14
ENDMDL
MODEL 2
REMARK VINA RESULT:      -9.6      2.297      4.073
REMARK SMILES COc1ccc([C@@H]2[C@@H](C(=O)c3cccc4c3CCCC4)[C@H](C(=O)NCCCNC(=O)c3ccc(-c4c5nc(c(-c6c(F)c(F)c(F)c(F)c6F)c6ccc([nH]6)c(-c6c(F)c(F)c(F)c(F)c6F)c6nc(c(-c7c(F)c(F)c(F)c(F)c7F)c7ccc4[nH]7)C=C6)C=C5)cc3)SC3=NC(=O)S[C@H]32)cc1
REMARK SMILES IDX 26 1 25 2 24 3 22 4 23 5 21 7 7 8 8 9 100 10 95 11 99 12
REMARK SMILES IDX 94 13 96 14 97 15 98 16 6 17 3 18 4 19 102 20 5 21 101 22
REMARK SMILES IDX 2 23 1 24 9 25 10 26 11 27 12 28 16 29 13 30 15 31 17 32
REMARK SMILES IDX 14 33 20 34 18 35 19 36 27 37 28 38 29 39 30 41 31 42 32 43
REMARK SMILES IDX 93 44 33 45 92 46 34 47 35 48 36 49 86 50 37 51 91 52 85 53
REMARK SMILES IDX 87 54 38 55 90 56 84 57 83 58 39 60 71 61 51 62 70 63 52 64
REMARK SMILES IDX 55 65 69 66 88 67 53 68 54 69 68 71 89 72 56 73 40 74 41 75
REMARK SMILES IDX 49 76 42 77 43 78 47 79 50 80 44 81 45 82 48 83 46 84 72 85
REMARK SMILES IDX 73 86 81 87 74 88 75 89 79 90 82 91 76 92 77 93 80 94 78 95
REMARK SMILES IDX 57 96 58 97 66 98 59 99 60 100 64 101 67 102 61 103 62 104
REMARK SMILES IDX 65 105 63 106
REMARK H PARENT 24 6 28 40 87 59 55 70
REMARK Flexibility Score: inf
ROOT
ATOM      1  C   UNL A   1      49.317  23.365  33.967  1.00  0.00     0.042 C 
ENDROOT
BRANCH   1   2
ATOM      2  C   UNL A   1      50.184  24.029  32.904  1.00  0.00     0.117 C 
BRANCH   2   3
ATOM      3  N   UNL A   1      49.763  25.392  32.612  1.00  0.00    -0.355 N 
ATOM      4  C   UNL A   1      50.138  26.276  31.640  1.00  0.00     0.234 C 
ATOM      5  O   UNL A   1      49.545  27.358  31.598  1.00  0.00    -0.274 OA
ATOM      6  H   UNL A   1      49.082  25.742  33.230  1.00  0.00     0.163 HD
BRANCH   4   7
ATOM      7  C   UNL A   1      51.235  25.953  30.612  1.00  0.00     0.153 C 
ATOM      8  C   UNL A   1      51.941  26.408  28.128  1.00  0.00     0.052 C 
ATOM      9  C   UNL A   1      50.782  26.262  29.168  1.00  0.00     0.093 C 
ATOM     10  C   UNL A   1      53.056  27.367  28.609  1.00  0.00     0.121 C 
ATOM     11  C   UNL A   1      53.733  26.894  29.859  1.00  0.00     0.093 C 
ATOM     12  S   UNL A   1      54.475  27.504  27.455  1.00  0.00    -0.052 SA
ATOM     13  S   UNL A   1      52.787  26.662  31.280  1.00  0.00    -0.095 SA
ATOM     14  N   UNL A   1      55.013  26.770  29.922  1.00  0.00    -0.200 NA
ATOM     15  C   UNL A   1      55.614  27.095  28.733  1.00  0.00     0.306 C 
ATOM     16  O   UNL A   1      56.810  27.121  28.540  1.00  0.00    -0.259 OA
BRANCH   8  17
ATOM     17  C   UNL A   1      51.431  26.923  26.775  1.00  0.00    -0.042 A 
ATOM     18  C   UNL A   1      50.632  27.858  24.237  1.00  0.00     0.118 A 
ATOM     19  C   UNL A   1      51.086  26.553  24.391  1.00  0.00     0.047 A 
ATOM     20  C   UNL A   1      50.571  28.702  25.343  1.00  0.00     0.047 A 
ATOM     21  C   UNL A   1      51.524  26.106  25.638  1.00  0.00     0.008 A 
ATOM     22  C   UNL A   1      50.958  28.234  26.605  1.00  0.00     0.008 A 
BRANCH  18  23
ATOM     23  O   UNL A   1      50.213  28.203  22.982  1.00  0.00    -0.497 OA
ATOM     24  C   UNL A   1      49.568  27.149  22.275  1.00  0.00     0.278 C 
ENDBRANCH  18  23
ENDBRANCH   8  17
BRANCH   9  25
ATOM     25  C   UNL A   1      49.625  25.272  28.786  1.00  0.00     0.168 C 
ATOM     26  O   UNL A   1      49.810  24.056  28.820  1.00  0.00    -0.294 OA
BRANCH  25  27
ATOM     27  C   UNL A   1      48.305  25.766  28.279  1.00  0.00     0.021 A 
ATOM     28  C   UNL A   1      47.899  27.030  28.659  1.00  0.00     0.012 A 
ATOM     29  C   UNL A   1      47.787  25.250  27.091  1.00  0.00    -0.034 A 
ATOM     30  C   UNL A   1      47.376  27.887  27.689  1.00  0.00     0.001 A 
ATOM     31  C   UNL A   1      47.558  26.139  26.032  1.00  0.00    -0.044 A 
ATOM     32  C   UNL A   1      46.575  24.292  27.221  1.00  0.00     0.036 C 
ATOM     33  C   UNL A   1      47.330  27.477  26.350  1.00  0.00     0.004 A 
ATOM     34  C   UNL A   1      47.338  25.565  24.657  1.00  0.00     0.036 C 
ATOM     35  C   UNL A   1      46.081  23.727  25.880  1.00  0.00     0.005 C 
ATOM     36  C   UNL A   1      47.008  24.065  24.715  1.00  0.00     0.005 C 
ENDBRANCH  25  27
ENDBRANCH   9  25
ENDBRANCH   4   7
ENDBRANCH   2   3
ENDBRANCH   1   2
BRANCH   1  37
ATOM     37  C   UNL A   1      48.065  24.149  34.338  1.00  0.00     0.118 C 
BRANCH  37  38
ATOM     38  N   UNL A   1      48.046  24.558  35.735  1.00  0.00    -0.352 N 
ATOM     39  C   UNL A   1      47.282  25.501  36.377  1.00  0.00     0.251 C 
ATOM     40  H   UNL A   1      48.683  24.079  36.313  1.00  0.00     0.163 HD
ATOM     41  O   UNL A   1      47.544  25.795  37.540  1.00  0.00    -0.269 OA
BRANCH  39  42
ATOM     42  C   UNL A   1      46.169  26.189  35.682  1.00  0.00     0.039 A 
ATOM     43  C   UNL A   1      46.430  27.409  35.049  1.00  0.00     0.014 A 
ATOM     44  C   UNL A   1      44.872  25.672  35.676  1.00  0.00     0.014 A 
ATOM     45  C   UNL A   1      45.408  28.074  34.369  1.00  0.00     0.010 A 
ATOM     46  C   UNL A   1      43.879  26.284  34.915  1.00  0.00     0.010 A 
ATOM     47  C   UNL A   1      44.130  27.500  34.266  1.00  0.00    -0.014 A 
BRANCH  47  48
ATOM     48  C   UNL A   1      43.053  28.174  33.495  1.00  0.00     0.031 A 
ATOM     49  C   UNL A   1      42.844  27.861  32.038  1.00  0.00     0.074 A 
ATOM     50  C   UNL A   1      42.277  29.093  34.099  1.00  0.00     0.049 A 
ATOM     51  N   UNL A   1      41.945  28.332  31.208  1.00  0.00    -0.248 NA
ATOM     52  C   UNL A   1      43.786  26.915  31.424  1.00  0.00     0.031 C 
ATOM     53  C   UNL A   1      42.408  29.524  35.492  1.00  0.00     0.029 A 
ATOM     54  N   UNL A   1      41.219  29.826  33.623  1.00  0.00    -0.354 N 
ATOM     55  C   UNL A   1      42.216  27.741  29.981  1.00  0.00     0.074 A 
ATOM     56  C   UNL A   1      43.409  26.941  30.155  1.00  0.00     0.031 C 
ATOM     57  C   UNL A   1      41.436  30.404  35.772  1.00  0.00     0.029 A 
ATOM     58  C   UNL A   1      40.638  30.631  34.571  1.00  0.00     0.049 A 
ATOM     59  H   UNL A   1      40.906  29.779  32.691  1.00  0.00     0.167 HD
ATOM     60  C   UNL A   1      41.520  27.829  28.821  1.00  0.00     0.037 A 
ATOM     61  C   UNL A   1      39.573  31.450  34.485  1.00  0.00     0.037 A 
ATOM     62  C   UNL A   1      40.335  28.630  28.649  1.00  0.00     0.049 A 
ATOM     63  C   UNL A   1      38.833  31.558  33.179  1.00  0.00     0.074 A 
ATOM     64  C   UNL A   1      39.535  28.764  27.528  1.00  0.00     0.029 A 
ATOM     65  N   UNL A   1      39.786  29.447  29.628  1.00  0.00    -0.354 N 
ATOM     66  N   UNL A   1      39.054  30.939  32.045  1.00  0.00    -0.248 NA
ATOM     67  C   UNL A   1      37.685  32.472  33.152  1.00  0.00     0.031 C 
ATOM     68  C   UNL A   1      38.537  29.705  27.810  1.00  0.00     0.029 A 
ATOM     69  C   UNL A   1      38.672  30.107  29.129  1.00  0.00     0.049 A 
ATOM     70  H   UNL A   1      40.135  29.545  30.543  1.00  0.00     0.167 HD
ATOM     71  C   UNL A   1      38.053  31.359  31.180  1.00  0.00     0.074 A 
ATOM     72  C   UNL A   1      37.215  32.273  31.929  1.00  0.00     0.031 C 
ATOM     73  C   UNL A   1      37.846  31.018  29.883  1.00  0.00     0.037 A 
BRANCH  60  74
ATOM     74  C   UNL A   1      42.039  27.040  27.650  1.00  0.00     0.064 A 
ATOM     75  C   UNL A   1      41.571  25.745  27.366  1.00  0.00     0.173 A 
ATOM     76  C   UNL A   1      43.024  27.574  26.805  1.00  0.00     0.173 A 
ATOM     77  F   UNL A   1      40.636  25.179  28.146  1.00  0.00    -0.203 F 
ATOM     78  C   UNL A   1      42.109  24.998  26.321  1.00  0.00     0.198 A 
ATOM     79  C   UNL A   1      43.530  26.839  25.735  1.00  0.00     0.198 A 
ATOM     80  F   UNL A   1      43.502  28.808  27.019  1.00  0.00    -0.203 F 
ATOM     81  F   UNL A   1      41.702  23.737  26.123  1.00  0.00    -0.200 F 
ATOM     82  C   UNL A   1      43.084  25.547  25.504  1.00  0.00     0.200 A 
ATOM     83  F   UNL A   1      44.462  27.378  24.937  1.00  0.00    -0.200 F 
ATOM     84  F   UNL A   1      43.605  24.825  24.502  1.00  0.00    -0.200 F 
ENDBRANCH  60  74
BRANCH  61  85
ATOM     85  C   UNL A   1      39.106  32.187  35.689  1.00  0.00     0.064 A 
ATOM     86  C   UNL A   1      38.225  31.583  36.599  1.00  0.00     0.173 A 
ATOM     87  C   UNL A   1      39.533  33.494  35.963  1.00  0.00     0.173 A 
ATOM     88  F   UNL A   1      37.775  30.341  36.370  1.00  0.00    -0.203 F 
ATOM     89  C   UNL A   1      37.775  32.267  37.725  1.00  0.00     0.198 A 
ATOM     90  C   UNL A   1      39.104  34.165  37.106  1.00  0.00     0.198 A 
ATOM     91  F   UNL A   1      40.382  34.113  35.129  1.00  0.00    -0.203 F 
ATOM     92  F   UNL A   1      36.901  31.682  38.555  1.00  0.00    -0.200 F 
ATOM     93  C   UNL A   1      38.220  33.553  37.982  1.00  0.00     0.200 A 
ATOM     94  F   UNL A   1      39.553  35.402  37.362  1.00  0.00    -0.200 F 
ATOM     95  F   UNL A   1      37.794  34.208  39.072  1.00  0.00    -0.200 F 
ENDBRANCH  61  85
BRANCH  73  96
ATOM     96  C   UNL A   1      36.635  31.603  29.208  1.00  0.00     0.064 A 
ATOM     97  C   UNL A   1      36.558  32.962  28.863  1.00  0.00     0.173 A 
ATOM     98  C   UNL A   1      35.531  30.790  28.905  1.00  0.00     0.173 A 
ATOM     99  F   UNL A   1      37.579  33.787  29.142  1.00  0.00    -0.203 F 
ATOM    100  C   UNL A   1      35.406  33.493  28.290  1.00  0.00     0.198 A 
ATOM    101  C   UNL A   1      34.396  31.316  28.294  1.00  0.00     0.198 A 
ATOM    102  F   UNL A   1      35.552  29.482  29.202  1.00  0.00    -0.203 F 
ATOM    103  F   UNL A   1      35.328  34.807  28.041  1.00  0.00    -0.200 F 
ATOM    104  C   UNL A   1      34.328  32.670  28.002  1.00  0.00     0.200 A 
ATOM    105  F   UNL A   1      33.362  30.516  28.001  1.00  0.00    -0.200 F 
ATOM    106  F   UNL A   1      33.218  33.183  27.453  1.00  0.00    -0.200 F 
ENDBRANCH  73  96
ENDBRANCH  47  48
ENDBRANCH  39  42
ENDBRANCH  37  38
ENDBRANCH   1  37
TORSDOF 14
ENDMDL
MODEL 3
REMARK VINA RESULT:      -9.5      6.050     12.298
REMARK SMILES COc1ccc([C@@H]2[C@@H](C(=O)c3cccc4c3CCCC4)[C@H](C(=O)NCCCNC(=O)c3ccc(-c4c5nc(c(-c6c(F)c(F)c(F)c(F)c6F)c6ccc([nH]6)c(-c6c(F)c(F)c(F)c(F)c6F)c6nc(c(-c7c(F)c(F)c(F)c(F)c7F)c7ccc4[nH]7)C=C6)C=C5)cc3)SC3=NC(=O)S[C@H]32)cc1
REMARK SMILES IDX 26 1 25 2 24 3 22 4 23 5 21 7 7 8 8 9 100 10 95 11 99 12
REMARK SMILES IDX 94 13 96 14 97 15 98 16 6 17 3 18 4 19 102 20 5 21 101 22
REMARK SMILES IDX 2 23 1 24 9 25 10 26 11 27 12 28 16 29 13 30 15 31 17 32
REMARK SMILES IDX 14 33 20 34 18 35 19 36 27 37 28 38 29 39 30 41 31 42 32 43
REMARK SMILES IDX 93 44 33 45 92 46 34 47 35 48 36 49 86 50 37 51 91 52 85 53
REMARK SMILES IDX 87 54 38 55 90 56 84 57 83 58 39 60 71 61 51 62 70 63 52 64
REMARK SMILES IDX 55 65 69 66 88 67 53 68 54 69 68 71 89 72 56 73 40 74 41 75
REMARK SMILES IDX 49 76 42 77 43 78 47 79 50 80 44 81 45 82 48 83 46 84 72 85
REMARK SMILES IDX 73 86 81 87 74 88 75 89 79 90 82 91 76 92 77 93 80 94 78 95
REMARK SMILES IDX 57 96 58 97 66 98 59 99 60 100 64 101 67 102 61 103 62 104
REMARK SMILES IDX 65 105 63 106
REMARK H PARENT 24 6 28 40 87 59 55 70
REMARK Flexibility Score: inf
ROOT
ATOM      1  C   UNL A   1      33.860  32.451  28.034  1.00  0.00     0.042 C 
ENDROOT
BRANCH   1   2
ATOM      2  C   UNL A   1      34.216  31.133  27.357  1.00  0.00     0.117 C 
BRANCH   2   3
ATOM      3  N   UNL A   1      33.451  30.012  27.882  1.00  0.00    -0.355 N 
ATOM      4  C   UNL A   1      32.686  29.061  27.269  1.00  0.00     0.234 C 
ATOM      5  O   UNL A   1      32.204  28.174  27.981  1.00  0.00    -0.274 OA
ATOM      6  H   UNL A   1      33.492  29.922  28.862  1.00  0.00     0.163 HD
BRANCH   4   7
ATOM      7  C   UNL A   1      32.437  29.056  25.752  1.00  0.00     0.153 C 
ATOM      8  C   UNL A   1      31.725  27.485  23.776  1.00  0.00     0.052 C 
ATOM      9  C   UNL A   1      32.411  27.623  25.175  1.00  0.00     0.093 C 
ATOM     10  C   UNL A   1      30.334  28.161  23.726  1.00  0.00     0.121 C 
ATOM     11  C   UNL A   1      30.394  29.638  23.969  1.00  0.00     0.093 C 
ATOM     12  S   UNL A   1      29.528  28.095  22.080  1.00  0.00    -0.052 SA
ATOM     13  S   UNL A   1      31.044  30.210  25.458  1.00  0.00    -0.095 SA
ATOM     14  N   UNL A   1      29.868  30.475  23.144  1.00  0.00    -0.200 NA
ATOM     15  C   UNL A   1      29.304  29.840  22.067  1.00  0.00     0.306 C 
ATOM     16  O   UNL A   1      28.692  30.388  21.176  1.00  0.00    -0.259 OA
BRANCH   8  17
ATOM     17  C   UNL A   1      31.548  26.016  23.371  1.00  0.00    -0.042 A 
ATOM     18  C   UNL A   1      31.261  23.277  22.762  1.00  0.00     0.118 A 
ATOM     19  C   UNL A   1      30.404  23.886  23.673  1.00  0.00     0.047 A 
ATOM     20  C   UNL A   1      32.260  24.028  22.149  1.00  0.00     0.047 A 
ATOM     21  C   UNL A   1      30.577  25.229  24.008  1.00  0.00     0.008 A 
ATOM     22  C   UNL A   1      32.397  25.390  22.443  1.00  0.00     0.008 A 
BRANCH  18  23
ATOM     23  O   UNL A   1      31.008  21.961  22.488  1.00  0.00    -0.497 OA
ATOM     24  C   UNL A   1      32.169  21.136  22.485  1.00  0.00     0.278 C 
ENDBRANCH  18  23
ENDBRANCH   8  17
BRANCH   9  25
ATOM     25  C   UNL A   1      33.850  27.007  25.309  1.00  0.00     0.168 C 
ATOM     26  O   UNL A   1      34.824  27.592  24.836  1.00  0.00    -0.294 OA
BRANCH  25  27
ATOM     27  C   UNL A   1      34.071  25.657  25.918  1.00  0.00     0.021 A 
ATOM     28  C   UNL A   1      33.070  25.137  26.717  1.00  0.00     0.012 A 
ATOM     29  C   UNL A   1      34.941  24.757  25.302  1.00  0.00    -0.034 A 
ATOM     30  C   UNL A   1      32.694  23.805  26.536  1.00  0.00     0.001 A 
ATOM     31  C   UNL A   1      34.420  23.530  24.870  1.00  0.00    -0.044 A 
ATOM     32  C   UNL A   1      36.299  24.513  26.008  1.00  0.00     0.036 C 
ATOM     33  C   UNL A   1      33.286  23.044  25.521  1.00  0.00     0.004 A 
ATOM     34  C   UNL A   1      35.240  22.708  23.910  1.00  0.00     0.036 C 
ATOM     35  C   UNL A   1      37.226  23.545  25.255  1.00  0.00     0.005 C 
ATOM     36  C   UNL A   1      36.703  23.178  23.868  1.00  0.00     0.005 C 
ENDBRANCH  25  27
ENDBRANCH   9  25
ENDBRANCH   4   7
ENDBRANCH   2   3
ENDBRANCH   1   2
BRANCH   1  37
ATOM     37  C   UNL A   1      32.696  33.195  27.391  1.00  0.00     0.118 C 
BRANCH  37  38
ATOM     38  N   UNL A   1      32.577  34.569  27.854  1.00  0.00    -0.352 N 
ATOM     39  C   UNL A   1      33.226  35.227  28.869  1.00  0.00     0.251 C 
ATOM     40  H   UNL A   1      31.925  35.116  27.358  1.00  0.00     0.163 HD
ATOM     41  O   UNL A   1      32.853  36.352  29.191  1.00  0.00    -0.269 OA
BRANCH  39  42
ATOM     42  C   UNL A   1      34.348  34.592  29.600  1.00  0.00     0.039 A 
ATOM     43  C   UNL A   1      34.070  33.923  30.797  1.00  0.00     0.014 A 
ATOM     44  C   UNL A   1      35.665  34.677  29.146  1.00  0.00     0.014 A 
ATOM     45  C   UNL A   1      35.101  33.297  31.501  1.00  0.00     0.010 A 
ATOM     46  C   UNL A   1      36.675  33.970  29.795  1.00  0.00     0.010 A 
ATOM     47  C   UNL A   1      36.409  33.286  30.988  1.00  0.00    -0.014 A 
BRANCH  47  48
ATOM     48  C   UNL A   1      37.500  32.572  31.702  1.00  0.00     0.031 A 
ATOM     49  C   UNL A   1      38.180  31.387  31.073  1.00  0.00     0.074 A 
ATOM     50  C   UNL A   1      37.862  32.974  32.936  1.00  0.00     0.049 A 
ATOM     51  N   UNL A   1      39.164  30.653  31.533  1.00  0.00    -0.248 NA
ATOM     52  C   UNL A   1      37.672  30.951  29.764  1.00  0.00     0.031 C 
ATOM     53  C   UNL A   1      37.248  34.076  33.678  1.00  0.00     0.029 A 
ATOM     54  N   UNL A   1      38.837  32.507  33.780  1.00  0.00    -0.354 N 
ATOM     55  C   UNL A   1      39.386  29.673  30.574  1.00  0.00     0.074 A 
ATOM     56  C   UNL A   1      38.385  29.858  29.546  1.00  0.00     0.031 C 
ATOM     57  C   UNL A   1      37.895  34.235  34.842  1.00  0.00     0.029 A 
ATOM     58  C   UNL A   1      38.941  33.222  34.947  1.00  0.00     0.049 A 
ATOM     59  H   UNL A   1      39.408  31.734  33.569  1.00  0.00     0.167 HD
ATOM     60  C   UNL A   1      40.354  28.725  30.535  1.00  0.00     0.037 A 
ATOM     61  C   UNL A   1      39.793  33.085  35.981  1.00  0.00     0.037 A 
ATOM     62  C   UNL A   1      41.346  28.540  31.562  1.00  0.00     0.049 A 
ATOM     63  C   UNL A   1      40.839  32.005  35.931  1.00  0.00     0.074 A 
ATOM     64  C   UNL A   1      42.390  27.633  31.605  1.00  0.00     0.029 A 
ATOM     65  N   UNL A   1      41.409  29.272  32.740  1.00  0.00    -0.354 N 
ATOM     66  N   UNL A   1      41.087  31.131  34.986  1.00  0.00    -0.248 NA
ATOM     67  C   UNL A   1      41.733  31.906  37.092  1.00  0.00     0.031 C 
ATOM     68  C   UNL A   1      43.049  27.777  32.832  1.00  0.00     0.029 A 
ATOM     69  C   UNL A   1      42.458  28.821  33.527  1.00  0.00     0.049 A 
ATOM     70  H   UNL A   1      40.798  30.005  32.982  1.00  0.00     0.167 HD
ATOM     71  C   UNL A   1      42.187  30.402  35.420  1.00  0.00     0.074 A 
ATOM     72  C   UNL A   1      42.566  30.951  36.707  1.00  0.00     0.031 C 
ATOM     73  C   UNL A   1      42.825  29.373  34.808  1.00  0.00     0.037 A 
BRANCH  60  74
ATOM     74  C   UNL A   1      40.370  27.813  29.338  1.00  0.00     0.064 A 
ATOM     75  C   UNL A   1      41.167  28.084  28.213  1.00  0.00     0.173 A 
ATOM     76  C   UNL A   1      39.570  26.660  29.304  1.00  0.00     0.173 A 
ATOM     77  F   UNL A   1      41.945  29.178  28.185  1.00  0.00    -0.203 F 
ATOM     78  C   UNL A   1      41.121  27.269  27.084  1.00  0.00     0.198 A 
ATOM     79  C   UNL A   1      39.557  25.825  28.189  1.00  0.00     0.198 A 
ATOM     80  F   UNL A   1      38.795  26.343  30.352  1.00  0.00    -0.203 F 
ATOM     81  F   UNL A   1      41.831  27.596  25.996  1.00  0.00    -0.200 F 
ATOM     82  C   UNL A   1      40.319  26.139  27.074  1.00  0.00     0.200 A 
ATOM     83  F   UNL A   1      38.794  24.724  28.188  1.00  0.00    -0.200 F 
ATOM     84  F   UNL A   1      40.271  25.360  25.986  1.00  0.00    -0.200 F 
ENDBRANCH  60  74
BRANCH  61  85
ATOM     85  C   UNL A   1      39.730  34.033  37.123  1.00  0.00     0.064 A 
ATOM     86  C   UNL A   1      38.975  33.727  38.265  1.00  0.00     0.173 A 
ATOM     87  C   UNL A   1      40.423  35.252  37.107  1.00  0.00     0.173 A 
ATOM     88  F   UNL A   1      38.280  32.581  38.320  1.00  0.00    -0.203 F 
ATOM     89  C   UNL A   1      38.902  34.612  39.338  1.00  0.00     0.198 A 
ATOM     90  C   UNL A   1      40.373  36.122  38.194  1.00  0.00     0.198 A 
ATOM     91  F   UNL A   1      41.166  35.589  36.042  1.00  0.00    -0.203 F 
ATOM     92  F   UNL A   1      38.140  34.312  40.399  1.00  0.00    -0.200 F 
ATOM     93  C   UNL A   1      39.606  35.804  39.305  1.00  0.00     0.200 A 
ATOM     94  F   UNL A   1      41.071  37.265  38.167  1.00  0.00    -0.200 F 
ATOM     95  F   UNL A   1      39.544  36.651  40.342  1.00  0.00    -0.200 F 
ENDBRANCH  61  85
BRANCH  73  96
ATOM     96  C   UNL A   1      44.032  28.806  35.506  1.00  0.00     0.064 A 
ATOM     97  C   UNL A   1      45.329  29.282  35.255  1.00  0.00     0.173 A 
ATOM     98  C   UNL A   1      43.888  27.765  36.438  1.00  0.00     0.173 A 
ATOM     99  F   UNL A   1      45.526  30.265  34.364  1.00  0.00    -0.203 F 
ATOM    100  C   UNL A   1      46.437  28.706  35.871  1.00  0.00     0.198 A 
ATOM    101  C   UNL A   1      44.995  27.218  37.082  1.00  0.00     0.198 A 
ATOM    102  F   UNL A   1      42.672  27.277  36.724  1.00  0.00    -0.203 F 
ATOM    103  F   UNL A   1      47.670  29.126  35.557  1.00  0.00    -0.200 F 
ATOM    104  C   UNL A   1      46.269  27.678  36.787  1.00  0.00     0.200 A 
ATOM    105  F   UNL A   1      44.828  26.237  37.979  1.00  0.00    -0.200 F 
ATOM    106  F   UNL A   1      47.336  27.121  37.376  1.00  0.00    -0.200 F 
ENDBRANCH  73  96
ENDBRANCH  47  48
ENDBRANCH  39  42
ENDBRANCH  37  38
ENDBRANCH   1  37
TORSDOF 14
ENDMDL
