MODEL 1
REMARK VINA RESULT:     -12.9      0.000      0.000
REMARK SMILES O=C(NCCCNC(=O)[C@@H](CCc1ccccc1)[C@@H]1CCS(=O)(=O)C1)c1ccc(-c2c3nc(c(-c4c(F)c(F)c(F)c(F)c4F)c4ccc([nH]4)c(-c4c(F)c(F)c(F)c(F)c4F)c4nc(c(-c5c(F)c(F)c(F)c(F)c5F)c5ccc2[nH]5)C=C4)C=C3)cc1
REMARK SMILES IDX 5 1 4 2 3 3 1 4 2 5 26 7 27 8 88 9 28 10 87 11 29 12 30 13
REMARK SMILES IDX 31 14 81 15 32 16 86 17 80 18 82 19 33 20 85 21 79 22 78 23
REMARK SMILES IDX 34 25 66 26 46 27 65 28 47 29 50 30 64 31 83 32 48 33 49 34
REMARK SMILES IDX 63 36 84 37 51 38 35 39 36 40 44 41 37 42 38 43 42 44 45 45
REMARK SMILES IDX 39 46 40 47 43 48 41 49 67 50 68 51 76 52 69 53 70 54 74 55
REMARK SMILES IDX 77 56 71 57 72 58 75 59 73 60 52 61 53 62 61 63 54 64 55 65
REMARK SMILES IDX 59 66 62 67 56 68 57 69 60 70 58 71 6 72 7 73 8 74 9 76
REMARK SMILES IDX 10 77 11 78 12 79 13 80 14 81 18 82 15 83 17 84 16 85 19 86
REMARK SMILES IDX 20 87 25 88 21 89 22 90 23 91 24 92
REMARK H PARENT 3 6 82 24 50 35 7 75
REMARK Flexibility Score: inf
ROOT
ATOM      1  C   UNL A   1      31.523  32.129  26.510  1.00  0.00     0.042 C 
ENDROOT
BRANCH   1   2
ATOM      2  C   UNL A   1      32.670  32.726  27.299  1.00  0.00     0.118 C 
BRANCH   2   3
ATOM      3  N   UNL A   1      32.439  34.134  27.646  1.00  0.00    -0.352 N 
ATOM      4  O   UNL A   1      32.499  36.047  28.841  1.00  0.00    -0.269 OA
ATOM      5  C   UNL A   1      32.993  34.948  28.610  1.00  0.00     0.251 C 
ATOM      6  H   UNL A   1      31.763  34.578  27.086  1.00  0.00     0.163 HD
BRANCH   5   7
ATOM      7  C   UNL A   1      34.151  34.484  29.400  1.00  0.00     0.039 A 
ATOM      8  C   UNL A   1      35.431  34.593  28.878  1.00  0.00     0.014 A 
ATOM      9  C   UNL A   1      33.971  33.907  30.661  1.00  0.00     0.014 A 
ATOM     10  C   UNL A   1      36.457  33.851  29.428  1.00  0.00     0.010 A 
ATOM     11  C   UNL A   1      35.066  33.342  31.328  1.00  0.00     0.010 A 
ATOM     12  C   UNL A   1      36.309  33.250  30.685  1.00  0.00    -0.014 A 
BRANCH  12  13
ATOM     13  C   UNL A   1      37.498  32.594  31.291  1.00  0.00     0.031 A 
ATOM     14  C   UNL A   1      37.949  32.917  32.688  1.00  0.00     0.074 A 
ATOM     15  C   UNL A   1      38.125  31.631  30.582  1.00  0.00     0.049 A 
ATOM     16  N   UNL A   1      38.942  32.405  33.372  1.00  0.00    -0.248 NA
ATOM     17  C   UNL A   1      37.205  33.959  33.413  1.00  0.00     0.031 C 
ATOM     18  C   UNL A   1      37.779  31.232  29.213  1.00  0.00     0.029 A 
ATOM     19  N   UNL A   1      39.144  30.778  30.919  1.00  0.00    -0.354 N 
ATOM     20  C   UNL A   1      38.970  33.088  34.580  1.00  0.00     0.074 A 
ATOM     21  C   UNL A   1      37.905  34.066  34.534  1.00  0.00     0.031 C 
ATOM     22  C   UNL A   1      38.493  30.154  28.870  1.00  0.00     0.029 A 
ATOM     23  C   UNL A   1      39.432  29.858  29.940  1.00  0.00     0.049 A 
ATOM     24  H   UNL A   1      39.622  30.821  31.780  1.00  0.00     0.167 HD
ATOM     25  C   UNL A   1      39.809  32.911  35.631  1.00  0.00     0.037 A 
ATOM     26  C   UNL A   1      40.371  28.897  29.891  1.00  0.00     0.037 A 
ATOM     27  C   UNL A   1      40.845  31.909  35.675  1.00  0.00     0.049 A 
ATOM     28  C   UNL A   1      41.296  28.741  31.061  1.00  0.00     0.074 A 
ATOM     29  C   UNL A   1      41.725  31.622  36.705  1.00  0.00     0.029 A 
ATOM     30  N   UNL A   1      41.144  31.031  34.641  1.00  0.00    -0.354 N 
ATOM     31  N   UNL A   1      41.301  29.386  32.201  1.00  0.00    -0.248 NA
ATOM     32  C   UNL A   1      42.350  27.731  30.931  1.00  0.00     0.031 C 
ATOM     33  C   UNL A   1      42.594  30.615  36.272  1.00  0.00     0.029 A 
ATOM     34  C   UNL A   1      42.211  30.222  34.999  1.00  0.00     0.049 A 
ATOM     35  H   UNL A   1      40.667  30.989  33.781  1.00  0.00     0.167 HD
ATOM     36  C   UNL A   1      42.345  28.845  32.937  1.00  0.00     0.074 A 
ATOM     37  C   UNL A   1      42.932  27.803  32.119  1.00  0.00     0.031 C 
ATOM     38  C   UNL A   1      42.779  29.183  34.176  1.00  0.00     0.037 A 
BRANCH  25  39
ATOM     39  C   UNL A   1      39.672  33.843  36.804  1.00  0.00     0.064 A 
ATOM     40  C   UNL A   1      40.288  35.103  36.835  1.00  0.00     0.173 A 
ATOM     41  C   UNL A   1      38.876  33.479  37.903  1.00  0.00     0.173 A 
ATOM     42  F   UNL A   1      41.068  35.500  35.818  1.00  0.00    -0.203 F 
ATOM     43  C   UNL A   1      40.137  35.949  37.933  1.00  0.00     0.198 A 
ATOM     44  C   UNL A   1      38.701  34.340  38.983  1.00  0.00     0.198 A 
ATOM     45  F   UNL A   1      38.257  32.289  37.925  1.00  0.00    -0.203 F 
ATOM     46  F   UNL A   1      40.778  37.126  37.962  1.00  0.00    -0.200 F 
ATOM     47  C   UNL A   1      39.337  35.571  39.002  1.00  0.00     0.200 A 
ATOM     48  F   UNL A   1      37.915  33.979  40.006  1.00  0.00    -0.200 F 
ATOM     49  F   UNL A   1      39.188  36.390  40.052  1.00  0.00    -0.200 F 
ENDBRANCH  25  39
BRANCH  26  50
ATOM     50  C   UNL A   1      40.489  28.033  28.687  1.00  0.00     0.064 A 
ATOM     51  C   UNL A   1      41.269  28.425  27.591  1.00  0.00     0.173 A 
ATOM     52  C   UNL A   1      39.833  26.794  28.610  1.00  0.00     0.173 A 
ATOM     53  F   UNL A   1      41.904  29.605  27.607  1.00  0.00    -0.203 F 
ATOM     54  C   UNL A   1      41.372  27.620  26.457  1.00  0.00     0.198 A 
ATOM     55  C   UNL A   1      39.968  25.974  27.494  1.00  0.00     0.198 A 
ATOM     56  F   UNL A   1      39.081  26.368  29.636  1.00  0.00    -0.203 F 
ATOM     57  F   UNL A   1      42.083  28.040  25.403  1.00  0.00    -0.200 F 
ATOM     58  C   UNL A   1      40.727  26.392  26.414  1.00  0.00     0.200 A 
ATOM     59  F   UNL A   1      39.363  24.778  27.468  1.00  0.00    -0.200 F 
ATOM     60  F   UNL A   1      40.834  25.615  25.327  1.00  0.00    -0.200 F 
ENDBRANCH  26  50
BRANCH  38  61
ATOM     61  C   UNL A   1      43.913  28.377  34.739  1.00  0.00     0.064 A 
ATOM     62  C   UNL A   1      43.696  27.190  35.456  1.00  0.00     0.173 A 
ATOM     63  C   UNL A   1      45.238  28.801  34.554  1.00  0.00     0.173 A 
ATOM     64  F   UNL A   1      42.447  26.752  35.675  1.00  0.00    -0.203 F 
ATOM     65  C   UNL A   1      44.762  26.479  36.000  1.00  0.00     0.198 A 
ATOM     66  C   UNL A   1      46.303  28.067  35.068  1.00  0.00     0.198 A 
ATOM     67  F   UNL A   1      45.499  29.926  33.873  1.00  0.00    -0.203 F 
ATOM     68  F   UNL A   1      44.528  25.387  36.739  1.00  0.00    -0.200 F 
ATOM     69  C   UNL A   1      46.064  26.915  35.801  1.00  0.00     0.200 A 
ATOM     70  F   UNL A   1      47.560  28.482  34.861  1.00  0.00    -0.200 F 
ATOM     71  F   UNL A   1      47.089  26.229  36.325  1.00  0.00    -0.200 F 
ENDBRANCH  38  61
ENDBRANCH  12  13
ENDBRANCH   5   7
ENDBRANCH   2   3
ENDBRANCH   1   2
BRANCH   1  72
ATOM     72  C   UNL A   1      31.640  30.625  26.476  1.00  0.00     0.117 C 
BRANCH  72  73
ATOM     73  N   UNL A   1      32.469  30.141  25.406  1.00  0.00    -0.356 N 
ATOM     74  C   UNL A   1      32.191  29.186  24.490  1.00  0.00     0.223 C 
ATOM     75  H   UNL A   1      33.357  30.561  25.330  1.00  0.00     0.163 HD
ATOM     76  O   UNL A   1      32.959  29.076  23.530  1.00  0.00    -0.275 OA
BRANCH  74  77
ATOM     77  C   UNL A   1      30.982  28.253  24.605  1.00  0.00     0.083 C 
BRANCH  77  78
ATOM     78  C   UNL A   1      30.187  28.068  23.271  1.00  0.00     0.018 C 
BRANCH  78  79
ATOM     79  C   UNL A   1      28.737  28.535  23.043  1.00  0.00     0.036 C 
BRANCH  79  80
ATOM     80  C   UNL A   1      28.549  29.979  22.663  1.00  0.00    -0.048 A 
ATOM     81  C   UNL A   1      28.744  31.002  23.602  1.00  0.00     0.004 A 
ATOM     82  C   UNL A   1      28.173  30.330  21.362  1.00  0.00     0.004 A 
ATOM     83  C   UNL A   1      28.701  32.342  23.218  1.00  0.00     0.000 A 
ATOM     84  C   UNL A   1      28.118  31.671  20.978  1.00  0.00     0.000 A 
ATOM     85  C   UNL A   1      28.408  32.674  21.900  1.00  0.00     0.000 A 
ENDBRANCH  79  80
ENDBRANCH  78  79
ENDBRANCH  77  78
BRANCH  77  86
ATOM     86  C   UNL A   1      31.019  27.075  25.634  1.00  0.00     0.017 C 
ATOM     87  C   UNL A   1      32.447  26.486  25.802  1.00  0.00     0.021 C 
ATOM     88  C   UNL A   1      30.160  25.814  25.459  1.00  0.00     0.141 C 
ATOM     89  C   UNL A   1      32.679  25.444  24.714  1.00  0.00     0.137 C 
ATOM     90  S   UNL A   1      31.107  24.638  24.499  1.00  0.00     0.150 S 
ATOM     91  O   UNL A   1      30.711  24.719  23.111  1.00  0.00    -0.229 OA
ATOM     92  O   UNL A   1      31.120  23.375  25.210  1.00  0.00    -0.229 OA
ENDBRANCH  77  86
ENDBRANCH  74  77
ENDBRANCH  72  73
ENDBRANCH   1  72
TORSDOF 14
ENDMDL
MODEL 2
REMARK VINA RESULT:     -12.9      0.069      2.029
REMARK SMILES O=C(NCCCNC(=O)[C@@H](CCc1ccccc1)[C@@H]1CCS(=O)(=O)C1)c1ccc(-c2c3nc(c(-c4c(F)c(F)c(F)c(F)c4F)c4ccc([nH]4)c(-c4c(F)c(F)c(F)c(F)c4F)c4nc(c(-c5c(F)c(F)c(F)c(F)c5F)c5ccc2[nH]5)C=C4)C=C3)cc1
REMARK SMILES IDX 5 1 4 2 3 3 1 4 2 5 26 7 27 8 88 9 28 10 87 11 29 12 30 13
REMARK SMILES IDX 31 14 81 15 32 16 86 17 80 18 82 19 33 20 85 21 79 22 78 23
REMARK SMILES IDX 34 25 66 26 46 27 65 28 47 29 50 30 64 31 83 32 48 33 49 34
REMARK SMILES IDX 63 36 84 37 51 38 35 39 36 40 44 41 37 42 38 43 42 44 45 45
REMARK SMILES IDX 39 46 40 47 43 48 41 49 67 50 68 51 76 52 69 53 70 54 74 55
REMARK SMILES IDX 77 56 71 57 72 58 75 59 73 60 52 61 53 62 61 63 54 64 55 65
REMARK SMILES IDX 59 66 62 67 56 68 57 69 60 70 58 71 6 72 7 73 8 74 9 76
REMARK SMILES IDX 10 77 11 78 12 79 13 80 14 81 18 82 15 83 17 84 16 85 19 86
REMARK SMILES IDX 20 87 25 88 21 89 22 90 23 91 24 92
REMARK H PARENT 3 6 82 24 50 35 7 75
REMARK Flexibility Score: inf
ROOT
ATOM      1  C   UNL A   1      31.510  32.105  26.518  1.00  0.00     0.042 C 
ENDROOT
BRANCH   1   2
ATOM      2  C   UNL A   1      32.670  32.721  27.273  1.00  0.00     0.118 C 
BRANCH   2   3
ATOM      3  N   UNL A   1      32.430  34.128  27.620  1.00  0.00    -0.352 N 
ATOM      4  O   UNL A   1      32.475  36.042  28.813  1.00  0.00    -0.269 OA
ATOM      5  C   UNL A   1      32.977  34.946  28.584  1.00  0.00     0.251 C 
ATOM      6  H   UNL A   1      31.752  34.568  27.058  1.00  0.00     0.163 HD
BRANCH   5   7
ATOM      7  C   UNL A   1      34.135  34.490  29.378  1.00  0.00     0.039 A 
ATOM      8  C   UNL A   1      35.415  34.599  28.855  1.00  0.00     0.014 A 
ATOM      9  C   UNL A   1      33.956  33.920  30.642  1.00  0.00     0.014 A 
ATOM     10  C   UNL A   1      36.443  33.862  29.410  1.00  0.00     0.010 A 
ATOM     11  C   UNL A   1      35.052  33.361  31.312  1.00  0.00     0.010 A 
ATOM     12  C   UNL A   1      36.295  33.268  30.671  1.00  0.00    -0.014 A 
BRANCH  12  13
ATOM     13  C   UNL A   1      37.486  32.619  31.280  1.00  0.00     0.031 A 
ATOM     14  C   UNL A   1      37.929  32.943  32.680  1.00  0.00     0.074 A 
ATOM     15  C   UNL A   1      38.122  31.661  30.573  1.00  0.00     0.049 A 
ATOM     16  N   UNL A   1      38.922  32.436  33.368  1.00  0.00    -0.248 NA
ATOM     17  C   UNL A   1      37.175  33.979  33.404  1.00  0.00     0.031 C 
ATOM     18  C   UNL A   1      37.784  31.262  29.202  1.00  0.00     0.029 A 
ATOM     19  N   UNL A   1      39.145  30.814  30.914  1.00  0.00    -0.354 N 
ATOM     20  C   UNL A   1      38.941  33.118  34.577  1.00  0.00     0.074 A 
ATOM     21  C   UNL A   1      37.869  34.089  34.528  1.00  0.00     0.031 C 
ATOM     22  C   UNL A   1      38.507  30.189  28.861  1.00  0.00     0.029 A 
ATOM     23  C   UNL A   1      39.443  29.897  29.934  1.00  0.00     0.049 A 
ATOM     24  H   UNL A   1      39.618  30.858  31.776  1.00  0.00     0.167 HD
ATOM     25  C   UNL A   1      39.776  32.945  35.631  1.00  0.00     0.037 A 
ATOM     26  C   UNL A   1      40.388  28.942  29.889  1.00  0.00     0.037 A 
ATOM     27  C   UNL A   1      40.818  31.949  35.678  1.00  0.00     0.049 A 
ATOM     28  C   UNL A   1      41.308  28.790  31.062  1.00  0.00     0.074 A 
ATOM     29  C   UNL A   1      41.695  31.666  36.712  1.00  0.00     0.029 A 
ATOM     30  N   UNL A   1      41.127  31.074  34.644  1.00  0.00    -0.354 N 
ATOM     31  N   UNL A   1      41.305  29.433  32.203  1.00  0.00    -0.248 NA
ATOM     32  C   UNL A   1      42.370  27.786  30.935  1.00  0.00     0.031 C 
ATOM     33  C   UNL A   1      42.572  30.665  36.281  1.00  0.00     0.029 A 
ATOM     34  C   UNL A   1      42.198  30.272  35.006  1.00  0.00     0.049 A 
ATOM     35  H   UNL A   1      40.654  31.030  33.782  1.00  0.00     0.167 HD
ATOM     36  C   UNL A   1      42.349  28.898  32.943  1.00  0.00     0.074 A 
ATOM     37  C   UNL A   1      42.945  27.860  32.126  1.00  0.00     0.031 C 
ATOM     38  C   UNL A   1      42.775  29.237  34.184  1.00  0.00     0.037 A 
BRANCH  25  39
ATOM     39  C   UNL A   1      39.628  33.874  36.805  1.00  0.00     0.064 A 
ATOM     40  C   UNL A   1      38.876  33.534  37.938  1.00  0.00     0.173 A 
ATOM     41  C   UNL A   1      40.287  35.115  36.807  1.00  0.00     0.173 A 
ATOM     42  F   UNL A   1      38.217  32.366  37.989  1.00  0.00    -0.203 F 
ATOM     43  C   UNL A   1      38.763  34.412  39.015  1.00  0.00     0.198 A 
ATOM     44  C   UNL A   1      40.198  35.976  37.899  1.00  0.00     0.198 A 
ATOM     45  F   UNL A   1      41.026  35.490  35.753  1.00  0.00    -0.203 F 
ATOM     46  F   UNL A   1      37.995  34.087  40.066  1.00  0.00    -0.200 F 
ATOM     47  C   UNL A   1      39.430  35.628  38.998  1.00  0.00     0.200 A 
ATOM     48  F   UNL A   1      40.858  37.142  37.885  1.00  0.00    -0.200 F 
ATOM     49  F   UNL A   1      39.326  36.467  40.038  1.00  0.00    -0.200 F 
ENDBRANCH  25  39
BRANCH  26  50
ATOM     50  C   UNL A   1      40.516  28.080  28.683  1.00  0.00     0.064 A 
ATOM     51  C   UNL A   1      39.862  26.843  28.608  1.00  0.00     0.173 A 
ATOM     52  C   UNL A   1      41.286  28.479  27.579  1.00  0.00     0.173 A 
ATOM     53  F   UNL A   1      39.126  26.409  29.641  1.00  0.00    -0.203 F 
ATOM     54  C   UNL A   1      39.989  26.030  27.483  1.00  0.00     0.198 A 
ATOM     55  C   UNL A   1      41.380  27.684  26.441  1.00  0.00     0.198 A 
ATOM     56  F   UNL A   1      41.925  29.658  27.596  1.00  0.00    -0.203 F 
ATOM     57  F   UNL A   1      39.395  24.831  27.456  1.00  0.00    -0.200 F 
ATOM     58  C   UNL A   1      40.743  26.455  26.398  1.00  0.00     0.200 A 
ATOM     59  F   UNL A   1      42.089  28.111  25.386  1.00  0.00    -0.200 F 
ATOM     60  F   UNL A   1      40.857  25.677  25.313  1.00  0.00    -0.200 F 
ENDBRANCH  26  50
BRANCH  38  61
ATOM     61  C   UNL A   1      43.911  28.437  34.751  1.00  0.00     0.064 A 
ATOM     62  C   UNL A   1      45.249  28.830  34.594  1.00  0.00     0.173 A 
ATOM     63  C   UNL A   1      43.653  27.256  35.465  1.00  0.00     0.173 A 
ATOM     64  F   UNL A   1      45.549  29.942  33.904  1.00  0.00    -0.203 F 
ATOM     65  C   UNL A   1      46.288  28.052  35.097  1.00  0.00     0.198 A 
ATOM     66  C   UNL A   1      44.692  26.500  35.999  1.00  0.00     0.198 A 
ATOM     67  F   UNL A   1      42.392  26.837  35.646  1.00  0.00    -0.203 F 
ATOM     68  F   UNL A   1      47.559  28.411  34.876  1.00  0.00    -0.200 F 
ATOM     69  C   UNL A   1      46.007  26.891  35.804  1.00  0.00     0.200 A 
ATOM     70  F   UNL A   1      44.419  25.387  36.694  1.00  0.00    -0.200 F 
ATOM     71  F   UNL A   1      47.009  26.143  36.288  1.00  0.00    -0.200 F 
ENDBRANCH  38  61
ENDBRANCH  12  13
ENDBRANCH   5   7
ENDBRANCH   2   3
ENDBRANCH   1   2
BRANCH   1  72
ATOM     72  C   UNL A   1      31.651  30.603  26.483  1.00  0.00     0.117 C 
BRANCH  72  73
ATOM     73  N   UNL A   1      32.465  30.132  25.395  1.00  0.00    -0.356 N 
ATOM     74  C   UNL A   1      32.182  29.175  24.483  1.00  0.00     0.223 C 
ATOM     75  H   UNL A   1      33.346  30.564  25.303  1.00  0.00     0.163 HD
ATOM     76  O   UNL A   1      32.933  29.078  23.508  1.00  0.00    -0.275 OA
BRANCH  74  77
ATOM     77  C   UNL A   1      30.988  28.225  24.620  1.00  0.00     0.083 C 
BRANCH  77  78
ATOM     78  C   UNL A   1      30.174  28.027  23.300  1.00  0.00     0.018 C 
BRANCH  78  79
ATOM     79  C   UNL A   1      28.758  28.579  23.052  1.00  0.00     0.036 C 
BRANCH  79  80
ATOM     80  C   UNL A   1      28.663  30.024  22.642  1.00  0.00    -0.048 A 
ATOM     81  C   UNL A   1      28.277  30.379  21.341  1.00  0.00     0.004 A 
ATOM     82  C   UNL A   1      28.959  31.044  23.552  1.00  0.00     0.004 A 
ATOM     83  C   UNL A   1      28.059  31.713  20.999  1.00  0.00     0.000 A 
ATOM     84  C   UNL A   1      28.753  32.381  23.208  1.00  0.00     0.000 A 
ATOM     85  C   UNL A   1      28.277  32.712  21.942  1.00  0.00     0.000 A 
ENDBRANCH  79  80
ENDBRANCH  78  79
ENDBRANCH  77  78
BRANCH  77  86
ATOM     86  C   UNL A   1      31.059  27.051  25.651  1.00  0.00     0.017 C 
ATOM     87  C   UNL A   1      32.492  26.467  25.779  1.00  0.00     0.021 C 
ATOM     88  C   UNL A   1      30.199  25.786  25.504  1.00  0.00     0.141 C 
ATOM     89  C   UNL A   1      32.697  25.423  24.688  1.00  0.00     0.137 C 
ATOM     90  S   UNL A   1      31.122  24.611  24.520  1.00  0.00     0.150 S 
ATOM     91  O   UNL A   1      30.686  24.687  23.143  1.00  0.00    -0.229 OA
ATOM     92  O   UNL A   1      31.160  23.350  25.233  1.00  0.00    -0.229 OA
ENDBRANCH  77  86
ENDBRANCH  74  77
ENDBRANCH  72  73
ENDBRANCH   1  72
TORSDOF 14
ENDMDL
MODEL 3
REMARK VINA RESULT:     -12.8      1.724      2.827
REMARK SMILES O=C(NCCCNC(=O)[C@@H](CCc1ccccc1)[C@@H]1CCS(=O)(=O)C1)c1ccc(-c2c3nc(c(-c4c(F)c(F)c(F)c(F)c4F)c4ccc([nH]4)c(-c4c(F)c(F)c(F)c(F)c4F)c4nc(c(-c5c(F)c(F)c(F)c(F)c5F)c5ccc2[nH]5)C=C4)C=C3)cc1
REMARK SMILES IDX 5 1 4 2 3 3 1 4 2 5 26 7 27 8 88 9 28 10 87 11 29 12 30 13
REMARK SMILES IDX 31 14 81 15 32 16 86 17 80 18 82 19 33 20 85 21 79 22 78 23
REMARK SMILES IDX 34 25 66 26 46 27 65 28 47 29 50 30 64 31 83 32 48 33 49 34
REMARK SMILES IDX 63 36 84 37 51 38 35 39 36 40 44 41 37 42 38 43 42 44 45 45
REMARK SMILES IDX 39 46 40 47 43 48 41 49 67 50 68 51 76 52 69 53 70 54 74 55
REMARK SMILES IDX 77 56 71 57 72 58 75 59 73 60 52 61 53 62 61 63 54 64 55 65
REMARK SMILES IDX 59 66 62 67 56 68 57 69 60 70 58 71 6 72 7 73 8 74 9 76
REMARK SMILES IDX 10 77 11 78 12 79 13 80 14 81 18 82 15 83 17 84 16 85 19 86
REMARK SMILES IDX 20 87 25 88 21 89 22 90 23 91 24 92
REMARK H PARENT 3 6 82 24 50 35 7 75
REMARK Flexibility Score: inf
ROOT
ATOM      1  C   UNL A   1      31.772  29.264  27.255  1.00  0.00     0.042 C 
ENDROOT
BRANCH   1   2
ATOM      2  C   UNL A   1      32.717  30.098  26.414  1.00  0.00     0.118 C 
BRANCH   2   3
ATOM      3  N   UNL A   1      32.617  31.532  26.712  1.00  0.00    -0.352 N 
ATOM      4  O   UNL A   1      33.015  33.506  27.731  1.00  0.00    -0.269 OA
ATOM      5  C   UNL A   1      33.407  32.375  27.463  1.00  0.00     0.251 C 
ATOM      6  H   UNL A   1      31.840  31.973  26.299  1.00  0.00     0.163 HD
BRANCH   5   7
ATOM      7  C   UNL A   1      34.705  31.906  27.988  1.00  0.00     0.039 A 
ATOM      8  C   UNL A   1      34.840  30.598  28.427  1.00  0.00     0.014 A 
ATOM      9  C   UNL A   1      35.796  32.776  28.078  1.00  0.00     0.014 A 
ATOM     10  C   UNL A   1      35.904  30.257  29.238  1.00  0.00     0.010 A 
ATOM     11  C   UNL A   1      36.971  32.354  28.714  1.00  0.00     0.010 A 
ATOM     12  C   UNL A   1      37.010  31.109  29.360  1.00  0.00    -0.014 A 
BRANCH  12  13
ATOM     13  C   UNL A   1      38.188  30.620  30.124  1.00  0.00     0.031 A 
ATOM     14  C   UNL A   1      38.382  30.962  31.575  1.00  0.00     0.074 A 
ATOM     15  C   UNL A   1      39.049  29.785  29.504  1.00  0.00     0.049 A 
ATOM     16  N   UNL A   1      39.335  30.582  32.391  1.00  0.00    -0.248 NA
ATOM     17  C   UNL A   1      37.393  31.857  32.196  1.00  0.00     0.031 C 
ATOM     18  C   UNL A   1      38.965  29.383  28.095  1.00  0.00     0.029 A 
ATOM     19  N   UNL A   1      40.128  29.084  29.976  1.00  0.00    -0.354 N 
ATOM     20  C   UNL A   1      39.087  31.223  33.597  1.00  0.00     0.074 A 
ATOM     21  C   UNL A   1      37.902  32.032  33.407  1.00  0.00     0.031 C 
ATOM     22  C   UNL A   1      39.877  28.436  27.848  1.00  0.00     0.029 A 
ATOM     23  C   UNL A   1      40.689  28.250  29.039  1.00  0.00     0.049 A 
ATOM     24  H   UNL A   1      40.467  29.170  30.897  1.00  0.00     0.167 HD
ATOM     25  C   UNL A   1      39.786  31.140  34.756  1.00  0.00     0.037 A 
ATOM     26  C   UNL A   1      41.761  27.442  29.117  1.00  0.00     0.037 A 
ATOM     27  C   UNL A   1      40.946  30.304  34.939  1.00  0.00     0.049 A 
ATOM     28  C   UNL A   1      42.524  27.388  30.407  1.00  0.00     0.074 A 
ATOM     29  C   UNL A   1      41.705  30.119  36.083  1.00  0.00     0.029 A 
ATOM     30  N   UNL A   1      41.519  29.514  33.950  1.00  0.00    -0.354 N 
ATOM     31  N   UNL A   1      42.269  27.990  31.542  1.00  0.00    -0.248 NA
ATOM     32  C   UNL A   1      43.728  26.552  30.420  1.00  0.00     0.031 C 
ATOM     33  C   UNL A   1      42.770  29.267  35.770  1.00  0.00     0.029 A 
ATOM     34  C   UNL A   1      42.636  28.863  34.451  1.00  0.00     0.049 A 
ATOM     35  H   UNL A   1      41.181  29.429  33.030  1.00  0.00     0.167 HD
ATOM     36  C   UNL A   1      43.269  27.588  32.416  1.00  0.00     0.074 A 
ATOM     37  C   UNL A   1      44.118  26.672  31.681  1.00  0.00     0.031 C 
ATOM     38  C   UNL A   1      43.466  27.947  33.708  1.00  0.00     0.037 A 
BRANCH  25  39
ATOM     39  C   UNL A   1      39.344  32.003  35.906  1.00  0.00     0.064 A 
ATOM     40  C   UNL A   1      38.378  31.579  36.831  1.00  0.00     0.173 A 
ATOM     41  C   UNL A   1      39.929  33.264  36.106  1.00  0.00     0.173 A 
ATOM     42  F   UNL A   1      37.778  30.388  36.686  1.00  0.00    -0.203 F 
ATOM     43  C   UNL A   1      37.993  32.397  37.893  1.00  0.00     0.198 A 
ATOM     44  C   UNL A   1      39.566  34.064  37.186  1.00  0.00     0.198 A 
ATOM     45  F   UNL A   1      40.863  33.718  35.257  1.00  0.00    -0.203 F 
ATOM     46  F   UNL A   1      37.030  31.992  38.734  1.00  0.00    -0.200 F 
ATOM     47  C   UNL A   1      38.593  33.635  38.074  1.00  0.00     0.200 A 
ATOM     48  F   UNL A   1      40.159  35.252  37.367  1.00  0.00    -0.200 F 
ATOM     49  F   UNL A   1      38.227  34.415  39.100  1.00  0.00    -0.200 F 
ENDBRANCH  25  39
BRANCH  26  50
ATOM     50  C   UNL A   1      42.179  26.644  27.934  1.00  0.00     0.064 A 
ATOM     51  C   UNL A   1      41.646  25.371  27.697  1.00  0.00     0.173 A 
ATOM     52  C   UNL A   1      43.111  27.142  27.010  1.00  0.00     0.173 A 
ATOM     53  F   UNL A   1      40.762  24.843  28.557  1.00  0.00    -0.203 F 
ATOM     54  C   UNL A   1      42.043  24.618  26.594  1.00  0.00     0.198 A 
ATOM     55  C   UNL A   1      43.478  26.406  25.887  1.00  0.00     0.198 A 
ATOM     56  F   UNL A   1      43.645  28.360  27.184  1.00  0.00    -0.203 F 
ATOM     57  F   UNL A   1      41.555  23.383  26.418  1.00  0.00    -0.200 F 
ATOM     58  C   UNL A   1      42.954  25.140  25.686  1.00  0.00     0.200 A 
ATOM     59  F   UNL A   1      44.339  26.925  25.001  1.00  0.00    -0.200 F 
ATOM     60  F   UNL A   1      43.328  24.419  24.620  1.00  0.00    -0.200 F 
ENDBRANCH  26  50
BRANCH  38  61
ATOM     61  C   UNL A   1      44.619  27.302  34.421  1.00  0.00     0.064 A 
ATOM     62  C   UNL A   1      44.485  26.079  35.095  1.00  0.00     0.173 A 
ATOM     63  C   UNL A   1      45.879  27.920  34.425  1.00  0.00     0.173 A 
ATOM     64  F   UNL A   1      43.296  25.457  35.137  1.00  0.00    -0.203 F 
ATOM     65  C   UNL A   1      45.559  25.519  35.781  1.00  0.00     0.198 A 
ATOM     66  C   UNL A   1      46.960  27.338  35.079  1.00  0.00     0.198 A 
ATOM     67  F   UNL A   1      46.062  29.088  33.792  1.00  0.00    -0.203 F 
ATOM     68  F   UNL A   1      45.390  24.386  36.476  1.00  0.00    -0.200 F 
ATOM     69  C   UNL A   1      46.796  26.146  35.767  1.00  0.00     0.200 A 
ATOM     70  F   UNL A   1      48.159  27.937  35.052  1.00  0.00    -0.200 F 
ATOM     71  F   UNL A   1      47.830  25.604  36.427  1.00  0.00    -0.200 F 
ENDBRANCH  38  61
ENDBRANCH  12  13
ENDBRANCH   5   7
ENDBRANCH   2   3
ENDBRANCH   1   2
BRANCH   1  72
ATOM     72  C   UNL A   1      32.156  27.806  27.179  1.00  0.00     0.117 C 
BRANCH  72  73
ATOM     73  N   UNL A   1      31.053  26.943  26.857  1.00  0.00    -0.356 N 
ATOM     74  C   UNL A   1      30.713  26.421  25.656  1.00  0.00     0.223 C 
ATOM     75  H   UNL A   1      30.467  26.700  27.611  1.00  0.00     0.163 HD
ATOM     76  O   UNL A   1      29.855  25.534  25.644  1.00  0.00    -0.275 OA
BRANCH  74  77
ATOM     77  C   UNL A   1      31.342  26.888  24.341  1.00  0.00     0.083 C 
BRANCH  77  78
ATOM     78  C   UNL A   1      30.763  28.237  23.800  1.00  0.00     0.018 C 
BRANCH  78  79
ATOM     79  C   UNL A   1      29.423  28.378  23.054  1.00  0.00     0.036 C 
BRANCH  79  80
ATOM     80  C   UNL A   1      28.966  29.780  22.755  1.00  0.00    -0.048 A 
ATOM     81  C   UNL A   1      29.154  30.813  23.686  1.00  0.00     0.004 A 
ATOM     82  C   UNL A   1      28.341  30.083  21.541  1.00  0.00     0.004 A 
ATOM     83  C   UNL A   1      28.853  32.134  23.357  1.00  0.00     0.000 A 
ATOM     84  C   UNL A   1      28.029  31.403  21.214  1.00  0.00     0.000 A 
ATOM     85  C   UNL A   1      28.310  32.430  22.112  1.00  0.00     0.000 A 
ENDBRANCH  79  80
ENDBRANCH  78  79
ENDBRANCH  77  78
BRANCH  77  86
ATOM     86  C   UNL A   1      32.832  26.525  24.033  1.00  0.00     0.017 C 
ATOM     87  C   UNL A   1      33.209  26.796  22.551  1.00  0.00     0.021 C 
ATOM     88  C   UNL A   1      33.390  25.112  24.263  1.00  0.00     0.141 C 
ATOM     89  C   UNL A   1      32.819  25.583  21.716  1.00  0.00     0.137 C 
ATOM     90  S   UNL A   1      33.142  24.177  22.759  1.00  0.00     0.150 S 
ATOM     91  O   UNL A   1      31.940  23.382  22.878  1.00  0.00    -0.229 OA
ATOM     92  O   UNL A   1      34.407  23.584  22.377  1.00  0.00    -0.229 OA
ENDBRANCH  77  86
ENDBRANCH  74  77
ENDBRANCH  72  73
ENDBRANCH   1  72
TORSDOF 14
ENDMDL
