MODEL 1
REMARK VINA RESULT:     -11.6      0.000      0.000
REMARK SMILES O=C(NCCCNC(=O)[C@@H]1C=C[C@H](NC(=O)[C@@H]2CCSC2)C1)c1ccc(-c2c3nc(c(-c4c(F)c(F)c(F)c(F)c4F)c4ccc([nH]4)c(-c4c(F)c(F)c(F)c(F)c4F)c4nc(c(-c5c(F)c(F)c(F)c(F)c5F)c5ccc2[nH]5)C=C4)C=C3)cc1
REMARK SMILES IDX 5 1 4 2 3 3 1 4 2 5 23 7 24 8 85 9 25 10 84 11 26 12 27 13
REMARK SMILES IDX 28 14 78 15 29 16 83 17 77 18 79 19 30 20 82 21 76 22 75 23
REMARK SMILES IDX 31 25 63 26 43 27 62 28 44 29 47 30 61 31 80 32 45 33 46 34
REMARK SMILES IDX 60 36 81 37 48 38 32 39 33 40 41 41 34 42 35 43 39 44 42 45
REMARK SMILES IDX 36 46 37 47 40 48 38 49 64 50 65 51 73 52 66 53 67 54 71 55
REMARK SMILES IDX 74 56 68 57 69 58 72 59 70 60 49 61 50 62 58 63 51 64 52 65
REMARK SMILES IDX 56 66 59 67 53 68 54 69 57 70 55 71 6 72 7 73 8 74 9 76
REMARK SMILES IDX 10 77 11 78 22 79 12 80 13 81 14 82 15 83 16 85 17 86 18 87
REMARK SMILES IDX 21 88 19 89 20 90
REMARK H PARENT 3 6 79 24 47 35 7 75 14 84
REMARK Flexibility Score: inf
ROOT
ATOM      1  C   UNL A   1      34.677  33.821  28.203  1.00  0.00     0.042 C 
ENDROOT
BRANCH   1   2
ATOM      2  C   UNL A   1      34.909  32.594  29.064  1.00  0.00     0.118 C 
BRANCH   2   3
ATOM      3  N   UNL A   1      34.219  31.423  28.536  1.00  0.00    -0.352 N 
ATOM      4  O   UNL A   1      33.984  29.448  27.481  1.00  0.00    -0.269 OA
ATOM      5  C   UNL A   1      34.718  30.222  28.099  1.00  0.00     0.251 C 
ATOM      6  H   UNL A   1      33.240  31.507  28.486  1.00  0.00     0.163 HD
BRANCH   5   7
ATOM      7  C   UNL A   1      36.119  29.841  28.372  1.00  0.00     0.039 A 
ATOM      8  C   UNL A   1      37.112  30.071  27.421  1.00  0.00     0.014 A 
ATOM      9  C   UNL A   1      36.460  29.305  29.618  1.00  0.00     0.014 A 
ATOM     10  C   UNL A   1      38.406  29.624  27.645  1.00  0.00     0.010 A 
ATOM     11  C   UNL A   1      37.790  28.972  29.893  1.00  0.00     0.010 A 
ATOM     12  C   UNL A   1      38.772  29.112  28.899  1.00  0.00    -0.014 A 
BRANCH  12  13
ATOM     13  C   UNL A   1      40.205  28.831  29.163  1.00  0.00     0.031 A 
ATOM     14  C   UNL A   1      41.052  29.774  29.964  1.00  0.00     0.074 A 
ATOM     15  C   UNL A   1      40.723  27.678  28.694  1.00  0.00     0.049 A 
ATOM     16  N   UNL A   1      42.313  29.661  30.301  1.00  0.00    -0.248 NA
ATOM     17  C   UNL A   1      40.410  31.006  30.447  1.00  0.00     0.031 C 
ATOM     18  C   UNL A   1      39.990  26.692  27.892  1.00  0.00     0.029 A 
ATOM     19  N   UNL A   1      41.968  27.122  28.837  1.00  0.00    -0.354 N 
ATOM     20  C   UNL A   1      42.619  30.810  31.018  1.00  0.00     0.074 A 
ATOM     21  C   UNL A   1      41.422  31.622  31.044  1.00  0.00     0.031 C 
ATOM     22  C   UNL A   1      40.776  25.631  27.667  1.00  0.00     0.029 A 
ATOM     23  C   UNL A   1      42.092  25.895  28.233  1.00  0.00     0.049 A 
ATOM     24  H   UNL A   1      42.702  27.560  29.326  1.00  0.00     0.167 HD
ATOM     25  C   UNL A   1      43.792  31.144  31.609  1.00  0.00     0.037 A 
ATOM     26  C   UNL A   1      43.157  25.080  28.121  1.00  0.00     0.037 A 
ATOM     27  C   UNL A   1      44.977  30.323  31.578  1.00  0.00     0.049 A 
ATOM     28  C   UNL A   1      44.454  25.502  28.747  1.00  0.00     0.074 A 
ATOM     29  C   UNL A   1      46.211  30.562  32.159  1.00  0.00     0.029 A 
ATOM     30  N   UNL A   1      45.079  29.104  30.920  1.00  0.00    -0.354 N 
ATOM     31  N   UNL A   1      44.722  26.575  29.450  1.00  0.00    -0.248 NA
ATOM     32  C   UNL A   1      45.598  24.602  28.561  1.00  0.00     0.031 C 
ATOM     33  C   UNL A   1      47.072  29.517  31.810  1.00  0.00     0.029 A 
ATOM     34  C   UNL A   1      46.360  28.593  31.062  1.00  0.00     0.049 A 
ATOM     35  H   UNL A   1      44.349  28.666  30.426  1.00  0.00     0.167 HD
ATOM     36  C   UNL A   1      46.058  26.472  29.808  1.00  0.00     0.074 A 
ATOM     37  C   UNL A   1      46.538  25.216  29.265  1.00  0.00     0.031 C 
ATOM     38  C   UNL A   1      46.820  27.339  30.518  1.00  0.00     0.037 A 
BRANCH  25  39
ATOM     39  C   UNL A   1      43.862  32.464  32.323  1.00  0.00     0.064 A 
ATOM     40  C   UNL A   1      43.565  32.582  33.689  1.00  0.00     0.173 A 
ATOM     41  C   UNL A   1      44.277  33.620  31.643  1.00  0.00     0.173 A 
ATOM     42  F   UNL A   1      43.158  31.511  34.387  1.00  0.00    -0.203 F 
ATOM     43  C   UNL A   1      43.653  33.811  34.340  1.00  0.00     0.198 A 
ATOM     44  C   UNL A   1      44.394  34.840  32.304  1.00  0.00     0.198 A 
ATOM     45  F   UNL A   1      44.584  33.564  30.338  1.00  0.00    -0.203 F 
ATOM     46  F   UNL A   1      43.322  33.907  35.635  1.00  0.00    -0.200 F 
ATOM     47  C   UNL A   1      44.075  34.937  33.649  1.00  0.00     0.200 A 
ATOM     48  F   UNL A   1      44.820  35.923  31.638  1.00  0.00    -0.200 F 
ATOM     49  F   UNL A   1      44.171  36.116  34.280  1.00  0.00    -0.200 F 
ENDBRANCH  25  39
BRANCH  26  50
ATOM     50  C   UNL A   1      43.039  23.801  27.373  1.00  0.00     0.064 A 
ATOM     51  C   UNL A   1      42.542  22.644  27.989  1.00  0.00     0.173 A 
ATOM     52  C   UNL A   1      43.422  23.708  26.026  1.00  0.00     0.173 A 
ATOM     53  F   UNL A   1      42.178  22.676  29.280  1.00  0.00    -0.203 F 
ATOM     54  C   UNL A   1      42.453  21.440  27.293  1.00  0.00     0.198 A 
ATOM     55  C   UNL A   1      43.299  22.513  25.321  1.00  0.00     0.198 A 
ATOM     56  F   UNL A   1      43.898  24.786  25.387  1.00  0.00    -0.203 F 
ATOM     57  F   UNL A   1      42.022  20.338  27.921  1.00  0.00    -0.200 F 
ATOM     58  C   UNL A   1      42.825  21.378  25.959  1.00  0.00     0.200 A 
ATOM     59  F   UNL A   1      43.639  22.464  24.026  1.00  0.00    -0.200 F 
ATOM     60  F   UNL A   1      42.735  20.220  25.289  1.00  0.00    -0.200 F 
ENDBRANCH  26  50
BRANCH  38  61
ATOM     61  C   UNL A   1      48.243  26.937  30.779  1.00  0.00     0.064 A 
ATOM     62  C   UNL A   1      48.596  26.136  31.875  1.00  0.00     0.173 A 
ATOM     63  C   UNL A   1      49.265  27.346  29.908  1.00  0.00     0.173 A 
ATOM     64  F   UNL A   1      47.658  25.736  32.748  1.00  0.00    -0.203 F 
ATOM     65  C   UNL A   1      49.923  25.786  32.107  1.00  0.00     0.198 A 
ATOM     66  C   UNL A   1      50.585  26.965  30.124  1.00  0.00     0.198 A 
ATOM     67  F   UNL A   1      48.980  28.110  28.842  1.00  0.00    -0.203 F 
ATOM     68  F   UNL A   1      50.244  25.069  33.194  1.00  0.00    -0.200 F 
ATOM     69  C   UNL A   1      50.915  26.193  31.228  1.00  0.00     0.200 A 
ATOM     70  F   UNL A   1      51.540  27.348  29.266  1.00  0.00    -0.200 F 
ATOM     71  F   UNL A   1      52.190  25.851  31.451  1.00  0.00    -0.200 F 
ENDBRANCH  38  61
ENDBRANCH  12  13
ENDBRANCH   5   7
ENDBRANCH   2   3
ENDBRANCH   1   2
BRANCH   1  72
ATOM     72  C   UNL A   1      33.280  34.404  28.373  1.00  0.00     0.117 C 
BRANCH  72  73
ATOM     73  N   UNL A   1      33.302  35.847  28.379  1.00  0.00    -0.356 N 
ATOM     74  C   UNL A   1      33.174  36.733  29.398  1.00  0.00     0.227 C 
ATOM     75  H   UNL A   1      33.434  36.257  27.495  1.00  0.00     0.163 HD
ATOM     76  O   UNL A   1      33.327  37.924  29.101  1.00  0.00    -0.274 OA
BRANCH  74  77
ATOM     77  C   UNL A   1      32.926  36.349  30.869  1.00  0.00     0.103 C 
ATOM     78  C   UNL A   1      33.336  37.417  31.832  1.00  0.00    -0.016 C 
ATOM     79  C   UNL A   1      33.530  35.066  31.463  1.00  0.00     0.047 C 
ATOM     80  C   UNL A   1      34.074  36.933  32.836  1.00  0.00    -0.006 C 
ATOM     81  C   UNL A   1      34.368  35.474  32.693  1.00  0.00     0.106 C 
BRANCH  81  82
ATOM     82  N   UNL A   1      35.797  35.366  32.486  1.00  0.00    -0.350 N 
ATOM     83  C   UNL A   1      36.685  34.398  32.824  1.00  0.00     0.224 C 
ATOM     84  H   UNL A   1      36.195  36.133  32.016  1.00  0.00     0.164 HD
ATOM     85  O   UNL A   1      37.813  34.485  32.338  1.00  0.00    -0.275 OA
BRANCH  83  86
ATOM     86  C   UNL A   1      36.294  33.290  33.787  1.00  0.00     0.089 C 
ATOM     87  C   UNL A   1      36.374  33.810  35.226  1.00  0.00     0.025 C 
ATOM     88  C   UNL A   1      37.218  32.079  33.692  1.00  0.00     0.083 C 
ATOM     89  C   UNL A   1      37.832  33.787  35.665  1.00  0.00     0.070 C 
ATOM     90  S   UNL A   1      38.492  32.247  34.979  1.00  0.00    -0.161 SA
ENDBRANCH  83  86
ENDBRANCH  81  82
ENDBRANCH  74  77
ENDBRANCH  72  73
ENDBRANCH   1  72
TORSDOF 12
ENDMDL
MODEL 2
REMARK VINA RESULT:     -11.6      0.292      2.017
REMARK SMILES O=C(NCCCNC(=O)[C@@H]1C=C[C@H](NC(=O)[C@@H]2CCSC2)C1)c1ccc(-c2c3nc(c(-c4c(F)c(F)c(F)c(F)c4F)c4ccc([nH]4)c(-c4c(F)c(F)c(F)c(F)c4F)c4nc(c(-c5c(F)c(F)c(F)c(F)c5F)c5ccc2[nH]5)C=C4)C=C3)cc1
REMARK SMILES IDX 5 1 4 2 3 3 1 4 2 5 23 7 24 8 85 9 25 10 84 11 26 12 27 13
REMARK SMILES IDX 28 14 78 15 29 16 83 17 77 18 79 19 30 20 82 21 76 22 75 23
REMARK SMILES IDX 31 25 63 26 43 27 62 28 44 29 47 30 61 31 80 32 45 33 46 34
REMARK SMILES IDX 60 36 81 37 48 38 32 39 33 40 41 41 34 42 35 43 39 44 42 45
REMARK SMILES IDX 36 46 37 47 40 48 38 49 64 50 65 51 73 52 66 53 67 54 71 55
REMARK SMILES IDX 74 56 68 57 69 58 72 59 70 60 49 61 50 62 58 63 51 64 52 65
REMARK SMILES IDX 56 66 59 67 53 68 54 69 57 70 55 71 6 72 7 73 8 74 9 76
REMARK SMILES IDX 10 77 11 78 22 79 12 80 13 81 14 82 15 83 16 85 17 86 18 87
REMARK SMILES IDX 21 88 19 89 20 90
REMARK H PARENT 3 6 79 24 47 35 7 75 14 84
REMARK Flexibility Score: inf
ROOT
ATOM      1  C   UNL A   1      34.530  33.760  28.047  1.00  0.00     0.042 C 
ENDROOT
BRANCH   1   2
ATOM      2  C   UNL A   1      34.841  32.556  28.917  1.00  0.00     0.118 C 
BRANCH   2   3
ATOM      3  N   UNL A   1      34.162  31.356  28.442  1.00  0.00    -0.352 N 
ATOM      4  O   UNL A   1      33.945  29.336  27.472  1.00  0.00    -0.269 OA
ATOM      5  C   UNL A   1      34.673  30.144  28.053  1.00  0.00     0.251 C 
ATOM      6  H   UNL A   1      33.182  31.427  28.395  1.00  0.00     0.163 HD
BRANCH   5   7
ATOM      7  C   UNL A   1      36.080  29.792  28.333  1.00  0.00     0.039 A 
ATOM      8  C   UNL A   1      37.069  30.014  27.374  1.00  0.00     0.014 A 
ATOM      9  C   UNL A   1      36.432  29.291  29.590  1.00  0.00     0.014 A 
ATOM     10  C   UNL A   1      38.370  29.594  27.607  1.00  0.00     0.010 A 
ATOM     11  C   UNL A   1      37.767  28.986  29.871  1.00  0.00     0.010 A 
ATOM     12  C   UNL A   1      38.745  29.118  28.873  1.00  0.00    -0.014 A 
BRANCH  12  13
ATOM     13  C   UNL A   1      40.183  28.866  29.140  1.00  0.00     0.031 A 
ATOM     14  C   UNL A   1      41.010  29.829  29.938  1.00  0.00     0.074 A 
ATOM     15  C   UNL A   1      40.724  27.720  28.678  1.00  0.00     0.049 A 
ATOM     16  N   UNL A   1      42.273  29.742  30.278  1.00  0.00    -0.248 NA
ATOM     17  C   UNL A   1      40.343  31.051  30.413  1.00  0.00     0.031 C 
ATOM     18  C   UNL A   1      40.011  26.716  27.881  1.00  0.00     0.029 A 
ATOM     19  N   UNL A   1      41.979  27.189  28.827  1.00  0.00    -0.354 N 
ATOM     20  C   UNL A   1      42.555  30.900  30.990  1.00  0.00     0.074 A 
ATOM     21  C   UNL A   1      41.342  31.689  31.009  1.00  0.00     0.031 C 
ATOM     22  C   UNL A   1      40.818  25.669  27.662  1.00  0.00     0.029 A 
ATOM     23  C   UNL A   1      42.128  25.961  28.230  1.00  0.00     0.049 A 
ATOM     24  H   UNL A   1      42.703  27.644  29.315  1.00  0.00     0.167 HD
ATOM     25  C   UNL A   1      43.720  31.260  31.581  1.00  0.00     0.037 A 
ATOM     26  C   UNL A   1      43.208  25.166  28.125  1.00  0.00     0.037 A 
ATOM     27  C   UNL A   1      44.921  30.461  31.556  1.00  0.00     0.049 A 
ATOM     28  C   UNL A   1      44.496  25.616  28.751  1.00  0.00     0.074 A 
ATOM     29  C   UNL A   1      46.148  30.728  32.139  1.00  0.00     0.029 A 
ATOM     30  N   UNL A   1      45.047  29.241  30.905  1.00  0.00    -0.354 N 
ATOM     31  N   UNL A   1      44.742  26.698  29.449  1.00  0.00    -0.248 NA
ATOM     32  C   UNL A   1      45.657  24.738  28.571  1.00  0.00     0.031 C 
ATOM     33  C   UNL A   1      47.031  29.697  31.797  1.00  0.00     0.029 A 
ATOM     34  C   UNL A   1      46.338  28.756  31.053  1.00  0.00     0.049 A 
ATOM     35  H   UNL A   1      44.327  28.787  30.412  1.00  0.00     0.167 HD
ATOM     36  C   UNL A   1      46.079  26.622  29.809  1.00  0.00     0.074 A 
ATOM     37  C   UNL A   1      46.584  25.374  29.274  1.00  0.00     0.031 C 
ATOM     38  C   UNL A   1      46.822  27.508  30.516  1.00  0.00     0.037 A 
BRANCH  25  39
ATOM     39  C   UNL A   1      43.764  32.585  32.288  1.00  0.00     0.064 A 
ATOM     40  C   UNL A   1      44.085  33.773  31.614  1.00  0.00     0.173 A 
ATOM     41  C   UNL A   1      43.435  32.675  33.650  1.00  0.00     0.173 A 
ATOM     42  F   UNL A   1      44.413  33.744  30.313  1.00  0.00    -0.203 F 
ATOM     43  C   UNL A   1      44.103  34.996  32.282  1.00  0.00     0.198 A 
ATOM     44  C   UNL A   1      43.423  33.903  34.306  1.00  0.00     0.198 A 
ATOM     45  F   UNL A   1      43.111  31.573  34.342  1.00  0.00    -0.203 F 
ATOM     46  F   UNL A   1      44.454  36.110  31.626  1.00  0.00    -0.200 F 
ATOM     47  C   UNL A   1      43.764  35.061  33.624  1.00  0.00     0.200 A 
ATOM     48  F   UNL A   1      43.078  33.967  35.601  1.00  0.00    -0.200 F 
ATOM     49  F   UNL A   1      43.770  36.240  34.263  1.00  0.00    -0.200 F 
ENDBRANCH  25  39
BRANCH  26  50
ATOM     50  C   UNL A   1      43.116  23.881  27.384  1.00  0.00     0.064 A 
ATOM     51  C   UNL A   1      43.505  23.789  26.040  1.00  0.00     0.173 A 
ATOM     52  C   UNL A   1      42.637  22.716  28.004  1.00  0.00     0.173 A 
ATOM     53  F   UNL A   1      43.955  24.877  25.397  1.00  0.00    -0.203 F 
ATOM     54  C   UNL A   1      43.397  22.589  25.340  1.00  0.00     0.198 A 
ATOM     55  C   UNL A   1      42.562  21.509  27.314  1.00  0.00     0.198 A 
ATOM     56  F   UNL A   1      42.257  22.747  29.289  1.00  0.00    -0.203 F 
ATOM     57  F   UNL A   1      43.727  22.542  24.043  1.00  0.00    -0.200 F 
ATOM     58  C   UNL A   1      42.932  21.449  25.979  1.00  0.00     0.200 A 
ATOM     59  F   UNL A   1      42.134  20.406  27.942  1.00  0.00    -0.200 F 
ATOM     60  F   UNL A   1      42.833  20.295  25.306  1.00  0.00    -0.200 F 
ENDBRANCH  26  50
BRANCH  38  61
ATOM     61  C   UNL A   1      48.252  27.135  30.782  1.00  0.00     0.064 A 
ATOM     62  C   UNL A   1      49.300  27.599  29.974  1.00  0.00     0.173 A 
ATOM     63  C   UNL A   1      48.578  26.315  31.875  1.00  0.00     0.173 A 
ATOM     64  F   UNL A   1      49.039  28.368  28.906  1.00  0.00    -0.203 F 
ATOM     65  C   UNL A   1      50.618  27.230  30.230  1.00  0.00     0.198 A 
ATOM     66  C   UNL A   1      49.900  25.978  32.148  1.00  0.00     0.198 A 
ATOM     67  F   UNL A   1      47.613  25.848  32.682  1.00  0.00    -0.203 F 
ATOM     68  F   UNL A   1      51.596  27.636  29.408  1.00  0.00    -0.200 F 
ATOM     69  C   UNL A   1      50.918  26.427  31.320  1.00  0.00     0.200 A 
ATOM     70  F   UNL A   1      50.188  25.213  33.210  1.00  0.00    -0.200 F 
ATOM     71  F   UNL A   1      52.187  26.077  31.567  1.00  0.00    -0.200 F 
ENDBRANCH  38  61
ENDBRANCH  12  13
ENDBRANCH   5   7
ENDBRANCH   2   3
ENDBRANCH   1   2
BRANCH   1  72
ATOM     72  C   UNL A   1      33.167  34.368  28.348  1.00  0.00     0.117 C 
BRANCH  72  73
ATOM     73  N   UNL A   1      33.228  35.808  28.415  1.00  0.00    -0.356 N 
ATOM     74  C   UNL A   1      33.177  36.650  29.477  1.00  0.00     0.227 C 
ATOM     75  H   UNL A   1      33.324  36.255  27.544  1.00  0.00     0.163 HD
ATOM     76  O   UNL A   1      33.347  37.850  29.224  1.00  0.00    -0.274 OA
BRANCH  74  77
ATOM     77  C   UNL A   1      32.997  36.207  30.941  1.00  0.00     0.103 C 
ATOM     78  C   UNL A   1      33.359  37.273  31.926  1.00  0.00    -0.016 C 
ATOM     79  C   UNL A   1      33.703  34.952  31.480  1.00  0.00     0.047 C 
ATOM     80  C   UNL A   1      34.155  36.811  32.896  1.00  0.00    -0.006 C 
ATOM     81  C   UNL A   1      34.545  35.381  32.700  1.00  0.00     0.106 C 
BRANCH  81  82
ATOM     82  N   UNL A   1      35.971  35.378  32.454  1.00  0.00    -0.350 N 
ATOM     83  C   UNL A   1      36.897  34.390  32.534  1.00  0.00     0.224 C 
ATOM     84  H   UNL A   1      36.334  36.250  32.179  1.00  0.00     0.164 HD
ATOM     85  O   UNL A   1      38.010  34.633  32.069  1.00  0.00    -0.275 OA
BRANCH  83  86
ATOM     86  C   UNL A   1      36.562  33.067  33.203  1.00  0.00     0.089 C 
ATOM     87  C   UNL A   1      36.731  33.204  34.720  1.00  0.00     0.025 C 
ATOM     88  C   UNL A   1      37.476  31.933  32.748  1.00  0.00     0.083 C 
ATOM     89  C   UNL A   1      38.213  33.089  35.051  1.00  0.00     0.070 C 
ATOM     90  S   UNL A   1      38.826  31.784  33.956  1.00  0.00    -0.161 SA
ENDBRANCH  83  86
ENDBRANCH  81  82
ENDBRANCH  74  77
ENDBRANCH  72  73
ENDBRANCH   1  72
TORSDOF 12
ENDMDL
MODEL 3
REMARK VINA RESULT:     -11.6      4.194      7.569
REMARK SMILES O=C(NCCCNC(=O)[C@@H]1C=C[C@H](NC(=O)[C@@H]2CCSC2)C1)c1ccc(-c2c3nc(c(-c4c(F)c(F)c(F)c(F)c4F)c4ccc([nH]4)c(-c4c(F)c(F)c(F)c(F)c4F)c4nc(c(-c5c(F)c(F)c(F)c(F)c5F)c5ccc2[nH]5)C=C4)C=C3)cc1
REMARK SMILES IDX 5 1 4 2 3 3 1 4 2 5 23 7 24 8 85 9 25 10 84 11 26 12 27 13
REMARK SMILES IDX 28 14 78 15 29 16 83 17 77 18 79 19 30 20 82 21 76 22 75 23
REMARK SMILES IDX 31 25 63 26 43 27 62 28 44 29 47 30 61 31 80 32 45 33 46 34
REMARK SMILES IDX 60 36 81 37 48 38 32 39 33 40 41 41 34 42 35 43 39 44 42 45
REMARK SMILES IDX 36 46 37 47 40 48 38 49 64 50 65 51 73 52 66 53 67 54 71 55
REMARK SMILES IDX 74 56 68 57 69 58 72 59 70 60 49 61 50 62 58 63 51 64 52 65
REMARK SMILES IDX 56 66 59 67 53 68 54 69 57 70 55 71 6 72 7 73 8 74 9 76
REMARK SMILES IDX 10 77 11 78 22 79 12 80 13 81 14 82 15 83 16 85 17 86 18 87
REMARK SMILES IDX 21 88 19 89 20 90
REMARK H PARENT 3 6 79 24 47 35 7 75 14 84
REMARK Flexibility Score: inf
ROOT
ATOM      1  C   UNL A   1      31.379  32.295  26.512  1.00  0.00     0.042 C 
ENDROOT
BRANCH   1   2
ATOM      2  C   UNL A   1      32.673  32.879  27.047  1.00  0.00     0.118 C 
BRANCH   2   3
ATOM      3  N   UNL A   1      32.472  34.203  27.623  1.00  0.00    -0.352 N 
ATOM      4  O   UNL A   1      32.570  35.833  29.174  1.00  0.00    -0.269 OA
ATOM      5  C   UNL A   1      33.043  34.786  28.726  1.00  0.00     0.251 C 
ATOM      6  H   UNL A   1      31.824  34.768  27.145  1.00  0.00     0.163 HD
BRANCH   5   7
ATOM      7  C   UNL A   1      34.225  34.182  29.373  1.00  0.00     0.039 A 
ATOM      8  C   UNL A   1      34.072  33.184  30.335  1.00  0.00     0.014 A 
ATOM      9  C   UNL A   1      35.508  34.569  28.972  1.00  0.00     0.014 A 
ATOM     10  C   UNL A   1      35.180  32.689  31.007  1.00  0.00     0.010 A 
ATOM     11  C   UNL A   1      36.631  33.977  29.560  1.00  0.00     0.010 A 
ATOM     12  C   UNL A   1      36.474  33.044  30.597  1.00  0.00    -0.014 A 
BRANCH  12  13
ATOM     13  C   UNL A   1      37.631  32.344  31.208  1.00  0.00     0.031 A 
ATOM     14  C   UNL A   1      38.097  32.669  32.596  1.00  0.00     0.074 A 
ATOM     15  C   UNL A   1      38.234  31.371  30.494  1.00  0.00     0.049 A 
ATOM     16  N   UNL A   1      39.077  32.132  33.280  1.00  0.00    -0.248 NA
ATOM     17  C   UNL A   1      37.380  33.736  33.310  1.00  0.00     0.031 C 
ATOM     18  C   UNL A   1      37.868  30.980  29.129  1.00  0.00     0.029 A 
ATOM     19  N   UNL A   1      39.259  30.519  30.815  1.00  0.00    -0.354 N 
ATOM     20  C   UNL A   1      39.105  32.804  34.494  1.00  0.00     0.074 A 
ATOM     21  C   UNL A   1      38.065  33.809  34.444  1.00  0.00     0.031 C 
ATOM     22  C   UNL A   1      38.613  29.932  28.754  1.00  0.00     0.029 A 
ATOM     23  C   UNL A   1      39.563  29.629  29.815  1.00  0.00     0.049 A 
ATOM     24  H   UNL A   1      39.730  30.542  31.679  1.00  0.00     0.167 HD
ATOM     25  C   UNL A   1      39.922  32.589  35.554  1.00  0.00     0.037 A 
ATOM     26  C   UNL A   1      40.522  28.687  29.745  1.00  0.00     0.037 A 
ATOM     27  C   UNL A   1      40.953  31.582  35.591  1.00  0.00     0.049 A 
ATOM     28  C   UNL A   1      41.440  28.506  30.919  1.00  0.00     0.074 A 
ATOM     29  C   UNL A   1      41.822  31.271  36.624  1.00  0.00     0.029 A 
ATOM     30  N   UNL A   1      41.261  30.725  34.543  1.00  0.00    -0.354 N 
ATOM     31  N   UNL A   1      41.436  29.126  32.074  1.00  0.00    -0.248 NA
ATOM     32  C   UNL A   1      42.497  27.499  30.779  1.00  0.00     0.031 C 
ATOM     33  C   UNL A   1      42.688  30.266  36.182  1.00  0.00     0.029 A 
ATOM     34  C   UNL A   1      42.321  29.904  34.896  1.00  0.00     0.049 A 
ATOM     35  H   UNL A   1      40.795  30.703  33.676  1.00  0.00     0.167 HD
ATOM     36  C   UNL A   1      42.474  28.571  32.807  1.00  0.00     0.074 A 
ATOM     37  C   UNL A   1      43.070  27.546  31.973  1.00  0.00     0.031 C 
ATOM     38  C   UNL A   1      42.899  28.885  34.055  1.00  0.00     0.037 A 
BRANCH  25  39
ATOM     39  C   UNL A   1      39.749  33.472  36.758  1.00  0.00     0.064 A 
ATOM     40  C   UNL A   1      40.449  34.681  36.895  1.00  0.00     0.173 A 
ATOM     41  C   UNL A   1      38.837  33.128  37.768  1.00  0.00     0.173 A 
ATOM     42  F   UNL A   1      41.338  35.056  35.962  1.00  0.00    -0.203 F 
ATOM     43  C   UNL A   1      40.263  35.497  38.009  1.00  0.00     0.198 A 
ATOM     44  C   UNL A   1      38.631  33.962  38.864  1.00  0.00     0.198 A 
ATOM     45  F   UNL A   1      38.133  31.989  37.685  1.00  0.00    -0.203 F 
ATOM     46  F   UNL A   1      40.975  36.625  38.137  1.00  0.00    -0.200 F 
ATOM     47  C   UNL A   1      39.349  35.141  38.988  1.00  0.00     0.200 A 
ATOM     48  F   UNL A   1      37.733  33.624  39.802  1.00  0.00    -0.200 F 
ATOM     49  F   UNL A   1      39.162  35.933  40.053  1.00  0.00    -0.200 F 
ENDBRANCH  25  39
BRANCH  26  50
ATOM     50  C   UNL A   1      40.668  27.865  28.515  1.00  0.00     0.064 A 
ATOM     51  C   UNL A   1      41.448  28.305  27.437  1.00  0.00     0.173 A 
ATOM     52  C   UNL A   1      40.030  26.620  28.393  1.00  0.00     0.173 A 
ATOM     53  F   UNL A   1      42.065  29.494  27.498  1.00  0.00    -0.203 F 
ATOM     54  C   UNL A   1      41.566  27.543  26.276  1.00  0.00     0.198 A 
ATOM     55  C   UNL A   1      40.178  25.843  27.246  1.00  0.00     0.198 A 
ATOM     56  F   UNL A   1      39.278  26.148  29.397  1.00  0.00    -0.203 F 
ATOM     57  F   UNL A   1      42.275  28.012  25.241  1.00  0.00    -0.200 F 
ATOM     58  C   UNL A   1      40.937  26.311  26.185  1.00  0.00     0.200 A 
ATOM     59  F   UNL A   1      39.586  24.644  27.172  1.00  0.00    -0.200 F 
ATOM     60  F   UNL A   1      41.054  25.577  25.069  1.00  0.00    -0.200 F 
ENDBRANCH  26  50
BRANCH  38  61
ATOM     61  C   UNL A   1      44.041  28.081  34.606  1.00  0.00     0.064 A 
ATOM     62  C   UNL A   1      43.834  26.871  35.284  1.00  0.00     0.173 A 
ATOM     63  C   UNL A   1      45.363  28.521  34.436  1.00  0.00     0.173 A 
ATOM     64  F   UNL A   1      42.588  26.418  35.490  1.00  0.00    -0.203 F 
ATOM     65  C   UNL A   1      44.905  26.147  35.799  1.00  0.00     0.198 A 
ATOM     66  C   UNL A   1      46.434  27.776  34.922  1.00  0.00     0.198 A 
ATOM     67  F   UNL A   1      45.617  29.670  33.791  1.00  0.00    -0.203 F 
ATOM     68  F   UNL A   1      44.679  25.024  36.496  1.00  0.00    -0.200 F 
ATOM     69  C   UNL A   1      46.204  26.595  35.611  1.00  0.00     0.200 A 
ATOM     70  F   UNL A   1      47.688  28.205  34.727  1.00  0.00    -0.200 F 
ATOM     71  F   UNL A   1      47.233  25.895  36.104  1.00  0.00    -0.200 F 
ENDBRANCH  38  61
ENDBRANCH  12  13
ENDBRANCH   5   7
ENDBRANCH   2   3
ENDBRANCH   1   2
BRANCH   1  72
ATOM     72  C   UNL A   1      31.402  30.773  26.446  1.00  0.00     0.117 C 
BRANCH  72  73
ATOM     73  N   UNL A   1      31.464  30.300  25.085  1.00  0.00    -0.356 N 
ATOM     74  C   UNL A   1      31.470  29.040  24.582  1.00  0.00     0.227 C 
ATOM     75  H   UNL A   1      31.507  31.011  24.406  1.00  0.00     0.163 HD
ATOM     76  O   UNL A   1      31.439  28.950  23.348  1.00  0.00    -0.274 OA
BRANCH  74  77
ATOM     77  C   UNL A   1      31.443  27.756  25.432  1.00  0.00     0.103 C 
ATOM     78  C   UNL A   1      32.668  27.583  26.273  1.00  0.00    -0.016 C 
ATOM     79  C   UNL A   1      31.247  26.378  24.778  1.00  0.00     0.047 C 
ATOM     80  C   UNL A   1      33.178  26.351  26.171  1.00  0.00    -0.006 C 
ATOM     81  C   UNL A   1      32.448  25.497  25.184  1.00  0.00     0.106 C 
BRANCH  81  82
ATOM     82  N   UNL A   1      33.376  25.242  24.103  1.00  0.00    -0.350 N 
ATOM     83  C   UNL A   1      34.225  24.211  23.870  1.00  0.00     0.224 C 
ATOM     84  H   UNL A   1      33.392  25.943  23.412  1.00  0.00     0.164 HD
ATOM     85  O   UNL A   1      34.751  24.165  22.757  1.00  0.00    -0.275 OA
BRANCH  83  86
ATOM     86  C   UNL A   1      34.527  23.194  24.958  1.00  0.00     0.089 C 
ATOM     87  C   UNL A   1      35.619  23.742  25.882  1.00  0.00     0.025 C 
ATOM     88  C   UNL A   1      35.034  21.869  24.396  1.00  0.00     0.083 C 
ATOM     89  C   UNL A   1      36.968  23.539  25.206  1.00  0.00     0.070 C 
ATOM     90  S   UNL A   1      36.851  21.904  24.436  1.00  0.00    -0.161 SA
ENDBRANCH  83  86
ENDBRANCH  81  82
ENDBRANCH  74  77
ENDBRANCH  72  73
ENDBRANCH   1  72
TORSDOF 12
ENDMDL
