MODEL 1
REMARK VINA RESULT:     -14.0      0.000      0.000
REMARK SMILES COc1ccc(N2C(=O)[NH+]=C(NCCCNC(=O)c3ccc(-c4c5nc(c(-c6c(F)c(F)c(F)c(F)c6F)c6ccc([nH]6)c(-c6c(F)c(F)c(F)c(F)c6F)c6nc(c(-c7c(F)c(F)c(F)c(F)c7F)c7ccc4[nH]7)C=C6)C=C5)cc3)/C(=C\c3cc(Cl)c(OCC(=O)[O-])c(Cl)c3)C2=O)cc1
REMARK SMILES IDX 13 1 12 2 7 3 8 4 97 5 9 6 10 7 82 8 98 9 11 10 83 12 6 14
REMARK SMILES IDX 3 15 4 16 100 17 5 18 99 19 2 20 1 21 84 22 85 23 96 24
REMARK SMILES IDX 86 25 94 26 87 27 88 28 95 29 89 30 90 31 91 32 92 33 93 34
REMARK SMILES IDX 14 35 15 36 16 37 17 38 18 40 19 41 20 42 81 43 21 44 80 45
REMARK SMILES IDX 22 46 23 47 24 48 74 49 25 50 79 51 73 52 75 53 26 54 78 55
REMARK SMILES IDX 72 56 71 57 27 59 59 60 39 61 58 62 40 63 43 64 57 65 76 66
REMARK SMILES IDX 41 67 42 68 56 70 77 71 44 72 28 73 29 74 37 75 30 76 31 77
REMARK SMILES IDX 35 78 38 79 32 80 33 81 36 82 34 83 60 84 61 85 69 86 62 87
REMARK SMILES IDX 63 88 67 89 70 90 64 91 65 92 68 93 66 94 45 95 46 96 54 97
REMARK SMILES IDX 47 98 48 99 52 100 55 101 49 102 50 103 53 104 51 105
REMARK H PARENT 10 11 12 13 16 39 75 58 43 69
REMARK Flexibility Score: inf
ROOT
ATOM      1  C   UNL A   1      32.062  27.605  27.168  1.00  0.00     0.195 C 
ENDROOT
BRANCH   1   2
ATOM      2  N   UNL A   1      31.567  26.904  25.988  1.00  0.00    -0.305 N 
ATOM      3  N   UNL A   1      32.824  23.019  25.153  1.00  0.00    -0.155 N 
ATOM      4  C   UNL A   1      33.386  23.829  26.140  1.00  0.00     0.448 C 
ATOM      5  C   UNL A   1      31.843  23.465  24.281  1.00  0.00     0.328 C 
ATOM      6  O   UNL A   1      34.337  23.457  26.833  1.00  0.00    -0.212 OA
ATOM      7  N   UNL A   1      32.906  25.090  26.341  1.00  0.00    -0.209 N 
ATOM      8  C   UNL A   1      31.385  24.875  24.482  1.00  0.00     0.129 C 
ATOM      9  O   UNL A   1      31.327  22.776  23.399  1.00  0.00    -0.249 OA
ATOM     10  C   UNL A   1      31.974  25.636  25.619  1.00  0.00     0.236 C 
ATOM     11  H   UNL A   1      33.289  25.619  27.077  1.00  0.00     0.270 HD
ATOM     12  C   UNL A   1      30.460  25.297  23.596  1.00  0.00     0.030 C 
ATOM     13  H   UNL A   1      30.905  27.363  25.422  1.00  0.00     0.256 HD
BRANCH   3  14
ATOM     14  C   UNL A   1      33.294  21.666  25.020  1.00  0.00     0.111 A 
ATOM     15  C   UNL A   1      34.199  19.010  24.710  1.00  0.00     0.119 A 
ATOM     16  C   UNL A   1      32.860  19.273  24.991  1.00  0.00     0.050 A 
ATOM     17  C   UNL A   1      35.088  20.074  24.569  1.00  0.00     0.050 A 
ATOM     18  C   UNL A   1      32.413  20.586  25.168  1.00  0.00     0.047 A 
ATOM     19  C   UNL A   1      34.635  21.392  24.712  1.00  0.00     0.047 A 
BRANCH  15  20
ATOM     20  O   UNL A   1      34.514  17.689  24.552  1.00  0.00    -0.497 OA
ATOM     21  C   UNL A   1      34.055  17.082  23.351  1.00  0.00     0.278 C 
ENDBRANCH  15  20
ENDBRANCH   3  14
BRANCH  12  22
ATOM     22  C   UNL A   1      29.832  26.604  23.402  1.00  0.00    -0.021 A 
ATOM     23  C   UNL A   1      28.484  26.777  23.733  1.00  0.00     0.032 A 
ATOM     24  C   UNL A   1      30.524  27.632  22.754  1.00  0.00     0.032 A 
ATOM     25  C   UNL A   1      27.834  27.972  23.419  1.00  0.00     0.085 A 
ATOM     26  C   UNL A   1      29.873  28.831  22.445  1.00  0.00     0.085 A 
ATOM     27  Cl  UNL A   1      26.163  28.131  23.827  1.00  0.00    -0.080 Cl
ATOM     28  C   UNL A   1      28.531  29.016  22.793  1.00  0.00     0.157 A 
ATOM     29  Cl  UNL A   1      30.765  30.040  21.595  1.00  0.00    -0.080 Cl
BRANCH  28  30
ATOM     30  O   UNL A   1      27.858  30.160  22.462  1.00  0.00    -0.485 OA
BRANCH  30  31
ATOM     31  C   UNL A   1      28.250  31.309  23.204  1.00  0.00     0.282 C 
BRANCH  31  32
ATOM     32  C   UNL A   1      28.291  32.731  22.620  1.00  0.00     0.079 C 
ATOM     33  O   UNL A   1      28.797  33.722  23.123  1.00  0.00    -0.546 OA
ATOM     34  O   UNL A   1      27.777  32.764  21.370  1.00  0.00    -0.546 OA
ENDBRANCH  31  32
ENDBRANCH  30  31
ENDBRANCH  28  30
ENDBRANCH  12  22
ENDBRANCH   1   2
BRANCH   1  35
ATOM     35  C   UNL A   1      31.661  29.079  27.168  1.00  0.00     0.059 C 
BRANCH  35  36
ATOM     36  C   UNL A   1      32.545  29.988  26.318  1.00  0.00     0.119 C 
BRANCH  36  37
ATOM     37  N   UNL A   1      32.519  31.381  26.733  1.00  0.00    -0.352 N 
ATOM     38  C   UNL A   1      33.437  32.129  27.420  1.00  0.00     0.251 C 
ATOM     39  H   UNL A   1      31.704  31.869  26.477  1.00  0.00     0.163 HD
ATOM     40  O   UNL A   1      33.266  33.347  27.508  1.00  0.00    -0.269 OA
BRANCH  38  41
ATOM     41  C   UNL A   1      34.658  31.548  28.020  1.00  0.00     0.039 A 
ATOM     42  C   UNL A   1      35.761  32.395  28.190  1.00  0.00     0.014 A 
ATOM     43  C   UNL A   1      34.777  30.191  28.332  1.00  0.00     0.014 A 
ATOM     44  C   UNL A   1      36.944  31.907  28.744  1.00  0.00     0.010 A 
ATOM     45  C   UNL A   1      35.945  29.708  28.921  1.00  0.00     0.010 A 
ATOM     46  C   UNL A   1      37.027  30.568  29.154  1.00  0.00    -0.014 A 
BRANCH  46  47
ATOM     47  C   UNL A   1      38.185  30.097  29.950  1.00  0.00     0.031 A 
ATOM     48  C   UNL A   1      38.436  30.597  31.339  1.00  0.00     0.074 A 
ATOM     49  C   UNL A   1      39.058  29.264  29.352  1.00  0.00     0.049 A 
ATOM     50  N   UNL A   1      39.420  30.305  32.152  1.00  0.00    -0.248 NA
ATOM     51  C   UNL A   1      37.472  31.564  31.881  1.00  0.00     0.031 C 
ATOM     52  C   UNL A   1      38.940  28.770  27.978  1.00  0.00     0.029 A 
ATOM     53  N   UNL A   1      40.222  28.703  29.809  1.00  0.00    -0.354 N 
ATOM     54  C   UNL A   1      39.197  31.051  33.301  1.00  0.00     0.074 A 
ATOM     55  C   UNL A   1      38.003  31.836  33.066  1.00  0.00     0.031 C 
ATOM     56  C   UNL A   1      39.989  27.981  27.703  1.00  0.00     0.029 A 
ATOM     57  C   UNL A   1      40.862  27.931  28.871  1.00  0.00     0.049 A 
ATOM     58  H   UNL A   1      40.566  28.840  30.721  1.00  0.00     0.167 HD
ATOM     59  C   UNL A   1      39.922  31.065  34.446  1.00  0.00     0.037 A 
ATOM     60  C   UNL A   1      42.028  27.265  28.941  1.00  0.00     0.037 A 
ATOM     61  C   UNL A   1      41.108  30.273  34.663  1.00  0.00     0.049 A 
ATOM     62  C   UNL A   1      42.797  27.280  30.230  1.00  0.00     0.074 A 
ATOM     63  C   UNL A   1      41.873  30.161  35.812  1.00  0.00     0.029 A 
ATOM     64  N   UNL A   1      41.708  29.467  33.706  1.00  0.00    -0.354 N 
ATOM     65  N   UNL A   1      42.525  27.913  31.345  1.00  0.00    -0.248 NA
ATOM     66  C   UNL A   1      44.025  26.478  30.277  1.00  0.00     0.031 C 
ATOM     67  C   UNL A   1      42.959  29.324  35.536  1.00  0.00     0.029 A 
ATOM     68  C   UNL A   1      42.846  28.874  34.230  1.00  0.00     0.049 A 
ATOM     69  H   UNL A   1      41.373  29.335  32.789  1.00  0.00     0.167 HD
ATOM     70  C   UNL A   1      43.532  27.569  32.234  1.00  0.00     0.074 A 
ATOM     71  C   UNL A   1      44.413  26.657  31.532  1.00  0.00     0.031 C 
ATOM     72  C   UNL A   1      43.711  27.971  33.516  1.00  0.00     0.037 A 
BRANCH  59  73
ATOM     73  C   UNL A   1      39.462  31.963  35.557  1.00  0.00     0.064 A 
ATOM     74  C   UNL A   1      38.542  31.523  36.523  1.00  0.00     0.173 A 
ATOM     75  C   UNL A   1      39.995  33.252  35.700  1.00  0.00     0.173 A 
ATOM     76  F   UNL A   1      37.997  30.301  36.428  1.00  0.00    -0.203 F 
ATOM     77  C   UNL A   1      38.161  32.349  37.578  1.00  0.00     0.198 A 
ATOM     78  C   UNL A   1      39.631  34.065  36.771  1.00  0.00     0.198 A 
ATOM     79  F   UNL A   1      40.884  33.719  34.811  1.00  0.00    -0.203 F 
ATOM     80  F   UNL A   1      37.256  31.920  38.468  1.00  0.00    -0.200 F 
ATOM     81  C   UNL A   1      38.711  33.615  37.706  1.00  0.00     0.200 A 
ATOM     82  F   UNL A   1      40.173  35.284  36.901  1.00  0.00    -0.200 F 
ATOM     83  F   UNL A   1      38.352  34.403  38.729  1.00  0.00    -0.200 F 
ENDBRANCH  59  73
BRANCH  60  84
ATOM     84  C   UNL A   1      42.511  26.505  27.761  1.00  0.00     0.064 A 
ATOM     85  C   UNL A   1      43.416  27.078  26.858  1.00  0.00     0.173 A 
ATOM     86  C   UNL A   1      42.097  25.187  27.526  1.00  0.00     0.173 A 
ATOM     87  F   UNL A   1      43.829  28.342  27.035  1.00  0.00    -0.203 F 
ATOM     88  C   UNL A   1      43.877  26.365  25.754  1.00  0.00     0.198 A 
ATOM     89  C   UNL A   1      42.579  24.465  26.436  1.00  0.00     0.198 A 
ATOM     90  F   UNL A   1      41.241  24.590  28.368  1.00  0.00    -0.203 F 
ATOM     91  F   UNL A   1      44.714  26.948  24.886  1.00  0.00    -0.200 F 
ATOM     92  C   UNL A   1      43.464  25.057  25.547  1.00  0.00     0.200 A 
ATOM     93  F   UNL A   1      42.191  23.196  26.250  1.00  0.00    -0.200 F 
ATOM     94  F   UNL A   1      43.915  24.369  24.490  1.00  0.00    -0.200 F 
ENDBRANCH  60  84
BRANCH  72  95
ATOM     95  C   UNL A   1      44.894  27.406  34.245  1.00  0.00     0.064 A 
ATOM     96  C   UNL A   1      46.124  28.080  34.282  1.00  0.00     0.173 A 
ATOM     97  C   UNL A   1      44.789  26.188  34.932  1.00  0.00     0.173 A 
ATOM     98  F   UNL A   1      46.277  29.240  33.626  1.00  0.00    -0.203 F 
ATOM     99  C   UNL A   1      47.213  27.541  34.959  1.00  0.00     0.198 A 
ATOM    100  C   UNL A   1      45.873  25.665  35.631  1.00  0.00     0.198 A 
ATOM    101  F   UNL A   1      43.632  25.508  34.930  1.00  0.00    -0.203 F 
ATOM    102  F   UNL A   1      48.393  28.176  34.940  1.00  0.00    -0.200 F 
ATOM    103  C   UNL A   1      47.086  26.337  35.637  1.00  0.00     0.200 A 
ATOM    104  F   UNL A   1      45.747  24.507  36.293  1.00  0.00    -0.200 F 
ATOM    105  F   UNL A   1      48.137  25.820  36.289  1.00  0.00    -0.200 F 
ENDBRANCH  72  95
ENDBRANCH  46  47
ENDBRANCH  38  41
ENDBRANCH  36  37
ENDBRANCH  35  36
ENDBRANCH   1  35
TORSDOF 15
ENDMDL
MODEL 2
REMARK VINA RESULT:     -13.9      0.259      1.944
REMARK SMILES COc1ccc(N2C(=O)[NH+]=C(NCCCNC(=O)c3ccc(-c4c5nc(c(-c6c(F)c(F)c(F)c(F)c6F)c6ccc([nH]6)c(-c6c(F)c(F)c(F)c(F)c6F)c6nc(c(-c7c(F)c(F)c(F)c(F)c7F)c7ccc4[nH]7)C=C6)C=C5)cc3)/C(=C\c3cc(Cl)c(OCC(=O)[O-])c(Cl)c3)C2=O)cc1
REMARK SMILES IDX 13 1 12 2 7 3 8 4 97 5 9 6 10 7 82 8 98 9 11 10 83 12 6 14
REMARK SMILES IDX 3 15 4 16 100 17 5 18 99 19 2 20 1 21 84 22 85 23 96 24
REMARK SMILES IDX 86 25 94 26 87 27 88 28 95 29 89 30 90 31 91 32 92 33 93 34
REMARK SMILES IDX 14 35 15 36 16 37 17 38 18 40 19 41 20 42 81 43 21 44 80 45
REMARK SMILES IDX 22 46 23 47 24 48 74 49 25 50 79 51 73 52 75 53 26 54 78 55
REMARK SMILES IDX 72 56 71 57 27 59 59 60 39 61 58 62 40 63 43 64 57 65 76 66
REMARK SMILES IDX 41 67 42 68 56 70 77 71 44 72 28 73 29 74 37 75 30 76 31 77
REMARK SMILES IDX 35 78 38 79 32 80 33 81 36 82 34 83 60 84 61 85 69 86 62 87
REMARK SMILES IDX 63 88 67 89 70 90 64 91 65 92 68 93 66 94 45 95 46 96 54 97
REMARK SMILES IDX 47 98 48 99 52 100 55 101 49 102 50 103 53 104 51 105
REMARK H PARENT 10 11 12 13 16 39 75 58 43 69
REMARK Flexibility Score: inf
ROOT
ATOM      1  C   UNL A   1      31.895  27.501  27.281  1.00  0.00     0.195 C 
ENDROOT
BRANCH   1   2
ATOM      2  N   UNL A   1      31.449  26.835  26.062  1.00  0.00    -0.305 N 
ATOM      3  N   UNL A   1      32.764  22.985  25.154  1.00  0.00    -0.155 N 
ATOM      4  C   UNL A   1      33.283  23.767  26.186  1.00  0.00     0.448 C 
ATOM      5  C   UNL A   1      31.813  23.452  24.260  1.00  0.00     0.328 C 
ATOM      6  O   UNL A   1      34.210  23.379  26.902  1.00  0.00    -0.212 OA
ATOM      7  N   UNL A   1      32.787  25.018  26.408  1.00  0.00    -0.209 N 
ATOM      8  C   UNL A   1      31.337  24.852  24.488  1.00  0.00     0.129 C 
ATOM      9  O   UNL A   1      31.335  22.788  23.338  1.00  0.00    -0.249 OA
ATOM     10  C   UNL A   1      31.879  25.581  25.669  1.00  0.00     0.236 C 
ATOM     11  H   UNL A   1      33.139  25.526  27.174  1.00  0.00     0.270 HD
ATOM     12  C   UNL A   1      30.442  25.297  23.581  1.00  0.00     0.030 C 
ATOM     13  H   UNL A   1      30.805  27.306  25.486  1.00  0.00     0.256 HD
BRANCH   3  14
ATOM     14  C   UNL A   1      33.248  21.640  24.996  1.00  0.00     0.111 A 
ATOM     15  C   UNL A   1      34.216  19.000  24.738  1.00  0.00     0.119 A 
ATOM     16  C   UNL A   1      35.083  20.086  24.628  1.00  0.00     0.050 A 
ATOM     17  C   UNL A   1      32.865  19.229  24.990  1.00  0.00     0.050 A 
ATOM     18  C   UNL A   1      34.603  21.395  24.734  1.00  0.00     0.047 A 
ATOM     19  C   UNL A   1      32.388  20.539  25.130  1.00  0.00     0.047 A 
BRANCH  15  20
ATOM     20  O   UNL A   1      34.803  17.771  24.623  1.00  0.00    -0.497 OA
ATOM     21  C   UNL A   1      34.113  16.829  23.810  1.00  0.00     0.278 C 
ENDBRANCH  15  20
ENDBRANCH   3  14
BRANCH  12  22
ATOM     22  C   UNL A   1      29.813  26.606  23.405  1.00  0.00    -0.021 A 
ATOM     23  C   UNL A   1      28.467  26.775  23.749  1.00  0.00     0.032 A 
ATOM     24  C   UNL A   1      30.499  27.640  22.762  1.00  0.00     0.032 A 
ATOM     25  C   UNL A   1      27.815  27.972  23.451  1.00  0.00     0.085 A 
ATOM     26  C   UNL A   1      29.846  28.841  22.469  1.00  0.00     0.085 A 
ATOM     27  Cl  UNL A   1      26.147  28.127  23.874  1.00  0.00    -0.080 Cl
ATOM     28  C   UNL A   1      28.506  29.022  22.829  1.00  0.00     0.157 A 
ATOM     29  Cl  UNL A   1      30.731  30.059  21.624  1.00  0.00    -0.080 Cl
BRANCH  28  30
ATOM     30  O   UNL A   1      27.830  30.169  22.516  1.00  0.00    -0.485 OA
BRANCH  30  31
ATOM     31  C   UNL A   1      28.332  31.340  23.150  1.00  0.00     0.282 C 
BRANCH  31  32
ATOM     32  C   UNL A   1      28.407  32.717  22.468  1.00  0.00     0.079 C 
ATOM     33  O   UNL A   1      27.811  33.077  21.464  1.00  0.00    -0.546 OA
ATOM     34  O   UNL A   1      29.158  33.581  23.185  1.00  0.00    -0.546 OA
ENDBRANCH  31  32
ENDBRANCH  30  31
ENDBRANCH  28  30
ENDBRANCH  12  22
ENDBRANCH   1   2
BRANCH   1  35
ATOM     35  C   UNL A   1      31.632  29.005  27.239  1.00  0.00     0.059 C 
BRANCH  35  36
ATOM     36  C   UNL A   1      32.690  29.825  26.506  1.00  0.00     0.119 C 
BRANCH  36  37
ATOM     37  N   UNL A   1      32.696  31.232  26.873  1.00  0.00    -0.352 N 
ATOM     38  C   UNL A   1      33.633  31.983  27.531  1.00  0.00     0.251 C 
ATOM     39  H   UNL A   1      31.890  31.728  26.602  1.00  0.00     0.163 HD
ATOM     40  O   UNL A   1      33.488  33.206  27.577  1.00  0.00    -0.269 OA
BRANCH  38  41
ATOM     41  C   UNL A   1      34.843  31.396  28.147  1.00  0.00     0.039 A 
ATOM     42  C   UNL A   1      35.953  32.233  28.314  1.00  0.00     0.014 A 
ATOM     43  C   UNL A   1      34.944  30.043  28.478  1.00  0.00     0.014 A 
ATOM     44  C   UNL A   1      37.127  31.739  28.883  1.00  0.00     0.010 A 
ATOM     45  C   UNL A   1      36.103  29.554  29.082  1.00  0.00     0.010 A 
ATOM     46  C   UNL A   1      37.192  30.405  29.311  1.00  0.00    -0.014 A 
BRANCH  46  47
ATOM     47  C   UNL A   1      38.339  29.933  30.121  1.00  0.00     0.031 A 
ATOM     48  C   UNL A   1      38.584  30.445  31.506  1.00  0.00     0.074 A 
ATOM     49  C   UNL A   1      39.210  29.086  29.539  1.00  0.00     0.049 A 
ATOM     50  N   UNL A   1      39.558  30.153  32.331  1.00  0.00    -0.248 NA
ATOM     51  C   UNL A   1      37.624  31.426  32.031  1.00  0.00     0.031 C 
ATOM     52  C   UNL A   1      39.099  28.578  28.169  1.00  0.00     0.029 A 
ATOM     53  N   UNL A   1      40.365  28.519  30.011  1.00  0.00    -0.354 N 
ATOM     54  C   UNL A   1      39.333  30.912  33.470  1.00  0.00     0.074 A 
ATOM     55  C   UNL A   1      38.148  31.706  33.217  1.00  0.00     0.031 C 
ATOM     56  C   UNL A   1      40.142  27.777  27.911  1.00  0.00     0.029 A 
ATOM     57  C   UNL A   1      41.005  27.732  29.086  1.00  0.00     0.049 A 
ATOM     58  H   UNL A   1      40.703  28.662  30.925  1.00  0.00     0.167 HD
ATOM     59  C   UNL A   1      40.049  30.932  34.620  1.00  0.00     0.037 A 
ATOM     60  C   UNL A   1      42.165  27.055  29.173  1.00  0.00     0.037 A 
ATOM     61  C   UNL A   1      41.226  30.131  34.856  1.00  0.00     0.049 A 
ATOM     62  C   UNL A   1      42.924  27.077  30.468  1.00  0.00     0.074 A 
ATOM     63  C   UNL A   1      41.981  30.025  36.012  1.00  0.00     0.029 A 
ATOM     64  N   UNL A   1      41.826  29.310  33.912  1.00  0.00    -0.354 N 
ATOM     65  N   UNL A   1      42.648  27.724  31.574  1.00  0.00    -0.248 NA
ATOM     66  C   UNL A   1      44.144  26.265  30.533  1.00  0.00     0.031 C 
ATOM     67  C   UNL A   1      43.061  29.174  35.754  1.00  0.00     0.029 A 
ATOM     68  C   UNL A   1      42.955  28.712  34.452  1.00  0.00     0.049 A 
ATOM     69  H   UNL A   1      41.498  29.171  32.994  1.00  0.00     0.167 HD
ATOM     70  C   UNL A   1      43.645  27.380  32.475  1.00  0.00     0.074 A 
ATOM     71  C   UNL A   1      44.523  26.453  31.789  1.00  0.00     0.031 C 
ATOM     72  C   UNL A   1      43.817  27.794  33.754  1.00  0.00     0.037 A 
BRANCH  59  73
ATOM     73  C   UNL A   1      39.588  31.845  35.719  1.00  0.00     0.064 A 
ATOM     74  C   UNL A   1      40.085  33.152  35.844  1.00  0.00     0.173 A 
ATOM     75  C   UNL A   1      38.590  31.435  36.615  1.00  0.00     0.173 A 
ATOM     76  F   UNL A   1      41.045  33.591  35.016  1.00  0.00    -0.203 F 
ATOM     77  C   UNL A   1      39.612  34.006  36.837  1.00  0.00     0.198 A 
ATOM     78  C   UNL A   1      38.102  32.301  37.591  1.00  0.00     0.198 A 
ATOM     79  F   UNL A   1      38.074  30.200  36.535  1.00  0.00    -0.203 F 
ATOM     80  F   UNL A   1      40.126  35.238  36.958  1.00  0.00    -0.200 F 
ATOM     81  C   UNL A   1      38.616  33.584  37.704  1.00  0.00     0.200 A 
ATOM     82  F   UNL A   1      37.129  31.896  38.419  1.00  0.00    -0.200 F 
ATOM     83  F   UNL A   1      38.154  34.412  38.651  1.00  0.00    -0.200 F 
ENDBRANCH  59  73
BRANCH  60  84
ATOM     84  C   UNL A   1      42.650  26.279  28.004  1.00  0.00     0.064 A 
ATOM     85  C   UNL A   1      42.270  24.944  27.820  1.00  0.00     0.173 A 
ATOM     86  C   UNL A   1      43.481  26.863  27.038  1.00  0.00     0.173 A 
ATOM     87  F   UNL A   1      41.488  24.339  28.726  1.00  0.00    -0.203 F 
ATOM     88  C   UNL A   1      42.717  24.215  26.720  1.00  0.00     0.198 A 
ATOM     89  C   UNL A   1      43.906  26.142  25.925  1.00  0.00     0.198 A 
ATOM     90  F   UNL A   1      43.863  28.143  27.164  1.00  0.00    -0.203 F 
ATOM     91  F   UNL A   1      42.368  22.928  26.586  1.00  0.00    -0.200 F 
ATOM     92  C   UNL A   1      43.529  24.816  25.770  1.00  0.00     0.200 A 
ATOM     93  F   UNL A   1      44.677  26.732  25.001  1.00  0.00    -0.200 F 
ATOM     94  F   UNL A   1      43.951  24.117  24.708  1.00  0.00    -0.200 F 
ENDBRANCH  60  84
BRANCH  72  95
ATOM     95  C   UNL A   1      44.989  27.226  34.498  1.00  0.00     0.064 A 
ATOM     96  C   UNL A   1      44.889  26.025  35.217  1.00  0.00     0.173 A 
ATOM     97  C   UNL A   1      46.229  27.878  34.474  1.00  0.00     0.173 A 
ATOM     98  F   UNL A   1      43.718  25.373  35.283  1.00  0.00    -0.203 F 
ATOM     99  C   UNL A   1      45.984  25.513  35.907  1.00  0.00     0.198 A 
ATOM    100  C   UNL A   1      47.329  27.349  35.144  1.00  0.00     0.198 A 
ATOM    101  F   UNL A   1      46.376  29.028  33.798  1.00  0.00    -0.203 F 
ATOM    102  F   UNL A   1      45.854  24.391  36.629  1.00  0.00    -0.200 F 
ATOM    103  C   UNL A   1      47.204  26.172  35.866  1.00  0.00     0.200 A 
ATOM    104  F   UNL A   1      48.510  27.982  35.095  1.00  0.00    -0.200 F 
ATOM    105  F   UNL A   1      48.257  25.677  36.530  1.00  0.00    -0.200 F 
ENDBRANCH  72  95
ENDBRANCH  46  47
ENDBRANCH  38  41
ENDBRANCH  36  37
ENDBRANCH  35  36
ENDBRANCH   1  35
TORSDOF 15
ENDMDL
MODEL 3
REMARK VINA RESULT:     -13.9      0.401      6.988
REMARK SMILES COc1ccc(N2C(=O)[NH+]=C(NCCCNC(=O)c3ccc(-c4c5nc(c(-c6c(F)c(F)c(F)c(F)c6F)c6ccc([nH]6)c(-c6c(F)c(F)c(F)c(F)c6F)c6nc(c(-c7c(F)c(F)c(F)c(F)c7F)c7ccc4[nH]7)C=C6)C=C5)cc3)/C(=C\c3cc(Cl)c(OCC(=O)[O-])c(Cl)c3)C2=O)cc1
REMARK SMILES IDX 13 1 12 2 7 3 8 4 97 5 9 6 10 7 82 8 98 9 11 10 83 12 6 14
REMARK SMILES IDX 3 15 4 16 100 17 5 18 99 19 2 20 1 21 84 22 85 23 96 24
REMARK SMILES IDX 86 25 94 26 87 27 88 28 95 29 89 30 90 31 91 32 92 33 93 34
REMARK SMILES IDX 14 35 15 36 16 37 17 38 18 40 19 41 20 42 81 43 21 44 80 45
REMARK SMILES IDX 22 46 23 47 24 48 74 49 25 50 79 51 73 52 75 53 26 54 78 55
REMARK SMILES IDX 72 56 71 57 27 59 59 60 39 61 58 62 40 63 43 64 57 65 76 66
REMARK SMILES IDX 41 67 42 68 56 70 77 71 44 72 28 73 29 74 37 75 30 76 31 77
REMARK SMILES IDX 35 78 38 79 32 80 33 81 36 82 34 83 60 84 61 85 69 86 62 87
REMARK SMILES IDX 63 88 67 89 70 90 64 91 65 92 68 93 66 94 45 95 46 96 54 97
REMARK SMILES IDX 47 98 48 99 52 100 55 101 49 102 50 103 53 104 51 105
REMARK H PARENT 10 11 12 13 16 39 75 58 43 69
REMARK Flexibility Score: inf
ROOT
ATOM      1  C   UNL A   1      31.989  27.464  27.247  1.00  0.00     0.195 C 
ENDROOT
BRANCH   1   2
ATOM      2  N   UNL A   1      31.518  26.775  26.051  1.00  0.00    -0.305 N 
ATOM      3  N   UNL A   1      32.831  22.915  25.182  1.00  0.00    -0.155 N 
ATOM      4  C   UNL A   1      33.369  23.718  26.188  1.00  0.00     0.448 C 
ATOM      5  C   UNL A   1      31.858  23.362  24.301  1.00  0.00     0.328 C 
ATOM      6  O   UNL A   1      34.313  23.346  26.890  1.00  0.00    -0.212 OA
ATOM      7  N   UNL A   1      32.872  24.971  26.398  1.00  0.00    -0.209 N 
ATOM      8  C   UNL A   1      31.381  24.764  24.515  1.00  0.00     0.129 C 
ATOM      9  O   UNL A   1      31.363  22.680  23.402  1.00  0.00    -0.249 OA
ATOM     10  C   UNL A   1      31.945  25.516  25.671  1.00  0.00     0.236 C 
ATOM     11  H   UNL A   1      33.238  25.494  27.148  1.00  0.00     0.270 HD
ATOM     12  C   UNL A   1      30.464  25.189  23.620  1.00  0.00     0.030 C 
ATOM     13  H   UNL A   1      30.860  27.234  25.481  1.00  0.00     0.256 HD
BRANCH   3  14
ATOM     14  C   UNL A   1      33.317  21.569  25.038  1.00  0.00     0.111 A 
ATOM     15  C   UNL A   1      34.258  18.929  24.704  1.00  0.00     0.119 A 
ATOM     16  C   UNL A   1      32.906  19.174  24.935  1.00  0.00     0.050 A 
ATOM     17  C   UNL A   1      35.143  20.002  24.625  1.00  0.00     0.050 A 
ATOM     18  C   UNL A   1      32.440  20.480  25.123  1.00  0.00     0.047 A 
ATOM     19  C   UNL A   1      34.672  21.313  24.779  1.00  0.00     0.047 A 
BRANCH  15  20
ATOM     20  O   UNL A   1      34.590  17.614  24.530  1.00  0.00    -0.497 OA
ATOM     21  C   UNL A   1      33.964  16.957  23.434  1.00  0.00     0.278 C 
ENDBRANCH  15  20
ENDBRANCH   3  14
BRANCH  12  22
ATOM     22  C   UNL A   1      29.825  26.492  23.435  1.00  0.00    -0.021 A 
ATOM     23  C   UNL A   1      28.478  26.653  23.777  1.00  0.00     0.032 A 
ATOM     24  C   UNL A   1      30.504  27.526  22.785  1.00  0.00     0.032 A 
ATOM     25  C   UNL A   1      27.817  27.844  23.471  1.00  0.00     0.085 A 
ATOM     26  C   UNL A   1      29.842  28.721  22.484  1.00  0.00     0.085 A 
ATOM     27  Cl  UNL A   1      26.148  27.988  23.891  1.00  0.00    -0.080 Cl
ATOM     28  C   UNL A   1      28.501  28.894  22.842  1.00  0.00     0.157 A 
ATOM     29  Cl  UNL A   1      30.719  29.940  21.632  1.00  0.00    -0.080 Cl
BRANCH  28  30
ATOM     30  O   UNL A   1      27.817  30.035  22.520  1.00  0.00    -0.485 OA
BRANCH  30  31
ATOM     31  C   UNL A   1      28.414  31.235  22.997  1.00  0.00     0.282 C 
BRANCH  31  32
ATOM     32  C   UNL A   1      28.353  32.577  22.248  1.00  0.00     0.079 C 
ATOM     33  O   UNL A   1      28.404  33.696  22.734  1.00  0.00    -0.546 OA
ATOM     34  O   UNL A   1      28.343  32.393  20.909  1.00  0.00    -0.546 OA
ENDBRANCH  31  32
ENDBRANCH  30  31
ENDBRANCH  28  30
ENDBRANCH  12  22
ENDBRANCH   1   2
BRANCH   1  35
ATOM     35  C   UNL A   1      31.591  28.939  27.250  1.00  0.00     0.059 C 
BRANCH  35  36
ATOM     36  C   UNL A   1      32.497  29.853  26.429  1.00  0.00     0.119 C 
BRANCH  36  37
ATOM     37  N   UNL A   1      32.444  31.248  26.838  1.00  0.00    -0.352 N 
ATOM     38  C   UNL A   1      33.366  32.028  27.482  1.00  0.00     0.251 C 
ATOM     39  H   UNL A   1      31.604  31.708  26.613  1.00  0.00     0.163 HD
ATOM     40  O   UNL A   1      33.160  33.240  27.571  1.00  0.00    -0.269 OA
BRANCH  38  41
ATOM     41  C   UNL A   1      34.628  31.489  28.034  1.00  0.00     0.039 A 
ATOM     42  C   UNL A   1      35.727  32.354  28.096  1.00  0.00     0.014 A 
ATOM     43  C   UNL A   1      34.783  30.151  28.403  1.00  0.00     0.014 A 
ATOM     44  C   UNL A   1      36.948  31.906  28.600  1.00  0.00     0.010 A 
ATOM     45  C   UNL A   1      35.991  29.708  28.943  1.00  0.00     0.010 A 
ATOM     46  C   UNL A   1      37.073  30.589  29.068  1.00  0.00    -0.014 A 
BRANCH  46  47
ATOM     47  C   UNL A   1      38.283  30.170  29.813  1.00  0.00     0.031 A 
ATOM     48  C   UNL A   1      39.244  29.170  29.249  1.00  0.00     0.074 A 
ATOM     49  C   UNL A   1      38.450  30.655  31.059  1.00  0.00     0.049 A 
ATOM     50  N   UNL A   1      40.331  28.679  29.788  1.00  0.00    -0.248 NA
ATOM     51  C   UNL A   1      38.940  28.637  27.914  1.00  0.00     0.031 C 
ATOM     52  C   UNL A   1      37.535  31.583  31.728  1.00  0.00     0.029 A 
ATOM     53  N   UNL A   1      39.429  30.423  31.989  1.00  0.00    -0.354 N 
ATOM     54  C   UNL A   1      40.841  27.778  28.864  1.00  0.00     0.074 A 
ATOM     55  C   UNL A   1      39.925  27.765  27.742  1.00  0.00     0.031 C 
ATOM     56  C   UNL A   1      37.995  31.841  32.961  1.00  0.00     0.029 A 
ATOM     57  C   UNL A   1      39.221  31.082  33.176  1.00  0.00     0.049 A 
ATOM     58  H   UNL A   1      40.205  29.841  31.823  1.00  0.00     0.167 HD
ATOM     59  C   UNL A   1      41.975  27.042  28.948  1.00  0.00     0.037 A 
ATOM     60  C   UNL A   1      39.936  31.067  34.316  1.00  0.00     0.037 A 
ATOM     61  C   UNL A   1      42.879  27.071  30.072  1.00  0.00     0.049 A 
ATOM     62  C   UNL A   1      41.200  30.260  34.371  1.00  0.00     0.074 A 
ATOM     63  C   UNL A   1      44.091  26.418  30.224  1.00  0.00     0.029 A 
ATOM     64  N   UNL A   1      42.662  27.783  31.244  1.00  0.00    -0.354 N 
ATOM     65  N   UNL A   1      41.724  29.486  33.452  1.00  0.00    -0.248 NA
ATOM     66  C   UNL A   1      41.980  30.336  35.611  1.00  0.00     0.031 C 
ATOM     67  C   UNL A   1      44.584  26.699  31.502  1.00  0.00     0.029 A 
ATOM     68  C   UNL A   1      43.704  27.566  32.131  1.00  0.00     0.049 A 
ATOM     69  H   UNL A   1      41.881  28.358  31.418  1.00  0.00     0.167 HD
ATOM     70  C   UNL A   1      42.906  29.002  33.992  1.00  0.00     0.074 A 
ATOM     71  C   UNL A   1      43.029  29.583  35.314  1.00  0.00     0.031 C 
ATOM     72  C   UNL A   1      43.808  28.152  33.443  1.00  0.00     0.037 A 
BRANCH  59  73
ATOM     73  C   UNL A   1      42.313  26.139  27.798  1.00  0.00     0.064 A 
ATOM     74  C   UNL A   1      43.183  26.547  26.774  1.00  0.00     0.173 A 
ATOM     75  C   UNL A   1      41.815  24.828  27.750  1.00  0.00     0.173 A 
ATOM     76  F   UNL A   1      43.682  27.792  26.770  1.00  0.00    -0.203 F 
ATOM     77  C   UNL A   1      43.528  25.681  25.739  1.00  0.00     0.198 A 
ATOM     78  C   UNL A   1      42.182  23.957  26.727  1.00  0.00     0.198 A 
ATOM     79  F   UNL A   1      40.986  24.384  28.706  1.00  0.00    -0.203 F 
ATOM     80  F   UNL A   1      44.334  26.105  24.756  1.00  0.00    -0.200 F 
ATOM     81  C   UNL A   1      43.035  24.386  25.720  1.00  0.00     0.200 A 
ATOM     82  F   UNL A   1      41.715  22.701  26.716  1.00  0.00    -0.200 F 
ATOM     83  F   UNL A   1      43.377  23.551  24.728  1.00  0.00    -0.200 F 
ENDBRANCH  59  73
BRANCH  60  84
ATOM     84  C   UNL A   1      39.479  31.870  35.478  1.00  0.00     0.064 A 
ATOM     85  C   UNL A   1      39.905  33.194  35.649  1.00  0.00     0.173 A 
ATOM     86  C   UNL A   1      38.591  31.341  36.424  1.00  0.00     0.173 A 
ATOM     87  F   UNL A   1      40.767  33.738  34.777  1.00  0.00    -0.203 F 
ATOM     88  C   UNL A   1      39.472  33.953  36.733  1.00  0.00     0.198 A 
ATOM     89  C   UNL A   1      38.137  32.109  37.493  1.00  0.00     0.198 A 
ATOM     90  F   UNL A   1      38.144  30.082  36.296  1.00  0.00    -0.203 F 
ATOM     91  F   UNL A   1      39.924  35.204  36.894  1.00  0.00    -0.200 F 
ATOM     92  C   UNL A   1      38.584  33.413  37.651  1.00  0.00     0.200 A 
ATOM     93  F   UNL A   1      37.265  31.589  38.368  1.00  0.00    -0.200 F 
ATOM     94  F   UNL A   1      38.160  34.147  38.689  1.00  0.00    -0.200 F 
ENDBRANCH  60  84
BRANCH  72  95
ATOM     95  C   UNL A   1      45.018  27.822  34.266  1.00  0.00     0.064 A 
ATOM     96  C   UNL A   1      45.041  26.711  35.124  1.00  0.00     0.173 A 
ATOM     97  C   UNL A   1      46.173  28.611  34.179  1.00  0.00     0.173 A 
ATOM     98  F   UNL A   1      43.953  25.936  35.253  1.00  0.00    -0.203 F 
ATOM     99  C   UNL A   1      46.169  26.421  35.885  1.00  0.00     0.198 A 
ATOM    100  C   UNL A   1      47.309  28.301  34.922  1.00  0.00     0.198 A 
ATOM    101  F   UNL A   1      46.202  29.681  33.370  1.00  0.00    -0.203 F 
ATOM    102  F   UNL A   1      46.152  25.385  36.736  1.00  0.00    -0.200 F 
ATOM    103  C   UNL A   1      47.303  27.212  35.780  1.00  0.00     0.200 A 
ATOM    104  F   UNL A   1      48.408  29.061  34.812  1.00  0.00    -0.200 F 
ATOM    105  F   UNL A   1      48.389  26.930  36.513  1.00  0.00    -0.200 F 
ENDBRANCH  72  95
ENDBRANCH  46  47
ENDBRANCH  38  41
ENDBRANCH  36  37
ENDBRANCH  35  36
ENDBRANCH   1  35
TORSDOF 15
ENDMDL
