MODEL 1
REMARK VINA RESULT:     -12.7      0.000      0.000
REMARK SMILES CCN(C(=O)Cc1c(C(=O)NCCCNC(=O)c2ccc(-c3c4nc(c(-c5c(F)c(F)c(F)c(F)c5F)c5ccc([nH]5)c(-c5c(F)c(F)c(F)c(F)c5F)c5nc(c(-c6c(F)c(F)c(F)c(F)c6F)c6ccc3[nH]6)C=C5)C=C4)cc2)[nH]c2ccccc12)c1cccc(C)c1
REMARK SMILES IDX 12 1 11 2 9 3 10 4 8 6 7 7 87 8 81 9 82 10 86 11 83 13 85 14
REMARK SMILES IDX 84 15 6 16 4 17 5 18 3 19 2 20 1 21 88 22 89 23 94 24 90 25
REMARK SMILES IDX 92 26 91 27 93 28 13 29 14 30 15 31 16 32 17 34 18 35 19 36
REMARK SMILES IDX 80 37 20 38 79 39 21 40 22 41 23 42 73 43 24 44 78 45 72 46
REMARK SMILES IDX 74 47 25 48 77 49 71 50 70 51 26 53 58 54 38 55 57 56 39 57
REMARK SMILES IDX 42 58 56 59 75 60 40 61 41 62 55 64 76 65 43 66 27 67 28 68
REMARK SMILES IDX 36 69 29 70 30 71 34 72 37 73 31 74 32 75 35 76 33 77 59 78
REMARK SMILES IDX 60 79 68 80 61 81 62 82 66 83 69 84 63 85 64 86 67 87 65 88
REMARK SMILES IDX 44 89 45 90 53 91 46 92 47 93 51 94 54 95 48 96 49 97 52 98
REMARK SMILES IDX 50 99
REMARK H PARENT 11 5 81 12 15 33 74 52 42 63
REMARK Flexibility Score: inf
ROOT
ATOM      1  C   UNL A   1      34.130  29.113  25.078  1.00  0.00     0.118 C 
ENDROOT
BRANCH   1   2
ATOM      2  N   UNL A   1      34.289  28.684  23.701  1.00  0.00    -0.351 N 
ATOM      3  C   UNL A   1      33.469  28.489  22.626  1.00  0.00     0.268 C 
ATOM      4  O   UNL A   1      34.060  28.059  21.628  1.00  0.00    -0.268 OA
ATOM      5  H   UNL A   1      35.228  28.481  23.488  1.00  0.00     0.163 HD
BRANCH   3   6
ATOM      6  C   UNL A   1      32.034  28.728  22.631  1.00  0.00     0.109 A 
ATOM      7  C   UNL A   1      31.050  27.995  23.318  1.00  0.00    -0.000 A 
ATOM      8  C   UNL A   1      29.766  28.527  22.955  1.00  0.00     0.004 A 
ATOM      9  N   UNL A   1      31.347  29.711  21.956  1.00  0.00    -0.350 N 
ATOM     10  C   UNL A   1      29.992  29.625  22.140  1.00  0.00     0.046 A 
ATOM     11  C   UNL A   1      28.431  28.187  23.259  1.00  0.00     0.010 A 
ATOM     12  H   UNL A   1      31.782  30.400  21.403  1.00  0.00     0.167 HD
ATOM     13  C   UNL A   1      28.965  30.431  21.634  1.00  0.00     0.027 A 
ATOM     14  C   UNL A   1      27.385  28.968  22.751  1.00  0.00     0.001 A 
ATOM     15  C   UNL A   1      27.652  30.081  21.958  1.00  0.00     0.002 A 
BRANCH   7  16
ATOM     16  C   UNL A   1      31.243  26.837  24.265  1.00  0.00     0.139 C 
BRANCH  16  17
ATOM     17  C   UNL A   1      31.301  25.484  23.548  1.00  0.00     0.231 C 
ATOM     18  O   UNL A   1      30.231  24.963  23.206  1.00  0.00    -0.274 OA
BRANCH  17  19
ATOM     19  N   UNL A   1      32.553  24.885  23.331  1.00  0.00    -0.312 N 
BRANCH  19  20
ATOM     20  C   UNL A   1      33.101  24.584  21.996  1.00  0.00     0.122 C 
ATOM     21  C   UNL A   1      32.528  25.402  20.847  1.00  0.00     0.028 C 
ENDBRANCH  19  20
BRANCH  19  22
ATOM     22  C   UNL A   1      33.302  24.384  24.445  1.00  0.00     0.044 A 
ATOM     23  C   UNL A   1      32.658  23.947  25.608  1.00  0.00     0.026 A 
ATOM     24  C   UNL A   1      34.700  24.291  24.381  1.00  0.00     0.029 A 
ATOM     25  C   UNL A   1      33.391  23.400  26.664  1.00  0.00     0.002 A 
ATOM     26  C   UNL A   1      35.447  23.754  25.439  1.00  0.00    -0.049 A 
ATOM     27  C   UNL A   1      34.779  23.300  26.579  1.00  0.00     0.003 A 
ATOM     28  C   UNL A   1      36.944  23.704  25.366  1.00  0.00     0.044 C 
ENDBRANCH  19  22
ENDBRANCH  17  19
ENDBRANCH  16  17
ENDBRANCH   7  16
ENDBRANCH   3   6
ENDBRANCH   1   2
BRANCH   1  29
ATOM     29  C   UNL A   1      34.021  27.942  26.050  1.00  0.00     0.042 C 
BRANCH  29  30
ATOM     30  C   UNL A   1      33.656  28.359  27.476  1.00  0.00     0.118 C 
BRANCH  30  31
ATOM     31  N   UNL A   1      33.667  29.808  27.646  1.00  0.00    -0.352 N 
ATOM     32  C   UNL A   1      34.585  30.638  28.234  1.00  0.00     0.251 C 
ATOM     33  H   UNL A   1      32.878  30.267  27.276  1.00  0.00     0.163 HD
ATOM     34  O   UNL A   1      34.263  31.792  28.509  1.00  0.00    -0.269 OA
BRANCH  32  35
ATOM     35  C   UNL A   1      35.953  30.171  28.538  1.00  0.00     0.039 A 
ATOM     36  C   UNL A   1      36.912  30.173  27.519  1.00  0.00     0.014 A 
ATOM     37  C   UNL A   1      36.279  29.665  29.798  1.00  0.00     0.014 A 
ATOM     38  C   UNL A   1      38.209  29.726  27.781  1.00  0.00     0.010 A 
ATOM     39  C   UNL A   1      37.591  29.289  30.080  1.00  0.00     0.010 A 
ATOM     40  C   UNL A   1      38.568  29.312  29.073  1.00  0.00    -0.014 A 
BRANCH  40  41
ATOM     41  C   UNL A   1      39.957  28.900  29.396  1.00  0.00     0.031 A 
ATOM     42  C   UNL A   1      40.867  29.826  30.153  1.00  0.00     0.074 A 
ATOM     43  C   UNL A   1      40.423  27.724  28.934  1.00  0.00     0.049 A 
ATOM     44  N   UNL A   1      42.138  29.690  30.439  1.00  0.00    -0.248 NA
ATOM     45  C   UNL A   1      40.277  31.089  30.626  1.00  0.00     0.031 C 
ATOM     46  C   UNL A   1      39.652  26.762  28.145  1.00  0.00     0.029 A 
ATOM     47  N   UNL A   1      41.663  27.146  29.043  1.00  0.00    -0.354 N 
ATOM     48  C   UNL A   1      42.501  30.853  31.107  1.00  0.00     0.074 A 
ATOM     49  C   UNL A   1      41.332  31.705  31.138  1.00  0.00     0.031 C 
ATOM     50  C   UNL A   1      40.431  25.709  27.852  1.00  0.00     0.029 A 
ATOM     51  C   UNL A   1      41.765  25.938  28.397  1.00  0.00     0.049 A 
ATOM     52  H   UNL A   1      42.408  27.558  29.537  1.00  0.00     0.167 HD
ATOM     53  C   UNL A   1      43.696  31.170  31.661  1.00  0.00     0.037 A 
ATOM     54  C   UNL A   1      42.821  25.115  28.249  1.00  0.00     0.037 A 
ATOM     55  C   UNL A   1      44.848  30.308  31.648  1.00  0.00     0.049 A 
ATOM     56  C   UNL A   1      44.136  25.489  28.877  1.00  0.00     0.074 A 
ATOM     57  C   UNL A   1      46.084  30.508  32.237  1.00  0.00     0.029 A 
ATOM     58  N   UNL A   1      44.905  29.076  31.010  1.00  0.00    -0.354 N 
ATOM     59  N   UNL A   1      44.449  26.560  29.563  1.00  0.00    -0.248 NA
ATOM     60  C   UNL A   1      45.241  24.536  28.714  1.00  0.00     0.031 C 
ATOM     61  C   UNL A   1      46.903  29.419  31.917  1.00  0.00     0.029 A 
ATOM     62  C   UNL A   1      46.162  28.516  31.172  1.00  0.00     0.049 A 
ATOM     63  H   UNL A   1      44.161  28.662  30.515  1.00  0.00     0.167 HD
ATOM     64  C   UNL A   1      45.777  26.400  29.935  1.00  0.00     0.074 A 
ATOM     65  C   UNL A   1      46.205  25.120  29.411  1.00  0.00     0.031 C 
ATOM     66  C   UNL A   1      46.570  27.239  30.646  1.00  0.00     0.037 A 
BRANCH  53  67
ATOM     67  C   UNL A   1      43.816  32.509  32.330  1.00  0.00     0.064 A 
ATOM     68  C   UNL A   1      43.530  32.679  33.694  1.00  0.00     0.173 A 
ATOM     69  C   UNL A   1      44.251  33.631  31.608  1.00  0.00     0.173 A 
ATOM     70  F   UNL A   1      43.100  31.641  34.427  1.00  0.00    -0.203 F 
ATOM     71  C   UNL A   1      43.642  33.928  34.301  1.00  0.00     0.198 A 
ATOM     72  C   UNL A   1      44.392  34.872  32.226  1.00  0.00     0.198 A 
ATOM     73  F   UNL A   1      44.545  33.525  30.304  1.00  0.00    -0.203 F 
ATOM     74  F   UNL A   1      43.311  34.076  35.590  1.00  0.00    -0.200 F 
ATOM     75  C   UNL A   1      44.079  35.021  33.569  1.00  0.00     0.200 A 
ATOM     76  F   UNL A   1      44.827  35.925  31.519  1.00  0.00    -0.200 F 
ATOM     77  F   UNL A   1      44.191  36.220  34.155  1.00  0.00    -0.200 F 
ENDBRANCH  53  67
BRANCH  54  78
ATOM     78  C   UNL A   1      42.668  23.848  27.489  1.00  0.00     0.064 A 
ATOM     79  C   UNL A   1      42.195  22.686  28.114  1.00  0.00     0.173 A 
ATOM     80  C   UNL A   1      42.980  23.774  26.124  1.00  0.00     0.173 A 
ATOM     81  F   UNL A   1      41.901  22.704  29.422  1.00  0.00    -0.203 F 
ATOM     82  C   UNL A   1      42.058  21.494  27.409  1.00  0.00     0.198 A 
ATOM     83  C   UNL A   1      42.816  22.588  25.411  1.00  0.00     0.198 A 
ATOM     84  F   UNL A   1      43.427  24.859  25.477  1.00  0.00    -0.203 F 
ATOM     85  F   UNL A   1      41.644  20.387  28.041  1.00  0.00    -0.200 F 
ATOM     86  C   UNL A   1      42.363  21.446  26.056  1.00  0.00     0.200 A 
ATOM     87  F   UNL A   1      43.095  22.551  24.102  1.00  0.00    -0.200 F 
ATOM     88  F   UNL A   1      42.223  20.301  25.375  1.00  0.00    -0.200 F 
ENDBRANCH  54  78
BRANCH  66  89
ATOM     89  C   UNL A   1      47.974  26.785  30.924  1.00  0.00     0.064 A 
ATOM     90  C   UNL A   1      49.048  27.181  30.114  1.00  0.00     0.173 A 
ATOM     91  C   UNL A   1      48.252  25.979  32.038  1.00  0.00     0.173 A 
ATOM     92  F   UNL A   1      48.832  27.939  29.027  1.00  0.00    -0.203 F 
ATOM     93  C   UNL A   1      50.347  26.766  30.396  1.00  0.00     0.198 A 
ATOM     94  C   UNL A   1      49.555  25.591  32.334  1.00  0.00     0.198 A 
ATOM     95  F   UNL A   1      47.260  25.579  32.847  1.00  0.00    -0.203 F 
ATOM     96  F   UNL A   1      51.352  27.119  29.583  1.00  0.00    -0.200 F 
ATOM     97  C   UNL A   1      50.600  25.979  31.509  1.00  0.00     0.200 A 
ATOM     98  F   UNL A   1      49.800  24.840  33.417  1.00  0.00    -0.200 F 
ATOM     99  F   UNL A   1      51.852  25.588  31.784  1.00  0.00    -0.200 F 
ENDBRANCH  66  89
ENDBRANCH  40  41
ENDBRANCH  32  35
ENDBRANCH  30  31
ENDBRANCH  29  30
ENDBRANCH   1  29
TORSDOF 15
ENDMDL
MODEL 2
REMARK VINA RESULT:     -12.5      0.896      2.018
REMARK SMILES CCN(C(=O)Cc1c(C(=O)NCCCNC(=O)c2ccc(-c3c4nc(c(-c5c(F)c(F)c(F)c(F)c5F)c5ccc([nH]5)c(-c5c(F)c(F)c(F)c(F)c5F)c5nc(c(-c6c(F)c(F)c(F)c(F)c6F)c6ccc3[nH]6)C=C5)C=C4)cc2)[nH]c2ccccc12)c1cccc(C)c1
REMARK SMILES IDX 12 1 11 2 9 3 10 4 8 6 7 7 87 8 81 9 82 10 86 11 83 13 85 14
REMARK SMILES IDX 84 15 6 16 4 17 5 18 3 19 2 20 1 21 88 22 89 23 94 24 90 25
REMARK SMILES IDX 92 26 91 27 93 28 13 29 14 30 15 31 16 32 17 34 18 35 19 36
REMARK SMILES IDX 80 37 20 38 79 39 21 40 22 41 23 42 73 43 24 44 78 45 72 46
REMARK SMILES IDX 74 47 25 48 77 49 71 50 70 51 26 53 58 54 38 55 57 56 39 57
REMARK SMILES IDX 42 58 56 59 75 60 40 61 41 62 55 64 76 65 43 66 27 67 28 68
REMARK SMILES IDX 36 69 29 70 30 71 34 72 37 73 31 74 32 75 35 76 33 77 59 78
REMARK SMILES IDX 60 79 68 80 61 81 62 82 66 83 69 84 63 85 64 86 67 87 65 88
REMARK SMILES IDX 44 89 45 90 53 91 46 92 47 93 51 94 54 95 48 96 49 97 52 98
REMARK SMILES IDX 50 99
REMARK H PARENT 11 5 81 12 15 33 74 52 42 63
REMARK Flexibility Score: inf
ROOT
ATOM      1  C   UNL A   1      34.137  28.540  24.873  1.00  0.00     0.118 C 
ENDROOT
BRANCH   1   2
ATOM      2  N   UNL A   1      34.054  27.809  23.623  1.00  0.00    -0.351 N 
ATOM      3  C   UNL A   1      33.097  27.576  22.675  1.00  0.00     0.268 C 
ATOM      4  O   UNL A   1      33.477  26.829  21.765  1.00  0.00    -0.268 OA
ATOM      5  H   UNL A   1      34.905  27.367  23.401  1.00  0.00     0.163 HD
BRANCH   3   6
ATOM      6  C   UNL A   1      31.748  28.116  22.719  1.00  0.00     0.109 A 
ATOM      7  C   UNL A   1      30.572  27.443  23.096  1.00  0.00    -0.000 A 
ATOM      8  C   UNL A   1      29.465  28.336  22.894  1.00  0.00     0.004 A 
ATOM      9  N   UNL A   1      31.345  29.389  22.388  1.00  0.00    -0.350 N 
ATOM     10  C   UNL A   1      29.988  29.556  22.495  1.00  0.00     0.046 A 
ATOM     11  C   UNL A   1      28.065  28.225  23.031  1.00  0.00     0.010 A 
ATOM     12  H   UNL A   1      31.963  30.102  22.106  1.00  0.00     0.167 HD
ATOM     13  C   UNL A   1      29.202  30.688  22.255  1.00  0.00     0.027 A 
ATOM     14  C   UNL A   1      27.255  29.340  22.781  1.00  0.00     0.001 A 
ATOM     15  C   UNL A   1      27.819  30.557  22.409  1.00  0.00     0.002 A 
BRANCH   7  16
ATOM     16  C   UNL A   1      30.431  26.033  23.613  1.00  0.00     0.139 C 
BRANCH  16  17
ATOM     17  C   UNL A   1      30.911  25.877  25.059  1.00  0.00     0.231 C 
ATOM     18  O   UNL A   1      30.766  26.840  25.824  1.00  0.00    -0.274 OA
BRANCH  17  19
ATOM     19  N   UNL A   1      31.511  24.667  25.448  1.00  0.00    -0.312 N 
BRANCH  19  20
ATOM     20  C   UNL A   1      31.054  23.851  26.587  1.00  0.00     0.122 C 
ATOM     21  C   UNL A   1      30.551  22.457  26.241  1.00  0.00     0.028 C 
ENDBRANCH  19  20
BRANCH  19  22
ATOM     22  C   UNL A   1      32.731  24.248  24.823  1.00  0.00     0.044 A 
ATOM     23  C   UNL A   1      32.745  23.804  23.497  1.00  0.00     0.026 A 
ATOM     24  C   UNL A   1      33.946  24.305  25.521  1.00  0.00     0.029 A 
ATOM     25  C   UNL A   1      33.948  23.459  22.875  1.00  0.00     0.002 A 
ATOM     26  C   UNL A   1      35.158  23.951  24.912  1.00  0.00    -0.049 A 
ATOM     27  C   UNL A   1      35.149  23.535  23.578  1.00  0.00     0.003 A 
ATOM     28  C   UNL A   1      36.439  23.978  25.691  1.00  0.00     0.044 C 
ENDBRANCH  19  22
ENDBRANCH  17  19
ENDBRANCH  16  17
ENDBRANCH   7  16
ENDBRANCH   3   6
ENDBRANCH   1   2
BRANCH   1  29
ATOM     29  C   UNL A   1      34.117  27.624  26.093  1.00  0.00     0.042 C 
BRANCH  29  30
ATOM     30  C   UNL A   1      33.465  28.254  27.324  1.00  0.00     0.118 C 
BRANCH  30  31
ATOM     31  N   UNL A   1      33.512  29.712  27.288  1.00  0.00    -0.352 N 
ATOM     32  C   UNL A   1      34.431  30.595  27.790  1.00  0.00     0.251 C 
ATOM     33  H   UNL A   1      32.752  30.132  26.823  1.00  0.00     0.163 HD
ATOM     34  O   UNL A   1      34.133  31.784  27.885  1.00  0.00    -0.269 OA
BRANCH  32  35
ATOM     35  C   UNL A   1      35.772  30.144  28.215  1.00  0.00     0.039 A 
ATOM     36  C   UNL A   1      36.826  30.194  27.296  1.00  0.00     0.014 A 
ATOM     37  C   UNL A   1      35.983  29.607  29.486  1.00  0.00     0.014 A 
ATOM     38  C   UNL A   1      38.100  29.762  27.672  1.00  0.00     0.010 A 
ATOM     39  C   UNL A   1      37.268  29.246  29.886  1.00  0.00     0.010 A 
ATOM     40  C   UNL A   1      38.339  29.317  28.981  1.00  0.00    -0.014 A 
BRANCH  40  41
ATOM     41  C   UNL A   1      39.698  28.920  29.428  1.00  0.00     0.031 A 
ATOM     42  C   UNL A   1      40.503  29.833  30.309  1.00  0.00     0.074 A 
ATOM     43  C   UNL A   1      40.237  27.773  28.972  1.00  0.00     0.049 A 
ATOM     44  N   UNL A   1      41.742  29.712  30.718  1.00  0.00    -0.248 NA
ATOM     45  C   UNL A   1      39.839  31.064  30.767  1.00  0.00     0.031 C 
ATOM     46  C   UNL A   1      39.573  26.829  28.072  1.00  0.00     0.029 A 
ATOM     47  N   UNL A   1      41.473  27.217  29.185  1.00  0.00    -0.354 N 
ATOM     48  C   UNL A   1      42.007  30.854  31.463  1.00  0.00     0.074 A 
ATOM     49  C   UNL A   1      40.821  31.681  31.407  1.00  0.00     0.031 C 
ATOM     50  C   UNL A   1      40.403  25.804  27.820  1.00  0.00     0.029 A 
ATOM     51  C   UNL A   1      41.669  26.038  28.508  1.00  0.00     0.049 A 
ATOM     52  H   UNL A   1      42.153  27.624  29.768  1.00  0.00     0.167 HD
ATOM     53  C   UNL A   1      43.133  31.173  32.147  1.00  0.00     0.037 A 
ATOM     54  C   UNL A   1      42.754  25.243  28.437  1.00  0.00     0.037 A 
ATOM     55  C   UNL A   1      44.300  30.335  32.219  1.00  0.00     0.049 A 
ATOM     56  C   UNL A   1      43.989  25.619  29.209  1.00  0.00     0.074 A 
ATOM     57  C   UNL A   1      45.465  30.536  32.938  1.00  0.00     0.029 A 
ATOM     58  N   UNL A   1      44.452  29.131  31.544  1.00  0.00    -0.354 N 
ATOM     59  N   UNL A   1      44.205  26.667  29.964  1.00  0.00    -0.248 NA
ATOM     60  C   UNL A   1      45.128  24.695  29.124  1.00  0.00     0.031 C 
ATOM     61  C   UNL A   1      46.338  29.478  32.663  1.00  0.00     0.029 A 
ATOM     62  C   UNL A   1      45.698  28.591  31.812  1.00  0.00     0.049 A 
ATOM     63  H   UNL A   1      43.772  28.722  30.960  1.00  0.00     0.167 HD
ATOM     64  C   UNL A   1      45.492  26.519  30.463  1.00  0.00     0.074 A 
ATOM     65  C   UNL A   1      46.002  25.270  29.937  1.00  0.00     0.031 C 
ATOM     66  C   UNL A   1      46.189  27.345  31.283  1.00  0.00     0.037 A 
BRANCH  53  67
ATOM     67  C   UNL A   1      43.152  32.486  32.875  1.00  0.00     0.064 A 
ATOM     68  C   UNL A   1      42.763  32.588  34.221  1.00  0.00     0.173 A 
ATOM     69  C   UNL A   1      43.593  33.652  32.232  1.00  0.00     0.173 A 
ATOM     70  F   UNL A   1      42.323  31.505  34.879  1.00  0.00    -0.203 F 
ATOM     71  C   UNL A   1      42.782  33.813  34.883  1.00  0.00     0.198 A 
ATOM     72  C   UNL A   1      43.640  34.870  32.907  1.00  0.00     0.198 A 
ATOM     73  F   UNL A   1      43.983  33.612  30.950  1.00  0.00    -0.203 F 
ATOM     74  F   UNL A   1      42.354  33.894  36.150  1.00  0.00    -0.200 F 
ATOM     75  C   UNL A   1      43.226  34.951  34.228  1.00  0.00     0.200 A 
ATOM     76  F   UNL A   1      44.083  35.967  32.276  1.00  0.00    -0.200 F 
ATOM     77  F   UNL A   1      43.249  36.128  34.868  1.00  0.00    -0.200 F 
ENDBRANCH  53  67
BRANCH  54  78
ATOM     78  C   UNL A   1      42.709  24.005  27.618  1.00  0.00     0.064 A 
ATOM     79  C   UNL A   1      43.034  24.031  26.255  1.00  0.00     0.173 A 
ATOM     80  C   UNL A   1      42.354  22.771  28.181  1.00  0.00     0.173 A 
ATOM     81  F   UNL A   1      43.363  25.192  25.669  1.00  0.00    -0.203 F 
ATOM     82  C   UNL A   1      42.987  22.875  25.481  1.00  0.00     0.198 A 
ATOM     83  C   UNL A   1      42.334  21.608  27.412  1.00  0.00     0.198 A 
ATOM     84  F   UNL A   1      42.043  22.689  29.482  1.00  0.00    -0.203 F 
ATOM     85  F   UNL A   1      43.261  22.936  24.171  1.00  0.00    -0.200 F 
ATOM     86  C   UNL A   1      42.642  21.662  26.061  1.00  0.00     0.200 A 
ATOM     87  F   UNL A   1      42.017  20.437  27.980  1.00  0.00    -0.200 F 
ATOM     88  F   UNL A   1      42.605  20.548  25.317  1.00  0.00    -0.200 F 
ENDBRANCH  54  78
BRANCH  66  89
ATOM     89  C   UNL A   1      47.568  26.908  31.685  1.00  0.00     0.064 A 
ATOM     90  C   UNL A   1      47.780  26.062  32.783  1.00  0.00     0.173 A 
ATOM     91  C   UNL A   1      48.685  27.308  30.936  1.00  0.00     0.173 A 
ATOM     92  F   UNL A   1      46.746  25.666  33.540  1.00  0.00    -0.203 F 
ATOM     93  C   UNL A   1      49.064  25.653  33.131  1.00  0.00     0.198 A 
ATOM     94  C   UNL A   1      49.964  26.872  31.269  1.00  0.00     0.198 A 
ATOM     95  F   UNL A   1      48.534  28.112  29.873  1.00  0.00    -0.203 F 
ATOM     96  F   UNL A   1      49.249  24.881  34.211  1.00  0.00    -0.200 F 
ATOM     97  C   UNL A   1      50.153  26.051  32.370  1.00  0.00     0.200 A 
ATOM     98  F   UNL A   1      51.014  27.248  30.525  1.00  0.00    -0.200 F 
ATOM     99  F   UNL A   1      51.388  25.648  32.702  1.00  0.00    -0.200 F 
ENDBRANCH  66  89
ENDBRANCH  40  41
ENDBRANCH  32  35
ENDBRANCH  30  31
ENDBRANCH  29  30
ENDBRANCH   1  29
TORSDOF 15
ENDMDL
MODEL 3
REMARK VINA RESULT:     -12.4      2.999      8.404
REMARK SMILES CCN(C(=O)Cc1c(C(=O)NCCCNC(=O)c2ccc(-c3c4nc(c(-c5c(F)c(F)c(F)c(F)c5F)c5ccc([nH]5)c(-c5c(F)c(F)c(F)c(F)c5F)c5nc(c(-c6c(F)c(F)c(F)c(F)c6F)c6ccc3[nH]6)C=C5)C=C4)cc2)[nH]c2ccccc12)c1cccc(C)c1
REMARK SMILES IDX 12 1 11 2 9 3 10 4 8 6 7 7 87 8 81 9 82 10 86 11 83 13 85 14
REMARK SMILES IDX 84 15 6 16 4 17 5 18 3 19 2 20 1 21 88 22 89 23 94 24 90 25
REMARK SMILES IDX 92 26 91 27 93 28 13 29 14 30 15 31 16 32 17 34 18 35 19 36
REMARK SMILES IDX 80 37 20 38 79 39 21 40 22 41 23 42 73 43 24 44 78 45 72 46
REMARK SMILES IDX 74 47 25 48 77 49 71 50 70 51 26 53 58 54 38 55 57 56 39 57
REMARK SMILES IDX 42 58 56 59 75 60 40 61 41 62 55 64 76 65 43 66 27 67 28 68
REMARK SMILES IDX 36 69 29 70 30 71 34 72 37 73 31 74 32 75 35 76 33 77 59 78
REMARK SMILES IDX 60 79 68 80 61 81 62 82 66 83 69 84 63 85 64 86 67 87 65 88
REMARK SMILES IDX 44 89 45 90 53 91 46 92 47 93 51 94 54 95 48 96 49 97 52 98
REMARK SMILES IDX 50 99
REMARK H PARENT 11 5 81 12 15 33 74 52 42 63
REMARK Flexibility Score: inf
ROOT
ATOM      1  C   UNL A   1      32.562  27.376  26.872  1.00  0.00     0.118 C 
ENDROOT
BRANCH   1   2
ATOM      2  N   UNL A   1      31.675  26.227  26.876  1.00  0.00    -0.351 N 
ATOM      3  C   UNL A   1      31.779  24.898  26.576  1.00  0.00     0.268 C 
ATOM      4  O   UNL A   1      30.712  24.283  26.690  1.00  0.00    -0.268 OA
ATOM      5  H   UNL A   1      30.767  26.467  27.169  1.00  0.00     0.163 HD
BRANCH   3   6
ATOM      6  C   UNL A   1      33.002  24.246  26.136  1.00  0.00     0.109 A 
ATOM      7  C   UNL A   1      33.846  24.638  25.082  1.00  0.00    -0.000 A 
ATOM      8  C   UNL A   1      34.879  23.648  24.948  1.00  0.00     0.004 A 
ATOM      9  N   UNL A   1      33.577  23.108  26.655  1.00  0.00    -0.350 N 
ATOM     10  C   UNL A   1      34.706  22.733  25.974  1.00  0.00     0.046 A 
ATOM     11  C   UNL A   1      35.957  23.455  24.059  1.00  0.00     0.010 A 
ATOM     12  H   UNL A   1      33.216  22.618  27.429  1.00  0.00     0.167 HD
ATOM     13  C   UNL A   1      35.566  21.650  26.192  1.00  0.00     0.027 A 
ATOM     14  C   UNL A   1      36.822  22.370  24.245  1.00  0.00     0.001 A 
ATOM     15  C   UNL A   1      36.633  21.487  25.304  1.00  0.00     0.002 A 
BRANCH   7  16
ATOM     16  C   UNL A   1      33.731  25.857  24.201  1.00  0.00     0.139 C 
BRANCH  16  17
ATOM     17  C   UNL A   1      32.866  25.615  22.959  1.00  0.00     0.231 C 
ATOM     18  O   UNL A   1      33.443  25.379  21.889  1.00  0.00    -0.274 OA
BRANCH  17  19
ATOM     19  N   UNL A   1      31.469  25.693  23.081  1.00  0.00    -0.312 N 
BRANCH  19  20
ATOM     20  C   UNL A   1      30.584  24.518  23.174  1.00  0.00     0.122 C 
ATOM     21  C   UNL A   1      31.282  23.166  23.202  1.00  0.00     0.028 C 
ENDBRANCH  19  20
BRANCH  19  22
ATOM     22  C   UNL A   1      30.816  26.963  22.957  1.00  0.00     0.044 A 
ATOM     23  C   UNL A   1      31.515  28.092  22.515  1.00  0.00     0.026 A 
ATOM     24  C   UNL A   1      29.451  27.095  23.246  1.00  0.00     0.029 A 
ATOM     25  C   UNL A   1      30.857  29.311  22.335  1.00  0.00     0.002 A 
ATOM     26  C   UNL A   1      28.781  28.315  23.080  1.00  0.00    -0.049 A 
ATOM     27  C   UNL A   1      29.495  29.421  22.612  1.00  0.00     0.003 A 
ATOM     28  C   UNL A   1      27.330  28.443  23.436  1.00  0.00     0.044 C 
ENDBRANCH  19  22
ENDBRANCH  17  19
ENDBRANCH  16  17
ENDBRANCH   7  16
ENDBRANCH   3   6
ENDBRANCH   1   2
BRANCH   1  29
ATOM     29  C   UNL A   1      31.958  28.581  26.157  1.00  0.00     0.042 C 
BRANCH  29  30
ATOM     30  C   UNL A   1      33.000  29.578  25.646  1.00  0.00     0.118 C 
BRANCH  30  31
ATOM     31  N   UNL A   1      32.692  30.948  26.039  1.00  0.00    -0.352 N 
ATOM     32  C   UNL A   1      33.190  31.729  27.049  1.00  0.00     0.251 C 
ATOM     33  H   UNL A   1      32.009  31.388  25.481  1.00  0.00     0.163 HD
ATOM     34  O   UNL A   1      32.593  32.755  27.367  1.00  0.00    -0.269 OA
BRANCH  32  35
ATOM     35  C   UNL A   1      34.432  31.360  27.759  1.00  0.00     0.039 A 
ATOM     36  C   UNL A   1      35.440  32.320  27.905  1.00  0.00     0.014 A 
ATOM     37  C   UNL A   1      34.641  30.058  28.218  1.00  0.00     0.014 A 
ATOM     38  C   UNL A   1      36.627  31.990  28.563  1.00  0.00     0.010 A 
ATOM     39  C   UNL A   1      35.792  29.749  28.939  1.00  0.00     0.010 A 
ATOM     40  C   UNL A   1      36.799  30.711  29.116  1.00  0.00    -0.014 A 
BRANCH  40  41
ATOM     41  C   UNL A   1      38.020  30.357  29.882  1.00  0.00     0.031 A 
ATOM     42  C   UNL A   1      39.018  29.389  29.311  1.00  0.00     0.074 A 
ATOM     43  C   UNL A   1      38.185  30.844  31.126  1.00  0.00     0.049 A 
ATOM     44  N   UNL A   1      40.088  28.877  29.868  1.00  0.00    -0.248 NA
ATOM     45  C   UNL A   1      38.765  28.908  27.944  1.00  0.00     0.031 C 
ATOM     46  C   UNL A   1      37.260  31.751  31.807  1.00  0.00     0.029 A 
ATOM     47  N   UNL A   1      39.179  30.629  32.048  1.00  0.00    -0.354 N 
ATOM     48  C   UNL A   1      40.621  28.004  28.928  1.00  0.00     0.074 A 
ATOM     49  C   UNL A   1      39.731  28.016  27.787  1.00  0.00     0.031 C 
ATOM     50  C   UNL A   1      37.736  32.025  33.033  1.00  0.00     0.029 A 
ATOM     51  C   UNL A   1      38.976  31.284  33.238  1.00  0.00     0.049 A 
ATOM     52  H   UNL A   1      39.963  30.060  31.872  1.00  0.00     0.167 HD
ATOM     53  C   UNL A   1      41.762  27.276  29.003  1.00  0.00     0.037 A 
ATOM     54  C   UNL A   1      39.701  31.275  34.372  1.00  0.00     0.037 A 
ATOM     55  C   UNL A   1      42.656  27.289  30.130  1.00  0.00     0.049 A 
ATOM     56  C   UNL A   1      40.965  30.461  34.429  1.00  0.00     0.074 A 
ATOM     57  C   UNL A   1      43.869  26.638  30.278  1.00  0.00     0.029 A 
ATOM     58  N   UNL A   1      42.433  27.989  31.308  1.00  0.00    -0.354 N 
ATOM     59  N   UNL A   1      41.494  29.692  33.510  1.00  0.00    -0.248 NA
ATOM     60  C   UNL A   1      41.734  30.520  35.679  1.00  0.00     0.031 C 
ATOM     61  C   UNL A   1      44.357  26.908  31.561  1.00  0.00     0.029 A 
ATOM     62  C   UNL A   1      43.474  27.768  32.195  1.00  0.00     0.049 A 
ATOM     63  H   UNL A   1      41.650  28.559  31.486  1.00  0.00     0.167 HD
ATOM     64  C   UNL A   1      42.669  29.196  34.058  1.00  0.00     0.074 A 
ATOM     65  C   UNL A   1      42.782  29.763  35.386  1.00  0.00     0.031 C 
ATOM     66  C   UNL A   1      43.572  28.344  33.511  1.00  0.00     0.037 A 
BRANCH  53  67
ATOM     67  C   UNL A   1      42.106  26.405  27.829  1.00  0.00     0.064 A 
ATOM     68  C   UNL A   1      43.025  26.818  26.850  1.00  0.00     0.173 A 
ATOM     69  C   UNL A   1      41.536  25.130  27.695  1.00  0.00     0.173 A 
ATOM     70  F   UNL A   1      43.590  28.032  26.925  1.00  0.00    -0.203 F 
ATOM     71  C   UNL A   1      43.332  26.001  25.765  1.00  0.00     0.198 A 
ATOM     72  C   UNL A   1      41.870  24.303  26.625  1.00  0.00     0.198 A 
ATOM     73  F   UNL A   1      40.659  24.682  28.605  1.00  0.00    -0.203 F 
ATOM     74  F   UNL A   1      44.169  26.440  24.815  1.00  0.00    -0.200 F 
ATOM     75  C   UNL A   1      42.760  24.743  25.657  1.00  0.00     0.200 A 
ATOM     76  F   UNL A   1      41.326  23.082  26.529  1.00  0.00    -0.200 F 
ATOM     77  F   UNL A   1      43.061  23.956  24.614  1.00  0.00    -0.200 F 
ENDBRANCH  53  67
BRANCH  54  78
ATOM     78  C   UNL A   1      39.257  32.080  35.539  1.00  0.00     0.064 A 
ATOM     79  C   UNL A   1      38.428  31.525  36.523  1.00  0.00     0.173 A 
ATOM     80  C   UNL A   1      39.659  33.414  35.701  1.00  0.00     0.173 A 
ATOM     81  F   UNL A   1      38.004  30.258  36.403  1.00  0.00    -0.203 F 
ATOM     82  C   UNL A   1      38.002  32.277  37.615  1.00  0.00     0.198 A 
ATOM     83  C   UNL A   1      39.255  34.158  36.808  1.00  0.00     0.198 A 
ATOM     84  F   UNL A   1      40.459  33.990  34.792  1.00  0.00    -0.203 F 
ATOM     85  F   UNL A   1      37.176  31.734  38.519  1.00  0.00    -0.200 F 
ATOM     86  C   UNL A   1      38.420  33.592  37.760  1.00  0.00     0.200 A 
ATOM     87  F   UNL A   1      39.675  35.422  36.952  1.00  0.00    -0.200 F 
ATOM     88  F   UNL A   1      38.016  34.313  38.814  1.00  0.00    -0.200 F 
ENDBRANCH  54  78
BRANCH  66  89
ATOM     89  C   UNL A   1      44.777  27.998  34.338  1.00  0.00     0.064 A 
ATOM     90  C   UNL A   1      45.940  28.781  34.305  1.00  0.00     0.173 A 
ATOM     91  C   UNL A   1      44.750  26.895  35.204  1.00  0.00     0.173 A 
ATOM     92  F   UNL A   1      46.020  29.837  33.480  1.00  0.00    -0.203 F 
ATOM     93  C   UNL A   1      47.042  28.457  35.091  1.00  0.00     0.198 A 
ATOM     94  C   UNL A   1      45.842  26.591  36.011  1.00  0.00     0.198 A 
ATOM     95  F   UNL A   1      43.659  26.119  35.276  1.00  0.00    -0.203 F 
ATOM     96  F   UNL A   1      48.159  29.192  35.010  1.00  0.00    -0.200 F 
ATOM     97  C   UNL A   1      46.990  27.368  35.949  1.00  0.00     0.200 A 
ATOM     98  F   UNL A   1      45.786  25.546  36.848  1.00  0.00    -0.200 F 
ATOM     99  F   UNL A   1      48.048  27.063  36.712  1.00  0.00    -0.200 F 
ENDBRANCH  66  89
ENDBRANCH  40  41
ENDBRANCH  32  35
ENDBRANCH  30  31
ENDBRANCH  29  30
ENDBRANCH   1  29
TORSDOF 15
ENDMDL
