MODEL 1
REMARK VINA RESULT:     -12.3      0.000      0.000
REMARK SMILES COc1ccc([C@H]2C[NH2+]C[C@@H]2C(=O)NCCCNC(=O)c2ccc(-c3c4nc(c(-c5c(F)c(F)c(F)c(F)c5F)c5ccc([nH]5)c(-c5c(F)c(F)c(F)c(F)c5F)c5nc(c(-c6c(F)c(F)c(F)c(F)c6F)c6ccc3[nH]6)C=C5)C=C4)cc2)cc1
REMARK SMILES IDX 16 1 15 2 14 3 12 4 13 5 11 7 7 8 8 9 9 10 10 11 6 14 3 15
REMARK SMILES IDX 4 16 85 17 5 18 84 19 2 20 1 21 17 22 18 23 19 24 20 26
REMARK SMILES IDX 21 27 22 28 83 29 23 30 82 31 24 32 25 33 26 34 76 35 27 36
REMARK SMILES IDX 81 37 75 38 77 39 28 40 80 41 74 42 73 43 29 45 61 46 41 47
REMARK SMILES IDX 60 48 42 49 45 50 59 51 78 52 43 53 44 54 58 56 79 57 46 58
REMARK SMILES IDX 30 59 31 60 39 61 32 62 33 63 37 64 40 65 34 66 35 67 38 68
REMARK SMILES IDX 36 69 62 70 63 71 71 72 64 73 65 74 69 75 72 76 66 77 67 78
REMARK SMILES IDX 70 79 68 80 47 81 48 82 56 83 49 84 50 85 54 86 57 87 51 88
REMARK SMILES IDX 52 89 55 90 53 91
REMARK H PARENT 14 6 9 12 9 13 18 25 77 44 45 55
REMARK Flexibility Score: inf
ROOT
ATOM      1  C   UNL A   1      31.300  32.003  26.524  1.00  0.00     0.042 C 
ENDROOT
BRANCH   1   2
ATOM      2  C   UNL A   1      31.543  30.652  25.871  1.00  0.00     0.117 C 
BRANCH   2   3
ATOM      3  N   UNL A   1      30.758  30.475  24.658  1.00  0.00    -0.356 N 
ATOM      4  C   UNL A   1      30.437  29.460  23.825  1.00  0.00     0.229 C 
ATOM      5  O   UNL A   1      29.691  29.785  22.889  1.00  0.00    -0.275 OA
ATOM      6  H   UNL A   1      30.350  31.322  24.366  1.00  0.00     0.163 HD
BRANCH   4   7
ATOM      7  C   UNL A   1      30.907  28.004  23.892  1.00  0.00     0.146 C 
ATOM      8  C   UNL A   1      32.367  27.683  24.175  1.00  0.00     0.092 C 
ATOM      9  C   UNL A   1      32.943  27.631  22.757  1.00  0.00     0.269 C 
ATOM     10  N   UNL A   1      31.928  26.910  21.977  1.00  0.00    -0.345 N 
ATOM     11  C   UNL A   1      30.634  27.362  22.521  1.00  0.00     0.274 C 
ATOM     12  H   UNL A   1      32.035  25.903  22.095  1.00  0.00     0.346 HD
ATOM     13  H   UNL A   1      32.009  27.098  20.977  1.00  0.00     0.346 HD
BRANCH   8  14
ATOM     14  C   UNL A   1      32.753  26.425  24.937  1.00  0.00    -0.038 A 
ATOM     15  C   UNL A   1      33.658  24.098  26.221  1.00  0.00     0.118 A 
ATOM     16  C   UNL A   1      34.510  24.787  25.371  1.00  0.00     0.047 A 
ATOM     17  C   UNL A   1      32.378  24.594  26.479  1.00  0.00     0.047 A 
ATOM     18  C   UNL A   1      34.062  25.939  24.734  1.00  0.00     0.008 A 
ATOM     19  C   UNL A   1      31.924  25.750  25.834  1.00  0.00     0.008 A 
BRANCH  15  20
ATOM     20  O   UNL A   1      34.174  22.971  26.798  1.00  0.00    -0.497 OA
ATOM     21  C   UNL A   1      33.225  22.253  27.580  1.00  0.00     0.278 C 
ENDBRANCH  15  20
ENDBRANCH   8  14
ENDBRANCH   4   7
ENDBRANCH   2   3
ENDBRANCH   1   2
BRANCH   1  22
ATOM     22  C   UNL A   1      32.545  32.547  27.196  1.00  0.00     0.118 C 
BRANCH  22  23
ATOM     23  N   UNL A   1      32.420  33.970  27.503  1.00  0.00    -0.352 N 
ATOM     24  C   UNL A   1      33.012  34.721  28.485  1.00  0.00     0.251 C 
ATOM     25  H   UNL A   1      31.814  34.469  26.909  1.00  0.00     0.163 HD
ATOM     26  O   UNL A   1      32.572  35.840  28.750  1.00  0.00    -0.269 OA
BRANCH  24  27
ATOM     27  C   UNL A   1      34.169  34.189  29.230  1.00  0.00     0.039 A 
ATOM     28  C   UNL A   1      33.959  33.414  30.374  1.00  0.00     0.014 A 
ATOM     29  C   UNL A   1      35.467  34.472  28.806  1.00  0.00     0.014 A 
ATOM     30  C   UNL A   1      35.054  32.872  31.050  1.00  0.00     0.010 A 
ATOM     31  C   UNL A   1      36.543  33.832  29.400  1.00  0.00     0.010 A 
ATOM     32  C   UNL A   1      36.353  33.048  30.545  1.00  0.00    -0.014 A 
BRANCH  32  33
ATOM     33  C   UNL A   1      37.547  32.477  31.215  1.00  0.00     0.031 A 
ATOM     34  C   UNL A   1      38.305  31.363  30.545  1.00  0.00     0.074 A 
ATOM     35  C   UNL A   1      37.886  32.887  32.451  1.00  0.00     0.049 A 
ATOM     36  N   UNL A   1      39.276  30.621  31.010  1.00  0.00    -0.248 NA
ATOM     37  C   UNL A   1      37.883  31.008  29.179  1.00  0.00     0.031 C 
ATOM     38  C   UNL A   1      37.200  33.927  33.219  1.00  0.00     0.029 A 
ATOM     39  N   UNL A   1      38.887  32.462  33.288  1.00  0.00    -0.354 N 
ATOM     40  C   UNL A   1      39.553  29.697  30.011  1.00  0.00     0.074 A 
ATOM     41  C   UNL A   1      38.608  29.927  28.942  1.00  0.00     0.031 C 
ATOM     42  C   UNL A   1      37.813  34.075  34.404  1.00  0.00     0.029 A 
ATOM     43  C   UNL A   1      38.902  33.108  34.499  1.00  0.00     0.049 A 
ATOM     44  H   UNL A   1      39.533  31.761  33.042  1.00  0.00     0.167 HD
ATOM     45  C   UNL A   1      40.530  28.761  29.974  1.00  0.00     0.037 A 
ATOM     46  C   UNL A   1      39.697  32.927  35.571  1.00  0.00     0.037 A 
ATOM     47  C   UNL A   1      41.490  28.566  31.028  1.00  0.00     0.049 A 
ATOM     48  C   UNL A   1      40.774  31.876  35.509  1.00  0.00     0.074 A 
ATOM     49  C   UNL A   1      42.559  27.690  31.071  1.00  0.00     0.029 A 
ATOM     50  N   UNL A   1      41.493  29.264  32.228  1.00  0.00    -0.354 N 
ATOM     51  N   UNL A   1      41.070  31.049  34.536  1.00  0.00    -0.248 NA
ATOM     52  C   UNL A   1      41.631  31.736  36.696  1.00  0.00     0.031 C 
ATOM     53  C   UNL A   1      43.178  27.820  32.317  1.00  0.00     0.029 A 
ATOM     54  C   UNL A   1      42.535  28.822  33.026  1.00  0.00     0.049 A 
ATOM     55  H   UNL A   1      40.851  29.968  32.474  1.00  0.00     0.167 HD
ATOM     56  C   UNL A   1      42.168  30.319  34.973  1.00  0.00     0.074 A 
ATOM     57  C   UNL A   1      42.489  30.807  36.299  1.00  0.00     0.031 C 
ATOM     58  C   UNL A   1      42.850  29.338  34.335  1.00  0.00     0.037 A 
BRANCH  45  59
ATOM     59  C   UNL A   1      40.609  27.882  28.758  1.00  0.00     0.064 A 
ATOM     60  C   UNL A   1      39.895  26.675  28.671  1.00  0.00     0.173 A 
ATOM     61  C   UNL A   1      41.390  28.260  27.656  1.00  0.00     0.173 A 
ATOM     62  F   UNL A   1      39.142  26.260  29.700  1.00  0.00    -0.203 F 
ATOM     63  C   UNL A   1      39.993  25.864  27.544  1.00  0.00     0.198 A 
ATOM     64  C   UNL A   1      41.457  27.463  26.516  1.00  0.00     0.198 A 
ATOM     65  F   UNL A   1      42.089  29.404  27.682  1.00  0.00    -0.203 F 
ATOM     66  F   UNL A   1      39.353  24.687  27.511  1.00  0.00    -0.200 F 
ATOM     67  C   UNL A   1      40.766  26.261  26.465  1.00  0.00     0.200 A 
ATOM     68  F   UNL A   1      42.192  27.856  25.468  1.00  0.00    -0.200 F 
ATOM     69  F   UNL A   1      40.854  25.482  25.379  1.00  0.00    -0.200 F 
ENDBRANCH  45  59
BRANCH  46  70
ATOM     70  C   UNL A   1      39.524  33.776  36.779  1.00  0.00     0.064 A 
ATOM     71  C   UNL A   1      40.147  35.029  36.870  1.00  0.00     0.173 A 
ATOM     72  C   UNL A   1      38.738  33.360  37.863  1.00  0.00     0.173 A 
ATOM     73  F   UNL A   1      40.922  35.466  35.867  1.00  0.00    -0.203 F 
ATOM     74  C   UNL A   1      40.010  35.820  38.009  1.00  0.00     0.198 A 
ATOM     75  C   UNL A   1      38.577  34.165  38.988  1.00  0.00     0.198 A 
ATOM     76  F   UNL A   1      38.114  32.173  37.823  1.00  0.00    -0.203 F 
ATOM     77  F   UNL A   1      40.657  36.992  38.089  1.00  0.00    -0.200 F 
ATOM     78  C   UNL A   1      39.221  35.391  39.064  1.00  0.00     0.200 A 
ATOM     79  F   UNL A   1      37.799  33.754  39.999  1.00  0.00    -0.200 F 
ATOM     80  F   UNL A   1      39.086  36.155  40.157  1.00  0.00    -0.200 F 
ENDBRANCH  46  70
BRANCH  58  81
ATOM     81  C   UNL A   1      44.050  28.762  35.031  1.00  0.00     0.064 A 
ATOM     82  C   UNL A   1      45.326  29.327  34.898  1.00  0.00     0.173 A 
ATOM     83  C   UNL A   1      43.902  27.665  35.893  1.00  0.00     0.173 A 
ATOM     84  F   UNL A   1      45.521  30.369  34.074  1.00  0.00    -0.203 F 
ATOM     85  C   UNL A   1      46.415  28.802  35.587  1.00  0.00     0.198 A 
ATOM     86  C   UNL A   1      44.987  27.163  36.606  1.00  0.00     0.198 A 
ATOM     87  F   UNL A   1      42.700  27.093  36.062  1.00  0.00    -0.203 F 
ATOM     88  F   UNL A   1      47.634  29.329  35.411  1.00  0.00    -0.200 F 
ATOM     89  C   UNL A   1      46.243  27.727  36.447  1.00  0.00     0.200 A 
ATOM     90  F   UNL A   1      44.814  26.137  37.452  1.00  0.00    -0.200 F 
ATOM     91  F   UNL A   1      47.291  27.233  37.122  1.00  0.00    -0.200 F 
ENDBRANCH  58  81
ENDBRANCH  32  33
ENDBRANCH  24  27
ENDBRANCH  22  23
ENDBRANCH   1  22
TORSDOF 12
ENDMDL
MODEL 2
REMARK VINA RESULT:     -12.3      5.679     11.236
REMARK SMILES COc1ccc([C@H]2C[NH2+]C[C@@H]2C(=O)NCCCNC(=O)c2ccc(-c3c4nc(c(-c5c(F)c(F)c(F)c(F)c5F)c5ccc([nH]5)c(-c5c(F)c(F)c(F)c(F)c5F)c5nc(c(-c6c(F)c(F)c(F)c(F)c6F)c6ccc3[nH]6)C=C5)C=C4)cc2)cc1
REMARK SMILES IDX 16 1 15 2 14 3 12 4 13 5 11 7 7 8 8 9 9 10 10 11 6 14 3 15
REMARK SMILES IDX 4 16 85 17 5 18 84 19 2 20 1 21 17 22 18 23 19 24 20 26
REMARK SMILES IDX 21 27 22 28 83 29 23 30 82 31 24 32 25 33 26 34 76 35 27 36
REMARK SMILES IDX 81 37 75 38 77 39 28 40 80 41 74 42 73 43 29 45 61 46 41 47
REMARK SMILES IDX 60 48 42 49 45 50 59 51 78 52 43 53 44 54 58 56 79 57 46 58
REMARK SMILES IDX 30 59 31 60 39 61 32 62 33 63 37 64 40 65 34 66 35 67 38 68
REMARK SMILES IDX 36 69 62 70 63 71 71 72 64 73 65 74 69 75 72 76 66 77 67 78
REMARK SMILES IDX 70 79 68 80 47 81 48 82 56 83 49 84 50 85 54 86 57 87 51 88
REMARK SMILES IDX 52 89 55 90 53 91
REMARK H PARENT 14 6 9 12 9 13 18 25 77 44 45 55
REMARK Flexibility Score: inf
ROOT
ATOM      1  C   UNL A   1      38.034  19.632  24.929  1.00  0.00     0.042 C 
ENDROOT
BRANCH   1   2
ATOM      2  C   UNL A   1      36.800  20.517  24.994  1.00  0.00     0.117 C 
BRANCH   2   3
ATOM      3  N   UNL A   1      35.567  19.745  25.016  1.00  0.00    -0.356 N 
ATOM      4  C   UNL A   1      34.244  19.987  24.879  1.00  0.00     0.229 C 
ATOM      5  O   UNL A   1      33.531  18.975  24.953  1.00  0.00    -0.275 OA
ATOM      6  H   UNL A   1      35.743  18.789  25.171  1.00  0.00     0.163 HD
BRANCH   4   7
ATOM      7  C   UNL A   1      33.551  21.338  24.679  1.00  0.00     0.146 C 
ATOM      8  C   UNL A   1      33.928  22.527  25.550  1.00  0.00     0.092 C 
ATOM      9  C   UNL A   1      32.939  22.376  26.709  1.00  0.00     0.269 C 
ATOM     10  N   UNL A   1      31.671  22.016  26.063  1.00  0.00    -0.345 N 
ATOM     11  C   UNL A   1      32.049  21.135  24.942  1.00  0.00     0.274 C 
ATOM     12  H   UNL A   1      31.195  22.849  25.719  1.00  0.00     0.346 HD
ATOM     13  H   UNL A   1      31.029  21.557  26.709  1.00  0.00     0.346 HD
BRANCH   8  14
ATOM     14  C   UNL A   1      33.868  23.944  24.999  1.00  0.00    -0.038 A 
ATOM     15  C   UNL A   1      33.717  26.629  24.195  1.00  0.00     0.118 A 
ATOM     16  C   UNL A   1      33.724  26.318  25.547  1.00  0.00     0.047 A 
ATOM     17  C   UNL A   1      33.843  25.614  23.245  1.00  0.00     0.047 A 
ATOM     18  C   UNL A   1      33.798  24.988  25.945  1.00  0.00     0.008 A 
ATOM     19  C   UNL A   1      33.911  24.275  23.644  1.00  0.00     0.008 A 
BRANCH  15  20
ATOM     20  O   UNL A   1      33.632  27.959  23.890  1.00  0.00    -0.497 OA
ATOM     21  C   UNL A   1      33.803  28.232  22.502  1.00  0.00     0.278 C 
ENDBRANCH  15  20
ENDBRANCH   8  14
ENDBRANCH   4   7
ENDBRANCH   2   3
ENDBRANCH   1   2
BRANCH   1  22
ATOM     22  C   UNL A   1      39.152  20.142  25.818  1.00  0.00     0.118 C 
BRANCH  22  23
ATOM     23  N   UNL A   1      40.210  19.147  25.985  1.00  0.00    -0.352 N 
ATOM     24  C   UNL A   1      41.566  19.307  26.107  1.00  0.00     0.251 C 
ATOM     25  H   UNL A   1      39.899  18.214  26.015  1.00  0.00     0.163 HD
ATOM     26  O   UNL A   1      42.313  18.338  25.964  1.00  0.00    -0.269 OA
BRANCH  24  27
ATOM     27  C   UNL A   1      42.133  20.637  26.401  1.00  0.00     0.039 A 
ATOM     28  C   UNL A   1      42.467  21.495  25.350  1.00  0.00     0.014 A 
ATOM     29  C   UNL A   1      42.352  21.030  27.721  1.00  0.00     0.014 A 
ATOM     30  C   UNL A   1      42.959  22.771  25.631  1.00  0.00     0.010 A 
ATOM     31  C   UNL A   1      42.718  22.337  28.001  1.00  0.00     0.010 A 
ATOM     32  C   UNL A   1      43.054  23.214  26.960  1.00  0.00    -0.014 A 
BRANCH  32  33
ATOM     33  C   UNL A   1      43.551  24.566  27.311  1.00  0.00     0.031 A 
ATOM     34  C   UNL A   1      42.593  25.580  27.874  1.00  0.00     0.074 A 
ATOM     35  C   UNL A   1      44.825  24.907  27.037  1.00  0.00     0.049 A 
ATOM     36  N   UNL A   1      42.773  26.855  28.107  1.00  0.00    -0.248 NA
ATOM     37  C   UNL A   1      41.232  25.104  28.175  1.00  0.00     0.031 C 
ATOM     38  C   UNL A   1      45.833  24.023  26.450  1.00  0.00     0.029 A 
ATOM     39  N   UNL A   1      45.482  26.101  27.198  1.00  0.00    -0.354 N 
ATOM     40  C   UNL A   1      41.546  27.332  28.547  1.00  0.00     0.074 A 
ATOM     41  C   UNL A   1      40.612  26.231  28.487  1.00  0.00     0.031 C 
ATOM     42  C   UNL A   1      46.987  24.697  26.323  1.00  0.00     0.029 A 
ATOM     43  C   UNL A   1      46.786  26.072  26.771  1.00  0.00     0.049 A 
ATOM     44  H   UNL A   1      45.058  26.901  27.586  1.00  0.00     0.167 HD
ATOM     45  C   UNL A   1      41.233  28.572  28.992  1.00  0.00     0.037 A 
ATOM     46  C   UNL A   1      47.710  27.051  26.731  1.00  0.00     0.037 A 
ATOM     47  C   UNL A   1      42.180  29.651  29.083  1.00  0.00     0.049 A 
ATOM     48  C   UNL A   1      47.337  28.424  27.227  1.00  0.00     0.074 A 
ATOM     49  C   UNL A   1      41.988  30.929  29.576  1.00  0.00     0.029 A 
ATOM     50  N   UNL A   1      43.503  29.574  28.671  1.00  0.00    -0.354 N 
ATOM     51  N   UNL A   1      46.191  28.851  27.700  1.00  0.00    -0.248 NA
ATOM     52  C   UNL A   1      48.388  29.450  27.186  1.00  0.00     0.031 C 
ATOM     53  C   UNL A   1      43.179  31.641  29.414  1.00  0.00     0.029 A 
ATOM     54  C   UNL A   1      44.133  30.789  28.879  1.00  0.00     0.049 A 
ATOM     55  H   UNL A   1      43.930  28.773  28.287  1.00  0.00     0.167 HD
ATOM     56  C   UNL A   1      46.393  30.180  28.050  1.00  0.00     0.074 A 
ATOM     57  C   UNL A   1      47.774  30.486  27.739  1.00  0.00     0.031 C 
ATOM     58  C   UNL A   1      45.516  31.065  28.583  1.00  0.00     0.037 A 
BRANCH  45  59
ATOM     59  C   UNL A   1      39.813  28.823  29.414  1.00  0.00     0.064 A 
ATOM     60  C   UNL A   1      39.382  28.597  30.731  1.00  0.00     0.173 A 
ATOM     61  C   UNL A   1      38.874  29.316  28.496  1.00  0.00     0.173 A 
ATOM     62  F   UNL A   1      40.235  28.114  31.647  1.00  0.00    -0.203 F 
ATOM     63  C   UNL A   1      38.058  28.817  31.101  1.00  0.00     0.198 A 
ATOM     64  C   UNL A   1      37.560  29.570  28.878  1.00  0.00     0.198 A 
ATOM     65  F   UNL A   1      39.231  29.555  27.225  1.00  0.00    -0.203 F 
ATOM     66  F   UNL A   1      37.657  28.533  32.348  1.00  0.00    -0.200 F 
ATOM     67  C   UNL A   1      37.150  29.311  30.178  1.00  0.00     0.200 A 
ATOM     68  F   UNL A   1      36.687  30.062  27.989  1.00  0.00    -0.200 F 
ATOM     69  F   UNL A   1      35.878  29.528  30.538  1.00  0.00    -0.200 F 
ENDBRANCH  45  59
BRANCH  46  70
ATOM     70  C   UNL A   1      49.080  26.763  26.231  1.00  0.00     0.064 A 
ATOM     71  C   UNL A   1      49.418  26.998  24.890  1.00  0.00     0.173 A 
ATOM     72  C   UNL A   1      50.077  26.251  27.074  1.00  0.00     0.173 A 
ATOM     73  F   UNL A   1      48.496  27.471  24.041  1.00  0.00    -0.203 F 
ATOM     74  C   UNL A   1      50.693  26.707  24.408  1.00  0.00     0.198 A 
ATOM     75  C   UNL A   1      51.360  25.991  26.598  1.00  0.00     0.198 A 
ATOM     76  F   UNL A   1      49.808  26.017  28.367  1.00  0.00    -0.203 F 
ATOM     77  F   UNL A   1      50.974  26.895  23.110  1.00  0.00    -0.200 F 
ATOM     78  C   UNL A   1      51.664  26.211  25.263  1.00  0.00     0.200 A 
ATOM     79  F   UNL A   1      52.301  25.527  27.431  1.00  0.00    -0.200 F 
ATOM     80  F   UNL A   1      52.890  25.936  24.799  1.00  0.00    -0.200 F 
ENDBRANCH  46  70
BRANCH  58  81
ATOM     81  C   UNL A   1      46.033  32.434  28.922  1.00  0.00     0.064 A 
ATOM     82  C   UNL A   1      46.627  32.716  30.160  1.00  0.00     0.173 A 
ATOM     83  C   UNL A   1      45.985  33.460  27.966  1.00  0.00     0.173 A 
ATOM     84  F   UNL A   1      46.684  31.772  31.113  1.00  0.00    -0.203 F 
ATOM     85  C   UNL A   1      47.138  33.981  30.436  1.00  0.00     0.198 A 
ATOM     86  C   UNL A   1      46.526  34.714  28.232  1.00  0.00     0.198 A 
ATOM     87  F   UNL A   1      45.434  33.238  26.762  1.00  0.00    -0.203 F 
ATOM     88  F   UNL A   1      47.662  34.241  31.641  1.00  0.00    -0.200 F 
ATOM     89  C   UNL A   1      47.096  34.975  29.469  1.00  0.00     0.200 A 
ATOM     90  F   UNL A   1      46.502  35.667  27.290  1.00  0.00    -0.200 F 
ATOM     91  F   UNL A   1      47.602  36.188  29.731  1.00  0.00    -0.200 F 
ENDBRANCH  58  81
ENDBRANCH  32  33
ENDBRANCH  24  27
ENDBRANCH  22  23
ENDBRANCH   1  22
TORSDOF 12
ENDMDL
MODEL 3
REMARK VINA RESULT:     -12.3      5.708     11.349
REMARK SMILES COc1ccc([C@H]2C[NH2+]C[C@@H]2C(=O)NCCCNC(=O)c2ccc(-c3c4nc(c(-c5c(F)c(F)c(F)c(F)c5F)c5ccc([nH]5)c(-c5c(F)c(F)c(F)c(F)c5F)c5nc(c(-c6c(F)c(F)c(F)c(F)c6F)c6ccc3[nH]6)C=C5)C=C4)cc2)cc1
REMARK SMILES IDX 16 1 15 2 14 3 12 4 13 5 11 7 7 8 8 9 9 10 10 11 6 14 3 15
REMARK SMILES IDX 4 16 85 17 5 18 84 19 2 20 1 21 17 22 18 23 19 24 20 26
REMARK SMILES IDX 21 27 22 28 83 29 23 30 82 31 24 32 25 33 26 34 76 35 27 36
REMARK SMILES IDX 81 37 75 38 77 39 28 40 80 41 74 42 73 43 29 45 61 46 41 47
REMARK SMILES IDX 60 48 42 49 45 50 59 51 78 52 43 53 44 54 58 56 79 57 46 58
REMARK SMILES IDX 30 59 31 60 39 61 32 62 33 63 37 64 40 65 34 66 35 67 38 68
REMARK SMILES IDX 36 69 62 70 63 71 71 72 64 73 65 74 69 75 72 76 66 77 67 78
REMARK SMILES IDX 70 79 68 80 47 81 48 82 56 83 49 84 50 85 54 86 57 87 51 88
REMARK SMILES IDX 52 89 55 90 53 91
REMARK H PARENT 14 6 9 12 9 13 18 25 77 44 45 55
REMARK Flexibility Score: inf
ROOT
ATOM      1  C   UNL A   1      37.993  19.589  24.922  1.00  0.00     0.042 C 
ENDROOT
BRANCH   1   2
ATOM      2  C   UNL A   1      36.748  20.457  25.002  1.00  0.00     0.117 C 
BRANCH   2   3
ATOM      3  N   UNL A   1      35.524  19.669  25.001  1.00  0.00    -0.356 N 
ATOM      4  C   UNL A   1      34.201  19.895  24.844  1.00  0.00     0.229 C 
ATOM      5  O   UNL A   1      33.500  18.873  24.903  1.00  0.00    -0.275 OA
ATOM      6  H   UNL A   1      35.711  18.715  25.155  1.00  0.00     0.163 HD
BRANCH   4   7
ATOM      7  C   UNL A   1      33.494  21.238  24.639  1.00  0.00     0.146 C 
ATOM      8  C   UNL A   1      33.925  22.459  25.438  1.00  0.00     0.092 C 
ATOM      9  C   UNL A   1      33.014  22.353  26.664  1.00  0.00     0.269 C 
ATOM     10  N   UNL A   1      31.707  21.969  26.116  1.00  0.00    -0.345 N 
ATOM     11  C   UNL A   1      32.013  21.046  25.007  1.00  0.00     0.274 C 
ATOM     12  H   UNL A   1      31.208  22.789  25.773  1.00  0.00     0.346 HD
ATOM     13  H   UNL A   1      31.109  21.535  26.820  1.00  0.00     0.346 HD
BRANCH   8  14
ATOM     14  C   UNL A   1      33.827  23.853  24.838  1.00  0.00    -0.038 A 
ATOM     15  C   UNL A   1      33.622  26.507  23.945  1.00  0.00     0.118 A 
ATOM     16  C   UNL A   1      33.733  26.248  25.304  1.00  0.00     0.047 A 
ATOM     17  C   UNL A   1      33.671  25.455  23.028  1.00  0.00     0.047 A 
ATOM     18  C   UNL A   1      33.833  24.933  25.746  1.00  0.00     0.008 A 
ATOM     19  C   UNL A   1      33.766  24.132  23.472  1.00  0.00     0.008 A 
BRANCH  15  20
ATOM     20  O   UNL A   1      33.518  27.825  23.596  1.00  0.00    -0.497 OA
ATOM     21  C   UNL A   1      33.419  28.699  24.717  1.00  0.00     0.278 C 
ENDBRANCH  15  20
ENDBRANCH   8  14
ENDBRANCH   4   7
ENDBRANCH   2   3
ENDBRANCH   1   2
BRANCH   1  22
ATOM     22  C   UNL A   1      39.134  20.145  25.753  1.00  0.00     0.118 C 
BRANCH  22  23
ATOM     23  N   UNL A   1      40.180  19.150  25.974  1.00  0.00    -0.352 N 
ATOM     24  C   UNL A   1      41.535  19.305  26.122  1.00  0.00     0.251 C 
ATOM     25  H   UNL A   1      39.862  18.219  26.025  1.00  0.00     0.163 HD
ATOM     26  O   UNL A   1      42.278  18.328  26.027  1.00  0.00    -0.269 OA
BRANCH  24  27
ATOM     27  C   UNL A   1      42.103  20.640  26.389  1.00  0.00     0.039 A 
ATOM     28  C   UNL A   1      42.461  21.466  25.320  1.00  0.00     0.014 A 
ATOM     29  C   UNL A   1      42.302  21.069  27.701  1.00  0.00     0.014 A 
ATOM     30  C   UNL A   1      42.955  22.747  25.574  1.00  0.00     0.010 A 
ATOM     31  C   UNL A   1      42.670  22.381  27.950  1.00  0.00     0.010 A 
ATOM     32  C   UNL A   1      43.028  23.227  26.891  1.00  0.00    -0.014 A 
BRANCH  32  33
ATOM     33  C   UNL A   1      43.527  24.586  27.213  1.00  0.00     0.031 A 
ATOM     34  C   UNL A   1      42.573  25.608  27.768  1.00  0.00     0.074 A 
ATOM     35  C   UNL A   1      44.797  24.924  26.918  1.00  0.00     0.049 A 
ATOM     36  N   UNL A   1      42.754  26.887  27.976  1.00  0.00    -0.248 NA
ATOM     37  C   UNL A   1      41.216  25.135  28.092  1.00  0.00     0.031 C 
ATOM     38  C   UNL A   1      45.800  24.032  26.336  1.00  0.00     0.029 A 
ATOM     39  N   UNL A   1      45.454  26.122  27.052  1.00  0.00    -0.354 N 
ATOM     40  C   UNL A   1      41.530  27.370  28.422  1.00  0.00     0.074 A 
ATOM     41  C   UNL A   1      40.598  26.267  28.391  1.00  0.00     0.031 C 
ATOM     42  C   UNL A   1      46.952  24.706  26.184  1.00  0.00     0.029 A 
ATOM     43  C   UNL A   1      46.753  26.088  26.610  1.00  0.00     0.049 A 
ATOM     44  H   UNL A   1      45.033  26.928  27.429  1.00  0.00     0.167 HD
ATOM     45  C   UNL A   1      41.220  28.617  28.848  1.00  0.00     0.037 A 
ATOM     46  C   UNL A   1      47.674  27.068  26.543  1.00  0.00     0.037 A 
ATOM     47  C   UNL A   1      42.165  29.699  28.909  1.00  0.00     0.049 A 
ATOM     48  C   UNL A   1      47.304  28.448  27.018  1.00  0.00     0.074 A 
ATOM     49  C   UNL A   1      41.976  30.985  29.382  1.00  0.00     0.029 A 
ATOM     50  N   UNL A   1      43.484  29.617  28.484  1.00  0.00    -0.354 N 
ATOM     51  N   UNL A   1      46.163  28.882  27.497  1.00  0.00    -0.248 NA
ATOM     52  C   UNL A   1      48.353  29.476  26.948  1.00  0.00     0.031 C 
ATOM     53  C   UNL A   1      43.165  31.697  29.193  1.00  0.00     0.029 A 
ATOM     54  C   UNL A   1      44.114  30.837  28.664  1.00  0.00     0.049 A 
ATOM     55  H   UNL A   1      43.908  28.811  28.110  1.00  0.00     0.167 HD
ATOM     56  C   UNL A   1      46.366  30.217  27.821  1.00  0.00     0.074 A 
ATOM     57  C   UNL A   1      47.743  30.520  27.489  1.00  0.00     0.031 C 
ATOM     58  C   UNL A   1      45.493  31.110  28.347  1.00  0.00     0.037 A 
BRANCH  45  59
ATOM     59  C   UNL A   1      39.804  28.873  29.281  1.00  0.00     0.064 A 
ATOM     60  C   UNL A   1      38.830  29.342  28.384  1.00  0.00     0.173 A 
ATOM     61  C   UNL A   1      39.409  28.628  30.604  1.00  0.00     0.173 A 
ATOM     62  F   UNL A   1      39.156  29.606  27.110  1.00  0.00    -0.203 F 
ATOM     63  C   UNL A   1      37.527  29.592  28.806  1.00  0.00     0.198 A 
ATOM     64  C   UNL A   1      38.095  28.843  31.014  1.00  0.00     0.198 A 
ATOM     65  F   UNL A   1      40.295  28.174  31.503  1.00  0.00    -0.203 F 
ATOM     66  F   UNL A   1      36.633  30.100  27.947  1.00  0.00    -0.200 F 
ATOM     67  C   UNL A   1      37.158  29.335  30.117  1.00  0.00     0.200 A 
ATOM     68  F   UNL A   1      37.737  28.580  32.277  1.00  0.00    -0.200 F 
ATOM     69  F   UNL A   1      35.902  29.570  30.519  1.00  0.00    -0.200 F 
ENDBRANCH  45  59
BRANCH  46  70
ATOM     70  C   UNL A   1      49.039  26.774  26.033  1.00  0.00     0.064 A 
ATOM     71  C   UNL A   1      50.031  26.269  26.888  1.00  0.00     0.173 A 
ATOM     72  C   UNL A   1      49.384  26.987  24.691  1.00  0.00     0.173 A 
ATOM     73  F   UNL A   1      49.756  26.063  28.183  1.00  0.00    -0.203 F 
ATOM     74  C   UNL A   1      51.320  26.014  26.423  1.00  0.00     0.198 A 
ATOM     75  C   UNL A   1      50.664  26.703  24.221  1.00  0.00     0.198 A 
ATOM     76  F   UNL A   1      48.470  27.460  23.830  1.00  0.00    -0.203 F 
ATOM     77  F   UNL A   1      52.261  25.579  27.273  1.00  0.00    -0.200 F 
ATOM     78  C   UNL A   1      51.634  26.225  25.090  1.00  0.00     0.200 A 
ATOM     79  F   UNL A   1      50.959  26.891  22.928  1.00  0.00    -0.200 F 
ATOM     80  F   UNL A   1      52.872  25.975  24.644  1.00  0.00    -0.200 F 
ENDBRANCH  46  70
BRANCH  58  81
ATOM     81  C   UNL A   1      46.011  32.486  28.656  1.00  0.00     0.064 A 
ATOM     82  C   UNL A   1      46.617  32.791  29.883  1.00  0.00     0.173 A 
ATOM     83  C   UNL A   1      45.952  33.494  27.682  1.00  0.00     0.173 A 
ATOM     84  F   UNL A   1      46.686  31.865  30.852  1.00  0.00    -0.203 F 
ATOM     85  C   UNL A   1      47.128  34.062  30.131  1.00  0.00     0.198 A 
ATOM     86  C   UNL A   1      46.494  34.753  27.920  1.00  0.00     0.198 A 
ATOM     87  F   UNL A   1      45.389  33.250  26.488  1.00  0.00    -0.203 F 
ATOM     88  F   UNL A   1      47.664  34.345  31.325  1.00  0.00    -0.200 F 
ATOM     89  C   UNL A   1      47.075  35.038  29.146  1.00  0.00     0.200 A 
ATOM     90  F   UNL A   1      46.458  35.689  26.961  1.00  0.00    -0.200 F 
ATOM     91  F   UNL A   1      47.582  36.256  29.382  1.00  0.00    -0.200 F 
ENDBRANCH  58  81
ENDBRANCH  32  33
ENDBRANCH  24  27
ENDBRANCH  22  23
ENDBRANCH   1  22
TORSDOF 12
ENDMDL
