MODEL 1
REMARK VINA RESULT:     -12.6      0.000      0.000
REMARK SMILES CC1(C)CCN(C(=O)N[C@](C)(C(=O)NCCCNC(=O)c2ccc(-c3c4nc(c(-c5c(F)c(F)c(F)c(F)c5F)c5ccc([nH]5)c(-c5c(F)c(F)c(F)c(F)c5F)c5nc(c(-c6c(F)c(F)c(F)c(F)c6F)c6ccc3[nH]6)C=C5)C=C4)cc2)c2ccccc2)C1
REMARK SMILES IDX 16 1 15 2 14 3 12 4 13 5 10 7 11 8 9 9 7 10 8 11 6 13 1 14
REMARK SMILES IDX 2 15 3 16 4 17 90 18 5 19 84 20 85 21 89 22 86 23 88 24
REMARK SMILES IDX 87 25 17 26 18 27 19 28 20 30 21 31 22 32 83 33 23 34 82 35
REMARK SMILES IDX 24 36 25 37 26 38 76 39 27 40 81 41 75 42 77 43 28 44 80 45
REMARK SMILES IDX 74 46 73 47 29 49 61 50 41 51 60 52 42 53 45 54 59 55 78 56
REMARK SMILES IDX 43 57 44 58 58 60 79 61 46 62 30 63 31 64 39 65 32 66 33 67
REMARK SMILES IDX 37 68 40 69 34 70 35 71 38 72 36 73 62 74 63 75 71 76 64 77
REMARK SMILES IDX 65 78 69 79 72 80 66 81 67 82 70 83 68 84 47 85 48 86 56 87
REMARK SMILES IDX 49 88 50 89 54 90 57 91 51 92 52 93 55 94 53 95
REMARK H PARENT 14 6 9 12 18 29 77 48 45 59
REMARK Flexibility Score: inf
ROOT
ATOM      1  C   UNL A   1      31.545  31.913  26.441  1.00  0.00     0.042 C 
ENDROOT
BRANCH   1   2
ATOM      2  C   UNL A   1      31.725  30.453  26.006  1.00  0.00     0.117 C 
BRANCH   2   3
ATOM      3  N   UNL A   1      31.765  29.563  27.149  1.00  0.00    -0.354 N 
ATOM      4  C   UNL A   1      31.770  28.205  27.268  1.00  0.00     0.250 C 
ATOM      5  O   UNL A   1      31.148  27.818  28.267  1.00  0.00    -0.272 OA
ATOM      6  H   UNL A   1      31.796  30.034  28.013  1.00  0.00     0.163 HD
BRANCH   4   7
ATOM      7  C   UNL A   1      32.429  27.199  26.213  1.00  0.00     0.143 C 
ATOM      8  C   UNL A   1      33.927  27.558  26.053  1.00  0.00     0.051 C 
BRANCH   7   9
ATOM      9  N   UNL A   1      32.436  25.818  26.789  1.00  0.00    -0.320 N 
ATOM     10  C   UNL A   1      31.976  24.617  26.395  1.00  0.00     0.318 C 
ATOM     11  O   UNL A   1      31.190  24.076  27.180  1.00  0.00    -0.249 OA
ATOM     12  H   UNL A   1      32.882  25.780  27.666  1.00  0.00     0.166 HD
BRANCH  10  13
ATOM     13  N   UNL A   1      32.480  23.940  25.324  1.00  0.00    -0.324 N 
ATOM     14  C   UNL A   1      33.178  23.403  21.844  1.00  0.00     0.013 C 
ATOM     15  C   UNL A   1      32.897  22.828  23.235  1.00  0.00    -0.016 C 
ATOM     16  C   UNL A   1      32.349  21.403  23.057  1.00  0.00     0.013 C 
ATOM     17  C   UNL A   1      34.156  22.764  24.121  1.00  0.00     0.030 C 
ATOM     18  C   UNL A   1      31.927  23.758  23.996  1.00  0.00     0.127 C 
ATOM     19  C   UNL A   1      33.915  23.743  25.257  1.00  0.00     0.122 C 
ENDBRANCH  10  13
ENDBRANCH   7   9
BRANCH   7  20
ATOM     20  C   UNL A   1      31.710  27.336  24.852  1.00  0.00    -0.013 A 
ATOM     21  C   UNL A   1      32.458  27.544  23.674  1.00  0.00     0.007 A 
ATOM     22  C   UNL A   1      30.305  27.277  24.717  1.00  0.00     0.007 A 
ATOM     23  C   UNL A   1      31.836  27.680  22.431  1.00  0.00     0.000 A 
ATOM     24  C   UNL A   1      29.683  27.450  23.477  1.00  0.00     0.000 A 
ATOM     25  C   UNL A   1      30.448  27.650  22.335  1.00  0.00     0.000 A 
ENDBRANCH   7  20
ENDBRANCH   4   7
ENDBRANCH   2   3
ENDBRANCH   1   2
BRANCH   1  26
ATOM     26  C   UNL A   1      32.722  32.491  27.230  1.00  0.00     0.118 C 
BRANCH  26  27
ATOM     27  N   UNL A   1      32.520  33.886  27.593  1.00  0.00    -0.352 N 
ATOM     28  C   UNL A   1      33.096  34.636  28.588  1.00  0.00     0.251 C 
ATOM     29  H   UNL A   1      31.867  34.368  27.036  1.00  0.00     0.163 HD
ATOM     30  O   UNL A   1      32.625  35.729  28.877  1.00  0.00    -0.269 OA
BRANCH  28  31
ATOM     31  C   UNL A   1      34.273  34.126  29.323  1.00  0.00     0.039 A 
ATOM     32  C   UNL A   1      34.070  33.333  30.455  1.00  0.00     0.014 A 
ATOM     33  C   UNL A   1      35.571  34.460  28.925  1.00  0.00     0.014 A 
ATOM     34  C   UNL A   1      35.168  32.818  31.148  1.00  0.00     0.010 A 
ATOM     35  C   UNL A   1      36.664  33.886  29.572  1.00  0.00     0.010 A 
ATOM     36  C   UNL A   1      36.473  33.059  30.689  1.00  0.00    -0.014 A 
BRANCH  36  37
ATOM     37  C   UNL A   1      37.650  32.449  31.361  1.00  0.00     0.031 A 
ATOM     38  C   UNL A   1      38.399  31.323  30.703  1.00  0.00     0.074 A 
ATOM     39  C   UNL A   1      38.007  32.872  32.589  1.00  0.00     0.049 A 
ATOM     40  N   UNL A   1      39.396  30.609  31.163  1.00  0.00    -0.248 NA
ATOM     41  C   UNL A   1      37.955  30.931  29.355  1.00  0.00     0.031 C 
ATOM     42  C   UNL A   1      37.339  33.933  33.346  1.00  0.00     0.029 A 
ATOM     43  N   UNL A   1      39.014  32.456  33.425  1.00  0.00    -0.354 N 
ATOM     44  C   UNL A   1      39.692  29.687  30.169  1.00  0.00     0.074 A 
ATOM     45  C   UNL A   1      38.735  29.888  29.105  1.00  0.00     0.031 C 
ATOM     46  C   UNL A   1      37.966  34.099  34.522  1.00  0.00     0.029 A 
ATOM     47  C   UNL A   1      39.050  33.127  34.624  1.00  0.00     0.049 A 
ATOM     48  H   UNL A   1      39.651  31.744  33.187  1.00  0.00     0.167 HD
ATOM     49  C   UNL A   1      40.691  28.772  30.136  1.00  0.00     0.037 A 
ATOM     50  C   UNL A   1      39.855  32.965  35.692  1.00  0.00     0.037 A 
ATOM     51  C   UNL A   1      41.651  28.584  31.192  1.00  0.00     0.049 A 
ATOM     52  C   UNL A   1      40.927  31.908  35.642  1.00  0.00     0.074 A 
ATOM     53  C   UNL A   1      42.721  27.708  31.239  1.00  0.00     0.029 A 
ATOM     54  N   UNL A   1      41.655  29.284  32.390  1.00  0.00    -0.354 N 
ATOM     55  N   UNL A   1      41.235  31.083  34.671  1.00  0.00    -0.248 NA
ATOM     56  C   UNL A   1      41.768  31.762  36.839  1.00  0.00     0.031 C 
ATOM     57  C   UNL A   1      43.343  27.842  32.483  1.00  0.00     0.029 A 
ATOM     58  C   UNL A   1      42.697  28.844  33.190  1.00  0.00     0.049 A 
ATOM     59  H   UNL A   1      41.013  29.990  32.634  1.00  0.00     0.167 HD
ATOM     60  C   UNL A   1      42.324  30.350  35.125  1.00  0.00     0.074 A 
ATOM     61  C   UNL A   1      42.634  30.839  36.450  1.00  0.00     0.031 C 
ATOM     62  C   UNL A   1      43.003  29.357  34.501  1.00  0.00     0.037 A 
BRANCH  49  63
ATOM     63  C   UNL A   1      40.810  27.909  28.912  1.00  0.00     0.064 A 
ATOM     64  C   UNL A   1      39.994  26.782  28.731  1.00  0.00     0.173 A 
ATOM     65  C   UNL A   1      41.700  28.246  27.881  1.00  0.00     0.173 A 
ATOM     66  F   UNL A   1      39.132  26.410  29.690  1.00  0.00    -0.203 F 
ATOM     67  C   UNL A   1      40.080  26.013  27.574  1.00  0.00     0.198 A 
ATOM     68  C   UNL A   1      41.761  27.493  26.712  1.00  0.00     0.198 A 
ATOM     69  F   UNL A   1      42.498  29.318  28.000  1.00  0.00    -0.203 F 
ATOM     70  F   UNL A   1      39.319  24.917  27.441  1.00  0.00    -0.200 F 
ATOM     71  C   UNL A   1      40.956  26.375  26.561  1.00  0.00     0.200 A 
ATOM     72  F   UNL A   1      42.596  27.853  25.728  1.00  0.00    -0.200 F 
ATOM     73  F   UNL A   1      41.026  25.643  25.441  1.00  0.00    -0.200 F 
ENDBRANCH  49  63
BRANCH  50  74
ATOM     74  C   UNL A   1      39.690  33.819  36.899  1.00  0.00     0.064 A 
ATOM     75  C   UNL A   1      38.910  33.391  37.983  1.00  0.00     0.173 A 
ATOM     76  C   UNL A   1      40.270  35.094  36.979  1.00  0.00     0.173 A 
ATOM     77  F   UNL A   1      38.318  32.188  37.948  1.00  0.00    -0.203 F 
ATOM     78  C   UNL A   1      38.686  34.218  39.082  1.00  0.00     0.198 A 
ATOM     79  C   UNL A   1      40.073  35.906  38.094  1.00  0.00     0.198 A 
ATOM     80  F   UNL A   1      41.029  35.552  35.973  1.00  0.00    -0.203 F 
ATOM     81  F   UNL A   1      37.881  33.808  40.072  1.00  0.00    -0.200 F 
ATOM     82  C   UNL A   1      39.270  35.474  39.137  1.00  0.00     0.200 A 
ATOM     83  F   UNL A   1      40.653  37.113  38.151  1.00  0.00    -0.200 F 
ATOM     84  F   UNL A   1      39.049  36.272  40.191  1.00  0.00    -0.200 F 
ENDBRANCH  50  74
BRANCH  62  85
ATOM     85  C   UNL A   1      44.181  28.765  35.223  1.00  0.00     0.064 A 
ATOM     86  C   UNL A   1      44.046  27.653  36.067  1.00  0.00     0.173 A 
ATOM     87  C   UNL A   1      45.466  29.294  35.032  1.00  0.00     0.173 A 
ATOM     88  F   UNL A   1      42.836  27.121  36.295  1.00  0.00    -0.203 F 
ATOM     89  C   UNL A   1      45.152  27.108  36.713  1.00  0.00     0.198 A 
ATOM     90  C   UNL A   1      46.574  28.725  35.652  1.00  0.00     0.198 A 
ATOM     91  F   UNL A   1      45.651  30.353  34.229  1.00  0.00    -0.203 F 
ATOM     92  F   UNL A   1      44.993  26.078  37.554  1.00  0.00    -0.200 F 
ATOM     93  C   UNL A   1      46.416  27.639  36.498  1.00  0.00     0.200 A 
ATOM     94  F   UNL A   1      47.797  29.228  35.430  1.00  0.00    -0.200 F 
ATOM     95  F   UNL A   1      47.481  27.105  37.113  1.00  0.00    -0.200 F 
ENDBRANCH  62  85
ENDBRANCH  36  37
ENDBRANCH  28  31
ENDBRANCH  26  27
ENDBRANCH   1  26
TORSDOF 13
ENDMDL
MODEL 2
REMARK VINA RESULT:     -12.5      1.146      1.947
REMARK SMILES CC1(C)CCN(C(=O)N[C@](C)(C(=O)NCCCNC(=O)c2ccc(-c3c4nc(c(-c5c(F)c(F)c(F)c(F)c5F)c5ccc([nH]5)c(-c5c(F)c(F)c(F)c(F)c5F)c5nc(c(-c6c(F)c(F)c(F)c(F)c6F)c6ccc3[nH]6)C=C5)C=C4)cc2)c2ccccc2)C1
REMARK SMILES IDX 16 1 15 2 14 3 12 4 13 5 10 7 11 8 9 9 7 10 8 11 6 13 1 14
REMARK SMILES IDX 2 15 3 16 4 17 90 18 5 19 84 20 85 21 89 22 86 23 88 24
REMARK SMILES IDX 87 25 17 26 18 27 19 28 20 30 21 31 22 32 83 33 23 34 82 35
REMARK SMILES IDX 24 36 25 37 26 38 76 39 27 40 81 41 75 42 77 43 28 44 80 45
REMARK SMILES IDX 74 46 73 47 29 49 61 50 41 51 60 52 42 53 45 54 59 55 78 56
REMARK SMILES IDX 43 57 44 58 58 60 79 61 46 62 30 63 31 64 39 65 32 66 33 67
REMARK SMILES IDX 37 68 40 69 34 70 35 71 38 72 36 73 62 74 63 75 71 76 64 77
REMARK SMILES IDX 65 78 69 79 72 80 66 81 67 82 70 83 68 84 47 85 48 86 56 87
REMARK SMILES IDX 49 88 50 89 54 90 57 91 51 92 52 93 55 94 53 95
REMARK H PARENT 14 6 9 12 18 29 77 48 45 59
REMARK Flexibility Score: inf
ROOT
ATOM      1  C   UNL A   1      31.395  31.764  26.501  1.00  0.00     0.042 C 
ENDROOT
BRANCH   1   2
ATOM      2  C   UNL A   1      31.550  30.274  26.173  1.00  0.00     0.117 C 
BRANCH   2   3
ATOM      3  N   UNL A   1      32.296  30.078  24.946  1.00  0.00    -0.354 N 
ATOM      4  C   UNL A   1      32.411  29.025  24.089  1.00  0.00     0.250 C 
ATOM      5  O   UNL A   1      33.547  28.936  23.603  1.00  0.00    -0.272 OA
ATOM      6  H   UNL A   1      32.825  30.863  24.679  1.00  0.00     0.163 HD
BRANCH   4   7
ATOM      7  C   UNL A   1      31.252  27.964  23.786  1.00  0.00     0.143 C 
ATOM      8  C   UNL A   1      31.810  26.879  22.832  1.00  0.00     0.051 C 
BRANCH   7   9
ATOM      9  N   UNL A   1      30.924  27.222  25.043  1.00  0.00    -0.320 N 
ATOM     10  C   UNL A   1      30.771  25.928  25.376  1.00  0.00     0.318 C 
ATOM     11  O   UNL A   1      29.675  25.642  25.871  1.00  0.00    -0.249 OA
ATOM     12  H   UNL A   1      30.786  27.825  25.809  1.00  0.00     0.166 HD
BRANCH  10  13
ATOM     13  N   UNL A   1      31.796  25.030  25.368  1.00  0.00    -0.324 N 
ATOM     14  C   UNL A   1      34.390  23.033  26.843  1.00  0.00     0.013 C 
ATOM     15  C   UNL A   1      33.847  23.806  25.638  1.00  0.00    -0.016 C 
ATOM     16  C   UNL A   1      35.039  24.197  24.749  1.00  0.00     0.013 C 
ATOM     17  C   UNL A   1      32.855  22.983  24.795  1.00  0.00     0.030 C 
ATOM     18  C   UNL A   1      33.033  25.025  26.126  1.00  0.00     0.127 C 
ATOM     19  C   UNL A   1      31.510  23.673  24.944  1.00  0.00     0.122 C 
ENDBRANCH  10  13
ENDBRANCH   7   9
BRANCH   7  20
ATOM     20  C   UNL A   1      30.057  28.683  23.121  1.00  0.00    -0.013 A 
ATOM     21  C   UNL A   1      30.282  29.759  22.235  1.00  0.00     0.007 A 
ATOM     22  C   UNL A   1      28.712  28.325  23.366  1.00  0.00     0.007 A 
ATOM     23  C   UNL A   1      29.221  30.433  21.626  1.00  0.00     0.000 A 
ATOM     24  C   UNL A   1      27.653  29.025  22.784  1.00  0.00     0.000 A 
ATOM     25  C   UNL A   1      27.907  30.078  21.913  1.00  0.00     0.000 A 
ENDBRANCH   7  20
ENDBRANCH   4   7
ENDBRANCH   2   3
ENDBRANCH   1   2
BRANCH   1  26
ATOM     26  C   UNL A   1      32.682  32.451  26.963  1.00  0.00     0.118 C 
BRANCH  26  27
ATOM     27  N   UNL A   1      32.461  33.826  27.387  1.00  0.00    -0.352 N 
ATOM     28  C   UNL A   1      33.028  34.540  28.413  1.00  0.00     0.251 C 
ATOM     29  H   UNL A   1      31.798  34.322  26.853  1.00  0.00     0.163 HD
ATOM     30  O   UNL A   1      32.542  35.612  28.751  1.00  0.00    -0.269 OA
BRANCH  28  31
ATOM     31  C   UNL A   1      34.215  34.017  29.122  1.00  0.00     0.039 A 
ATOM     32  C   UNL A   1      34.028  33.144  30.197  1.00  0.00     0.014 A 
ATOM     33  C   UNL A   1      35.505  34.413  28.758  1.00  0.00     0.014 A 
ATOM     34  C   UNL A   1      35.136  32.616  30.863  1.00  0.00     0.010 A 
ATOM     35  C   UNL A   1      36.610  33.828  29.374  1.00  0.00     0.010 A 
ATOM     36  C   UNL A   1      36.436  32.923  30.432  1.00  0.00    -0.014 A 
BRANCH  36  37
ATOM     37  C   UNL A   1      37.626  32.305  31.071  1.00  0.00     0.031 A 
ATOM     38  C   UNL A   1      38.386  31.216  30.365  1.00  0.00     0.074 A 
ATOM     39  C   UNL A   1      37.986  32.683  32.314  1.00  0.00     0.049 A 
ATOM     40  N   UNL A   1      39.395  30.499  30.790  1.00  0.00    -0.248 NA
ATOM     41  C   UNL A   1      37.938  30.871  29.005  1.00  0.00     0.031 C 
ATOM     42  C   UNL A   1      37.308  33.704  33.116  1.00  0.00     0.029 A 
ATOM     43  N   UNL A   1      39.004  32.249  33.126  1.00  0.00    -0.354 N 
ATOM     44  C   UNL A   1      39.698  29.620  29.758  1.00  0.00     0.074 A 
ATOM     45  C   UNL A   1      38.730  29.850  28.709  1.00  0.00     0.031 C 
ATOM     46  C   UNL A   1      37.940  33.832  34.294  1.00  0.00     0.029 A 
ATOM     47  C   UNL A   1      39.038  32.871  34.350  1.00  0.00     0.049 A 
ATOM     48  H   UNL A   1      39.649  31.555  32.856  1.00  0.00     0.167 HD
ATOM     49  C   UNL A   1      40.709  28.722  29.682  1.00  0.00     0.037 A 
ATOM     50  C   UNL A   1      39.853  32.679  35.406  1.00  0.00     0.037 A 
ATOM     51  C   UNL A   1      41.679  28.506  30.724  1.00  0.00     0.049 A 
ATOM     52  C   UNL A   1      40.940  31.639  35.307  1.00  0.00     0.074 A 
ATOM     53  C   UNL A   1      42.761  27.643  30.729  1.00  0.00     0.029 A 
ATOM     54  N   UNL A   1      41.681  29.158  31.949  1.00  0.00    -0.354 N 
ATOM     55  N   UNL A   1      41.252  30.858  34.302  1.00  0.00    -0.248 NA
ATOM     56  C   UNL A   1      41.791  31.458  36.493  1.00  0.00     0.031 C 
ATOM     57  C   UNL A   1      43.389  27.737  31.974  1.00  0.00     0.029 A 
ATOM     58  C   UNL A   1      42.734  28.700  32.724  1.00  0.00     0.049 A 
ATOM     59  H   UNL A   1      41.031  29.844  32.225  1.00  0.00     0.167 HD
ATOM     60  C   UNL A   1      42.354  30.123  34.720  1.00  0.00     0.074 A 
ATOM     61  C   UNL A   1      42.667  30.563  36.061  1.00  0.00     0.031 C 
ATOM     62  C   UNL A   1      43.042  29.165  34.052  1.00  0.00     0.037 A 
BRANCH  49  63
ATOM     63  C   UNL A   1      40.831  27.910  28.424  1.00  0.00     0.064 A 
ATOM     64  C   UNL A   1      41.611  28.349  27.344  1.00  0.00     0.173 A 
ATOM     65  C   UNL A   1      40.216  26.653  28.321  1.00  0.00     0.173 A 
ATOM     66  F   UNL A   1      42.214  29.547  27.387  1.00  0.00    -0.203 F 
ATOM     67  C   UNL A   1      41.754  27.569  26.199  1.00  0.00     0.198 A 
ATOM     68  C   UNL A   1      40.386  25.862  27.188  1.00  0.00     0.198 A 
ATOM     69  F   UNL A   1      39.464  26.183  29.328  1.00  0.00    -0.203 F 
ATOM     70  F   UNL A   1      42.472  28.026  25.164  1.00  0.00    -0.200 F 
ATOM     71  C   UNL A   1      41.150  26.322  26.126  1.00  0.00     0.200 A 
ATOM     72  F   UNL A   1      39.816  24.652  27.125  1.00  0.00    -0.200 F 
ATOM     73  F   UNL A   1      41.302  25.566  25.030  1.00  0.00    -0.200 F 
ENDBRANCH  49  63
BRANCH  50  74
ATOM     74  C   UNL A   1      39.685  33.482  36.647  1.00  0.00     0.064 A 
ATOM     75  C   UNL A   1      38.816  33.061  37.665  1.00  0.00     0.173 A 
ATOM     76  C   UNL A   1      40.352  34.702  36.825  1.00  0.00     0.173 A 
ATOM     77  F   UNL A   1      38.139  31.910  37.534  1.00  0.00    -0.203 F 
ATOM     78  C   UNL A   1      38.592  33.847  38.793  1.00  0.00     0.198 A 
ATOM     79  C   UNL A   1      40.154  35.471  37.971  1.00  0.00     0.198 A 
ATOM     80  F   UNL A   1      41.198  35.150  35.886  1.00  0.00    -0.203 F 
ATOM     81  F   UNL A   1      37.706  33.452  39.717  1.00  0.00    -0.200 F 
ATOM     82  C   UNL A   1      39.264  35.051  38.946  1.00  0.00     0.200 A 
ATOM     83  F   UNL A   1      40.818  36.625  38.122  1.00  0.00    -0.200 F 
ATOM     84  F   UNL A   1      39.044  35.810  40.029  1.00  0.00    -0.200 F 
ENDBRANCH  50  74
BRANCH  62  85
ATOM     85  C   UNL A   1      44.233  28.562  34.742  1.00  0.00     0.064 A 
ATOM     86  C   UNL A   1      44.127  27.393  35.511  1.00  0.00     0.173 A 
ATOM     87  C   UNL A   1      45.504  29.139  34.596  1.00  0.00     0.173 A 
ATOM     88  F   UNL A   1      42.931  26.813  35.695  1.00  0.00    -0.203 F 
ATOM     89  C   UNL A   1      45.245  26.840  36.129  1.00  0.00     0.198 A 
ATOM     90  C   UNL A   1      46.625  28.563  35.185  1.00  0.00     0.198 A 
ATOM     91  F   UNL A   1      45.661  30.253  33.865  1.00  0.00    -0.203 F 
ATOM     92  F   UNL A   1      45.112  25.753  36.900  1.00  0.00    -0.200 F 
ATOM     93  C   UNL A   1      46.494  27.420  35.958  1.00  0.00     0.200 A 
ATOM     94  F   UNL A   1      47.833  29.115  35.006  1.00  0.00    -0.200 F 
ATOM     95  F   UNL A   1      47.571  26.878  36.545  1.00  0.00    -0.200 F 
ENDBRANCH  62  85
ENDBRANCH  36  37
ENDBRANCH  28  31
ENDBRANCH  26  27
ENDBRANCH   1  26
TORSDOF 13
ENDMDL
MODEL 3
REMARK VINA RESULT:     -12.5      5.623     10.970
REMARK SMILES CC1(C)CCN(C(=O)N[C@](C)(C(=O)NCCCNC(=O)c2ccc(-c3c4nc(c(-c5c(F)c(F)c(F)c(F)c5F)c5ccc([nH]5)c(-c5c(F)c(F)c(F)c(F)c5F)c5nc(c(-c6c(F)c(F)c(F)c(F)c6F)c6ccc3[nH]6)C=C5)C=C4)cc2)c2ccccc2)C1
REMARK SMILES IDX 16 1 15 2 14 3 12 4 13 5 10 7 11 8 9 9 7 10 8 11 6 13 1 14
REMARK SMILES IDX 2 15 3 16 4 17 90 18 5 19 84 20 85 21 89 22 86 23 88 24
REMARK SMILES IDX 87 25 17 26 18 27 19 28 20 30 21 31 22 32 83 33 23 34 82 35
REMARK SMILES IDX 24 36 25 37 26 38 76 39 27 40 81 41 75 42 77 43 28 44 80 45
REMARK SMILES IDX 74 46 73 47 29 49 61 50 41 51 60 52 42 53 45 54 59 55 78 56
REMARK SMILES IDX 43 57 44 58 58 60 79 61 46 62 30 63 31 64 39 65 32 66 33 67
REMARK SMILES IDX 37 68 40 69 34 70 35 71 38 72 36 73 62 74 63 75 71 76 64 77
REMARK SMILES IDX 65 78 69 79 72 80 66 81 67 82 70 83 68 84 47 85 48 86 56 87
REMARK SMILES IDX 49 88 50 89 54 90 57 91 51 92 52 93 55 94 53 95
REMARK H PARENT 14 6 9 12 18 29 77 48 45 59
REMARK Flexibility Score: inf
ROOT
ATOM      1  C   UNL A   1      38.032  19.819  25.001  1.00  0.00     0.042 C 
ENDROOT
BRANCH   1   2
ATOM      2  C   UNL A   1      36.829  20.769  24.982  1.00  0.00     0.117 C 
BRANCH   2   3
ATOM      3  N   UNL A   1      37.026  21.852  24.039  1.00  0.00    -0.354 N 
ATOM      4  C   UNL A   1      36.223  22.866  23.610  1.00  0.00     0.250 C 
ATOM      5  O   UNL A   1      36.412  23.143  22.417  1.00  0.00    -0.272 OA
ATOM      6  H   UNL A   1      37.920  21.856  23.626  1.00  0.00     0.163 HD
BRANCH   4   7
ATOM      7  C   UNL A   1      35.105  23.583  24.501  1.00  0.00     0.143 C 
ATOM      8  C   UNL A   1      35.729  23.972  25.864  1.00  0.00     0.051 C 
BRANCH   7   9
ATOM      9  N   UNL A   1      34.740  24.892  23.872  1.00  0.00    -0.320 N 
ATOM     10  C   UNL A   1      33.759  25.318  23.056  1.00  0.00     0.318 C 
ATOM     11  O   UNL A   1      34.147  25.831  22.000  1.00  0.00    -0.249 OA
ATOM     12  H   UNL A   1      35.368  25.611  24.112  1.00  0.00     0.166 HD
BRANCH  10  13
ATOM     13  N   UNL A   1      32.451  25.379  23.430  1.00  0.00    -0.324 N 
ATOM     14  C   UNL A   1      29.258  26.959  23.875  1.00  0.00     0.013 C 
ATOM     15  C   UNL A   1      30.289  25.922  24.329  1.00  0.00    -0.016 C 
ATOM     16  C   UNL A   1      30.028  25.612  25.812  1.00  0.00     0.013 C 
ATOM     17  C   UNL A   1      30.207  24.607  23.530  1.00  0.00     0.030 C 
ATOM     18  C   UNL A   1      31.714  26.455  24.065  1.00  0.00     0.127 C 
ATOM     19  C   UNL A   1      31.507  24.513  22.750  1.00  0.00     0.122 C 
ENDBRANCH  10  13
ENDBRANCH   7   9
BRANCH   7  20
ATOM     20  C   UNL A   1      33.923  22.614  24.723  1.00  0.00    -0.013 A 
ATOM     21  C   UNL A   1      33.144  22.703  25.897  1.00  0.00     0.007 A 
ATOM     22  C   UNL A   1      33.575  21.603  23.800  1.00  0.00     0.007 A 
ATOM     23  C   UNL A   1      32.076  21.835  26.130  1.00  0.00     0.000 A 
ATOM     24  C   UNL A   1      32.529  20.712  24.052  1.00  0.00     0.000 A 
ATOM     25  C   UNL A   1      31.778  20.829  25.216  1.00  0.00     0.000 A 
ENDBRANCH   7  20
ENDBRANCH   4   7
ENDBRANCH   2   3
ENDBRANCH   1   2
BRANCH   1  26
ATOM     26  C   UNL A   1      39.114  20.181  26.021  1.00  0.00     0.118 C 
BRANCH  26  27
ATOM     27  N   UNL A   1      40.191  19.203  26.065  1.00  0.00    -0.352 N 
ATOM     28  C   UNL A   1      41.550  19.383  26.126  1.00  0.00     0.251 C 
ATOM     29  H   UNL A   1      39.898  18.263  26.048  1.00  0.00     0.163 HD
ATOM     30  O   UNL A   1      42.300  18.436  25.924  1.00  0.00    -0.269 OA
BRANCH  28  31
ATOM     31  C   UNL A   1      42.116  20.717  26.422  1.00  0.00     0.039 A 
ATOM     32  C   UNL A   1      42.461  21.554  25.359  1.00  0.00     0.014 A 
ATOM     33  C   UNL A   1      42.344  21.127  27.738  1.00  0.00     0.014 A 
ATOM     34  C   UNL A   1      42.970  22.829  25.615  1.00  0.00     0.010 A 
ATOM     35  C   UNL A   1      42.782  22.425  27.995  1.00  0.00     0.010 A 
ATOM     36  C   UNL A   1      43.099  23.289  26.936  1.00  0.00    -0.014 A 
BRANCH  36  37
ATOM     37  C   UNL A   1      43.557  24.672  27.229  1.00  0.00     0.031 A 
ATOM     38  C   UNL A   1      42.586  25.699  27.744  1.00  0.00     0.074 A 
ATOM     39  C   UNL A   1      44.834  25.017  26.973  1.00  0.00     0.049 A 
ATOM     40  N   UNL A   1      42.774  26.973  27.979  1.00  0.00    -0.248 NA
ATOM     41  C   UNL A   1      41.213  25.237  28.011  1.00  0.00     0.031 C 
ATOM     42  C   UNL A   1      45.862  24.121  26.441  1.00  0.00     0.029 A 
ATOM     43  N   UNL A   1      45.487  26.217  27.118  1.00  0.00    -0.354 N 
ATOM     44  C   UNL A   1      41.550  27.463  28.414  1.00  0.00     0.074 A 
ATOM     45  C   UNL A   1      40.610  26.366  28.355  1.00  0.00     0.031 C 
ATOM     46  C   UNL A   1      47.018  24.793  26.324  1.00  0.00     0.029 A 
ATOM     47  C   UNL A   1      46.804  26.179  26.728  1.00  0.00     0.049 A 
ATOM     48  H   UNL A   1      45.051  27.027  27.468  1.00  0.00     0.167 HD
ATOM     49  C   UNL A   1      41.245  28.708  28.850  1.00  0.00     0.037 A 
ATOM     50  C   UNL A   1      47.730  27.157  26.686  1.00  0.00     0.037 A 
ATOM     51  C   UNL A   1      42.188  29.794  28.922  1.00  0.00     0.049 A 
ATOM     52  C   UNL A   1      47.347  28.544  27.134  1.00  0.00     0.074 A 
ATOM     53  C   UNL A   1      41.985  31.084  29.381  1.00  0.00     0.029 A 
ATOM     54  N   UNL A   1      43.513  29.716  28.519  1.00  0.00    -0.354 N 
ATOM     55  N   UNL A   1      46.202  28.978  27.601  1.00  0.00    -0.248 NA
ATOM     56  C   UNL A   1      48.390  29.576  27.054  1.00  0.00     0.031 C 
ATOM     57  C   UNL A   1      43.173  31.800  29.211  1.00  0.00     0.029 A 
ATOM     58  C   UNL A   1      44.134  30.942  28.700  1.00  0.00     0.049 A 
ATOM     59  H   UNL A   1      43.948  28.910  28.159  1.00  0.00     0.167 HD
ATOM     60  C   UNL A   1      46.398  30.320  27.902  1.00  0.00     0.074 A 
ATOM     61  C   UNL A   1      47.775  30.623  27.583  1.00  0.00     0.031 C 
ATOM     62  C   UNL A   1      45.513  31.221  28.395  1.00  0.00     0.037 A 
BRANCH  49  63
ATOM     63  C   UNL A   1      39.835  28.967  29.300  1.00  0.00     0.064 A 
ATOM     64  C   UNL A   1      38.852  29.409  28.402  1.00  0.00     0.173 A 
ATOM     65  C   UNL A   1      39.447  28.710  30.624  1.00  0.00     0.173 A 
ATOM     66  F   UNL A   1      39.172  29.679  27.127  1.00  0.00    -0.203 F 
ATOM     67  C   UNL A   1      37.537  29.604  28.818  1.00  0.00     0.198 A 
ATOM     68  C   UNL A   1      38.125  28.877  31.028  1.00  0.00     0.198 A 
ATOM     69  F   UNL A   1      40.346  28.279  31.521  1.00  0.00    -0.203 F 
ATOM     70  F   UNL A   1      36.624  30.065  27.953  1.00  0.00    -0.200 F 
ATOM     71  C   UNL A   1      37.173  29.328  30.127  1.00  0.00     0.200 A 
ATOM     72  F   UNL A   1      37.771  28.594  32.289  1.00  0.00    -0.200 F 
ATOM     73  F   UNL A   1      35.904  29.501  30.522  1.00  0.00    -0.200 F 
ENDBRANCH  49  63
BRANCH  50  74
ATOM     74  C   UNL A   1      49.109  26.871  26.207  1.00  0.00     0.064 A 
ATOM     75  C   UNL A   1      49.455  27.045  24.859  1.00  0.00     0.173 A 
ATOM     76  C   UNL A   1      50.097  26.379  27.073  1.00  0.00     0.173 A 
ATOM     77  F   UNL A   1      48.541  27.494  23.986  1.00  0.00    -0.203 F 
ATOM     78  C   UNL A   1      50.721  26.703  24.389  1.00  0.00     0.198 A 
ATOM     79  C   UNL A   1      51.374  26.070  26.607  1.00  0.00     0.198 A 
ATOM     80  F   UNL A   1      49.823  26.198  28.373  1.00  0.00    -0.203 F 
ATOM     81  F   UNL A   1      51.001  26.816  23.083  1.00  0.00    -0.200 F 
ATOM     82  C   UNL A   1      51.680  26.218  25.264  1.00  0.00     0.200 A 
ATOM     83  F   UNL A   1      52.304  25.619  27.461  1.00  0.00    -0.200 F 
ATOM     84  F   UNL A   1      52.896  25.883  24.811  1.00  0.00    -0.200 F 
ENDBRANCH  50  74
BRANCH  62  85
ATOM     85  C   UNL A   1      46.020  32.609  28.667  1.00  0.00     0.064 A 
ATOM     86  C   UNL A   1      46.612  32.951  29.892  1.00  0.00     0.173 A 
ATOM     87  C   UNL A   1      45.951  33.596  27.672  1.00  0.00     0.173 A 
ATOM     88  F   UNL A   1      46.687  32.048  30.881  1.00  0.00    -0.203 F 
ATOM     89  C   UNL A   1      47.091  34.238  30.119  1.00  0.00     0.198 A 
ATOM     90  C   UNL A   1      46.464  34.871  27.890  1.00  0.00     0.198 A 
ATOM     91  F   UNL A   1      45.401  33.318  26.480  1.00  0.00    -0.203 F 
ATOM     92  F   UNL A   1      47.607  34.558  31.314  1.00  0.00    -0.200 F 
ATOM     93  C   UNL A   1      47.026  35.194  29.115  1.00  0.00     0.200 A 
ATOM     94  F   UNL A   1      46.414  35.788  26.914  1.00  0.00    -0.200 F 
ATOM     95  F   UNL A   1      47.498  36.429  29.333  1.00  0.00    -0.200 F 
ENDBRANCH  62  85
ENDBRANCH  36  37
ENDBRANCH  28  31
ENDBRANCH  26  27
ENDBRANCH   1  26
TORSDOF 13
ENDMDL
