MODEL 1
REMARK VINA RESULT:     -10.5      0.000      0.000
REMARK SMILES CCCCCCC(=O)N1C[C@@H](O)C[C@@H]1C(=O)NCCCNC(=O)c1ccc(-c2c3nc(c(-c4c(F)c(F)c(F)c(F)c4F)c4ccc([nH]4)c(-c4c(F)c(F)c(F)c(F)c4F)c4nc(c(-c5c(F)c(F)c(F)c(F)c5F)c5ccc2[nH]5)C=C4)C=C3)cc1
REMARK SMILES IDX 15 1 16 2 17 3 14 5 9 6 10 7 11 8 13 9 7 10 8 11 6 12 5 13
REMARK SMILES IDX 4 14 3 15 2 16 1 17 12 18 18 20 19 21 20 22 21 23 22 24
REMARK SMILES IDX 23 26 24 27 25 28 86 29 26 30 85 31 27 32 28 33 29 34 79 35
REMARK SMILES IDX 30 36 84 37 78 38 80 39 31 40 83 41 77 42 76 43 32 45 64 46
REMARK SMILES IDX 44 47 63 48 45 49 48 50 62 51 81 52 46 53 47 54 61 56 82 57
REMARK SMILES IDX 49 58 33 59 34 60 42 61 35 62 36 63 40 64 43 65 37 66 38 67
REMARK SMILES IDX 41 68 39 69 65 70 66 71 74 72 67 73 68 74 72 75 75 76 69 77
REMARK SMILES IDX 70 78 73 79 71 80 50 81 51 82 59 83 52 84 53 85 57 86 60 87
REMARK SMILES IDX 54 88 55 89 58 90 56 91
REMARK H PARENT 17 4 12 19 21 25 80 44 48 55
REMARK Flexibility Score: inf
ROOT
ATOM      1  C   UNL A   1      35.912  22.288  25.564  1.00  0.00     0.242 C 
ATOM      2  O   UNL A   1      35.751  23.126  26.455  1.00  0.00    -0.273 OA
ATOM      3  N   UNL A   1      37.114  21.642  25.520  1.00  0.00    -0.354 N 
ATOM      4  H   UNL A   1      37.674  21.742  26.323  1.00  0.00     0.163 HD
ENDROOT
BRANCH   1   5
ATOM      5  C   UNL A   1      34.843  22.017  24.489  1.00  0.00     0.177 C 
ATOM      6  N   UNL A   1      33.813  23.068  24.512  1.00  0.00    -0.328 N 
ATOM      7  C   UNL A   1      32.520  22.450  24.715  1.00  0.00     0.152 C 
ATOM      8  C   UNL A   1      32.815  21.172  25.479  1.00  0.00     0.136 C 
ATOM      9  C   UNL A   1      34.099  20.707  24.808  1.00  0.00     0.069 C 
BRANCH   6  10
ATOM     10  C   UNL A   1      33.930  24.190  23.712  1.00  0.00     0.223 C 
ATOM     11  O   UNL A   1      34.075  24.112  22.494  1.00  0.00    -0.275 OA
BRANCH  10  12
ATOM     12  C   UNL A   1      34.089  25.513  24.455  1.00  0.00     0.100 C 
BRANCH  12  13
ATOM     13  C   UNL A   1      32.916  26.485  24.457  1.00  0.00     0.010 C 
BRANCH  13  14
ATOM     14  C   UNL A   1      33.226  27.931  24.834  1.00  0.00     0.001 C 
BRANCH  14  15
ATOM     15  C   UNL A   1      33.983  28.122  26.157  1.00  0.00    -0.000 C 
BRANCH  15  16
ATOM     16  C   UNL A   1      33.192  28.816  27.260  1.00  0.00    -0.003 C 
ATOM     17  C   UNL A   1      31.779  28.268  27.371  1.00  0.00     0.004 C 
ENDBRANCH  15  16
ENDBRANCH  14  15
ENDBRANCH  13  14
ENDBRANCH  12  13
ENDBRANCH  10  12
ENDBRANCH   6  10
BRANCH   8  18
ATOM     18  O   UNL A   1      31.778  20.212  25.377  1.00  0.00    -0.391 OA
ATOM     19  H   UNL A   1      32.144  19.325  25.518  1.00  0.00     0.211 HD
ENDBRANCH   8  18
ENDBRANCH   1   5
BRANCH   3  20
ATOM     20  C   UNL A   1      37.689  20.832  24.461  1.00  0.00     0.117 C 
BRANCH  20  21
ATOM     21  C   UNL A   1      38.344  19.581  25.034  1.00  0.00     0.042 C 
BRANCH  21  22
ATOM     22  C   UNL A   1      39.365  19.850  26.128  1.00  0.00     0.118 C 
BRANCH  22  23
ATOM     23  N   UNL A   1      40.494  18.937  26.075  1.00  0.00    -0.352 N 
ATOM     24  C   UNL A   1      41.838  19.202  26.103  1.00  0.00     0.251 C 
ATOM     25  H   UNL A   1      40.257  17.984  26.008  1.00  0.00     0.163 HD
ATOM     26  O   UNL A   1      42.639  18.296  25.860  1.00  0.00    -0.269 OA
BRANCH  24  27
ATOM     27  C   UNL A   1      42.342  20.560  26.402  1.00  0.00     0.039 A 
ATOM     28  C   UNL A   1      42.688  21.397  25.337  1.00  0.00     0.014 A 
ATOM     29  C   UNL A   1      42.510  21.004  27.717  1.00  0.00     0.014 A 
ATOM     30  C   UNL A   1      43.150  22.692  25.588  1.00  0.00     0.010 A 
ATOM     31  C   UNL A   1      42.888  22.322  27.965  1.00  0.00     0.010 A 
ATOM     32  C   UNL A   1      43.223  23.177  26.904  1.00  0.00    -0.014 A 
BRANCH  32  33
ATOM     33  C   UNL A   1      43.672  24.563  27.194  1.00  0.00     0.031 A 
ATOM     34  C   UNL A   1      42.687  25.584  27.693  1.00  0.00     0.074 A 
ATOM     35  C   UNL A   1      44.950  24.919  26.957  1.00  0.00     0.049 A 
ATOM     36  N   UNL A   1      42.856  26.863  27.917  1.00  0.00    -0.248 NA
ATOM     37  C   UNL A   1      41.318  25.108  27.954  1.00  0.00     0.031 C 
ATOM     38  C   UNL A   1      45.996  24.032  26.446  1.00  0.00     0.029 A 
ATOM     39  N   UNL A   1      45.585  26.128  27.105  1.00  0.00    -0.354 N 
ATOM     40  C   UNL A   1      41.620  27.342  28.331  1.00  0.00     0.074 A 
ATOM     41  C   UNL A   1      40.694  26.232  28.270  1.00  0.00     0.031 C 
ATOM     42  C   UNL A   1      47.144  24.719  26.342  1.00  0.00     0.029 A 
ATOM     43  C   UNL A   1      46.907  26.105  26.733  1.00  0.00     0.049 A 
ATOM     44  H   UNL A   1      45.135  26.935  27.444  1.00  0.00     0.167 HD
ATOM     45  C   UNL A   1      41.292  28.588  28.751  1.00  0.00     0.037 A 
ATOM     46  C   UNL A   1      47.820  27.094  26.699  1.00  0.00     0.037 A 
ATOM     47  C   UNL A   1      42.219  29.686  28.827  1.00  0.00     0.049 A 
ATOM     48  C   UNL A   1      47.420  28.479  27.135  1.00  0.00     0.074 A 
ATOM     49  C   UNL A   1      41.994  30.977  29.270  1.00  0.00     0.029 A 
ATOM     50  N   UNL A   1      43.553  29.619  28.450  1.00  0.00    -0.354 N 
ATOM     51  N   UNL A   1      46.261  28.908  27.574  1.00  0.00    -0.248 NA
ATOM     52  C   UNL A   1      48.458  29.519  27.073  1.00  0.00     0.031 C 
ATOM     53  C   UNL A   1      43.178  31.706  29.117  1.00  0.00     0.029 A 
ATOM     54  C   UNL A   1      44.157  30.854  28.632  1.00  0.00     0.049 A 
ATOM     55  H   UNL A   1      44.003  28.816  28.104  1.00  0.00     0.167 HD
ATOM     56  C   UNL A   1      46.439  30.251  27.875  1.00  0.00     0.074 A 
ATOM     57  C   UNL A   1      47.821  30.566  27.579  1.00  0.00     0.031 C 
ATOM     58  C   UNL A   1      45.539  31.145  28.354  1.00  0.00     0.037 A 
BRANCH  45  59
ATOM     59  C   UNL A   1      39.869  28.827  29.167  1.00  0.00     0.064 A 
ATOM     60  C   UNL A   1      38.894  29.241  28.247  1.00  0.00     0.173 A 
ATOM     61  C   UNL A   1      39.465  28.604  30.492  1.00  0.00     0.173 A 
ATOM     62  F   UNL A   1      39.228  29.479  26.970  1.00  0.00    -0.203 F 
ATOM     63  C   UNL A   1      37.575  29.452  28.644  1.00  0.00     0.198 A 
ATOM     64  C   UNL A   1      38.138  28.784  30.878  1.00  0.00     0.198 A 
ATOM     65  F   UNL A   1      40.353  28.201  31.413  1.00  0.00    -0.203 F 
ATOM     66  F   UNL A   1      36.674  29.898  27.757  1.00  0.00    -0.200 F 
ATOM     67  C   UNL A   1      37.197  29.216  29.957  1.00  0.00     0.200 A 
ATOM     68  F   UNL A   1      37.771  28.541  32.144  1.00  0.00    -0.200 F 
ATOM     69  F   UNL A   1      35.927  29.411  30.335  1.00  0.00    -0.200 F 
ENDBRANCH  45  59
BRANCH  46  70
ATOM     70  C   UNL A   1      49.211  26.815  26.249  1.00  0.00     0.064 A 
ATOM     71  C   UNL A   1      49.583  26.990  24.909  1.00  0.00     0.173 A 
ATOM     72  C   UNL A   1      50.187  26.343  27.140  1.00  0.00     0.173 A 
ATOM     73  F   UNL A   1      48.681  27.418  24.015  1.00  0.00    -0.203 F 
ATOM     74  C   UNL A   1      50.869  26.677  24.472  1.00  0.00     0.198 A 
ATOM     75  C   UNL A   1      51.481  26.062  26.708  1.00  0.00     0.198 A 
ATOM     76  F   UNL A   1      49.885  26.162  28.435  1.00  0.00    -0.203 F 
ATOM     77  F   UNL A   1      51.180  26.800  23.174  1.00  0.00    -0.200 F 
ATOM     78  C   UNL A   1      51.818  26.218  25.372  1.00  0.00     0.200 A 
ATOM     79  F   UNL A   1      52.400  25.632  27.584  1.00  0.00    -0.200 F 
ATOM     80  F   UNL A   1      53.054  25.915  24.950  1.00  0.00    -0.200 F 
ENDBRANCH  46  70
BRANCH  58  81
ATOM     81  C   UNL A   1      46.030  32.535  28.640  1.00  0.00     0.064 A 
ATOM     82  C   UNL A   1      46.590  32.882  29.877  1.00  0.00     0.173 A 
ATOM     83  C   UNL A   1      45.982  33.520  27.641  1.00  0.00     0.173 A 
ATOM     84  F   UNL A   1      46.645  31.983  30.871  1.00  0.00    -0.203 F 
ATOM     85  C   UNL A   1      47.062  34.172  30.112  1.00  0.00     0.198 A 
ATOM     86  C   UNL A   1      46.485  34.797  27.868  1.00  0.00     0.198 A 
ATOM     87  F   UNL A   1      45.462  33.237  26.437  1.00  0.00    -0.203 F 
ATOM     88  F   UNL A   1      47.550  34.495  31.317  1.00  0.00    -0.200 F 
ATOM     89  C   UNL A   1      47.017  35.124  29.105  1.00  0.00     0.200 A 
ATOM     90  F   UNL A   1      46.455  35.711  26.887  1.00  0.00    -0.200 F 
ATOM     91  F   UNL A   1      47.483  36.360  29.329  1.00  0.00    -0.200 F 
ENDBRANCH  58  81
ENDBRANCH  32  33
ENDBRANCH  24  27
ENDBRANCH  22  23
ENDBRANCH  21  22
ENDBRANCH  20  21
ENDBRANCH   3  20
TORSDOF 17
ENDMDL
MODEL 2
REMARK VINA RESULT:     -10.5      5.900     11.392
REMARK SMILES CCCCCCC(=O)N1C[C@@H](O)C[C@@H]1C(=O)NCCCNC(=O)c1ccc(-c2c3nc(c(-c4c(F)c(F)c(F)c(F)c4F)c4ccc([nH]4)c(-c4c(F)c(F)c(F)c(F)c4F)c4nc(c(-c5c(F)c(F)c(F)c(F)c5F)c5ccc2[nH]5)C=C4)C=C3)cc1
REMARK SMILES IDX 15 1 16 2 17 3 14 5 9 6 10 7 11 8 13 9 7 10 8 11 6 12 5 13
REMARK SMILES IDX 4 14 3 15 2 16 1 17 12 18 18 20 19 21 20 22 21 23 22 24
REMARK SMILES IDX 23 26 24 27 25 28 86 29 26 30 85 31 27 32 28 33 29 34 79 35
REMARK SMILES IDX 30 36 84 37 78 38 80 39 31 40 83 41 77 42 76 43 32 45 64 46
REMARK SMILES IDX 44 47 63 48 45 49 48 50 62 51 81 52 46 53 47 54 61 56 82 57
REMARK SMILES IDX 49 58 33 59 34 60 42 61 35 62 36 63 40 64 43 65 37 66 38 67
REMARK SMILES IDX 41 68 39 69 65 70 66 71 74 72 67 73 68 74 72 75 75 76 69 77
REMARK SMILES IDX 70 78 73 79 71 80 50 81 51 82 59 83 52 84 53 85 57 86 60 87
REMARK SMILES IDX 54 88 55 89 58 90 56 91
REMARK H PARENT 17 4 12 19 21 25 80 44 48 55
REMARK Flexibility Score: inf
ROOT
ATOM      1  C   UNL A   1      32.791  29.041  25.494  1.00  0.00     0.242 C 
ATOM      2  O   UNL A   1      33.961  28.675  25.354  1.00  0.00    -0.273 OA
ATOM      3  N   UNL A   1      32.581  30.273  26.045  1.00  0.00    -0.354 N 
ATOM      4  H   UNL A   1      33.374  30.854  26.089  1.00  0.00     0.163 HD
ENDROOT
BRANCH   1   5
ATOM      5  C   UNL A   1      31.600  28.133  25.141  1.00  0.00     0.177 C 
ATOM      6  N   UNL A   1      32.063  26.768  24.845  1.00  0.00    -0.328 N 
ATOM      7  C   UNL A   1      31.621  26.401  23.516  1.00  0.00     0.152 C 
ATOM      8  C   UNL A   1      31.502  27.717  22.769  1.00  0.00     0.136 C 
ATOM      9  C   UNL A   1      30.929  28.627  23.845  1.00  0.00     0.069 C 
BRANCH   6  10
ATOM     10  C   UNL A   1      32.133  25.813  25.842  1.00  0.00     0.223 C 
ATOM     11  O   UNL A   1      31.434  25.869  26.852  1.00  0.00    -0.275 OA
BRANCH  10  12
ATOM     12  C   UNL A   1      33.279  24.814  25.718  1.00  0.00     0.100 C 
BRANCH  12  13
ATOM     13  C   UNL A   1      33.162  23.485  26.451  1.00  0.00     0.010 C 
BRANCH  13  14
ATOM     14  C   UNL A   1      34.453  22.898  27.016  1.00  0.00     0.001 C 
BRANCH  14  15
ATOM     15  C   UNL A   1      35.081  21.764  26.191  1.00  0.00    -0.000 C 
BRANCH  15  16
ATOM     16  C   UNL A   1      36.468  22.062  25.633  1.00  0.00    -0.003 C 
ATOM     17  C   UNL A   1      36.845  23.525  25.808  1.00  0.00     0.004 C 
ENDBRANCH  15  16
ENDBRANCH  14  15
ENDBRANCH  13  14
ENDBRANCH  12  13
ENDBRANCH  10  12
ENDBRANCH   6  10
BRANCH   8  18
ATOM     18  O   UNL A   1      30.662  27.636  21.631  1.00  0.00    -0.391 OA
ATOM     19  H   UNL A   1      29.829  28.098  21.811  1.00  0.00     0.211 HD
ENDBRANCH   8  18
ENDBRANCH   1   5
BRANCH   3  20
ATOM     20  C   UNL A   1      31.359  30.850  26.576  1.00  0.00     0.117 C 
BRANCH  20  21
ATOM     21  C   UNL A   1      31.407  32.371  26.506  1.00  0.00     0.042 C 
BRANCH  21  22
ATOM     22  C   UNL A   1      32.650  32.992  27.124  1.00  0.00     0.118 C 
BRANCH  22  23
ATOM     23  N   UNL A   1      32.414  34.336  27.623  1.00  0.00    -0.352 N 
ATOM     24  C   UNL A   1      32.989  34.992  28.680  1.00  0.00     0.251 C 
ATOM     25  H   UNL A   1      31.739  34.852  27.128  1.00  0.00     0.163 HD
ATOM     26  O   UNL A   1      32.516  36.068  29.055  1.00  0.00    -0.269 OA
BRANCH  24  27
ATOM     27  C   UNL A   1      34.155  34.422  29.389  1.00  0.00     0.039 A 
ATOM     28  C   UNL A   1      33.942  33.739  30.591  1.00  0.00     0.014 A 
ATOM     29  C   UNL A   1      35.455  34.583  28.903  1.00  0.00     0.014 A 
ATOM     30  C   UNL A   1      35.023  33.174  31.273  1.00  0.00     0.010 A 
ATOM     31  C   UNL A   1      36.521  33.947  29.538  1.00  0.00     0.010 A 
ATOM     32  C   UNL A   1      36.318  33.246  30.736  1.00  0.00    -0.014 A 
BRANCH  32  33
ATOM     33  C   UNL A   1      37.477  32.618  31.422  1.00  0.00     0.031 A 
ATOM     34  C   UNL A   1      38.199  31.467  30.778  1.00  0.00     0.074 A 
ATOM     35  C   UNL A   1      37.845  33.044  32.646  1.00  0.00     0.049 A 
ATOM     36  N   UNL A   1      39.170  30.725  31.250  1.00  0.00    -0.248 NA
ATOM     37  C   UNL A   1      37.754  31.080  29.429  1.00  0.00     0.031 C 
ATOM     38  C   UNL A   1      37.209  34.132  33.390  1.00  0.00     0.029 A 
ATOM     39  N   UNL A   1      38.839  32.607  33.486  1.00  0.00    -0.354 N 
ATOM     40  C   UNL A   1      39.441  29.783  30.265  1.00  0.00     0.074 A 
ATOM     41  C   UNL A   1      38.494  30.006  29.195  1.00  0.00     0.031 C 
ATOM     42  C   UNL A   1      37.839  34.290  34.565  1.00  0.00     0.029 A 
ATOM     43  C   UNL A   1      38.893  33.286  34.679  1.00  0.00     0.049 A 
ATOM     44  H   UNL A   1      39.455  31.874  33.255  1.00  0.00     0.167 HD
ATOM     45  C   UNL A   1      40.410  28.837  30.243  1.00  0.00     0.037 A 
ATOM     46  C   UNL A   1      39.693  33.109  35.747  1.00  0.00     0.037 A 
ATOM     47  C   UNL A   1      41.361  28.628  31.302  1.00  0.00     0.049 A 
ATOM     48  C   UNL A   1      40.737  32.024  35.712  1.00  0.00     0.074 A 
ATOM     49  C   UNL A   1      42.402  27.718  31.362  1.00  0.00     0.029 A 
ATOM     50  N   UNL A   1      41.388  29.344  32.491  1.00  0.00    -0.354 N 
ATOM     51  N   UNL A   1      41.017  31.174  34.754  1.00  0.00    -0.248 NA
ATOM     52  C   UNL A   1      41.578  31.876  36.909  1.00  0.00     0.031 C 
ATOM     53  C   UNL A   1      43.029  27.850  32.605  1.00  0.00     0.029 A 
ATOM     54  C   UNL A   1      42.416  28.881  33.298  1.00  0.00     0.049 A 
ATOM     55  H   UNL A   1      40.769  30.072  32.726  1.00  0.00     0.167 HD
ATOM     56  C   UNL A   1      42.087  30.419  35.214  1.00  0.00     0.074 A 
ATOM     57  C   UNL A   1      42.414  30.917  36.534  1.00  0.00     0.031 C 
ATOM     58  C   UNL A   1      42.742  29.403  34.599  1.00  0.00     0.037 A 
BRANCH  45  59
ATOM     59  C   UNL A   1      40.492  27.956  29.029  1.00  0.00     0.064 A 
ATOM     60  C   UNL A   1      41.322  28.277  27.944  1.00  0.00     0.173 A 
ATOM     61  C   UNL A   1      39.763  26.759  28.964  1.00  0.00     0.173 A 
ATOM     62  F   UNL A   1      42.033  29.415  27.951  1.00  0.00    -0.203 F 
ATOM     63  C   UNL A   1      41.396  27.448  26.827  1.00  0.00     0.198 A 
ATOM     64  C   UNL A   1      39.864  25.916  27.859  1.00  0.00     0.198 A 
ATOM     65  F   UNL A   1      38.958  26.399  29.975  1.00  0.00    -0.203 F 
ATOM     66  F   UNL A   1      42.156  27.803  25.782  1.00  0.00    -0.200 F 
ATOM     67  C   UNL A   1      40.673  26.265  26.788  1.00  0.00     0.200 A 
ATOM     68  F   UNL A   1      39.177  24.766  27.830  1.00  0.00    -0.200 F 
ATOM     69  F   UNL A   1      40.752  25.465  25.717  1.00  0.00    -0.200 F 
ENDBRANCH  45  59
BRANCH  46  70
ATOM     70  C   UNL A   1      39.553  33.987  36.941  1.00  0.00     0.064 A 
ATOM     71  C   UNL A   1      40.200  35.229  37.000  1.00  0.00     0.173 A 
ATOM     72  C   UNL A   1      38.794  33.593  38.053  1.00  0.00     0.173 A 
ATOM     73  F   UNL A   1      40.954  35.641  35.971  1.00  0.00    -0.203 F 
ATOM     74  C   UNL A   1      40.117  36.031  38.137  1.00  0.00     0.198 A 
ATOM     75  C   UNL A   1      38.686  34.410  39.177  1.00  0.00     0.198 A 
ATOM     76  F   UNL A   1      38.151  32.416  38.046  1.00  0.00    -0.203 F 
ATOM     77  F   UNL A   1      40.792  37.187  38.189  1.00  0.00    -0.200 F 
ATOM     78  C   UNL A   1      39.357  35.623  39.223  1.00  0.00     0.200 A 
ATOM     79  F   UNL A   1      37.938  34.019  40.218  1.00  0.00    -0.200 F 
ATOM     80  F   UNL A   1      39.279  36.393  40.317  1.00  0.00    -0.200 F 
ENDBRANCH  46  70
BRANCH  58  81
ATOM     81  C   UNL A   1      43.911  28.796  35.321  1.00  0.00     0.064 A 
ATOM     82  C   UNL A   1      45.217  29.273  35.146  1.00  0.00     0.173 A 
ATOM     83  C   UNL A   1      43.709  27.753  36.239  1.00  0.00     0.173 A 
ATOM     84  F   UNL A   1      45.465  30.258  34.270  1.00  0.00    -0.203 F 
ATOM     85  C   UNL A   1      46.283  28.711  35.845  1.00  0.00     0.198 A 
ATOM     86  C   UNL A   1      44.771  27.217  36.960  1.00  0.00     0.198 A 
ATOM     87  F   UNL A   1      42.477  27.265  36.448  1.00  0.00    -0.203 F 
ATOM     88  F   UNL A   1      47.530  29.151  35.628  1.00  0.00    -0.200 F 
ATOM     89  C   UNL A   1      46.058  27.691  36.758  1.00  0.00     0.200 A 
ATOM     90  F   UNL A   1      44.549  26.242  37.853  1.00  0.00    -0.200 F 
ATOM     91  F   UNL A   1      47.083  27.161  37.438  1.00  0.00    -0.200 F 
ENDBRANCH  58  81
ENDBRANCH  32  33
ENDBRANCH  24  27
ENDBRANCH  22  23
ENDBRANCH  21  22
ENDBRANCH  20  21
ENDBRANCH   3  20
TORSDOF 17
ENDMDL
MODEL 3
REMARK VINA RESULT:     -10.5      5.793     11.317
REMARK SMILES CCCCCCC(=O)N1C[C@@H](O)C[C@@H]1C(=O)NCCCNC(=O)c1ccc(-c2c3nc(c(-c4c(F)c(F)c(F)c(F)c4F)c4ccc([nH]4)c(-c4c(F)c(F)c(F)c(F)c4F)c4nc(c(-c5c(F)c(F)c(F)c(F)c5F)c5ccc2[nH]5)C=C4)C=C3)cc1
REMARK SMILES IDX 15 1 16 2 17 3 14 5 9 6 10 7 11 8 13 9 7 10 8 11 6 12 5 13
REMARK SMILES IDX 4 14 3 15 2 16 1 17 12 18 18 20 19 21 20 22 21 23 22 24
REMARK SMILES IDX 23 26 24 27 25 28 86 29 26 30 85 31 27 32 28 33 29 34 79 35
REMARK SMILES IDX 30 36 84 37 78 38 80 39 31 40 83 41 77 42 76 43 32 45 64 46
REMARK SMILES IDX 44 47 63 48 45 49 48 50 62 51 81 52 46 53 47 54 61 56 82 57
REMARK SMILES IDX 49 58 33 59 34 60 42 61 35 62 36 63 40 64 43 65 37 66 38 67
REMARK SMILES IDX 41 68 39 69 65 70 66 71 74 72 67 73 68 74 72 75 75 76 69 77
REMARK SMILES IDX 70 78 73 79 71 80 50 81 51 82 59 83 52 84 53 85 57 86 60 87
REMARK SMILES IDX 54 88 55 89 58 90 56 91
REMARK H PARENT 17 4 12 19 21 25 80 44 48 55
REMARK Flexibility Score: inf
ROOT
ATOM      1  C   UNL A   1      32.811  28.954  25.536  1.00  0.00     0.242 C 
ATOM      2  O   UNL A   1      33.975  28.578  25.384  1.00  0.00    -0.273 OA
ATOM      3  N   UNL A   1      32.616  30.172  26.122  1.00  0.00    -0.354 N 
ATOM      4  H   UNL A   1      33.417  30.741  26.183  1.00  0.00     0.163 HD
ENDROOT
BRANCH   1   5
ATOM      5  C   UNL A   1      31.607  28.071  25.158  1.00  0.00     0.177 C 
ATOM      6  N   UNL A   1      32.036  26.679  24.949  1.00  0.00    -0.328 N 
ATOM      7  C   UNL A   1      31.652  26.267  23.615  1.00  0.00     0.152 C 
ATOM      8  C   UNL A   1      31.622  27.551  22.805  1.00  0.00     0.136 C 
ATOM      9  C   UNL A   1      31.026  28.528  23.806  1.00  0.00     0.069 C 
BRANCH   6  10
ATOM     10  C   UNL A   1      32.017  25.770  25.990  1.00  0.00     0.223 C 
ATOM     11  O   UNL A   1      31.149  25.790  26.860  1.00  0.00    -0.275 OA
BRANCH  10  12
ATOM     12  C   UNL A   1      33.254  24.886  26.114  1.00  0.00     0.100 C 
BRANCH  12  13
ATOM     13  C   UNL A   1      34.415  25.131  25.159  1.00  0.00     0.010 C 
BRANCH  13  14
ATOM     14  C   UNL A   1      34.752  24.004  24.186  1.00  0.00     0.001 C 
BRANCH  14  15
ATOM     15  C   UNL A   1      33.846  22.766  24.269  1.00  0.00    -0.000 C 
BRANCH  15  16
ATOM     16  C   UNL A   1      34.508  21.517  24.840  1.00  0.00    -0.003 C 
ATOM     17  C   UNL A   1      33.654  20.278  24.626  1.00  0.00     0.004 C 
ENDBRANCH  15  16
ENDBRANCH  14  15
ENDBRANCH  13  14
ENDBRANCH  12  13
ENDBRANCH  10  12
ENDBRANCH   6  10
BRANCH   8  18
ATOM     18  O   UNL A   1      30.843  27.446  21.627  1.00  0.00    -0.391 OA
ATOM     19  H   UNL A   1      30.403  26.582  21.606  1.00  0.00     0.211 HD
ENDBRANCH   8  18
ENDBRANCH   1   5
BRANCH   3  20
ATOM     20  C   UNL A   1      31.402  30.749  26.670  1.00  0.00     0.117 C 
BRANCH  20  21
ATOM     21  C   UNL A   1      31.431  32.268  26.563  1.00  0.00     0.042 C 
BRANCH  21  22
ATOM     22  C   UNL A   1      32.695  32.915  27.110  1.00  0.00     0.118 C 
BRANCH  22  23
ATOM     23  N   UNL A   1      32.459  34.252  27.628  1.00  0.00    -0.352 N 
ATOM     24  C   UNL A   1      33.038  34.896  28.689  1.00  0.00     0.251 C 
ATOM     25  H   UNL A   1      31.780  34.774  27.142  1.00  0.00     0.163 HD
ATOM     26  O   UNL A   1      32.565  35.966  29.081  1.00  0.00    -0.269 OA
BRANCH  24  27
ATOM     27  C   UNL A   1      34.209  34.319  29.385  1.00  0.00     0.039 A 
ATOM     28  C   UNL A   1      33.992  33.494  30.494  1.00  0.00     0.014 A 
ATOM     29  C   UNL A   1      35.514  34.609  28.981  1.00  0.00     0.014 A 
ATOM     30  C   UNL A   1      35.078  32.920  31.160  1.00  0.00     0.010 A 
ATOM     31  C   UNL A   1      36.592  33.969  29.591  1.00  0.00     0.010 A 
ATOM     32  C   UNL A   1      36.386  33.127  30.695  1.00  0.00    -0.014 A 
BRANCH  32  33
ATOM     33  C   UNL A   1      37.554  32.495  31.361  1.00  0.00     0.031 A 
ATOM     34  C   UNL A   1      38.288  31.370  30.685  1.00  0.00     0.074 A 
ATOM     35  C   UNL A   1      37.921  32.894  32.595  1.00  0.00     0.049 A 
ATOM     36  N   UNL A   1      39.269  30.628  31.135  1.00  0.00    -0.248 NA
ATOM     37  C   UNL A   1      37.844  31.014  29.328  1.00  0.00     0.031 C 
ATOM     38  C   UNL A   1      37.274  33.954  33.369  1.00  0.00     0.029 A 
ATOM     39  N   UNL A   1      38.922  32.446  33.420  1.00  0.00    -0.354 N 
ATOM     40  C   UNL A   1      39.547  29.715  30.125  1.00  0.00     0.074 A 
ATOM     41  C   UNL A   1      38.595  29.955  29.064  1.00  0.00     0.031 C 
ATOM     42  C   UNL A   1      37.906  34.088  34.546  1.00  0.00     0.029 A 
ATOM     43  C   UNL A   1      38.972  33.094  34.630  1.00  0.00     0.049 A 
ATOM     44  H   UNL A   1      39.546  31.727  33.169  1.00  0.00     0.167 HD
ATOM     45  C   UNL A   1      40.527  28.781  30.076  1.00  0.00     0.037 A 
ATOM     46  C   UNL A   1      39.777  32.899  35.692  1.00  0.00     0.037 A 
ATOM     47  C   UNL A   1      41.484  28.556  31.127  1.00  0.00     0.049 A 
ATOM     48  C   UNL A   1      40.833  31.827  35.626  1.00  0.00     0.074 A 
ATOM     49  C   UNL A   1      42.536  27.657  31.159  1.00  0.00     0.029 A 
ATOM     50  N   UNL A   1      41.506  29.240  32.334  1.00  0.00    -0.354 N 
ATOM     51  N   UNL A   1      41.121  31.006  34.645  1.00  0.00    -0.248 NA
ATOM     52  C   UNL A   1      41.679  31.658  36.816  1.00  0.00     0.031 C 
ATOM     53  C   UNL A   1      43.165  27.763  32.404  1.00  0.00     0.029 A 
ATOM     54  C   UNL A   1      42.542  28.768  33.125  1.00  0.00     0.049 A 
ATOM     55  H   UNL A   1      40.879  29.954  32.590  1.00  0.00     0.167 HD
ATOM     56  C   UNL A   1      42.200  30.252  35.083  1.00  0.00     0.074 A 
ATOM     57  C   UNL A   1      42.525  30.719  36.414  1.00  0.00     0.031 C 
ATOM     58  C   UNL A   1      42.865  29.260  34.439  1.00  0.00     0.037 A 
BRANCH  45  59
ATOM     59  C   UNL A   1      40.616  27.934  28.839  1.00  0.00     0.064 A 
ATOM     60  C   UNL A   1      39.877  26.748  28.706  1.00  0.00     0.173 A 
ATOM     61  C   UNL A   1      41.417  28.330  27.757  1.00  0.00     0.173 A 
ATOM     62  F   UNL A   1      39.103  26.318  29.714  1.00  0.00    -0.203 F 
ATOM     63  C   UNL A   1      39.962  25.975  27.550  1.00  0.00     0.198 A 
ATOM     64  C   UNL A   1      41.474  27.572  26.589  1.00  0.00     0.198 A 
ATOM     65  F   UNL A   1      42.140  29.459  27.827  1.00  0.00    -0.203 F 
ATOM     66  F   UNL A   1      39.288  24.820  27.468  1.00  0.00    -0.200 F 
ATOM     67  C   UNL A   1      40.754  26.391  26.490  1.00  0.00     0.200 A 
ATOM     68  F   UNL A   1      42.227  27.984  25.561  1.00  0.00    -0.200 F 
ATOM     69  F   UNL A   1      40.827  25.651  25.376  1.00  0.00    -0.200 F 
ENDBRANCH  45  59
BRANCH  46  70
ATOM     70  C   UNL A   1      39.630  33.743  36.909  1.00  0.00     0.064 A 
ATOM     71  C   UNL A   1      38.804  33.343  37.968  1.00  0.00     0.173 A 
ATOM     72  C   UNL A   1      40.289  34.976  37.026  1.00  0.00     0.173 A 
ATOM     73  F   UNL A   1      38.135  32.183  37.893  1.00  0.00    -0.203 F 
ATOM     74  C   UNL A   1      38.620  34.155  39.085  1.00  0.00     0.198 A 
ATOM     75  C   UNL A   1      40.130  35.773  38.158  1.00  0.00     0.198 A 
ATOM     76  F   UNL A   1      41.095  35.405  36.043  1.00  0.00    -0.203 F 
ATOM     77  F   UNL A   1      37.780  33.774  40.057  1.00  0.00    -0.200 F 
ATOM     78  C   UNL A   1      39.286  35.367  39.182  1.00  0.00     0.200 A 
ATOM     79  F   UNL A   1      40.788  36.937  38.254  1.00  0.00    -0.200 F 
ATOM     80  F   UNL A   1      39.108  36.149  40.255  1.00  0.00    -0.200 F 
ENDBRANCH  46  70
BRANCH  58  81
ATOM     81  C   UNL A   1      44.043  28.648  35.142  1.00  0.00     0.064 A 
ATOM     82  C   UNL A   1      43.915  27.507  35.946  1.00  0.00     0.173 A 
ATOM     83  C   UNL A   1      45.327  29.187  34.965  1.00  0.00     0.173 A 
ATOM     84  F   UNL A   1      42.708  26.963  36.159  1.00  0.00    -0.203 F 
ATOM     85  C   UNL A   1      45.026  26.942  36.567  1.00  0.00     0.198 A 
ATOM     86  C   UNL A   1      46.440  28.600  35.561  1.00  0.00     0.198 A 
ATOM     87  F   UNL A   1      45.505  30.274  34.200  1.00  0.00    -0.203 F 
ATOM     88  F   UNL A   1      44.874  25.879  37.369  1.00  0.00    -0.200 F 
ATOM     89  C   UNL A   1      46.287  27.483  36.367  1.00  0.00     0.200 A 
ATOM     90  F   UNL A   1      47.660  29.115  35.352  1.00  0.00    -0.200 F 
ATOM     91  F   UNL A   1      47.356  26.930  36.956  1.00  0.00    -0.200 F 
ENDBRANCH  58  81
ENDBRANCH  32  33
ENDBRANCH  24  27
ENDBRANCH  22  23
ENDBRANCH  21  22
ENDBRANCH  20  21
ENDBRANCH   3  20
TORSDOF 17
ENDMDL
