MODEL 1
REMARK VINA RESULT:     -11.9      0.000      0.000
REMARK SMILES C[C@H](C(=O)NCCCNC(=O)c1ccc(-c2c3nc(c(-c4c(F)c(F)c(F)c(F)c4F)c4ccc([nH]4)c(-c4c(F)c(F)c(F)c(F)c4F)c4nc(c(-c5c(F)c(F)c(F)c(F)c5F)c5ccc2[nH]5)C=C4)C=C3)cc1)[C@H](C)S(=O)(=O)C1CCOCC1
REMARK SMILES IDX 6 1 5 2 3 3 4 4 2 6 1 7 75 8 76 9 77 10 78 11 79 12 80 13
REMARK SMILES IDX 81 14 85 15 82 16 84 17 83 18 7 19 8 20 9 21 10 22 11 24
REMARK SMILES IDX 12 25 13 26 74 27 14 28 73 29 15 30 16 31 17 32 67 33 18 34
REMARK SMILES IDX 72 35 66 36 68 37 19 38 71 39 65 40 64 41 20 43 52 44 32 45
REMARK SMILES IDX 51 46 33 47 36 48 50 49 69 50 34 51 35 52 49 54 70 55 37 56
REMARK SMILES IDX 21 57 22 58 30 59 23 60 24 61 28 62 31 63 25 64 26 65 29 66
REMARK SMILES IDX 27 67 53 68 54 69 62 70 55 71 56 72 60 73 63 74 57 75 58 76
REMARK SMILES IDX 61 77 59 78 38 79 39 80 47 81 40 82 41 83 45 84 48 85 42 86
REMARK SMILES IDX 43 87 46 88 44 89
REMARK H PARENT 5 5 9 23 68 42 36 53
REMARK Flexibility Score: inf
ROOT
ATOM      1  C   UNL A   1      36.757  19.910  24.928  1.00  0.00     0.117 C 
ENDROOT
BRANCH   1   2
ATOM      2  N   UNL A   1      36.870  21.269  25.433  1.00  0.00    -0.356 N 
ATOM      3  C   UNL A   1      35.948  22.228  25.730  1.00  0.00     0.224 C 
ATOM      4  O   UNL A   1      36.376  23.333  26.071  1.00  0.00    -0.275 OA
ATOM      5  H   UNL A   1      37.798  21.554  25.592  1.00  0.00     0.163 HD
BRANCH   3   6
ATOM      6  C   UNL A   1      34.441  21.940  25.726  1.00  0.00     0.093 C 
ATOM      7  C   UNL A   1      33.749  23.217  26.254  1.00  0.00     0.019 C 
BRANCH   6   8
ATOM      8  C   UNL A   1      33.902  21.577  24.320  1.00  0.00     0.118 C 
ATOM      9  C   UNL A   1      33.455  22.739  23.418  1.00  0.00     0.026 C 
BRANCH   8  10
ATOM     10  S   UNL A   1      32.654  20.274  24.236  1.00  0.00     0.156 S 
ATOM     11  O   UNL A   1      31.716  20.548  25.309  1.00  0.00    -0.228 OA
ATOM     12  O   UNL A   1      32.135  20.285  22.881  1.00  0.00    -0.228 OA
BRANCH  10  13
ATOM     13  C   UNL A   1      33.346  18.608  24.537  1.00  0.00     0.113 C 
ATOM     14  C   UNL A   1      33.448  17.836  23.213  1.00  0.00     0.048 C 
ATOM     15  C   UNL A   1      32.667  17.725  25.582  1.00  0.00     0.048 C 
ATOM     16  C   UNL A   1      34.052  16.456  23.418  1.00  0.00     0.161 C 
ATOM     17  C   UNL A   1      33.350  16.367  25.669  1.00  0.00     0.161 C 
ATOM     18  O   UNL A   1      33.320  15.728  24.401  1.00  0.00    -0.381 OA
ENDBRANCH  10  13
ENDBRANCH   8  10
ENDBRANCH   6   8
ENDBRANCH   3   6
ENDBRANCH   1   2
BRANCH   1  19
ATOM     19  C   UNL A   1      38.093  19.168  24.925  1.00  0.00     0.042 C 
BRANCH  19  20
ATOM     20  C   UNL A   1      39.179  19.863  25.731  1.00  0.00     0.118 C 
BRANCH  20  21
ATOM     21  N   UNL A   1      40.323  18.987  25.931  1.00  0.00    -0.352 N 
ATOM     22  C   UNL A   1      41.654  19.301  26.074  1.00  0.00     0.251 C 
ATOM     23  H   UNL A   1      40.113  18.026  25.970  1.00  0.00     0.163 HD
ATOM     24  O   UNL A   1      42.497  18.425  25.897  1.00  0.00    -0.269 OA
BRANCH  22  25
ATOM     25  C   UNL A   1      42.088  20.677  26.424  1.00  0.00     0.039 A 
ATOM     26  C   UNL A   1      42.263  21.015  27.771  1.00  0.00     0.014 A 
ATOM     27  C   UNL A   1      42.266  21.657  25.446  1.00  0.00     0.014 A 
ATOM     28  C   UNL A   1      42.670  22.306  28.125  1.00  0.00     0.010 A 
ATOM     29  C   UNL A   1      42.772  22.908  25.790  1.00  0.00     0.010 A 
ATOM     30  C   UNL A   1      42.964  23.256  27.134  1.00  0.00    -0.014 A 
BRANCH  30  31
ATOM     31  C   UNL A   1      43.448  24.623  27.472  1.00  0.00     0.031 A 
ATOM     32  C   UNL A   1      42.485  25.656  27.996  1.00  0.00     0.074 A 
ATOM     33  C   UNL A   1      44.731  24.960  27.233  1.00  0.00     0.049 A 
ATOM     34  N   UNL A   1      42.682  26.929  28.239  1.00  0.00    -0.248 NA
ATOM     35  C   UNL A   1      41.106  25.209  28.252  1.00  0.00     0.031 C 
ATOM     36  C   UNL A   1      45.753  24.067  26.686  1.00  0.00     0.029 A 
ATOM     37  N   UNL A   1      45.392  26.153  27.399  1.00  0.00    -0.354 N 
ATOM     38  C   UNL A   1      41.452  27.434  28.642  1.00  0.00     0.074 A 
ATOM     39  C   UNL A   1      40.503  26.346  28.569  1.00  0.00     0.031 C 
ATOM     40  C   UNL A   1      46.913  24.735  26.578  1.00  0.00     0.029 A 
ATOM     41  C   UNL A   1      46.706  26.118  26.997  1.00  0.00     0.049 A 
ATOM     42  H   UNL A   1      44.965  26.958  27.772  1.00  0.00     0.167 HD
ATOM     43  C   UNL A   1      41.146  28.687  29.054  1.00  0.00     0.037 A 
ATOM     44  C   UNL A   1      47.634  27.094  26.948  1.00  0.00     0.037 A 
ATOM     45  C   UNL A   1      42.104  29.755  29.166  1.00  0.00     0.049 A 
ATOM     46  C   UNL A   1      47.260  28.482  27.401  1.00  0.00     0.074 A 
ATOM     47  C   UNL A   1      41.914  31.032  29.664  1.00  0.00     0.029 A 
ATOM     48  N   UNL A   1      43.429  29.673  28.766  1.00  0.00    -0.354 N 
ATOM     49  N   UNL A   1      46.118  28.922  27.870  1.00  0.00    -0.248 NA
ATOM     50  C   UNL A   1      48.308  29.511  27.319  1.00  0.00     0.031 C 
ATOM     51  C   UNL A   1      43.106  31.744  29.504  1.00  0.00     0.029 A 
ATOM     52  C   UNL A   1      44.058  30.892  28.968  1.00  0.00     0.049 A 
ATOM     53  H   UNL A   1      43.859  28.870  28.394  1.00  0.00     0.167 HD
ATOM     54  C   UNL A   1      46.317  30.265  28.162  1.00  0.00     0.074 A 
ATOM     55  C   UNL A   1      47.694  30.564  27.839  1.00  0.00     0.031 C 
ATOM     56  C   UNL A   1      45.435  31.170  28.652  1.00  0.00     0.037 A 
BRANCH  43  57
ATOM     57  C   UNL A   1      39.719  28.985  29.415  1.00  0.00     0.064 A 
ATOM     58  C   UNL A   1      38.781  29.395  28.454  1.00  0.00     0.173 A 
ATOM     59  C   UNL A   1      39.267  28.795  30.730  1.00  0.00     0.173 A 
ATOM     60  F   UNL A   1      39.159  29.600  27.184  1.00  0.00    -0.203 F 
ATOM     61  C   UNL A   1      37.452  29.625  28.803  1.00  0.00     0.198 A 
ATOM     62  C   UNL A   1      37.931  28.993  31.067  1.00  0.00     0.198 A 
ATOM     63  F   UNL A   1      40.119  28.396  31.686  1.00  0.00    -0.203 F 
ATOM     64  F   UNL A   1      36.584  30.058  27.877  1.00  0.00    -0.200 F 
ATOM     65  C   UNL A   1      37.026  29.415  30.105  1.00  0.00     0.200 A 
ATOM     66  F   UNL A   1      37.518  28.773  32.323  1.00  0.00    -0.200 F 
ATOM     67  F   UNL A   1      35.743  29.622  30.435  1.00  0.00    -0.200 F 
ENDBRANCH  43  57
BRANCH  44  68
ATOM     68  C   UNL A   1      49.005  26.804  26.448  1.00  0.00     0.064 A 
ATOM     69  C   UNL A   1      49.334  26.988  25.097  1.00  0.00     0.173 A 
ATOM     70  C   UNL A   1      50.006  26.311  27.297  1.00  0.00     0.173 A 
ATOM     71  F   UNL A   1      48.407  27.438  24.238  1.00  0.00    -0.203 F 
ATOM     72  C   UNL A   1      50.597  26.659  24.610  1.00  0.00     0.198 A 
ATOM     73  C   UNL A   1      51.280  26.016  26.817  1.00  0.00     0.198 A 
ATOM     74  F   UNL A   1      49.747  26.119  28.600  1.00  0.00    -0.203 F 
ATOM     75  F   UNL A   1      50.863  26.785  23.303  1.00  0.00    -0.200 F 
ATOM     76  C   UNL A   1      51.572  26.177  25.471  1.00  0.00     0.200 A 
ATOM     77  F   UNL A   1      52.223  25.567  27.656  1.00  0.00    -0.200 F 
ATOM     78  F   UNL A   1      52.786  25.860  25.003  1.00  0.00    -0.200 F 
ENDBRANCH  44  68
BRANCH  56  79
ATOM     79  C   UNL A   1      45.937  32.563  28.904  1.00  0.00     0.064 A 
ATOM     80  C   UNL A   1      45.819  33.574  27.939  1.00  0.00     0.173 A 
ATOM     81  C   UNL A   1      46.487  32.904  30.149  1.00  0.00     0.173 A 
ATOM     82  F   UNL A   1      45.315  33.296  26.728  1.00  0.00    -0.203 F 
ATOM     83  C   UNL A   1      46.251  34.870  28.206  1.00  0.00     0.198 A 
ATOM     84  C   UNL A   1      46.886  34.208  30.424  1.00  0.00     0.198 A 
ATOM     85  F   UNL A   1      46.615  31.975  31.110  1.00  0.00    -0.203 F 
ATOM     86  F   UNL A   1      46.169  35.811  27.255  1.00  0.00    -0.200 F 
ATOM     87  C   UNL A   1      46.773  35.189  29.451  1.00  0.00     0.200 A 
ATOM     88  F   UNL A   1      47.374  34.518  31.634  1.00  0.00    -0.200 F 
ATOM     89  F   UNL A   1      47.173  36.442  29.711  1.00  0.00    -0.200 F 
ENDBRANCH  56  79
ENDBRANCH  30  31
ENDBRANCH  22  25
ENDBRANCH  20  21
ENDBRANCH  19  20
ENDBRANCH   1  19
TORSDOF 13
ENDMDL
MODEL 2
REMARK VINA RESULT:     -11.9      6.374     10.554
REMARK SMILES C[C@H](C(=O)NCCCNC(=O)c1ccc(-c2c3nc(c(-c4c(F)c(F)c(F)c(F)c4F)c4ccc([nH]4)c(-c4c(F)c(F)c(F)c(F)c4F)c4nc(c(-c5c(F)c(F)c(F)c(F)c5F)c5ccc2[nH]5)C=C4)C=C3)cc1)[C@H](C)S(=O)(=O)C1CCOCC1
REMARK SMILES IDX 6 1 5 2 3 3 4 4 2 6 1 7 75 8 76 9 77 10 78 11 79 12 80 13
REMARK SMILES IDX 81 14 85 15 82 16 84 17 83 18 7 19 8 20 9 21 10 22 11 24
REMARK SMILES IDX 12 25 13 26 74 27 14 28 73 29 15 30 16 31 17 32 67 33 18 34
REMARK SMILES IDX 72 35 66 36 68 37 19 38 71 39 65 40 64 41 20 43 52 44 32 45
REMARK SMILES IDX 51 46 33 47 36 48 50 49 69 50 34 51 35 52 49 54 70 55 37 56
REMARK SMILES IDX 21 57 22 58 30 59 23 60 24 61 28 62 31 63 25 64 26 65 29 66
REMARK SMILES IDX 27 67 53 68 54 69 62 70 55 71 56 72 60 73 63 74 57 75 58 76
REMARK SMILES IDX 61 77 59 78 38 79 39 80 47 81 40 82 41 83 45 84 48 85 42 86
REMARK SMILES IDX 43 87 46 88 44 89
REMARK H PARENT 5 5 9 23 68 42 36 53
REMARK Flexibility Score: inf
ROOT
ATOM      1  C   UNL A   1      33.767  35.046  29.279  1.00  0.00     0.117 C 
ENDROOT
BRANCH   1   2
ATOM      2  N   UNL A   1      32.745  35.308  30.280  1.00  0.00    -0.356 N 
ATOM      3  C   UNL A   1      32.795  35.511  31.627  1.00  0.00     0.224 C 
ATOM      4  O   UNL A   1      31.720  35.630  32.218  1.00  0.00    -0.275 OA
ATOM      5  H   UNL A   1      31.833  35.346  29.910  1.00  0.00     0.163 HD
BRANCH   3   6
ATOM      6  C   UNL A   1      34.123  35.670  32.377  1.00  0.00     0.093 C 
ATOM      7  C   UNL A   1      33.948  36.879  33.326  1.00  0.00     0.019 C 
BRANCH   6   8
ATOM      8  C   UNL A   1      34.514  34.406  33.183  1.00  0.00     0.118 C 
ATOM      9  C   UNL A   1      35.152  34.624  34.565  1.00  0.00     0.026 C 
BRANCH   8  10
ATOM     10  S   UNL A   1      35.458  33.140  32.308  1.00  0.00     0.156 S 
ATOM     11  O   UNL A   1      36.160  32.386  33.330  1.00  0.00    -0.228 OA
ATOM     12  O   UNL A   1      34.511  32.415  31.482  1.00  0.00    -0.228 OA
BRANCH  10  13
ATOM     13  C   UNL A   1      36.723  33.844  31.190  1.00  0.00     0.113 C 
ATOM     14  C   UNL A   1      37.007  32.866  30.040  1.00  0.00     0.048 C 
ATOM     15  C   UNL A   1      38.047  34.301  31.799  1.00  0.00     0.048 C 
ATOM     16  C   UNL A   1      38.032  33.432  29.069  1.00  0.00     0.161 C 
ATOM     17  C   UNL A   1      38.989  34.818  30.721  1.00  0.00     0.161 C 
ATOM     18  O   UNL A   1      39.224  33.803  29.756  1.00  0.00    -0.381 OA
ENDBRANCH  10  13
ENDBRANCH   8  10
ENDBRANCH   6   8
ENDBRANCH   3   6
ENDBRANCH   1   2
BRANCH   1  19
ATOM     19  C   UNL A   1      33.360  33.951  28.292  1.00  0.00     0.042 C 
BRANCH  19  20
ATOM     20  C   UNL A   1      34.413  32.870  28.112  1.00  0.00     0.118 C 
BRANCH  20  21
ATOM     21  N   UNL A   1      33.825  31.651  27.581  1.00  0.00    -0.352 N 
ATOM     22  C   UNL A   1      34.402  30.422  27.358  1.00  0.00     0.251 C 
ATOM     23  H   UNL A   1      32.870  31.714  27.345  1.00  0.00     0.163 HD
ATOM     24  O   UNL A   1      33.846  29.629  26.603  1.00  0.00    -0.269 OA
BRANCH  22  25
ATOM     25  C   UNL A   1      35.686  30.047  28.002  1.00  0.00     0.039 A 
ATOM     26  C   UNL A   1      35.674  29.567  29.317  1.00  0.00     0.014 A 
ATOM     27  C   UNL A   1      36.907  30.218  27.348  1.00  0.00     0.014 A 
ATOM     28  C   UNL A   1      36.873  29.208  29.944  1.00  0.00     0.010 A 
ATOM     29  C   UNL A   1      38.087  29.762  27.933  1.00  0.00     0.010 A 
ATOM     30  C   UNL A   1      38.089  29.267  29.244  1.00  0.00    -0.014 A 
BRANCH  30  31
ATOM     31  C   UNL A   1      39.375  28.845  29.863  1.00  0.00     0.031 A 
ATOM     32  C   UNL A   1      39.946  29.622  31.021  1.00  0.00     0.074 A 
ATOM     33  C   UNL A   1      40.070  27.818  29.336  1.00  0.00     0.049 A 
ATOM     34  N   UNL A   1      41.103  29.489  31.622  1.00  0.00    -0.248 NA
ATOM     35  C   UNL A   1      39.122  30.718  31.557  1.00  0.00     0.031 C 
ATOM     36  C   UNL A   1      39.649  27.012  28.188  1.00  0.00     0.029 A 
ATOM     37  N   UNL A   1      41.288  27.285  29.683  1.00  0.00    -0.354 N 
ATOM     38  C   UNL A   1      41.154  30.497  32.576  1.00  0.00     0.074 A 
ATOM     39  C   UNL A   1      39.936  31.264  32.448  1.00  0.00     0.031 C 
ATOM     40  C   UNL A   1      40.583  26.081  27.936  1.00  0.00     0.029 A 
ATOM     41  C   UNL A   1      41.692  26.254  28.869  1.00  0.00     0.049 A 
ATOM     42  H   UNL A   1      41.822  27.612  30.443  1.00  0.00     0.167 HD
ATOM     43  C   UNL A   1      42.121  30.748  33.491  1.00  0.00     0.037 A 
ATOM     44  C   UNL A   1      42.837  25.543  28.859  1.00  0.00     0.037 A 
ATOM     45  C   UNL A   1      43.313  29.955  33.643  1.00  0.00     0.049 A 
ATOM     46  C   UNL A   1      43.900  25.854  29.880  1.00  0.00     0.074 A 
ATOM     47  C   UNL A   1      44.305  30.068  34.600  1.00  0.00     0.029 A 
ATOM     48  N   UNL A   1      43.675  28.907  32.811  1.00  0.00    -0.354 N 
ATOM     49  N   UNL A   1      43.895  26.749  30.838  1.00  0.00    -0.248 NA
ATOM     50  C   UNL A   1      45.133  25.053  29.819  1.00  0.00     0.031 C 
ATOM     51  C   UNL A   1      45.302  29.133  34.307  1.00  0.00     0.029 A 
ATOM     52  C   UNL A   1      44.900  28.393  33.208  1.00  0.00     0.049 A 
ATOM     53  H   UNL A   1      43.143  28.577  32.051  1.00  0.00     0.167 HD
ATOM     54  C   UNL A   1      45.103  26.601  31.507  1.00  0.00     0.074 A 
ATOM     55  C   UNL A   1      45.809  25.517  30.860  1.00  0.00     0.031 C 
ATOM     56  C   UNL A   1      45.584  27.303  32.561  1.00  0.00     0.037 A 
BRANCH  43  57
ATOM     57  C   UNL A   1      41.945  31.929  34.402  1.00  0.00     0.064 A 
ATOM     58  C   UNL A   1      42.427  33.204  34.066  1.00  0.00     0.173 A 
ATOM     59  C   UNL A   1      41.225  31.797  35.599  1.00  0.00     0.173 A 
ATOM     60  F   UNL A   1      43.128  33.386  32.937  1.00  0.00    -0.203 F 
ATOM     61  C   UNL A   1      42.215  34.295  34.906  1.00  0.00     0.198 A 
ATOM     62  C   UNL A   1      40.987  32.897  36.420  1.00  0.00     0.198 A 
ATOM     63  F   UNL A   1      40.735  30.604  35.965  1.00  0.00    -0.203 F 
ATOM     64  F   UNL A   1      42.722  35.493  34.585  1.00  0.00    -0.200 F 
ATOM     65  C   UNL A   1      41.488  34.143  36.077  1.00  0.00     0.200 A 
ATOM     66  F   UNL A   1      40.269  32.750  37.543  1.00  0.00    -0.200 F 
ATOM     67  F   UNL A   1      41.272  35.197  36.876  1.00  0.00    -0.200 F 
ENDBRANCH  43  57
BRANCH  44  68
ATOM     68  C   UNL A   1      43.048  24.470  27.849  1.00  0.00     0.064 A 
ATOM     69  C   UNL A   1      43.604  24.760  26.595  1.00  0.00     0.173 A 
ATOM     70  C   UNL A   1      42.671  23.143  28.100  1.00  0.00     0.173 A 
ATOM     71  F   UNL A   1      43.961  26.018  26.295  1.00  0.00    -0.203 F 
ATOM     72  C   UNL A   1      43.745  23.772  25.622  1.00  0.00     0.198 A 
ATOM     73  C   UNL A   1      42.846  22.148  27.141  1.00  0.00     0.198 A 
ATOM     74  F   UNL A   1      42.138  22.809  29.285  1.00  0.00    -0.203 F 
ATOM     75  F   UNL A   1      44.221  24.090  24.411  1.00  0.00    -0.200 F 
ATOM     76  C   UNL A   1      43.371  22.465  25.897  1.00  0.00     0.200 A 
ATOM     77  F   UNL A   1      42.499  20.884  27.417  1.00  0.00    -0.200 F 
ATOM     78  F   UNL A   1      43.505  21.516  24.962  1.00  0.00    -0.200 F 
ENDBRANCH  44  68
BRANCH  56  79
ATOM     79  C   UNL A   1      46.924  26.903  33.108  1.00  0.00     0.064 A 
ATOM     80  C   UNL A   1      47.052  25.905  34.085  1.00  0.00     0.173 A 
ATOM     81  C   UNL A   1      48.098  27.482  32.601  1.00  0.00     0.173 A 
ATOM     82  F   UNL A   1      45.960  25.332  34.613  1.00  0.00    -0.203 F 
ATOM     83  C   UNL A   1      48.306  25.517  34.549  1.00  0.00     0.198 A 
ATOM     84  C   UNL A   1      49.351  27.066  33.043  1.00  0.00     0.198 A 
ATOM     85  F   UNL A   1      48.031  28.434  31.659  1.00  0.00    -0.203 F 
ATOM     86  F   UNL A   1      48.403  24.593  35.516  1.00  0.00    -0.200 F 
ATOM     87  C   UNL A   1      49.454  26.089  34.021  1.00  0.00     0.200 A 
ATOM     88  F   UNL A   1      50.459  27.607  32.517  1.00  0.00    -0.200 F 
ATOM     89  F   UNL A   1      50.660  25.701  34.457  1.00  0.00    -0.200 F 
ENDBRANCH  56  79
ENDBRANCH  30  31
ENDBRANCH  22  25
ENDBRANCH  20  21
ENDBRANCH  19  20
ENDBRANCH   1  19
TORSDOF 13
ENDMDL
MODEL 3
REMARK VINA RESULT:     -11.8      6.570     11.703
REMARK SMILES C[C@H](C(=O)NCCCNC(=O)c1ccc(-c2c3nc(c(-c4c(F)c(F)c(F)c(F)c4F)c4ccc([nH]4)c(-c4c(F)c(F)c(F)c(F)c4F)c4nc(c(-c5c(F)c(F)c(F)c(F)c5F)c5ccc2[nH]5)C=C4)C=C3)cc1)[C@H](C)S(=O)(=O)C1CCOCC1
REMARK SMILES IDX 6 1 5 2 3 3 4 4 2 6 1 7 75 8 76 9 77 10 78 11 79 12 80 13
REMARK SMILES IDX 81 14 85 15 82 16 84 17 83 18 7 19 8 20 9 21 10 22 11 24
REMARK SMILES IDX 12 25 13 26 74 27 14 28 73 29 15 30 16 31 17 32 67 33 18 34
REMARK SMILES IDX 72 35 66 36 68 37 19 38 71 39 65 40 64 41 20 43 52 44 32 45
REMARK SMILES IDX 51 46 33 47 36 48 50 49 69 50 34 51 35 52 49 54 70 55 37 56
REMARK SMILES IDX 21 57 22 58 30 59 23 60 24 61 28 62 31 63 25 64 26 65 29 66
REMARK SMILES IDX 27 67 53 68 54 69 62 70 55 71 56 72 60 73 63 74 57 75 58 76
REMARK SMILES IDX 61 77 59 78 38 79 39 80 47 81 40 82 41 83 45 84 48 85 42 86
REMARK SMILES IDX 43 87 46 88 44 89
REMARK H PARENT 5 5 9 23 68 42 36 53
REMARK Flexibility Score: inf
ROOT
ATOM      1  C   UNL A   1      31.403  30.957  25.930  1.00  0.00     0.117 C 
ENDROOT
BRANCH   1   2
ATOM      2  N   UNL A   1      31.727  29.952  26.931  1.00  0.00    -0.356 N 
ATOM      3  C   UNL A   1      32.144  28.657  26.845  1.00  0.00     0.224 C 
ATOM      4  O   UNL A   1      32.257  28.032  27.901  1.00  0.00    -0.275 OA
ATOM      5  H   UNL A   1      31.623  30.271  27.856  1.00  0.00     0.163 HD
BRANCH   3   6
ATOM      6  C   UNL A   1      32.539  28.015  25.509  1.00  0.00     0.093 C 
ATOM      7  C   UNL A   1      33.558  26.902  25.843  1.00  0.00     0.019 C 
BRANCH   6   8
ATOM      8  C   UNL A   1      31.328  27.424  24.745  1.00  0.00     0.118 C 
ATOM      9  C   UNL A   1      31.132  25.901  24.810  1.00  0.00     0.026 C 
BRANCH   8  10
ATOM     10  S   UNL A   1      31.104  27.958  23.034  1.00  0.00     0.156 S 
ATOM     11  O   UNL A   1      32.057  29.032  22.821  1.00  0.00    -0.228 OA
ATOM     12  O   UNL A   1      31.245  26.772  22.209  1.00  0.00    -0.228 OA
BRANCH  10  13
ATOM     13  C   UNL A   1      29.438  28.644  22.716  1.00  0.00     0.113 C 
ATOM     14  C   UNL A   1      29.430  30.152  23.005  1.00  0.00     0.048 C 
ATOM     15  C   UNL A   1      28.247  27.991  23.414  1.00  0.00     0.048 C 
ATOM     16  C   UNL A   1      28.067  30.765  22.719  1.00  0.00     0.161 C 
ATOM     17  C   UNL A   1      26.953  28.715  23.066  1.00  0.00     0.161 C 
ATOM     18  O   UNL A   1      27.047  30.081  23.441  1.00  0.00    -0.381 OA
ENDBRANCH  10  13
ENDBRANCH   8  10
ENDBRANCH   6   8
ENDBRANCH   3   6
ENDBRANCH   1   2
BRANCH   1  19
ATOM     19  C   UNL A   1      31.295  32.364  26.519  1.00  0.00     0.042 C 
BRANCH  19  20
ATOM     20  C   UNL A   1      32.563  32.835  27.212  1.00  0.00     0.118 C 
BRANCH  20  21
ATOM     21  N   UNL A   1      32.450  34.227  27.616  1.00  0.00    -0.352 N 
ATOM     22  C   UNL A   1      33.046  34.887  28.667  1.00  0.00     0.251 C 
ATOM     23  H   UNL A   1      31.860  34.781  27.055  1.00  0.00     0.163 HD
ATOM     24  O   UNL A   1      32.575  35.957  29.043  1.00  0.00    -0.269 OA
BRANCH  22  25
ATOM     25  C   UNL A   1      34.233  34.323  29.356  1.00  0.00     0.039 A 
ATOM     26  C   UNL A   1      34.050  33.573  30.524  1.00  0.00     0.014 A 
ATOM     27  C   UNL A   1      35.528  34.574  28.902  1.00  0.00     0.014 A 
ATOM     28  C   UNL A   1      35.154  33.033  31.192  1.00  0.00     0.010 A 
ATOM     29  C   UNL A   1      36.618  33.949  29.505  1.00  0.00     0.010 A 
ATOM     30  C   UNL A   1      36.448  33.185  30.668  1.00  0.00    -0.014 A 
BRANCH  30  31
ATOM     31  C   UNL A   1      37.640  32.581  31.324  1.00  0.00     0.031 A 
ATOM     32  C   UNL A   1      38.354  31.424  30.674  1.00  0.00     0.074 A 
ATOM     33  C   UNL A   1      38.031  33.014  32.539  1.00  0.00     0.049 A 
ATOM     34  N   UNL A   1      39.334  30.687  31.135  1.00  0.00    -0.248 NA
ATOM     35  C   UNL A   1      37.884  31.019  29.339  1.00  0.00     0.031 C 
ATOM     36  C   UNL A   1      37.398  34.096  33.296  1.00  0.00     0.029 A 
ATOM     37  N   UNL A   1      39.044  32.586  33.363  1.00  0.00    -0.354 N 
ATOM     38  C   UNL A   1      39.572  29.720  30.166  1.00  0.00     0.074 A 
ATOM     39  C   UNL A   1      38.606  29.932  29.111  1.00  0.00     0.031 C 
ATOM     40  C   UNL A   1      38.044  34.257  34.461  1.00  0.00     0.029 A 
ATOM     41  C   UNL A   1      39.104  33.258  34.560  1.00  0.00     0.049 A 
ATOM     42  H   UNL A   1      39.669  31.865  33.118  1.00  0.00     0.167 HD
ATOM     43  C   UNL A   1      40.522  28.755  30.149  1.00  0.00     0.037 A 
ATOM     44  C   UNL A   1      39.906  33.075  35.628  1.00  0.00     0.037 A 
ATOM     45  C   UNL A   1      41.508  28.576  31.181  1.00  0.00     0.049 A 
ATOM     46  C   UNL A   1      40.945  31.985  35.584  1.00  0.00     0.074 A 
ATOM     47  C   UNL A   1      42.571  27.692  31.211  1.00  0.00     0.029 A 
ATOM     48  N   UNL A   1      41.547  29.290  32.369  1.00  0.00    -0.354 N 
ATOM     49  N   UNL A   1      41.221  31.139  34.622  1.00  0.00    -0.248 NA
ATOM     50  C   UNL A   1      41.788  31.824  36.779  1.00  0.00     0.031 C 
ATOM     51  C   UNL A   1      43.213  27.822  32.446  1.00  0.00     0.029 A 
ATOM     52  C   UNL A   1      42.591  28.835  33.159  1.00  0.00     0.049 A 
ATOM     53  H   UNL A   1      40.924  30.012  32.616  1.00  0.00     0.167 HD
ATOM     54  C   UNL A   1      42.280  30.368  35.081  1.00  0.00     0.074 A 
ATOM     55  C   UNL A   1      42.613  30.859  36.401  1.00  0.00     0.031 C 
ATOM     56  C   UNL A   1      42.918  29.343  34.466  1.00  0.00     0.037 A 
BRANCH  43  57
ATOM     57  C   UNL A   1      40.549  27.809  28.982  1.00  0.00     0.064 A 
ATOM     58  C   UNL A   1      39.758  26.650  28.949  1.00  0.00     0.173 A 
ATOM     59  C   UNL A   1      41.329  28.101  27.853  1.00  0.00     0.173 A 
ATOM     60  F   UNL A   1      38.999  26.319  30.004  1.00  0.00    -0.203 F 
ATOM     61  C   UNL A   1      39.767  25.809  27.839  1.00  0.00     0.198 A 
ATOM     62  C   UNL A   1      41.309  27.275  26.732  1.00  0.00     0.198 A 
ATOM     63  F   UNL A   1      42.098  29.200  27.828  1.00  0.00    -0.203 F 
ATOM     64  F   UNL A   1      39.036  24.685  27.847  1.00  0.00    -0.200 F 
ATOM     65  C   UNL A   1      40.534  26.126  26.729  1.00  0.00     0.200 A 
ATOM     66  F   UNL A   1      42.039  27.594  25.654  1.00  0.00    -0.200 F 
ATOM     67  F   UNL A   1      40.528  25.323  25.655  1.00  0.00    -0.200 F 
ENDBRANCH  43  57
BRANCH  44  68
ATOM     68  C   UNL A   1      39.761  33.935  36.834  1.00  0.00     0.064 A 
ATOM     69  C   UNL A   1      38.938  33.549  37.901  1.00  0.00     0.173 A 
ATOM     70  C   UNL A   1      40.414  35.173  36.934  1.00  0.00     0.173 A 
ATOM     71  F   UNL A   1      38.274  32.384  37.847  1.00  0.00    -0.203 F 
ATOM     72  C   UNL A   1      38.749  34.378  39.004  1.00  0.00     0.198 A 
ATOM     73  C   UNL A   1      40.253  35.986  38.053  1.00  0.00     0.198 A 
ATOM     74  F   UNL A   1      41.216  35.591  35.943  1.00  0.00    -0.203 F 
ATOM     75  F   UNL A   1      37.908  34.011  39.980  1.00  0.00    -0.200 F 
ATOM     76  C   UNL A   1      39.410  35.595  39.083  1.00  0.00     0.200 A 
ATOM     77  F   UNL A   1      40.907  37.153  38.131  1.00  0.00    -0.200 F 
ATOM     78  F   UNL A   1      39.227  36.393  40.142  1.00  0.00    -0.200 F 
ENDBRANCH  44  68
BRANCH  56  79
ATOM     79  C   UNL A   1      44.065  28.702  35.193  1.00  0.00     0.064 A 
ATOM     80  C   UNL A   1      45.374  29.191  35.080  1.00  0.00     0.173 A 
ATOM     81  C   UNL A   1      43.839  27.624  36.062  1.00  0.00     0.173 A 
ATOM     82  F   UNL A   1      45.646  30.210  34.251  1.00  0.00    -0.203 F 
ATOM     83  C   UNL A   1      46.418  28.611  35.796  1.00  0.00     0.198 A 
ATOM     84  C   UNL A   1      44.879  27.068  36.802  1.00  0.00     0.198 A 
ATOM     85  F   UNL A   1      42.603  27.124  36.213  1.00  0.00    -0.203 F 
ATOM     86  F   UNL A   1      47.669  29.065  35.639  1.00  0.00    -0.200 F 
ATOM     87  C   UNL A   1      46.168  27.558  36.664  1.00  0.00     0.200 A 
ATOM     88  F   UNL A   1      44.631  26.063  37.654  1.00  0.00    -0.200 F 
ATOM     89  F   UNL A   1      47.172  27.012  37.365  1.00  0.00    -0.200 F 
ENDBRANCH  56  79
ENDBRANCH  30  31
ENDBRANCH  22  25
ENDBRANCH  20  21
ENDBRANCH  19  20
ENDBRANCH   1  19
TORSDOF 13
ENDMDL
