MODEL 1
REMARK VINA RESULT:     -12.7      0.000      0.000
REMARK SMILES O=C(Cc1cccn1-c1ccc2c(c1)OCCO2)NCCCNC(=O)c1ccc(-c2c3nc(c(-c4c(F)c(F)c(F)c(F)c4F)c4ccc([nH]4)c(-c4c(F)c(F)c(F)c(F)c4F)c4nc(c(-c5c(F)c(F)c(F)c(F)c5F)c5ccc2[nH]5)C=C4)C=C3)cc1
REMARK SMILES IDX 21 1 20 2 19 3 1 4 2 5 3 7 4 8 5 9 8 10 6 11 7 12 9 13 10 14
REMARK SMILES IDX 14 15 11 16 13 17 12 18 15 19 18 20 16 21 17 22 22 23 23 24
REMARK SMILES IDX 24 25 25 27 26 28 27 29 88 30 28 31 87 32 29 33 30 34 31 35
REMARK SMILES IDX 81 36 32 37 86 38 80 39 82 40 33 41 85 42 79 43 78 44 34 46
REMARK SMILES IDX 66 47 46 48 65 49 47 50 50 51 64 52 83 53 48 54 49 55 63 57
REMARK SMILES IDX 84 58 51 59 35 60 36 61 44 62 37 63 38 64 42 65 45 66 39 67
REMARK SMILES IDX 40 68 43 69 41 70 67 71 68 72 76 73 69 74 70 75 74 76 77 77
REMARK SMILES IDX 71 78 72 79 75 80 73 81 52 82 53 83 61 84 54 85 55 86 59 87
REMARK SMILES IDX 62 88 56 89 57 90 60 91 58 92
REMARK H PARENT 19 6 23 26 82 45 50 56
REMARK Flexibility Score: inf
ROOT
ATOM      1  C   UNL A   1      33.709  30.636  27.656  1.00  0.00     0.042 C 
ENDROOT
BRANCH   1   2
ATOM      2  C   UNL A   1      34.579  29.525  27.061  1.00  0.00     0.117 C 
BRANCH   2   3
ATOM      3  N   UNL A   1      33.883  28.256  26.927  1.00  0.00    -0.356 N 
ATOM      4  O   UNL A   1      34.040  28.140  24.641  1.00  0.00    -0.275 OA
ATOM      5  C   UNL A   1      33.710  27.628  25.708  1.00  0.00     0.225 C 
ATOM      6  H   UNL A   1      33.520  27.829  27.735  1.00  0.00     0.163 HD
BRANCH   5   7
ATOM      7  C   UNL A   1      33.000  26.276  25.768  1.00  0.00     0.154 C 
BRANCH   7   8
ATOM      8  C   UNL A   1      33.135  25.502  24.482  1.00  0.00     0.032 A 
ATOM      9  C   UNL A   1      34.112  24.588  24.116  1.00  0.00     0.024 A 
ATOM     10  N   UNL A   1      32.209  25.558  23.447  1.00  0.00    -0.320 N 
ATOM     11  C   UNL A   1      33.728  24.005  22.891  1.00  0.00     0.020 A 
ATOM     12  C   UNL A   1      32.534  24.581  22.527  1.00  0.00     0.091 A 
BRANCH  10  13
ATOM     13  C   UNL A   1      31.101  26.430  23.319  1.00  0.00     0.049 A 
ATOM     14  C   UNL A   1      29.879  26.081  23.911  1.00  0.00     0.031 A 
ATOM     15  C   UNL A   1      31.220  27.614  22.581  1.00  0.00     0.077 A 
ATOM     16  C   UNL A   1      28.790  26.944  23.804  1.00  0.00     0.052 A 
ATOM     17  C   UNL A   1      30.114  28.451  22.446  1.00  0.00     0.163 A 
ATOM     18  C   UNL A   1      28.901  28.118  23.058  1.00  0.00     0.161 A 
ATOM     19  O   UNL A   1      30.282  29.574  21.677  1.00  0.00    -0.486 OA
ATOM     20  O   UNL A   1      27.776  28.894  22.970  1.00  0.00    -0.486 OA
ATOM     21  C   UNL A   1      29.213  30.509  21.857  1.00  0.00     0.271 C 
ATOM     22  C   UNL A   1      27.862  29.812  21.875  1.00  0.00     0.271 C 
ENDBRANCH  10  13
ENDBRANCH   7   8
ENDBRANCH   5   7
ENDBRANCH   2   3
ENDBRANCH   1   2
BRANCH   1  23
ATOM     23  C   UNL A   1      34.465  31.944  27.856  1.00  0.00     0.118 C 
BRANCH  23  24
ATOM     24  N   UNL A   1      34.475  32.373  29.251  1.00  0.00    -0.352 N 
ATOM     25  C   UNL A   1      35.276  31.968  30.286  1.00  0.00     0.251 C 
ATOM     26  H   UNL A   1      33.805  33.057  29.483  1.00  0.00     0.163 HD
ATOM     27  O   UNL A   1      34.918  32.183  31.448  1.00  0.00    -0.269 OA
BRANCH  25  28
ATOM     28  C   UNL A   1      36.562  31.284  30.045  1.00  0.00     0.039 A 
ATOM     29  C   UNL A   1      37.133  30.534  31.083  1.00  0.00     0.014 A 
ATOM     30  C   UNL A   1      37.256  31.465  28.845  1.00  0.00     0.014 A 
ATOM     31  C   UNL A   1      38.373  29.934  30.898  1.00  0.00     0.010 A 
ATOM     32  C   UNL A   1      38.456  30.819  28.629  1.00  0.00     0.010 A 
ATOM     33  C   UNL A   1      39.017  30.071  29.664  1.00  0.00    -0.014 A 
BRANCH  33  34
ATOM     34  C   UNL A   1      40.288  29.375  29.413  1.00  0.00     0.031 A 
ATOM     35  C   UNL A   1      41.473  30.370  29.415  1.00  0.00     0.074 A 
ATOM     36  C   UNL A   1      40.166  28.019  29.247  1.00  0.00     0.049 A 
ATOM     37  N   UNL A   1      42.603  30.333  28.778  1.00  0.00    -0.248 NA
ATOM     38  C   UNL A   1      41.358  31.636  30.197  1.00  0.00     0.031 C 
ATOM     39  C   UNL A   1      38.893  27.257  29.354  1.00  0.00     0.029 A 
ATOM     40  N   UNL A   1      41.049  27.000  28.967  1.00  0.00    -0.354 N 
ATOM     41  C   UNL A   1      43.385  31.439  29.199  1.00  0.00     0.074 A 
ATOM     42  C   UNL A   1      42.519  32.263  29.984  1.00  0.00     0.031 C 
ATOM     43  C   UNL A   1      39.073  25.952  29.058  1.00  0.00     0.029 A 
ATOM     44  C   UNL A   1      40.462  25.723  28.726  1.00  0.00     0.049 A 
ATOM     45  H   UNL A   1      42.022  27.144  28.934  1.00  0.00     0.167 HD
ATOM     46  C   UNL A   1      44.735  31.518  28.980  1.00  0.00     0.037 A 
ATOM     47  C   UNL A   1      41.051  24.593  28.219  1.00  0.00     0.037 A 
ATOM     48  C   UNL A   1      45.163  30.350  28.288  1.00  0.00     0.049 A 
ATOM     49  C   UNL A   1      42.465  24.962  28.089  1.00  0.00     0.074 A 
ATOM     50  C   UNL A   1      45.012  29.951  26.987  1.00  0.00     0.029 A 
ATOM     51  N   UNL A   1      45.482  29.264  29.064  1.00  0.00    -0.354 N 
ATOM     52  N   UNL A   1      43.292  25.095  29.082  1.00  0.00    -0.248 NA
ATOM     53  C   UNL A   1      42.953  25.358  26.763  1.00  0.00     0.031 C 
ATOM     54  C   UNL A   1      44.723  28.579  27.117  1.00  0.00     0.029 A 
ATOM     55  C   UNL A   1      44.992  28.155  28.425  1.00  0.00     0.049 A 
ATOM     56  H   UNL A   1      45.971  29.278  29.918  1.00  0.00     0.167 HD
ATOM     57  C   UNL A   1      44.269  25.889  28.534  1.00  0.00     0.074 A 
ATOM     58  C   UNL A   1      44.180  25.741  27.098  1.00  0.00     0.031 C 
ATOM     59  C   UNL A   1      44.706  26.981  29.212  1.00  0.00     0.037 A 
BRANCH  46  60
ATOM     60  C   UNL A   1      45.838  32.400  29.508  1.00  0.00     0.064 A 
ATOM     61  C   UNL A   1      46.597  33.149  28.567  1.00  0.00     0.173 A 
ATOM     62  C   UNL A   1      46.411  32.249  30.775  1.00  0.00     0.173 A 
ATOM     63  F   UNL A   1      46.109  33.413  27.344  1.00  0.00    -0.203 F 
ATOM     64  C   UNL A   1      47.903  33.560  28.823  1.00  0.00     0.198 A 
ATOM     65  C   UNL A   1      47.705  32.714  31.046  1.00  0.00     0.198 A 
ATOM     66  F   UNL A   1      45.782  31.568  31.740  1.00  0.00    -0.203 F 
ATOM     67  F   UNL A   1      48.634  34.117  27.846  1.00  0.00    -0.200 F 
ATOM     68  C   UNL A   1      48.466  33.321  30.059  1.00  0.00     0.200 A 
ATOM     69  F   UNL A   1      48.246  32.496  32.253  1.00  0.00    -0.200 F 
ATOM     70  F   UNL A   1      49.746  33.643  30.290  1.00  0.00    -0.200 F 
ENDBRANCH  46  60
BRANCH  47  71
ATOM     71  C   UNL A   1      40.648  23.248  27.646  1.00  0.00     0.064 A 
ATOM     72  C   UNL A   1      39.628  23.008  26.718  1.00  0.00     0.173 A 
ATOM     73  C   UNL A   1      41.400  22.083  27.988  1.00  0.00     0.173 A 
ATOM     74  F   UNL A   1      38.743  23.961  26.407  1.00  0.00    -0.203 F 
ATOM     75  C   UNL A   1      39.472  21.754  26.089  1.00  0.00     0.198 A 
ATOM     76  C   UNL A   1      41.288  20.863  27.324  1.00  0.00     0.198 A 
ATOM     77  F   UNL A   1      42.287  22.085  28.991  1.00  0.00    -0.203 F 
ATOM     78  F   UNL A   1      38.484  21.574  25.200  1.00  0.00    -0.200 F 
ATOM     79  C   UNL A   1      40.332  20.701  26.355  1.00  0.00     0.200 A 
ATOM     80  F   UNL A   1      42.130  19.863  27.626  1.00  0.00    -0.200 F 
ATOM     81  F   UNL A   1      40.230  19.538  25.698  1.00  0.00    -0.200 F 
ENDBRANCH  47  71
BRANCH  59  82
ATOM     82  C   UNL A   1      44.488  26.922  30.714  1.00  0.00     0.064 A 
ATOM     83  C   UNL A   1      45.178  25.969  31.477  1.00  0.00     0.173 A 
ATOM     84  C   UNL A   1      43.546  27.697  31.413  1.00  0.00     0.173 A 
ATOM     85  F   UNL A   1      46.109  25.197  30.895  1.00  0.00    -0.203 F 
ATOM     86  C   UNL A   1      44.934  25.796  32.842  1.00  0.00     0.198 A 
ATOM     87  C   UNL A   1      43.299  27.531  32.780  1.00  0.00     0.198 A 
ATOM     88  F   UNL A   1      42.843  28.638  30.790  1.00  0.00    -0.203 F 
ATOM     89  F   UNL A   1      45.620  24.874  33.531  1.00  0.00    -0.200 F 
ATOM     90  C   UNL A   1      43.993  26.577  33.495  1.00  0.00     0.200 A 
ATOM     91  F   UNL A   1      42.391  28.304  33.396  1.00  0.00    -0.200 F 
ATOM     92  F   UNL A   1      43.777  26.423  34.809  1.00  0.00    -0.200 F 
ENDBRANCH  59  82
ENDBRANCH  33  34
ENDBRANCH  25  28
ENDBRANCH  23  24
ENDBRANCH   1  23
TORSDOF 12
ENDMDL
MODEL 2
REMARK VINA RESULT:     -12.7      5.568     11.435
REMARK SMILES O=C(Cc1cccn1-c1ccc2c(c1)OCCO2)NCCCNC(=O)c1ccc(-c2c3nc(c(-c4c(F)c(F)c(F)c(F)c4F)c4ccc([nH]4)c(-c4c(F)c(F)c(F)c(F)c4F)c4nc(c(-c5c(F)c(F)c(F)c(F)c5F)c5ccc2[nH]5)C=C4)C=C3)cc1
REMARK SMILES IDX 21 1 20 2 19 3 1 4 2 5 3 7 4 8 5 9 8 10 6 11 7 12 9 13 10 14
REMARK SMILES IDX 14 15 11 16 13 17 12 18 15 19 18 20 16 21 17 22 22 23 23 24
REMARK SMILES IDX 24 25 25 27 26 28 27 29 88 30 28 31 87 32 29 33 30 34 31 35
REMARK SMILES IDX 81 36 32 37 86 38 80 39 82 40 33 41 85 42 79 43 78 44 34 46
REMARK SMILES IDX 66 47 46 48 65 49 47 50 50 51 64 52 83 53 48 54 49 55 63 57
REMARK SMILES IDX 84 58 51 59 35 60 36 61 44 62 37 63 38 64 42 65 45 66 39 67
REMARK SMILES IDX 40 68 43 69 41 70 67 71 68 72 76 73 69 74 70 75 74 76 77 77
REMARK SMILES IDX 71 78 72 79 75 80 73 81 52 82 53 83 61 84 54 85 55 86 59 87
REMARK SMILES IDX 62 88 56 89 57 90 60 91 58 92
REMARK H PARENT 19 6 23 26 82 45 50 56
REMARK Flexibility Score: inf
ROOT
ATOM      1  C   UNL A   1      42.068  22.530  28.342  1.00  0.00     0.042 C 
ENDROOT
BRANCH   1   2
ATOM      2  C   UNL A   1      43.192  22.706  29.367  1.00  0.00     0.117 C 
BRANCH   2   3
ATOM      3  N   UNL A   1      44.454  23.117  28.774  1.00  0.00    -0.356 N 
ATOM      4  O   UNL A   1      44.492  25.207  29.720  1.00  0.00    -0.275 OA
ATOM      5  C   UNL A   1      45.040  24.340  29.044  1.00  0.00     0.225 C 
ATOM      6  H   UNL A   1      44.908  22.502  28.155  1.00  0.00     0.163 HD
BRANCH   5   7
ATOM      7  C   UNL A   1      46.391  24.577  28.371  1.00  0.00     0.154 C 
BRANCH   7   8
ATOM      8  C   UNL A   1      46.287  25.507  27.190  1.00  0.00     0.032 A 
ATOM      9  C   UNL A   1      46.584  26.859  27.119  1.00  0.00     0.024 A 
ATOM     10  N   UNL A   1      45.908  25.098  25.917  1.00  0.00    -0.320 N 
ATOM     11  C   UNL A   1      46.486  27.258  25.770  1.00  0.00     0.020 A 
ATOM     12  C   UNL A   1      46.118  26.149  25.047  1.00  0.00     0.091 A 
BRANCH  10  13
ATOM     13  C   UNL A   1      45.408  23.831  25.524  1.00  0.00     0.049 A 
ATOM     14  C   UNL A   1      44.093  23.728  25.051  1.00  0.00     0.031 A 
ATOM     15  C   UNL A   1      46.214  22.692  25.640  1.00  0.00     0.077 A 
ATOM     16  C   UNL A   1      43.602  22.488  24.647  1.00  0.00     0.052 A 
ATOM     17  C   UNL A   1      45.699  21.450  25.271  1.00  0.00     0.163 A 
ATOM     18  C   UNL A   1      44.396  21.348  24.773  1.00  0.00     0.161 A 
ATOM     19  O   UNL A   1      46.522  20.367  25.446  1.00  0.00    -0.486 OA
ATOM     20  O   UNL A   1      43.829  20.163  24.389  1.00  0.00    -0.486 OA
ATOM     21  C   UNL A   1      46.035  19.210  24.758  1.00  0.00     0.271 C 
ATOM     22  C   UNL A   1      44.534  19.046  24.939  1.00  0.00     0.271 C 
ENDBRANCH  10  13
ENDBRANCH   7   8
ENDBRANCH   5   7
ENDBRANCH   2   3
ENDBRANCH   1   2
BRANCH   1  23
ATOM     23  C   UNL A   1      41.795  23.791  27.531  1.00  0.00     0.118 C 
BRANCH  23  24
ATOM     24  N   UNL A   1      40.475  23.777  26.908  1.00  0.00    -0.352 N 
ATOM     25  C   UNL A   1      39.386  24.574  27.145  1.00  0.00     0.251 C 
ATOM     26  H   UNL A   1      40.348  23.092  26.212  1.00  0.00     0.163 HD
ATOM     27  O   UNL A   1      38.270  24.200  26.774  1.00  0.00    -0.269 OA
BRANCH  25  28
ATOM     28  C   UNL A   1      39.516  25.876  27.830  1.00  0.00     0.039 A 
ATOM     29  C   UNL A   1      39.117  25.977  29.170  1.00  0.00     0.014 A 
ATOM     30  C   UNL A   1      39.927  27.015  27.131  1.00  0.00     0.014 A 
ATOM     31  C   UNL A   1      39.174  27.207  29.815  1.00  0.00     0.010 A 
ATOM     32  C   UNL A   1      40.048  28.226  27.782  1.00  0.00     0.010 A 
ATOM     33  C   UNL A   1      39.653  28.319  29.116  1.00  0.00    -0.014 A 
BRANCH  33  34
ATOM     34  C   UNL A   1      39.804  29.612  29.800  1.00  0.00     0.031 A 
ATOM     35  C   UNL A   1      38.545  30.490  29.607  1.00  0.00     0.074 A 
ATOM     36  C   UNL A   1      40.994  29.765  30.464  1.00  0.00     0.049 A 
ATOM     37  N   UNL A   1      38.418  31.781  29.565  1.00  0.00    -0.248 NA
ATOM     38  C   UNL A   1      37.230  29.830  29.355  1.00  0.00     0.031 C 
ATOM     39  C   UNL A   1      42.055  28.727  30.563  1.00  0.00     0.029 A 
ATOM     40  N   UNL A   1      41.569  30.785  31.189  1.00  0.00    -0.354 N 
ATOM     41  C   UNL A   1      37.037  32.088  29.464  1.00  0.00     0.074 A 
ATOM     42  C   UNL A   1      36.370  30.845  29.223  1.00  0.00     0.031 C 
ATOM     43  C   UNL A   1      43.145  29.195  31.208  1.00  0.00     0.029 A 
ATOM     44  C   UNL A   1      42.921  30.572  31.591  1.00  0.00     0.049 A 
ATOM     45  H   UNL A   1      41.079  31.608  31.415  1.00  0.00     0.167 HD
ATOM     46  C   UNL A   1      36.533  33.334  29.726  1.00  0.00     0.037 A 
ATOM     47  C   UNL A   1      43.807  31.474  32.119  1.00  0.00     0.037 A 
ATOM     48  C   UNL A   1      37.602  34.200  30.091  1.00  0.00     0.049 A 
ATOM     49  C   UNL A   1      43.008  32.693  32.292  1.00  0.00     0.074 A 
ATOM     50  C   UNL A   1      38.588  34.795  29.352  1.00  0.00     0.029 A 
ATOM     51  N   UNL A   1      37.958  34.205  31.416  1.00  0.00    -0.354 N 
ATOM     52  N   UNL A   1      42.102  32.864  33.207  1.00  0.00    -0.248 NA
ATOM     53  C   UNL A   1      43.127  33.742  31.272  1.00  0.00     0.031 C 
ATOM     54  C   UNL A   1      39.720  34.655  30.179  1.00  0.00     0.029 A 
ATOM     55  C   UNL A   1      39.327  34.260  31.464  1.00  0.00     0.049 A 
ATOM     56  H   UNL A   1      37.346  34.175  32.187  1.00  0.00     0.167 HD
ATOM     57  C   UNL A   1      41.343  33.874  32.670  1.00  0.00     0.074 A 
ATOM     58  C   UNL A   1      42.173  34.560  31.704  1.00  0.00     0.031 C 
ATOM     59  C   UNL A   1      39.991  33.758  32.641  1.00  0.00     0.037 A 
BRANCH  46  60
ATOM     60  C   UNL A   1      35.147  33.885  29.949  1.00  0.00     0.064 A 
ATOM     61  C   UNL A   1      34.598  34.728  28.944  1.00  0.00     0.173 A 
ATOM     62  C   UNL A   1      34.529  33.944  31.202  1.00  0.00     0.173 A 
ATOM     63  F   UNL A   1      35.071  34.697  27.687  1.00  0.00    -0.203 F 
ATOM     64  C   UNL A   1      33.624  35.684  29.224  1.00  0.00     0.198 A 
ATOM     65  C   UNL A   1      33.510  34.870  31.465  1.00  0.00     0.198 A 
ATOM     66  F   UNL A   1      34.960  33.190  32.221  1.00  0.00    -0.203 F 
ATOM     67  F   UNL A   1      33.259  36.564  28.282  1.00  0.00    -0.200 F 
ATOM     68  C   UNL A   1      33.096  35.769  30.494  1.00  0.00     0.200 A 
ATOM     69  F   UNL A   1      32.985  34.943  32.696  1.00  0.00    -0.200 F 
ATOM     70  F   UNL A   1      32.216  36.735  30.794  1.00  0.00    -0.200 F 
ENDBRANCH  46  60
BRANCH  47  71
ATOM     71  C   UNL A   1      45.294  31.598  32.389  1.00  0.00     0.064 A 
ATOM     72  C   UNL A   1      45.910  31.683  33.644  1.00  0.00     0.173 A 
ATOM     73  C   UNL A   1      46.216  31.545  31.299  1.00  0.00     0.173 A 
ATOM     74  F   UNL A   1      45.190  31.889  34.751  1.00  0.00    -0.203 F 
ATOM     75  C   UNL A   1      47.310  31.582  33.795  1.00  0.00     0.198 A 
ATOM     76  C   UNL A   1      47.591  31.382  31.450  1.00  0.00     0.198 A 
ATOM     77  F   UNL A   1      45.809  31.647  30.027  1.00  0.00    -0.203 F 
ATOM     78  F   UNL A   1      47.855  31.662  35.018  1.00  0.00    -0.200 F 
ATOM     79  C   UNL A   1      48.142  31.380  32.705  1.00  0.00     0.200 A 
ATOM     80  F   UNL A   1      48.362  31.208  30.366  1.00  0.00    -0.200 F 
ATOM     81  F   UNL A   1      49.461  31.205  32.862  1.00  0.00    -0.200 F 
ENDBRANCH  47  71
BRANCH  59  82
ATOM     82  C   UNL A   1      39.417  32.804  33.674  1.00  0.00     0.064 A 
ATOM     83  C   UNL A   1      39.563  33.091  35.040  1.00  0.00     0.173 A 
ATOM     84  C   UNL A   1      38.823  31.566  33.373  1.00  0.00     0.173 A 
ATOM     85  F   UNL A   1      40.105  34.259  35.419  1.00  0.00    -0.203 F 
ATOM     86  C   UNL A   1      39.154  32.197  36.032  1.00  0.00     0.198 A 
ATOM     87  C   UNL A   1      38.409  30.668  34.362  1.00  0.00     0.198 A 
ATOM     88  F   UNL A   1      38.625  31.196  32.111  1.00  0.00    -0.203 F 
ATOM     89  F   UNL A   1      39.311  32.516  37.324  1.00  0.00    -0.200 F 
ATOM     90  C   UNL A   1      38.576  30.983  35.695  1.00  0.00     0.200 A 
ATOM     91  F   UNL A   1      37.842  29.501  34.014  1.00  0.00    -0.200 F 
ATOM     92  F   UNL A   1      38.166  30.138  36.650  1.00  0.00    -0.200 F 
ENDBRANCH  59  82
ENDBRANCH  33  34
ENDBRANCH  25  28
ENDBRANCH  23  24
ENDBRANCH   1  23
TORSDOF 12
ENDMDL
MODEL 3
REMARK VINA RESULT:     -12.6      7.555     14.959
REMARK SMILES O=C(Cc1cccn1-c1ccc2c(c1)OCCO2)NCCCNC(=O)c1ccc(-c2c3nc(c(-c4c(F)c(F)c(F)c(F)c4F)c4ccc([nH]4)c(-c4c(F)c(F)c(F)c(F)c4F)c4nc(c(-c5c(F)c(F)c(F)c(F)c5F)c5ccc2[nH]5)C=C4)C=C3)cc1
REMARK SMILES IDX 21 1 20 2 19 3 1 4 2 5 3 7 4 8 5 9 8 10 6 11 7 12 9 13 10 14
REMARK SMILES IDX 14 15 11 16 13 17 12 18 15 19 18 20 16 21 17 22 22 23 23 24
REMARK SMILES IDX 24 25 25 27 26 28 27 29 88 30 28 31 87 32 29 33 30 34 31 35
REMARK SMILES IDX 81 36 32 37 86 38 80 39 82 40 33 41 85 42 79 43 78 44 34 46
REMARK SMILES IDX 66 47 46 48 65 49 47 50 50 51 64 52 83 53 48 54 49 55 63 57
REMARK SMILES IDX 84 58 51 59 35 60 36 61 44 62 37 63 38 64 42 65 45 66 39 67
REMARK SMILES IDX 40 68 43 69 41 70 67 71 68 72 76 73 69 74 70 75 74 76 77 77
REMARK SMILES IDX 71 78 72 79 75 80 73 81 52 82 53 83 61 84 54 85 55 86 59 87
REMARK SMILES IDX 62 88 56 89 57 90 60 91 58 92
REMARK H PARENT 19 6 23 26 82 45 50 56
REMARK Flexibility Score: inf
ROOT
ATOM      1  C   UNL A   1      46.334  20.682  36.264  1.00  0.00     0.042 C 
ENDROOT
BRANCH   1   2
ATOM      2  C   UNL A   1      45.786  19.261  36.424  1.00  0.00     0.117 C 
BRANCH   2   3
ATOM      3  N   UNL A   1      46.108  18.659  37.707  1.00  0.00    -0.356 N 
ATOM      4  O   UNL A   1      44.157  17.469  37.908  1.00  0.00    -0.275 OA
ATOM      5  C   UNL A   1      45.274  17.753  38.334  1.00  0.00     0.225 C 
ATOM      6  H   UNL A   1      46.954  18.906  38.145  1.00  0.00     0.163 HD
BRANCH   5   7
ATOM      7  C   UNL A   1      45.803  17.185  39.650  1.00  0.00     0.154 C 
BRANCH   7   8
ATOM      8  C   UNL A   1      45.335  17.977  40.844  1.00  0.00     0.032 A 
ATOM      9  C   UNL A   1      45.811  19.188  41.325  1.00  0.00     0.024 A 
ATOM     10  N   UNL A   1      44.260  17.607  41.643  1.00  0.00    -0.320 N 
ATOM     11  C   UNL A   1      44.956  19.612  42.362  1.00  0.00     0.020 A 
ATOM     12  C   UNL A   1      43.985  18.649  42.505  1.00  0.00     0.091 A 
BRANCH  10  13
ATOM     13  C   UNL A   1      43.528  16.394  41.606  1.00  0.00     0.049 A 
ATOM     14  C   UNL A   1      42.664  16.145  40.531  1.00  0.00     0.031 A 
ATOM     15  C   UNL A   1      43.646  15.471  42.653  1.00  0.00     0.077 A 
ATOM     16  C   UNL A   1      41.955  14.945  40.482  1.00  0.00     0.052 A 
ATOM     17  C   UNL A   1      42.902  14.293  42.613  1.00  0.00     0.163 A 
ATOM     18  C   UNL A   1      42.059  14.029  41.528  1.00  0.00     0.161 A 
ATOM     19  O   UNL A   1      43.029  13.449  43.687  1.00  0.00    -0.486 OA
ATOM     20  O   UNL A   1      41.304  12.893  41.422  1.00  0.00    -0.486 OA
ATOM     21  C   UNL A   1      42.488  12.152  43.413  1.00  0.00     0.271 C 
ATOM     22  C   UNL A   1      41.153  12.248  42.691  1.00  0.00     0.271 C 
ENDBRANCH  10  13
ENDBRANCH   7   8
ENDBRANCH   5   7
ENDBRANCH   2   3
ENDBRANCH   1   2
BRANCH   1  23
ATOM     23  C   UNL A   1      45.268  21.692  35.856  1.00  0.00     0.118 C 
BRANCH  23  24
ATOM     24  N   UNL A   1      45.289  22.891  36.688  1.00  0.00    -0.352 N 
ATOM     25  C   UNL A   1      45.516  24.196  36.336  1.00  0.00     0.251 C 
ATOM     26  H   UNL A   1      45.115  22.740  37.645  1.00  0.00     0.163 HD
ATOM     27  O   UNL A   1      45.831  25.011  37.208  1.00  0.00    -0.269 OA
BRANCH  25  28
ATOM     28  C   UNL A   1      45.387  24.653  34.938  1.00  0.00     0.039 A 
ATOM     29  C   UNL A   1      46.535  24.704  34.135  1.00  0.00     0.014 A 
ATOM     30  C   UNL A   1      44.166  25.130  34.451  1.00  0.00     0.014 A 
ATOM     31  C   UNL A   1      46.446  25.190  32.836  1.00  0.00     0.010 A 
ATOM     32  C   UNL A   1      44.056  25.552  33.141  1.00  0.00     0.010 A 
ATOM     33  C   UNL A   1      45.200  25.597  32.346  1.00  0.00    -0.014 A 
BRANCH  33  34
ATOM     34  C   UNL A   1      45.063  26.033  30.949  1.00  0.00     0.031 A 
ATOM     35  C   UNL A   1      44.789  24.829  30.018  1.00  0.00     0.074 A 
ATOM     36  C   UNL A   1      45.189  27.386  30.765  1.00  0.00     0.049 A 
ATOM     37  N   UNL A   1      45.093  24.645  28.770  1.00  0.00    -0.248 NA
ATOM     38  C   UNL A   1      44.130  23.612  30.577  1.00  0.00     0.031 C 
ATOM     39  C   UNL A   1      45.394  28.380  31.853  1.00  0.00     0.029 A 
ATOM     40  N   UNL A   1      45.169  28.216  29.665  1.00  0.00    -0.354 N 
ATOM     41  C   UNL A   1      44.532  23.411  28.354  1.00  0.00     0.074 A 
ATOM     42  C   UNL A   1      44.052  22.772  29.540  1.00  0.00     0.031 C 
ATOM     43  C   UNL A   1      45.565  29.625  31.359  1.00  0.00     0.029 A 
ATOM     44  C   UNL A   1      45.497  29.581  29.915  1.00  0.00     0.049 A 
ATOM     45  H   UNL A   1      44.944  27.887  28.765  1.00  0.00     0.167 HD
ATOM     46  C   UNL A   1      44.380  23.071  27.035  1.00  0.00     0.037 A 
ATOM     47  C   UNL A   1      45.770  30.574  29.009  1.00  0.00     0.037 A 
ATOM     48  C   UNL A   1      44.872  24.132  26.224  1.00  0.00     0.049 A 
ATOM     49  C   UNL A   1      45.529  29.938  27.708  1.00  0.00     0.074 A 
ATOM     50  C   UNL A   1      46.144  24.547  25.933  1.00  0.00     0.029 A 
ATOM     51  N   UNL A   1      43.986  25.139  25.933  1.00  0.00    -0.354 N 
ATOM     52  N   UNL A   1      44.357  29.652  27.226  1.00  0.00    -0.248 NA
ATOM     53  C   UNL A   1      46.692  29.450  26.957  1.00  0.00     0.031 C 
ATOM     54  C   UNL A   1      46.030  25.950  25.985  1.00  0.00     0.029 A 
ATOM     55  C   UNL A   1      44.679  26.319  26.012  1.00  0.00     0.049 A 
ATOM     56  H   UNL A   1      43.033  25.034  25.711  1.00  0.00     0.167 HD
ATOM     57  C   UNL A   1      44.658  28.682  26.302  1.00  0.00     0.074 A 
ATOM     58  C   UNL A   1      46.055  28.839  25.963  1.00  0.00     0.031 C 
ATOM     59  C   UNL A   1      43.942  27.529  26.280  1.00  0.00     0.037 A 
BRANCH  46  60
ATOM     60  C   UNL A   1      43.617  21.995  26.305  1.00  0.00     0.064 A 
ATOM     61  C   UNL A   1      42.242  21.824  26.623  1.00  0.00     0.173 A 
ATOM     62  C   UNL A   1      44.228  20.929  25.638  1.00  0.00     0.173 A 
ATOM     63  F   UNL A   1      41.541  22.814  27.201  1.00  0.00    -0.203 F 
ATOM     64  C   UNL A   1      41.583  20.610  26.447  1.00  0.00     0.198 A 
ATOM     65  C   UNL A   1      43.544  19.727  25.412  1.00  0.00     0.198 A 
ATOM     66  F   UNL A   1      45.518  20.984  25.284  1.00  0.00    -0.203 F 
ATOM     67  F   UNL A   1      40.337  20.450  26.916  1.00  0.00    -0.200 F 
ATOM     68  C   UNL A   1      42.244  19.552  25.861  1.00  0.00     0.200 A 
ATOM     69  F   UNL A   1      44.181  18.703  24.827  1.00  0.00    -0.200 F 
ATOM     70  F   UNL A   1      41.644  18.357  25.757  1.00  0.00    -0.200 F 
ENDBRANCH  46  60
BRANCH  47  71
ATOM     71  C   UNL A   1      46.363  31.968  28.980  1.00  0.00     0.064 A 
ATOM     72  C   UNL A   1      45.776  33.114  28.429  1.00  0.00     0.173 A 
ATOM     73  C   UNL A   1      47.606  32.220  29.636  1.00  0.00     0.173 A 
ATOM     74  F   UNL A   1      44.687  33.025  27.657  1.00  0.00    -0.203 F 
ATOM     75  C   UNL A   1      46.312  34.402  28.640  1.00  0.00     0.198 A 
ATOM     76  C   UNL A   1      48.104  33.494  29.898  1.00  0.00     0.198 A 
ATOM     77  F   UNL A   1      48.396  31.222  30.056  1.00  0.00    -0.203 F 
ATOM     78  F   UNL A   1      45.710  35.471  28.098  1.00  0.00    -0.200 F 
ATOM     79  C   UNL A   1      47.444  34.594  29.416  1.00  0.00     0.200 A 
ATOM     80  F   UNL A   1      49.215  33.634  30.639  1.00  0.00    -0.200 F 
ATOM     81  F   UNL A   1      47.905  35.825  29.679  1.00  0.00    -0.200 F 
ENDBRANCH  47  71
BRANCH  59  82
ATOM     82  C   UNL A   1      42.554  27.636  26.888  1.00  0.00     0.064 A 
ATOM     83  C   UNL A   1      41.586  28.441  26.269  1.00  0.00     0.173 A 
ATOM     84  C   UNL A   1      42.176  27.061  28.114  1.00  0.00     0.173 A 
ATOM     85  F   UNL A   1      41.856  29.015  25.087  1.00  0.00    -0.203 F 
ATOM     86  C   UNL A   1      40.332  28.662  26.843  1.00  0.00     0.198 A 
ATOM     87  C   UNL A   1      40.921  27.278  28.692  1.00  0.00     0.198 A 
ATOM     88  F   UNL A   1      43.011  26.271  28.782  1.00  0.00    -0.203 F 
ATOM     89  F   UNL A   1      39.437  29.437  26.213  1.00  0.00    -0.200 F 
ATOM     90  C   UNL A   1      39.997  28.082  28.056  1.00  0.00     0.200 A 
ATOM     91  F   UNL A   1      40.612  26.697  29.863  1.00  0.00    -0.200 F 
ATOM     92  F   UNL A   1      38.785  28.280  28.593  1.00  0.00    -0.200 F 
ENDBRANCH  59  82
ENDBRANCH  33  34
ENDBRANCH  25  28
ENDBRANCH  23  24
ENDBRANCH   1  23
TORSDOF 12
ENDMDL
