MODEL 1
REMARK VINA RESULT:     -13.3      0.000      0.000
REMARK SMILES COc1cc2c(cc1OC)[C@H](C(=O)NCCCNC(=O)c1ccc(-c3c4nc(c(-c5c(F)c(F)c(F)c(F)c5F)c5ccc([nH]5)c(-c5c(F)c(F)c(F)c(F)c5F)c5nc(c(-c6c(F)c(F)c(F)c(F)c6F)c6ccc3[nH]6)C=C5)C=C4)cc1)[C@H](c1cccc(Cl)c1)N(C)C2=O
REMARK SMILES IDX 16 1 15 2 14 3 12 4 13 5 11 7 3 8 4 9 8 10 5 11 7 12 6 13
REMARK SMILES IDX 94 14 92 15 95 16 84 17 93 18 2 19 1 20 9 21 10 22 85 23
REMARK SMILES IDX 86 24 91 25 87 26 89 27 88 28 90 29 17 30 18 31 19 32 20 34
REMARK SMILES IDX 21 35 22 36 83 37 23 38 82 39 24 40 25 41 26 42 76 43 27 44
REMARK SMILES IDX 81 45 75 46 77 47 28 48 80 49 74 50 73 51 29 53 61 54 41 55
REMARK SMILES IDX 60 56 42 57 45 58 59 59 78 60 43 61 44 62 58 64 79 65 46 66
REMARK SMILES IDX 30 67 31 68 39 69 32 70 33 71 37 72 40 73 34 74 35 75 38 76
REMARK SMILES IDX 36 77 62 78 63 79 71 80 64 81 65 82 69 83 72 84 66 85 67 86
REMARK SMILES IDX 70 87 68 88 47 89 48 90 56 91 49 92 50 93 54 94 57 95 51 96
REMARK SMILES IDX 52 97 55 98 53 99
REMARK H PARENT 14 6 18 33 77 52 45 63
REMARK Flexibility Score: inf
ROOT
ATOM      1  C   UNL A   1      32.731  28.889  23.831  1.00  0.00     0.042 C 
ENDROOT
BRANCH   1   2
ATOM      2  C   UNL A   1      34.007  28.375  23.142  1.00  0.00     0.117 C 
BRANCH   2   3
ATOM      3  N   UNL A   1      33.782  27.210  22.301  1.00  0.00    -0.355 N 
ATOM      4  C   UNL A   1      33.614  25.882  22.462  1.00  0.00     0.230 C 
ATOM      5  O   UNL A   1      33.234  25.334  21.410  1.00  0.00    -0.274 OA
ATOM      6  H   UNL A   1      33.741  27.460  21.349  1.00  0.00     0.163 HD
BRANCH   4   7
ATOM      7  C   UNL A   1      33.871  24.966  23.678  1.00  0.00     0.136 C 
ATOM      8  C   UNL A   1      30.635  24.444  26.543  1.00  0.00     0.161 A 
ATOM      9  C   UNL A   1      31.922  23.946  26.794  1.00  0.00     0.064 A 
ATOM     10  C   UNL A   1      30.416  25.234  25.400  1.00  0.00     0.161 A 
ATOM     11  C   UNL A   1      32.962  24.180  25.888  1.00  0.00     0.048 A 
ATOM     12  C   UNL A   1      31.464  25.457  24.494  1.00  0.00     0.056 A 
ATOM     13  C   UNL A   1      32.732  24.907  24.703  1.00  0.00    -0.016 A 
ATOM     14  C   UNL A   1      34.315  23.597  26.152  1.00  0.00     0.254 C 
ATOM     15  N   UNL A   1      35.134  23.417  25.035  1.00  0.00    -0.333 N 
ATOM     16  O   UNL A   1      34.653  23.311  27.299  1.00  0.00    -0.269 OA
ATOM     17  C   UNL A   1      34.543  23.561  23.675  1.00  0.00     0.132 C 
ATOM     18  C   UNL A   1      36.510  22.978  25.203  1.00  0.00     0.147 C 
BRANCH   8  19
ATOM     19  O   UNL A   1      29.557  24.106  27.316  1.00  0.00    -0.493 OA
ATOM     20  C   UNL A   1      29.186  22.733  27.340  1.00  0.00     0.278 C 
ENDBRANCH   8  19
BRANCH  10  21
ATOM     21  O   UNL A   1      29.248  25.828  24.994  1.00  0.00    -0.493 OA
ATOM     22  C   UNL A   1      29.308  26.773  23.935  1.00  0.00     0.278 C 
ENDBRANCH  10  21
BRANCH  17  23
ATOM     23  C   UNL A   1      33.657  22.326  23.391  1.00  0.00    -0.023 A 
ATOM     24  C   UNL A   1      32.744  22.318  22.338  1.00  0.00     0.006 A 
ATOM     25  C   UNL A   1      33.696  21.162  24.184  1.00  0.00     0.026 A 
ATOM     26  C   UNL A   1      32.015  21.181  21.980  1.00  0.00     0.002 A 
ATOM     27  C   UNL A   1      32.905  20.047  23.886  1.00  0.00     0.041 A 
ATOM     28  C   UNL A   1      32.097  20.035  22.757  1.00  0.00     0.020 A 
ATOM     29  Cl  UNL A   1      32.909  18.686  24.939  1.00  0.00    -0.084 Cl
ENDBRANCH  17  23
ENDBRANCH   4   7
ENDBRANCH   2   3
ENDBRANCH   1   2
BRANCH   1  30
ATOM     30  C   UNL A   1      32.775  29.017  25.350  1.00  0.00     0.118 C 
BRANCH  30  31
ATOM     31  N   UNL A   1      32.393  30.335  25.820  1.00  0.00    -0.352 N 
ATOM     32  C   UNL A   1      32.912  31.167  26.783  1.00  0.00     0.251 C 
ATOM     33  H   UNL A   1      31.605  30.706  25.359  1.00  0.00     0.163 HD
ATOM     34  O   UNL A   1      32.255  32.163  27.085  1.00  0.00    -0.269 OA
BRANCH  32  35
ATOM     35  C   UNL A   1      34.202  30.924  27.492  1.00  0.00     0.039 A 
ATOM     36  C   UNL A   1      34.397  29.657  28.065  1.00  0.00     0.014 A 
ATOM     37  C   UNL A   1      35.167  31.906  27.719  1.00  0.00     0.014 A 
ATOM     38  C   UNL A   1      35.545  29.375  28.818  1.00  0.00     0.010 A 
ATOM     39  C   UNL A   1      36.358  31.597  28.393  1.00  0.00     0.010 A 
ATOM     40  C   UNL A   1      36.556  30.335  28.970  1.00  0.00    -0.014 A 
BRANCH  40  41
ATOM     41  C   UNL A   1      37.793  30.040  29.754  1.00  0.00     0.031 A 
ATOM     42  C   UNL A   1      38.852  29.117  29.204  1.00  0.00     0.074 A 
ATOM     43  C   UNL A   1      37.958  30.575  30.981  1.00  0.00     0.049 A 
ATOM     44  N   UNL A   1      39.964  28.700  29.760  1.00  0.00    -0.248 NA
ATOM     45  C   UNL A   1      38.621  28.571  27.857  1.00  0.00     0.031 C 
ATOM     46  C   UNL A   1      37.005  31.459  31.652  1.00  0.00     0.029 A 
ATOM     47  N   UNL A   1      38.984  30.447  31.887  1.00  0.00    -0.354 N 
ATOM     48  C   UNL A   1      40.550  27.835  28.844  1.00  0.00     0.074 A 
ATOM     49  C   UNL A   1      39.647  27.745  27.716  1.00  0.00     0.031 C 
ATOM     50  C   UNL A   1      37.499  31.813  32.848  1.00  0.00     0.029 A 
ATOM     51  C   UNL A   1      38.783  31.148  33.053  1.00  0.00     0.049 A 
ATOM     52  H   UNL A   1      39.788  29.905  31.718  1.00  0.00     0.167 HD
ATOM     53  C   UNL A   1      41.742  27.192  28.919  1.00  0.00     0.037 A 
ATOM     54  C   UNL A   1      39.537  31.237  34.166  1.00  0.00     0.037 A 
ATOM     55  C   UNL A   1      42.657  27.301  30.027  1.00  0.00     0.049 A 
ATOM     56  C   UNL A   1      40.848  30.498  34.234  1.00  0.00     0.074 A 
ATOM     57  C   UNL A   1      43.912  26.734  30.168  1.00  0.00     0.029 A 
ATOM     58  N   UNL A   1      42.415  28.024  31.184  1.00  0.00    -0.354 N 
ATOM     59  N   UNL A   1      41.415  29.734  33.333  1.00  0.00    -0.248 NA
ATOM     60  C   UNL A   1      41.624  30.638  35.474  1.00  0.00     0.031 C 
ATOM     61  C   UNL A   1      44.406  27.068  31.433  1.00  0.00     0.029 A 
ATOM     62  C   UNL A   1      43.486  27.894  32.056  1.00  0.00     0.049 A 
ATOM     63  H   UNL A   1      41.603  28.552  31.362  1.00  0.00     0.167 HD
ATOM     64  C   UNL A   1      42.625  29.328  33.883  1.00  0.00     0.074 A 
ATOM     65  C   UNL A   1      42.718  29.945  35.189  1.00  0.00     0.031 C 
ATOM     66  C   UNL A   1      43.573  28.518  33.352  1.00  0.00     0.037 A 
BRANCH  53  67
ATOM     67  C   UNL A   1      42.133  26.305  27.769  1.00  0.00     0.064 A 
ATOM     68  C   UNL A   1      42.999  26.747  26.757  1.00  0.00     0.173 A 
ATOM     69  C   UNL A   1      41.674  24.981  27.702  1.00  0.00     0.173 A 
ATOM     70  F   UNL A   1      43.463  28.006  26.767  1.00  0.00    -0.203 F 
ATOM     71  C   UNL A   1      43.365  25.908  25.707  1.00  0.00     0.198 A 
ATOM     72  C   UNL A   1      42.068  24.134  26.669  1.00  0.00     0.198 A 
ATOM     73  F   UNL A   1      40.852  24.501  28.649  1.00  0.00    -0.203 F 
ATOM     74  F   UNL A   1      44.151  26.370  24.725  1.00  0.00    -0.200 F 
ATOM     75  C   UNL A   1      42.905  24.601  25.667  1.00  0.00     0.200 A 
ATOM     76  F   UNL A   1      41.636  22.865  26.642  1.00  0.00    -0.200 F 
ATOM     77  F   UNL A   1      43.264  23.792  24.661  1.00  0.00    -0.200 F 
ENDBRANCH  53  67
BRANCH  54  78
ATOM     78  C   UNL A   1      39.080  32.072  35.309  1.00  0.00     0.064 A 
ATOM     79  C   UNL A   1      39.376  33.442  35.368  1.00  0.00     0.173 A 
ATOM     80  C   UNL A   1      38.350  31.518  36.372  1.00  0.00     0.173 A 
ATOM     81  F   UNL A   1      40.092  34.014  34.389  1.00  0.00    -0.203 F 
ATOM     82  C   UNL A   1      38.979  34.219  36.454  1.00  0.00     0.198 A 
ATOM     83  C   UNL A   1      37.925  32.304  37.442  1.00  0.00     0.198 A 
ATOM     84  F   UNL A   1      38.037  30.214  36.364  1.00  0.00    -0.203 F 
ATOM     85  F   UNL A   1      39.320  35.514  36.508  1.00  0.00    -0.200 F 
ATOM     86  C   UNL A   1      38.248  33.652  37.487  1.00  0.00     0.200 A 
ATOM     87  F   UNL A   1      37.205  31.754  38.429  1.00  0.00    -0.200 F 
ATOM     88  F   UNL A   1      37.863  34.400  38.529  1.00  0.00    -0.200 F 
ENDBRANCH  54  78
BRANCH  66  89
ATOM     89  C   UNL A   1      44.814  28.280  34.164  1.00  0.00     0.064 A 
ATOM     90  C   UNL A   1      45.922  29.139  34.092  1.00  0.00     0.173 A 
ATOM     91  C   UNL A   1      44.882  27.201  35.058  1.00  0.00     0.173 A 
ATOM     92  F   UNL A   1      45.915  30.179  33.243  1.00  0.00    -0.203 F 
ATOM     93  C   UNL A   1      47.059  28.910  34.862  1.00  0.00     0.198 A 
ATOM     94  C   UNL A   1      46.007  26.993  35.851  1.00  0.00     0.198 A 
ATOM     95  F   UNL A   1      43.848  26.353  35.174  1.00  0.00    -0.203 F 
ATOM     96  F   UNL A   1      48.124  29.713  34.738  1.00  0.00    -0.200 F 
ATOM     97  C   UNL A   1      47.098  27.842  35.746  1.00  0.00     0.200 A 
ATOM     98  F   UNL A   1      46.035  25.969  36.716  1.00  0.00    -0.200 F 
ATOM     99  F   UNL A   1      48.189  27.627  36.492  1.00  0.00    -0.200 F 
ENDBRANCH  66  89
ENDBRANCH  40  41
ENDBRANCH  32  35
ENDBRANCH  30  31
ENDBRANCH   1  30
TORSDOF 13
ENDMDL
MODEL 2
REMARK VINA RESULT:     -13.2      0.454      7.082
REMARK SMILES COc1cc2c(cc1OC)[C@H](C(=O)NCCCNC(=O)c1ccc(-c3c4nc(c(-c5c(F)c(F)c(F)c(F)c5F)c5ccc([nH]5)c(-c5c(F)c(F)c(F)c(F)c5F)c5nc(c(-c6c(F)c(F)c(F)c(F)c6F)c6ccc3[nH]6)C=C5)C=C4)cc1)[C@H](c1cccc(Cl)c1)N(C)C2=O
REMARK SMILES IDX 16 1 15 2 14 3 12 4 13 5 11 7 3 8 4 9 8 10 5 11 7 12 6 13
REMARK SMILES IDX 94 14 92 15 95 16 84 17 93 18 2 19 1 20 9 21 10 22 85 23
REMARK SMILES IDX 86 24 91 25 87 26 89 27 88 28 90 29 17 30 18 31 19 32 20 34
REMARK SMILES IDX 21 35 22 36 83 37 23 38 82 39 24 40 25 41 26 42 76 43 27 44
REMARK SMILES IDX 81 45 75 46 77 47 28 48 80 49 74 50 73 51 29 53 61 54 41 55
REMARK SMILES IDX 60 56 42 57 45 58 59 59 78 60 43 61 44 62 58 64 79 65 46 66
REMARK SMILES IDX 30 67 31 68 39 69 32 70 33 71 37 72 40 73 34 74 35 75 38 76
REMARK SMILES IDX 36 77 62 78 63 79 71 80 64 81 65 82 69 83 72 84 66 85 67 86
REMARK SMILES IDX 70 87 68 88 47 89 48 90 56 91 49 92 50 93 54 94 57 95 51 96
REMARK SMILES IDX 52 97 55 98 53 99
REMARK H PARENT 14 6 18 33 77 52 45 63
REMARK Flexibility Score: inf
ROOT
ATOM      1  C   UNL A   1      32.812  28.851  23.930  1.00  0.00     0.042 C 
ENDROOT
BRANCH   1   2
ATOM      2  C   UNL A   1      34.040  28.432  23.106  1.00  0.00     0.117 C 
BRANCH   2   3
ATOM      3  N   UNL A   1      33.808  27.263  22.272  1.00  0.00    -0.355 N 
ATOM      4  C   UNL A   1      33.630  25.938  22.441  1.00  0.00     0.230 C 
ATOM      5  O   UNL A   1      33.246  25.386  21.392  1.00  0.00    -0.274 OA
ATOM      6  H   UNL A   1      33.769  27.508  21.319  1.00  0.00     0.163 HD
BRANCH   4   7
ATOM      7  C   UNL A   1      33.879  25.027  23.663  1.00  0.00     0.136 C 
ATOM      8  C   UNL A   1      30.613  24.489  26.490  1.00  0.00     0.161 A 
ATOM      9  C   UNL A   1      31.900  24.003  26.759  1.00  0.00     0.064 A 
ATOM     10  C   UNL A   1      30.401  25.274  25.342  1.00  0.00     0.161 A 
ATOM     11  C   UNL A   1      32.950  24.242  25.865  1.00  0.00     0.048 A 
ATOM     12  C   UNL A   1      31.459  25.503  24.448  1.00  0.00     0.056 A 
ATOM     13  C   UNL A   1      32.728  24.963  24.675  1.00  0.00    -0.016 A 
ATOM     14  C   UNL A   1      34.304  23.670  26.147  1.00  0.00     0.254 C 
ATOM     15  N   UNL A   1      35.137  23.493  25.041  1.00  0.00    -0.333 N 
ATOM     16  O   UNL A   1      34.629  23.390  27.299  1.00  0.00    -0.269 OA
ATOM     17  C   UNL A   1      34.562  23.628  23.673  1.00  0.00     0.132 C 
ATOM     18  C   UNL A   1      36.514  23.065  25.226  1.00  0.00     0.147 C 
BRANCH   8  19
ATOM     19  O   UNL A   1      29.528  24.146  27.251  1.00  0.00    -0.493 OA
ATOM     20  C   UNL A   1      29.153  22.774  27.257  1.00  0.00     0.278 C 
ENDBRANCH   8  19
BRANCH  10  21
ATOM     21  O   UNL A   1      29.234  25.858  24.920  1.00  0.00    -0.493 OA
ATOM     22  C   UNL A   1      29.303  26.820  23.878  1.00  0.00     0.278 C 
ENDBRANCH  10  21
BRANCH  17  23
ATOM     23  C   UNL A   1      33.689  22.385  23.382  1.00  0.00    -0.023 A 
ATOM     24  C   UNL A   1      32.774  22.374  22.331  1.00  0.00     0.006 A 
ATOM     25  C   UNL A   1      33.742  21.216  24.167  1.00  0.00     0.026 A 
ATOM     26  C   UNL A   1      32.056  21.232  21.967  1.00  0.00     0.002 A 
ATOM     27  C   UNL A   1      32.962  20.094  23.863  1.00  0.00     0.041 A 
ATOM     28  C   UNL A   1      32.153  20.082  22.735  1.00  0.00     0.020 A 
ATOM     29  Cl  UNL A   1      32.984  18.727  24.907  1.00  0.00    -0.084 Cl
ENDBRANCH  17  23
ENDBRANCH   4   7
ENDBRANCH   2   3
ENDBRANCH   1   2
BRANCH   1  30
ATOM     30  C   UNL A   1      33.014  29.004  25.435  1.00  0.00     0.118 C 
BRANCH  30  31
ATOM     31  N   UNL A   1      32.703  30.336  25.917  1.00  0.00    -0.352 N 
ATOM     32  C   UNL A   1      33.263  31.129  26.891  1.00  0.00     0.251 C 
ATOM     33  H   UNL A   1      31.939  30.755  25.457  1.00  0.00     0.163 HD
ATOM     34  O   UNL A   1      32.660  32.156  27.201  1.00  0.00    -0.269 OA
BRANCH  32  35
ATOM     35  C   UNL A   1      34.534  30.807  27.602  1.00  0.00     0.039 A 
ATOM     36  C   UNL A   1      34.669  29.516  28.136  1.00  0.00     0.014 A 
ATOM     37  C   UNL A   1      35.538  31.739  27.868  1.00  0.00     0.014 A 
ATOM     38  C   UNL A   1      35.797  29.160  28.889  1.00  0.00     0.010 A 
ATOM     39  C   UNL A   1      36.709  31.358  28.542  1.00  0.00     0.010 A 
ATOM     40  C   UNL A   1      36.846  30.071  29.080  1.00  0.00    -0.014 A 
BRANCH  40  41
ATOM     41  C   UNL A   1      38.062  29.698  29.864  1.00  0.00     0.031 A 
ATOM     42  C   UNL A   1      38.282  30.251  31.251  1.00  0.00     0.074 A 
ATOM     43  C   UNL A   1      38.992  28.886  29.323  1.00  0.00     0.049 A 
ATOM     44  N   UNL A   1      39.300  30.085  32.062  1.00  0.00    -0.248 NA
ATOM     45  C   UNL A   1      37.228  31.123  31.793  1.00  0.00     0.031 C 
ATOM     46  C   UNL A   1      38.927  28.302  27.984  1.00  0.00     0.029 A 
ATOM     47  N   UNL A   1      40.181  28.417  29.831  1.00  0.00    -0.354 N 
ATOM     48  C   UNL A   1      39.018  30.843  33.192  1.00  0.00     0.074 A 
ATOM     49  C   UNL A   1      37.758  31.511  32.944  1.00  0.00     0.031 C 
ATOM     50  C   UNL A   1      40.010  27.536  27.784  1.00  0.00     0.029 A 
ATOM     51  C   UNL A   1      40.871  27.607  28.961  1.00  0.00     0.049 A 
ATOM     52  H   UNL A   1      40.507  28.639  30.732  1.00  0.00     0.167 HD
ATOM     53  C   UNL A   1      39.727  30.957  34.342  1.00  0.00     0.037 A 
ATOM     54  C   UNL A   1      42.068  26.999  29.087  1.00  0.00     0.037 A 
ATOM     55  C   UNL A   1      40.967  30.271  34.605  1.00  0.00     0.049 A 
ATOM     56  C   UNL A   1      42.847  27.156  30.368  1.00  0.00     0.074 A 
ATOM     57  C   UNL A   1      41.728  30.278  35.761  1.00  0.00     0.029 A 
ATOM     58  N   UNL A   1      41.629  29.459  33.697  1.00  0.00    -0.354 N 
ATOM     59  N   UNL A   1      42.535  27.826  31.449  1.00  0.00    -0.248 NA
ATOM     60  C   UNL A   1      44.142  26.465  30.444  1.00  0.00     0.031 C 
ATOM     61  C   UNL A   1      42.878  29.515  35.536  1.00  0.00     0.029 A 
ATOM     62  C   UNL A   1      42.804  28.982  34.259  1.00  0.00     0.049 A 
ATOM     63  H   UNL A   1      41.313  29.251  32.789  1.00  0.00     0.167 HD
ATOM     64  C   UNL A   1      43.577  27.615  32.343  1.00  0.00     0.074 A 
ATOM     65  C   UNL A   1      44.522  26.740  31.684  1.00  0.00     0.031 C 
ATOM     66  C   UNL A   1      43.735  28.104  33.598  1.00  0.00     0.037 A 
BRANCH  53  67
ATOM     67  C   UNL A   1      39.182  31.859  35.415  1.00  0.00     0.064 A 
ATOM     68  C   UNL A   1      38.365  31.370  36.447  1.00  0.00     0.173 A 
ATOM     69  C   UNL A   1      39.518  33.222  35.439  1.00  0.00     0.173 A 
ATOM     70  F   UNL A   1      38.007  30.078  36.469  1.00  0.00    -0.203 F 
ATOM     71  C   UNL A   1      37.882  32.216  37.442  1.00  0.00     0.198 A 
ATOM     72  C   UNL A   1      39.060  34.058  36.454  1.00  0.00     0.198 A 
ATOM     73  F   UNL A   1      40.305  33.741  34.484  1.00  0.00    -0.203 F 
ATOM     74  F   UNL A   1      37.062  31.736  38.387  1.00  0.00    -0.200 F 
ATOM     75  C   UNL A   1      38.235  33.557  37.449  1.00  0.00     0.200 A 
ATOM     76  F   UNL A   1      39.417  35.350  36.469  1.00  0.00    -0.200 F 
ATOM     77  F   UNL A   1      37.776  34.368  38.413  1.00  0.00    -0.200 F 
ENDBRANCH  53  67
BRANCH  54  78
ATOM     78  C   UNL A   1      42.602  26.169  27.974  1.00  0.00     0.064 A 
ATOM     79  C   UNL A   1      43.449  26.723  27.003  1.00  0.00     0.173 A 
ATOM     80  C   UNL A   1      42.270  24.812  27.851  1.00  0.00     0.173 A 
ATOM     81  F   UNL A   1      43.777  28.022  27.063  1.00  0.00    -0.203 F 
ATOM     82  C   UNL A   1      43.924  25.957  25.940  1.00  0.00     0.198 A 
ATOM     83  C   UNL A   1      42.773  24.039  26.805  1.00  0.00     0.198 A 
ATOM     84  F   UNL A   1      41.467  24.232  28.754  1.00  0.00    -0.203 F 
ATOM     85  F   UNL A   1      44.690  26.526  24.998  1.00  0.00    -0.200 F 
ATOM     86  C   UNL A   1      43.592  24.615  25.845  1.00  0.00     0.200 A 
ATOM     87  F   UNL A   1      42.461  22.739  26.727  1.00  0.00    -0.200 F 
ATOM     88  F   UNL A   1      44.051  23.878  24.826  1.00  0.00    -0.200 F 
ENDBRANCH  54  78
BRANCH  66  89
ATOM     89  C   UNL A   1      44.957  27.672  34.359  1.00  0.00     0.064 A 
ATOM     90  C   UNL A   1      46.146  28.417  34.334  1.00  0.00     0.173 A 
ATOM     91  C   UNL A   1      44.924  26.519  35.159  1.00  0.00     0.173 A 
ATOM     92  F   UNL A   1      46.235  29.520  33.575  1.00  0.00    -0.203 F 
ATOM     93  C   UNL A   1      47.264  28.008  35.056  1.00  0.00     0.198 A 
ATOM     94  C   UNL A   1      46.033  26.131  35.906  1.00  0.00     0.198 A 
ATOM     95  F   UNL A   1      43.810  25.774  35.227  1.00  0.00    -0.203 F 
ATOM     96  F   UNL A   1      48.404  28.706  34.975  1.00  0.00    -0.200 F 
ATOM     97  C   UNL A   1      47.204  26.871  35.848  1.00  0.00     0.200 A 
ATOM     98  F   UNL A   1      45.967  25.041  36.683  1.00  0.00    -0.200 F 
ATOM     99  F   UNL A   1      48.278  26.483  36.548  1.00  0.00    -0.200 F 
ENDBRANCH  66  89
ENDBRANCH  40  41
ENDBRANCH  32  35
ENDBRANCH  30  31
ENDBRANCH   1  30
TORSDOF 13
ENDMDL
MODEL 3
REMARK VINA RESULT:     -12.9      3.596      6.960
REMARK SMILES COc1cc2c(cc1OC)[C@H](C(=O)NCCCNC(=O)c1ccc(-c3c4nc(c(-c5c(F)c(F)c(F)c(F)c5F)c5ccc([nH]5)c(-c5c(F)c(F)c(F)c(F)c5F)c5nc(c(-c6c(F)c(F)c(F)c(F)c6F)c6ccc3[nH]6)C=C5)C=C4)cc1)[C@H](c1cccc(Cl)c1)N(C)C2=O
REMARK SMILES IDX 16 1 15 2 14 3 12 4 13 5 11 7 3 8 4 9 8 10 5 11 7 12 6 13
REMARK SMILES IDX 94 14 92 15 95 16 84 17 93 18 2 19 1 20 9 21 10 22 85 23
REMARK SMILES IDX 86 24 91 25 87 26 89 27 88 28 90 29 17 30 18 31 19 32 20 34
REMARK SMILES IDX 21 35 22 36 83 37 23 38 82 39 24 40 25 41 26 42 76 43 27 44
REMARK SMILES IDX 81 45 75 46 77 47 28 48 80 49 74 50 73 51 29 53 61 54 41 55
REMARK SMILES IDX 60 56 42 57 45 58 59 59 78 60 43 61 44 62 58 64 79 65 46 66
REMARK SMILES IDX 30 67 31 68 39 69 32 70 33 71 37 72 40 73 34 74 35 75 38 76
REMARK SMILES IDX 36 77 62 78 63 79 71 80 64 81 65 82 69 83 72 84 66 85 67 86
REMARK SMILES IDX 70 87 68 88 47 89 48 90 56 91 49 92 50 93 54 94 57 95 51 96
REMARK SMILES IDX 52 97 55 98 53 99
REMARK H PARENT 14 6 18 33 77 52 45 63
REMARK Flexibility Score: inf
ROOT
ATOM      1  C   UNL A   1      35.671  23.755  26.271  1.00  0.00     0.042 C 
ENDROOT
BRANCH   1   2
ATOM      2  C   UNL A   1      34.498  22.764  26.347  1.00  0.00     0.117 C 
BRANCH   2   3
ATOM      3  N   UNL A   1      33.266  23.361  26.838  1.00  0.00    -0.355 N 
ATOM      4  C   UNL A   1      32.488  24.423  26.549  1.00  0.00     0.230 C 
ATOM      5  O   UNL A   1      31.397  24.372  27.148  1.00  0.00    -0.274 OA
ATOM      6  H   UNL A   1      32.898  22.847  27.594  1.00  0.00     0.163 HD
BRANCH   4   7
ATOM      7  C   UNL A   1      32.754  25.669  25.677  1.00  0.00     0.136 C 
ATOM      8  C   UNL A   1      33.321  25.071  21.403  1.00  0.00     0.161 A 
ATOM      9  C   UNL A   1      33.543  26.319  22.002  1.00  0.00     0.064 A 
ATOM     10  C   UNL A   1      33.029  23.960  22.216  1.00  0.00     0.161 A 
ATOM     11  C   UNL A   1      33.416  26.473  23.387  1.00  0.00     0.048 A 
ATOM     12  C   UNL A   1      32.897  24.127  23.603  1.00  0.00     0.056 A 
ATOM     13  C   UNL A   1      33.050  25.382  24.200  1.00  0.00    -0.016 A 
ATOM     14  C   UNL A   1      33.608  27.825  23.999  1.00  0.00     0.254 C 
ATOM     15  N   UNL A   1      32.992  28.032  25.235  1.00  0.00    -0.333 N 
ATOM     16  O   UNL A   1      34.282  28.676  23.421  1.00  0.00    -0.269 OA
ATOM     17  C   UNL A   1      32.002  27.032  25.726  1.00  0.00     0.132 C 
ATOM     18  C   UNL A   1      33.225  29.265  25.969  1.00  0.00     0.147 C 
BRANCH   8  19
ATOM     19  O   UNL A   1      33.277  24.910  20.044  1.00  0.00    -0.493 OA
ATOM     20  C   UNL A   1      32.214  25.553  19.352  1.00  0.00     0.278 C 
ENDBRANCH   8  19
BRANCH  10  21
ATOM     21  O   UNL A   1      32.806  22.664  21.828  1.00  0.00    -0.493 OA
ATOM     22  C   UNL A   1      32.211  21.777  22.764  1.00  0.00     0.278 C 
ENDBRANCH  10  21
BRANCH  17  23
ATOM     23  C   UNL A   1      30.703  27.181  24.901  1.00  0.00    -0.023 A 
ATOM     24  C   UNL A   1      29.736  26.177  24.888  1.00  0.00     0.006 A 
ATOM     25  C   UNL A   1      30.433  28.310  24.102  1.00  0.00     0.026 A 
ATOM     26  C   UNL A   1      28.501  26.328  24.252  1.00  0.00     0.002 A 
ATOM     27  C   UNL A   1      29.234  28.432  23.390  1.00  0.00     0.041 A 
ATOM     28  C   UNL A   1      28.245  27.465  23.500  1.00  0.00     0.020 A 
ATOM     29  Cl  UNL A   1      28.990  29.779  22.347  1.00  0.00    -0.084 Cl
ENDBRANCH  17  23
ENDBRANCH   4   7
ENDBRANCH   2   3
ENDBRANCH   1   2
BRANCH   1  30
ATOM     30  C   UNL A   1      36.655  23.569  25.121  1.00  0.00     0.118 C 
BRANCH  30  31
ATOM     31  N   UNL A   1      37.773  22.709  25.463  1.00  0.00    -0.352 N 
ATOM     32  C   UNL A   1      38.957  22.938  26.122  1.00  0.00     0.251 C 
ATOM     33  H   UNL A   1      37.662  21.778  25.160  1.00  0.00     0.163 HD
ATOM     34  O   UNL A   1      39.800  22.042  26.102  1.00  0.00    -0.269 OA
BRANCH  32  35
ATOM     35  C   UNL A   1      39.285  24.207  26.836  1.00  0.00     0.039 A 
ATOM     36  C   UNL A   1      40.051  25.159  26.145  1.00  0.00     0.014 A 
ATOM     37  C   UNL A   1      38.979  24.453  28.175  1.00  0.00     0.014 A 
ATOM     38  C   UNL A   1      40.471  26.341  26.772  1.00  0.00     0.010 A 
ATOM     39  C   UNL A   1      39.319  25.675  28.775  1.00  0.00     0.010 A 
ATOM     40  C   UNL A   1      40.087  26.627  28.090  1.00  0.00    -0.014 A 
BRANCH  40  41
ATOM     41  C   UNL A   1      40.513  27.891  28.763  1.00  0.00     0.031 A 
ATOM     42  C   UNL A   1      41.929  28.062  29.254  1.00  0.00     0.074 A 
ATOM     43  C   UNL A   1      39.620  28.881  28.967  1.00  0.00     0.049 A 
ATOM     44  N   UNL A   1      42.468  29.063  29.909  1.00  0.00    -0.248 NA
ATOM     45  C   UNL A   1      42.860  26.953  28.995  1.00  0.00     0.031 C 
ATOM     46  C   UNL A   1      38.212  28.842  28.573  1.00  0.00     0.029 A 
ATOM     47  N   UNL A   1      39.763  30.112  29.564  1.00  0.00    -0.354 N 
ATOM     48  C   UNL A   1      43.786  28.696  30.153  1.00  0.00     0.074 A 
ATOM     49  C   UNL A   1      43.954  27.360  29.623  1.00  0.00     0.031 C 
ATOM     50  C   UNL A   1      37.627  30.001  28.916  1.00  0.00     0.029 A 
ATOM     51  C   UNL A   1      38.603  30.849  29.593  1.00  0.00     0.049 A 
ATOM     52  H   UNL A   1      40.615  30.434  29.936  1.00  0.00     0.167 HD
ATOM     53  C   UNL A   1      44.776  29.412  30.743  1.00  0.00     0.037 A 
ATOM     54  C   UNL A   1      38.347  32.065  30.116  1.00  0.00     0.037 A 
ATOM     55  C   UNL A   1      44.621  30.753  31.246  1.00  0.00     0.049 A 
ATOM     56  C   UNL A   1      39.458  32.833  30.783  1.00  0.00     0.074 A 
ATOM     57  C   UNL A   1      45.580  31.580  31.806  1.00  0.00     0.029 A 
ATOM     58  N   UNL A   1      43.431  31.463  31.252  1.00  0.00    -0.354 N 
ATOM     59  N   UNL A   1      40.714  32.496  30.950  1.00  0.00    -0.248 NA
ATOM     60  C   UNL A   1      39.116  34.153  31.330  1.00  0.00     0.031 C 
ATOM     61  C   UNL A   1      44.959  32.769  32.202  1.00  0.00     0.029 A 
ATOM     62  C   UNL A   1      43.626  32.708  31.833  1.00  0.00     0.049 A 
ATOM     63  H   UNL A   1      42.574  31.134  30.897  1.00  0.00     0.167 HD
ATOM     64  C   UNL A   1      41.316  33.570  31.592  1.00  0.00     0.074 A 
ATOM     65  C   UNL A   1      40.292  34.578  31.769  1.00  0.00     0.031 C 
ATOM     66  C   UNL A   1      42.602  33.709  31.997  1.00  0.00     0.037 A 
BRANCH  53  67
ATOM     67  C   UNL A   1      46.125  28.761  30.879  1.00  0.00     0.064 A 
ATOM     68  C   UNL A   1      47.103  28.870  29.878  1.00  0.00     0.173 A 
ATOM     69  C   UNL A   1      46.462  28.058  32.047  1.00  0.00     0.173 A 
ATOM     70  F   UNL A   1      46.832  29.524  28.739  1.00  0.00    -0.203 F 
ATOM     71  C   UNL A   1      48.353  28.274  30.027  1.00  0.00     0.198 A 
ATOM     72  C   UNL A   1      47.724  27.493  32.207  1.00  0.00     0.198 A 
ATOM     73  F   UNL A   1      45.570  27.932  33.042  1.00  0.00    -0.203 F 
ATOM     74  F   UNL A   1      49.251  28.348  29.035  1.00  0.00    -0.200 F 
ATOM     75  C   UNL A   1      48.666  27.593  31.194  1.00  0.00     0.200 A 
ATOM     76  F   UNL A   1      48.031  26.850  33.343  1.00  0.00    -0.200 F 
ATOM     77  F   UNL A   1      49.872  27.028  31.339  1.00  0.00    -0.200 F 
ENDBRANCH  53  67
BRANCH  54  78
ATOM     78  C   UNL A   1      36.981  32.644  30.019  1.00  0.00     0.064 A 
ATOM     79  C   UNL A   1      36.071  32.530  31.080  1.00  0.00     0.173 A 
ATOM     80  C   UNL A   1      36.551  33.312  28.862  1.00  0.00     0.173 A 
ATOM     81  F   UNL A   1      36.424  31.880  32.198  1.00  0.00    -0.203 F 
ATOM     82  C   UNL A   1      34.778  33.042  30.979  1.00  0.00     0.198 A 
ATOM     83  C   UNL A   1      35.269  33.851  28.775  1.00  0.00     0.198 A 
ATOM     84  F   UNL A   1      37.382  33.451  27.819  1.00  0.00    -0.203 F 
ATOM     85  F   UNL A   1      33.913  32.873  31.989  1.00  0.00    -0.200 F 
ATOM     86  C   UNL A   1      34.380  33.708  29.830  1.00  0.00     0.200 A 
ATOM     87  F   UNL A   1      34.895  34.508  27.668  1.00  0.00    -0.200 F 
ATOM     88  F   UNL A   1      33.140  34.203  29.735  1.00  0.00    -0.200 F 
ENDBRANCH  54  78
BRANCH  66  89
ATOM     89  C   UNL A   1      42.989  35.011  32.638  1.00  0.00     0.064 A 
ATOM     90  C   UNL A   1      43.454  36.099  31.881  1.00  0.00     0.173 A 
ATOM     91  C   UNL A   1      42.856  35.188  34.024  1.00  0.00     0.173 A 
ATOM     92  F   UNL A   1      43.613  35.978  30.555  1.00  0.00    -0.203 F 
ATOM     93  C   UNL A   1      43.797  37.302  32.492  1.00  0.00     0.198 A 
ATOM     94  C   UNL A   1      43.168  36.404  34.627  1.00  0.00     0.198 A 
ATOM     95  F   UNL A   1      42.408  34.184  34.794  1.00  0.00    -0.203 F 
ATOM     96  F   UNL A   1      44.287  38.309  31.756  1.00  0.00    -0.200 F 
ATOM     97  C   UNL A   1      43.646  37.457  33.862  1.00  0.00     0.200 A 
ATOM     98  F   UNL A   1      43.006  36.556  35.948  1.00  0.00    -0.200 F 
ATOM     99  F   UNL A   1      43.968  38.618  34.446  1.00  0.00    -0.200 F 
ENDBRANCH  66  89
ENDBRANCH  40  41
ENDBRANCH  32  35
ENDBRANCH  30  31
ENDBRANCH   1  30
TORSDOF 13
ENDMDL
