MODEL 1
REMARK VINA RESULT:     -11.9      0.000      0.000
REMARK SMILES CC[C@H](C)Oc1ccc(NC(=O)/C=C/C(=O)NCCCNC(=O)c2ccc(-c3c4nc(c(-c5c(F)c(F)c(F)c(F)c5F)c5ccc([nH]5)c(-c5c(F)c(F)c(F)c(F)c5F)c5nc(c(-c6c(F)c(F)c(F)c(F)c6F)c6ccc3[nH]6)C=C5)C=C4)cc2)cc1
REMARK SMILES IDX 15 1 16 2 17 3 14 5 13 6 11 7 10 8 12 10 9 11 6 12 7 13
REMARK SMILES IDX 88 14 8 15 87 16 5 17 3 18 4 19 2 20 1 21 18 22 19 23 20 24
REMARK SMILES IDX 21 25 22 26 23 28 24 29 25 30 86 31 26 32 85 33 27 34 28 35
REMARK SMILES IDX 29 36 79 37 30 38 84 39 78 40 80 41 31 42 83 43 77 44 76 45
REMARK SMILES IDX 32 47 64 48 44 49 63 50 45 51 48 52 62 53 81 54 46 55 47 56
REMARK SMILES IDX 61 58 82 59 49 60 33 61 34 62 42 63 35 64 36 65 40 66 43 67
REMARK SMILES IDX 37 68 38 69 41 70 39 71 65 72 66 73 74 74 67 75 68 76 72 77
REMARK SMILES IDX 75 78 69 79 70 80 73 81 71 82 50 83 51 84 59 85 52 86 53 87
REMARK SMILES IDX 57 88 60 89 54 90 55 91 58 92 56 93
REMARK H PARENT 17 4 10 9 21 27 80 46 48 57
REMARK Flexibility Score: inf
ROOT
ATOM      1  C   UNL A   1      33.647  29.214  27.077  1.00  0.00     0.244 C 
ATOM      2  O   UNL A   1      34.586  29.033  27.847  1.00  0.00    -0.270 OA
ATOM      3  N   UNL A   1      32.685  30.121  27.377  1.00  0.00    -0.352 N 
ATOM      4  H   UNL A   1      32.737  30.504  28.283  1.00  0.00     0.163 HD
ENDROOT
BRANCH   1   5
ATOM      5  C   UNL A   1      33.573  28.452  25.821  1.00  0.00     0.077 C 
ATOM      6  C   UNL A   1      33.182  27.170  25.836  1.00  0.00     0.077 C 
BRANCH   6   7
ATOM      7  C   UNL A   1      33.347  26.338  24.636  1.00  0.00     0.248 C 
ATOM      8  N   UNL A   1      32.378  26.321  23.672  1.00  0.00    -0.323 N 
ATOM      9  H   UNL A   1      32.538  25.668  22.954  1.00  0.00     0.170 HD
ATOM     10  O   UNL A   1      34.358  25.647  24.527  1.00  0.00    -0.270 OA
BRANCH   8  11
ATOM     11  C   UNL A   1      31.192  27.067  23.518  1.00  0.00     0.041 A 
ATOM     12  C   UNL A   1      28.883  28.537  22.851  1.00  0.00     0.119 A 
ATOM     13  C   UNL A   1      28.792  27.394  23.638  1.00  0.00     0.048 A 
ATOM     14  C   UNL A   1      30.141  29.005  22.492  1.00  0.00     0.048 A 
ATOM     15  C   UNL A   1      29.939  26.676  23.988  1.00  0.00     0.030 A 
ATOM     16  C   UNL A   1      31.290  28.275  22.825  1.00  0.00     0.030 A 
BRANCH  12  17
ATOM     17  O   UNL A   1      27.696  29.142  22.578  1.00  0.00    -0.491 OA
BRANCH  17  18
ATOM     18  C   UNL A   1      27.608  30.564  22.397  1.00  0.00     0.170 C 
ATOM     19  C   UNL A   1      28.040  31.335  23.642  1.00  0.00     0.053 C 
BRANCH  18  20
ATOM     20  C   UNL A   1      28.222  31.069  21.079  1.00  0.00     0.041 C 
ATOM     21  C   UNL A   1      27.870  32.521  20.784  1.00  0.00     0.008 C 
ENDBRANCH  18  20
ENDBRANCH  17  18
ENDBRANCH  12  17
ENDBRANCH   8  11
ENDBRANCH   6   7
ENDBRANCH   1   5
BRANCH   3  22
ATOM     22  C   UNL A   1      31.592  30.612  26.558  1.00  0.00     0.118 C 
BRANCH  22  23
ATOM     23  C   UNL A   1      31.463  32.127  26.644  1.00  0.00     0.042 C 
BRANCH  23  24
ATOM     24  C   UNL A   1      32.744  32.819  27.101  1.00  0.00     0.118 C 
BRANCH  24  25
ATOM     25  N   UNL A   1      32.497  34.179  27.564  1.00  0.00    -0.352 N 
ATOM     26  C   UNL A   1      32.996  34.838  28.656  1.00  0.00     0.251 C 
ATOM     27  H   UNL A   1      31.878  34.704  27.007  1.00  0.00     0.163 HD
ATOM     28  O   UNL A   1      32.464  35.876  29.046  1.00  0.00    -0.269 OA
BRANCH  26  29
ATOM     29  C   UNL A   1      34.176  34.306  29.362  1.00  0.00     0.039 A 
ATOM     30  C   UNL A   1      33.998  33.590  30.548  1.00  0.00     0.014 A 
ATOM     31  C   UNL A   1      35.460  34.545  28.868  1.00  0.00     0.014 A 
ATOM     32  C   UNL A   1      35.110  33.062  31.209  1.00  0.00     0.010 A 
ATOM     33  C   UNL A   1      36.558  33.953  29.480  1.00  0.00     0.010 A 
ATOM     34  C   UNL A   1      36.394  33.213  30.661  1.00  0.00    -0.014 A 
BRANCH  34  35
ATOM     35  C   UNL A   1      37.589  32.619  31.306  1.00  0.00     0.031 A 
ATOM     36  C   UNL A   1      38.313  31.485  30.637  1.00  0.00     0.074 A 
ATOM     37  C   UNL A   1      37.964  33.040  32.529  1.00  0.00     0.049 A 
ATOM     38  N   UNL A   1      39.299  30.749  31.086  1.00  0.00    -0.248 NA
ATOM     39  C   UNL A   1      37.843  31.102  29.295  1.00  0.00     0.031 C 
ATOM     40  C   UNL A   1      37.308  34.100  33.296  1.00  0.00     0.029 A 
ATOM     41  N   UNL A   1      38.976  32.613  33.351  1.00  0.00    -0.354 N 
ATOM     42  C   UNL A   1      39.547  29.808  30.096  1.00  0.00     0.074 A 
ATOM     43  C   UNL A   1      38.579  30.030  29.046  1.00  0.00     0.031 C 
ATOM     44  C   UNL A   1      37.942  34.251  34.469  1.00  0.00     0.029 A 
ATOM     45  C   UNL A   1      39.022  33.273  34.554  1.00  0.00     0.049 A 
ATOM     46  H   UNL A   1      39.609  31.901  33.101  1.00  0.00     0.167 HD
ATOM     47  C   UNL A   1      40.511  28.858  30.060  1.00  0.00     0.037 A 
ATOM     48  C   UNL A   1      39.837  33.097  35.611  1.00  0.00     0.037 A 
ATOM     49  C   UNL A   1      41.492  28.667  31.096  1.00  0.00     0.049 A 
ATOM     50  C   UNL A   1      40.905  32.039  35.542  1.00  0.00     0.074 A 
ATOM     51  C   UNL A   1      42.554  27.780  31.126  1.00  0.00     0.029 A 
ATOM     52  N   UNL A   1      41.528  29.378  32.287  1.00  0.00    -0.354 N 
ATOM     53  N   UNL A   1      41.175  31.198  34.575  1.00  0.00    -0.248 NA
ATOM     54  C   UNL A   1      41.784  31.909  36.712  1.00  0.00     0.031 C 
ATOM     55  C   UNL A   1      43.207  27.925  32.355  1.00  0.00     0.029 A 
ATOM     56  C   UNL A   1      42.584  28.936  33.069  1.00  0.00     0.049 A 
ATOM     57  H   UNL A   1      40.898  30.091  32.539  1.00  0.00     0.167 HD
ATOM     58  C   UNL A   1      42.269  30.460  35.003  1.00  0.00     0.074 A 
ATOM     59  C   UNL A   1      42.622  30.962  36.315  1.00  0.00     0.031 C 
ATOM     60  C   UNL A   1      42.923  29.456  34.368  1.00  0.00     0.037 A 
BRANCH  47  61
ATOM     61  C   UNL A   1      40.556  27.956  28.861  1.00  0.00     0.064 A 
ATOM     62  C   UNL A   1      39.811  26.768  28.804  1.00  0.00     0.173 A 
ATOM     63  C   UNL A   1      41.327  28.299  27.740  1.00  0.00     0.173 A 
ATOM     64  F   UNL A   1      39.066  26.388  29.853  1.00  0.00    -0.203 F 
ATOM     65  C   UNL A   1      39.861  25.942  27.684  1.00  0.00     0.198 A 
ATOM     66  C   UNL A   1      41.350  27.488  26.609  1.00  0.00     0.198 A 
ATOM     67  F   UNL A   1      42.055  29.427  27.739  1.00  0.00    -0.203 F 
ATOM     68  F   UNL A   1      39.182  24.787  27.673  1.00  0.00    -0.200 F 
ATOM     69  C   UNL A   1      40.624  26.306  26.585  1.00  0.00     0.200 A 
ATOM     70  F   UNL A   1      42.079  27.847  25.543  1.00  0.00    -0.200 F 
ATOM     71  F   UNL A   1      40.666  25.515  25.504  1.00  0.00    -0.200 F 
ENDBRANCH  47  61
BRANCH  48  72
ATOM     72  C   UNL A   1      39.690  33.960  36.812  1.00  0.00     0.064 A 
ATOM     73  C   UNL A   1      40.354  35.191  36.896  1.00  0.00     0.173 A 
ATOM     74  C   UNL A   1      38.885  33.577  37.894  1.00  0.00     0.173 A 
ATOM     75  F   UNL A   1      41.150  35.592  35.895  1.00  0.00    -0.203 F 
ATOM     76  C   UNL A   1      40.234  35.998  38.025  1.00  0.00     0.198 A 
ATOM     77  C   UNL A   1      38.743  34.398  39.011  1.00  0.00     0.198 A 
ATOM     78  F   UNL A   1      38.223  32.411  37.860  1.00  0.00    -0.203 F 
ATOM     79  F   UNL A   1      40.914  37.150  38.099  1.00  0.00    -0.200 F 
ATOM     80  C   UNL A   1      39.423  35.603  39.080  1.00  0.00     0.200 A 
ATOM     81  F   UNL A   1      37.948  34.019  40.021  1.00  0.00    -0.200 F 
ATOM     82  F   UNL A   1      39.305  36.382  40.164  1.00  0.00    -0.200 F 
ENDBRANCH  48  72
BRANCH  60  83
ATOM     83  C   UNL A   1      44.110  28.860  35.065  1.00  0.00     0.064 A 
ATOM     84  C   UNL A   1      43.986  27.745  35.905  1.00  0.00     0.173 A 
ATOM     85  C   UNL A   1      45.395  29.382  34.848  1.00  0.00     0.173 A 
ATOM     86  F   UNL A   1      42.777  27.219  36.156  1.00  0.00    -0.203 F 
ATOM     87  C   UNL A   1      45.103  27.185  36.519  1.00  0.00     0.198 A 
ATOM     88  C   UNL A   1      46.512  28.802  35.440  1.00  0.00     0.198 A 
ATOM     89  F   UNL A   1      45.567  30.445  34.048  1.00  0.00    -0.203 F 
ATOM     90  F   UNL A   1      44.957  26.145  37.353  1.00  0.00    -0.200 F 
ATOM     91  C   UNL A   1      46.365  27.708  36.280  1.00  0.00     0.200 A 
ATOM     92  F   UNL A   1      47.732  29.300  35.197  1.00  0.00    -0.200 F 
ATOM     93  F   UNL A   1      47.440  27.162  36.864  1.00  0.00    -0.200 F 
ENDBRANCH  60  83
ENDBRANCH  34  35
ENDBRANCH  26  29
ENDBRANCH  24  25
ENDBRANCH  23  24
ENDBRANCH  22  23
ENDBRANCH   3  22
TORSDOF 15
ENDMDL
MODEL 2
REMARK VINA RESULT:     -11.9      0.871      7.431
REMARK SMILES CC[C@H](C)Oc1ccc(NC(=O)/C=C/C(=O)NCCCNC(=O)c2ccc(-c3c4nc(c(-c5c(F)c(F)c(F)c(F)c5F)c5ccc([nH]5)c(-c5c(F)c(F)c(F)c(F)c5F)c5nc(c(-c6c(F)c(F)c(F)c(F)c6F)c6ccc3[nH]6)C=C5)C=C4)cc2)cc1
REMARK SMILES IDX 15 1 16 2 17 3 14 5 13 6 11 7 10 8 12 10 9 11 6 12 7 13
REMARK SMILES IDX 88 14 8 15 87 16 5 17 3 18 4 19 2 20 1 21 18 22 19 23 20 24
REMARK SMILES IDX 21 25 22 26 23 28 24 29 25 30 86 31 26 32 85 33 27 34 28 35
REMARK SMILES IDX 29 36 79 37 30 38 84 39 78 40 80 41 31 42 83 43 77 44 76 45
REMARK SMILES IDX 32 47 64 48 44 49 63 50 45 51 48 52 62 53 81 54 46 55 47 56
REMARK SMILES IDX 61 58 82 59 49 60 33 61 34 62 42 63 35 64 36 65 40 66 43 67
REMARK SMILES IDX 37 68 38 69 41 70 39 71 65 72 66 73 74 74 67 75 68 76 72 77
REMARK SMILES IDX 75 78 69 79 70 80 73 81 71 82 50 83 51 84 59 85 52 86 53 87
REMARK SMILES IDX 57 88 60 89 54 90 55 91 58 92 56 93
REMARK H PARENT 17 4 10 9 21 27 80 46 48 57
REMARK Flexibility Score: inf
ROOT
ATOM      1  C   UNL A   1      33.959  29.396  27.243  1.00  0.00     0.244 C 
ATOM      2  O   UNL A   1      34.952  29.339  27.962  1.00  0.00    -0.270 OA
ATOM      3  N   UNL A   1      32.934  30.224  27.561  1.00  0.00    -0.352 N 
ATOM      4  H   UNL A   1      32.999  30.653  28.446  1.00  0.00     0.163 HD
ENDROOT
BRANCH   1   5
ATOM      5  C   UNL A   1      33.886  28.571  26.028  1.00  0.00     0.077 C 
ATOM      6  C   UNL A   1      33.289  27.372  26.065  1.00  0.00     0.077 C 
BRANCH   6   7
ATOM      7  C   UNL A   1      33.435  26.443  24.935  1.00  0.00     0.248 C 
ATOM      8  N   UNL A   1      32.566  26.501  23.881  1.00  0.00    -0.323 N 
ATOM      9  H   UNL A   1      32.689  25.783  23.219  1.00  0.00     0.170 HD
ATOM     10  O   UNL A   1      34.335  25.607  24.965  1.00  0.00    -0.270 OA
BRANCH   8  11
ATOM     11  C   UNL A   1      31.525  27.398  23.568  1.00  0.00     0.041 A 
ATOM     12  C   UNL A   1      29.542  29.147  22.594  1.00  0.00     0.119 A 
ATOM     13  C   UNL A   1      29.200  28.068  23.403  1.00  0.00     0.048 A 
ATOM     14  C   UNL A   1      30.886  29.413  22.366  1.00  0.00     0.048 A 
ATOM     15  C   UNL A   1      30.185  27.213  23.905  1.00  0.00     0.030 A 
ATOM     16  C   UNL A   1      31.873  28.545  22.851  1.00  0.00     0.030 A 
BRANCH  12  17
ATOM     17  O   UNL A   1      28.492  29.899  22.169  1.00  0.00    -0.491 OA
BRANCH  17  18
ATOM     18  C   UNL A   1      28.643  31.300  21.893  1.00  0.00     0.170 C 
ATOM     19  C   UNL A   1      28.027  31.698  20.554  1.00  0.00     0.053 C 
BRANCH  18  20
ATOM     20  C   UNL A   1      28.269  32.216  23.073  1.00  0.00     0.041 C 
ATOM     21  C   UNL A   1      29.129  33.472  23.138  1.00  0.00     0.008 C 
ENDBRANCH  18  20
ENDBRANCH  17  18
ENDBRANCH  12  17
ENDBRANCH   8  11
ENDBRANCH   6   7
ENDBRANCH   1   5
BRANCH   3  22
ATOM     22  C   UNL A   1      31.754  30.572  26.790  1.00  0.00     0.118 C 
BRANCH  22  23
ATOM     23  C   UNL A   1      31.445  32.061  26.881  1.00  0.00     0.042 C 
BRANCH  23  24
ATOM     24  C   UNL A   1      32.678  32.947  26.731  1.00  0.00     0.118 C 
BRANCH  24  25
ATOM     25  N   UNL A   1      32.544  34.201  27.461  1.00  0.00    -0.352 N 
ATOM     26  C   UNL A   1      33.110  34.592  28.645  1.00  0.00     0.251 C 
ATOM     27  H   UNL A   1      31.957  34.870  27.038  1.00  0.00     0.163 HD
ATOM     28  O   UNL A   1      32.665  35.567  29.249  1.00  0.00    -0.269 OA
BRANCH  26  29
ATOM     29  C   UNL A   1      34.258  33.847  29.194  1.00  0.00     0.039 A 
ATOM     30  C   UNL A   1      35.553  34.310  28.953  1.00  0.00     0.014 A 
ATOM     31  C   UNL A   1      34.052  32.672  29.921  1.00  0.00     0.014 A 
ATOM     32  C   UNL A   1      36.643  33.623  29.492  1.00  0.00     0.010 A 
ATOM     33  C   UNL A   1      35.129  32.035  30.523  1.00  0.00     0.010 A 
ATOM     34  C   UNL A   1      36.436  32.498  30.308  1.00  0.00    -0.014 A 
BRANCH  34  35
ATOM     35  C   UNL A   1      37.565  31.778  30.941  1.00  0.00     0.031 A 
ATOM     36  C   UNL A   1      38.015  32.160  32.322  1.00  0.00     0.074 A 
ATOM     37  C   UNL A   1      38.238  30.847  30.238  1.00  0.00     0.049 A 
ATOM     38  N   UNL A   1      39.052  31.742  33.004  1.00  0.00    -0.248 NA
ATOM     39  C   UNL A   1      37.211  33.177  33.020  1.00  0.00     0.031 C 
ATOM     40  C   UNL A   1      37.923  30.428  28.871  1.00  0.00     0.029 A 
ATOM     41  N   UNL A   1      39.340  30.099  30.569  1.00  0.00    -0.354 N 
ATOM     42  C   UNL A   1      39.036  32.459  34.192  1.00  0.00     0.074 A 
ATOM     43  C   UNL A   1      37.919  33.374  34.121  1.00  0.00     0.031 C 
ATOM     44  C   UNL A   1      38.801  29.488  28.487  1.00  0.00     0.029 A 
ATOM     45  C   UNL A   1      39.763  29.269  29.561  1.00  0.00     0.049 A 
ATOM     46  H   UNL A   1      39.785  30.153  31.446  1.00  0.00     0.167 HD
ATOM     47  C   UNL A   1      39.867  32.346  35.255  1.00  0.00     0.037 A 
ATOM     48  C   UNL A   1      40.818  28.434  29.508  1.00  0.00     0.037 A 
ATOM     49  C   UNL A   1      40.956  31.408  35.330  1.00  0.00     0.049 A 
ATOM     50  C   UNL A   1      41.723  28.322  30.706  1.00  0.00     0.074 A 
ATOM     51  C   UNL A   1      41.814  31.164  36.387  1.00  0.00     0.029 A 
ATOM     52  N   UNL A   1      41.334  30.557  34.300  1.00  0.00    -0.354 N 
ATOM     53  N   UNL A   1      41.660  28.956  31.851  1.00  0.00    -0.248 NA
ATOM     54  C   UNL A   1      42.842  27.376  30.605  1.00  0.00     0.031 C 
ATOM     55  C   UNL A   1      42.740  30.196  35.983  1.00  0.00     0.029 A 
ATOM     56  C   UNL A   1      42.428  29.801  34.692  1.00  0.00     0.049 A 
ATOM     57  H   UNL A   1      40.891  30.499  33.423  1.00  0.00     0.167 HD
ATOM     58  C   UNL A   1      42.709  28.467  32.617  1.00  0.00     0.074 A 
ATOM     59  C   UNL A   1      43.386  27.473  31.809  1.00  0.00     0.031 C 
ATOM     60  C   UNL A   1      43.080  28.809  33.875  1.00  0.00     0.037 A 
BRANCH  47  61
ATOM     61  C   UNL A   1      39.629  33.256  36.425  1.00  0.00     0.064 A 
ATOM     62  C   UNL A   1      38.751  32.906  37.464  1.00  0.00     0.173 A 
ATOM     63  C   UNL A   1      40.310  34.478  36.528  1.00  0.00     0.173 A 
ATOM     64  F   UNL A   1      38.066  31.753  37.409  1.00  0.00    -0.203 F 
ATOM     65  C   UNL A   1      38.541  33.759  38.544  1.00  0.00     0.198 A 
ATOM     66  C   UNL A   1      40.122  35.315  37.625  1.00  0.00     0.198 A 
ATOM     67  F   UNL A   1      41.164  34.860  35.566  1.00  0.00    -0.203 F 
ATOM     68  F   UNL A   1      37.660  33.427  39.497  1.00  0.00    -0.200 F 
ATOM     69  C   UNL A   1      39.232  34.958  38.628  1.00  0.00     0.200 A 
ATOM     70  F   UNL A   1      40.799  36.468  37.711  1.00  0.00    -0.200 F 
ATOM     71  F   UNL A   1      39.035  35.776  39.672  1.00  0.00    -0.200 F 
ENDBRANCH  47  61
BRANCH  48  72
ATOM     72  C   UNL A   1      41.060  27.621  28.287  1.00  0.00     0.064 A 
ATOM     73  C   UNL A   1      40.496  26.345  28.153  1.00  0.00     0.173 A 
ATOM     74  C   UNL A   1      41.852  28.100  27.234  1.00  0.00     0.173 A 
ATOM     75  F   UNL A   1      39.747  25.836  29.141  1.00  0.00    -0.203 F 
ATOM     76  C   UNL A   1      40.732  25.571  27.018  1.00  0.00     0.198 A 
ATOM     77  C   UNL A   1      42.064  27.336  26.089  1.00  0.00     0.198 A 
ATOM     78  F   UNL A   1      42.409  29.318  27.312  1.00  0.00    -0.203 F 
ATOM     79  F   UNL A   1      40.217  24.337  26.934  1.00  0.00    -0.200 F 
ATOM     80  C   UNL A   1      41.511  26.070  25.984  1.00  0.00     0.200 A 
ATOM     81  F   UNL A   1      42.804  27.828  25.086  1.00  0.00    -0.200 F 
ATOM     82  F   UNL A   1      41.733  25.326  24.892  1.00  0.00    -0.200 F 
ENDBRANCH  48  72
BRANCH  60  83
ATOM     83  C   UNL A   1      44.246  28.078  34.471  1.00  0.00     0.064 A 
ATOM     84  C   UNL A   1      44.084  26.859  35.145  1.00  0.00     0.173 A 
ATOM     85  C   UNL A   1      45.548  28.579  34.320  1.00  0.00     0.173 A 
ATOM     86  F   UNL A   1      42.858  26.347  35.327  1.00  0.00    -0.203 F 
ATOM     87  C   UNL A   1      45.181  26.179  35.664  1.00  0.00     0.198 A 
ATOM     88  C   UNL A   1      46.646  27.882  34.815  1.00  0.00     0.198 A 
ATOM     89  F   UNL A   1      45.757  29.738  33.677  1.00  0.00    -0.203 F 
ATOM     90  F   UNL A   1      45.000  25.037  36.342  1.00  0.00    -0.200 F 
ATOM     91  C   UNL A   1      46.461  26.685  35.492  1.00  0.00     0.200 A 
ATOM     92  F   UNL A   1      47.882  28.366  34.635  1.00  0.00    -0.200 F 
ATOM     93  F   UNL A   1      47.518  26.023  35.983  1.00  0.00    -0.200 F 
ENDBRANCH  60  83
ENDBRANCH  34  35
ENDBRANCH  26  29
ENDBRANCH  24  25
ENDBRANCH  23  24
ENDBRANCH  22  23
ENDBRANCH   3  22
TORSDOF 15
ENDMDL
MODEL 3
REMARK VINA RESULT:     -11.7      4.291     10.965
REMARK SMILES CC[C@H](C)Oc1ccc(NC(=O)/C=C/C(=O)NCCCNC(=O)c2ccc(-c3c4nc(c(-c5c(F)c(F)c(F)c(F)c5F)c5ccc([nH]5)c(-c5c(F)c(F)c(F)c(F)c5F)c5nc(c(-c6c(F)c(F)c(F)c(F)c6F)c6ccc3[nH]6)C=C5)C=C4)cc2)cc1
REMARK SMILES IDX 15 1 16 2 17 3 14 5 13 6 11 7 10 8 12 10 9 11 6 12 7 13
REMARK SMILES IDX 88 14 8 15 87 16 5 17 3 18 4 19 2 20 1 21 18 22 19 23 20 24
REMARK SMILES IDX 21 25 22 26 23 28 24 29 25 30 86 31 26 32 85 33 27 34 28 35
REMARK SMILES IDX 29 36 79 37 30 38 84 39 78 40 80 41 31 42 83 43 77 44 76 45
REMARK SMILES IDX 32 47 64 48 44 49 63 50 45 51 48 52 62 53 81 54 46 55 47 56
REMARK SMILES IDX 61 58 82 59 49 60 33 61 34 62 42 63 35 64 36 65 40 66 43 67
REMARK SMILES IDX 37 68 38 69 41 70 39 71 65 72 66 73 74 74 67 75 68 76 72 77
REMARK SMILES IDX 75 78 69 79 70 80 73 81 71 82 50 83 51 84 59 85 52 86 53 87
REMARK SMILES IDX 57 88 60 89 54 90 55 91 58 92 56 93
REMARK H PARENT 17 4 10 9 21 27 80 46 48 57
REMARK Flexibility Score: inf
ROOT
ATOM      1  C   UNL A   1      37.746  34.112  30.272  1.00  0.00     0.244 C 
ATOM      2  O   UNL A   1      38.971  34.101  30.185  1.00  0.00    -0.270 OA
ATOM      3  N   UNL A   1      36.994  34.582  29.247  1.00  0.00    -0.352 N 
ATOM      4  H   UNL A   1      37.498  35.012  28.518  1.00  0.00     0.163 HD
ENDROOT
BRANCH   1   5
ATOM      5  C   UNL A   1      37.095  33.606  31.490  1.00  0.00     0.077 C 
ATOM      6  C   UNL A   1      37.653  32.603  32.183  1.00  0.00     0.077 C 
BRANCH   6   7
ATOM      7  C   UNL A   1      36.890  31.929  33.242  1.00  0.00     0.248 C 
ATOM      8  N   UNL A   1      37.333  30.745  33.762  1.00  0.00    -0.323 N 
ATOM      9  H   UNL A   1      36.710  30.328  34.400  1.00  0.00     0.170 HD
ATOM     10  O   UNL A   1      35.842  32.437  33.636  1.00  0.00    -0.270 OA
BRANCH   8  11
ATOM     11  C   UNL A   1      38.518  30.011  33.552  1.00  0.00     0.041 A 
ATOM     12  C   UNL A   1      40.909  28.521  33.495  1.00  0.00     0.119 A 
ATOM     13  C   UNL A   1      39.782  28.079  32.809  1.00  0.00     0.048 A 
ATOM     14  C   UNL A   1      40.869  29.763  34.116  1.00  0.00     0.048 A 
ATOM     15  C   UNL A   1      38.603  28.828  32.818  1.00  0.00     0.030 A 
ATOM     16  C   UNL A   1      39.681  30.505  34.144  1.00  0.00     0.030 A 
BRANCH  12  17
ATOM     17  O   UNL A   1      41.990  27.701  33.411  1.00  0.00    -0.491 OA
BRANCH  17  18
ATOM     18  C   UNL A   1      42.581  27.124  34.586  1.00  0.00     0.170 C 
ATOM     19  C   UNL A   1      41.661  26.113  35.264  1.00  0.00     0.053 C 
BRANCH  18  20
ATOM     20  C   UNL A   1      44.031  26.646  34.389  1.00  0.00     0.041 C 
ATOM     21  C   UNL A   1      45.019  27.799  34.261  1.00  0.00     0.008 C 
ENDBRANCH  18  20
ENDBRANCH  17  18
ENDBRANCH  12  17
ENDBRANCH   8  11
ENDBRANCH   6   7
ENDBRANCH   1   5
BRANCH   3  22
ATOM     22  C   UNL A   1      35.555  34.542  29.064  1.00  0.00     0.118 C 
BRANCH  22  23
ATOM     23  C   UNL A   1      35.126  33.325  28.254  1.00  0.00     0.042 C 
BRANCH  23  24
ATOM     24  C   UNL A   1      34.555  32.197  29.110  1.00  0.00     0.118 C 
BRANCH  24  25
ATOM     25  N   UNL A   1      34.056  31.094  28.300  1.00  0.00    -0.352 N 
ATOM     26  C   UNL A   1      34.738  30.071  27.695  1.00  0.00     0.251 C 
ATOM     27  H   UNL A   1      33.080  31.080  28.167  1.00  0.00     0.163 HD
ATOM     28  O   UNL A   1      34.192  29.397  26.823  1.00  0.00    -0.269 OA
BRANCH  26  29
ATOM     29  C   UNL A   1      36.127  29.775  28.091  1.00  0.00     0.039 A 
ATOM     30  C   UNL A   1      36.381  29.273  29.370  1.00  0.00     0.014 A 
ATOM     31  C   UNL A   1      37.180  30.025  27.209  1.00  0.00     0.014 A 
ATOM     32  C   UNL A   1      37.692  28.967  29.743  1.00  0.00     0.010 A 
ATOM     33  C   UNL A   1      38.472  29.647  27.550  1.00  0.00     0.010 A 
ATOM     34  C   UNL A   1      38.742  29.122  28.823  1.00  0.00    -0.014 A 
BRANCH  34  35
ATOM     35  C   UNL A   1      40.137  28.755  29.166  1.00  0.00     0.031 A 
ATOM     36  C   UNL A   1      41.000  29.724  29.922  1.00  0.00     0.074 A 
ATOM     37  C   UNL A   1      40.648  27.593  28.718  1.00  0.00     0.049 A 
ATOM     38  N   UNL A   1      42.274  29.650  30.213  1.00  0.00    -0.248 NA
ATOM     39  C   UNL A   1      40.352  30.963  30.384  1.00  0.00     0.031 C 
ATOM     40  C   UNL A   1      39.920  26.595  27.932  1.00  0.00     0.029 A 
ATOM     41  N   UNL A   1      41.908  27.063  28.841  1.00  0.00    -0.354 N 
ATOM     42  C   UNL A   1      42.582  30.835  30.867  1.00  0.00     0.074 A 
ATOM     43  C   UNL A   1      41.377  31.634  30.887  1.00  0.00     0.031 C 
ATOM     44  C   UNL A   1      40.739  25.568  27.657  1.00  0.00     0.029 A 
ATOM     45  C   UNL A   1      42.059  25.853  28.210  1.00  0.00     0.049 A 
ATOM     46  H   UNL A   1      42.634  27.508  29.335  1.00  0.00     0.167 HD
ATOM     47  C   UNL A   1      43.759  31.211  31.420  1.00  0.00     0.037 A 
ATOM     48  C   UNL A   1      43.146  25.069  28.082  1.00  0.00     0.037 A 
ATOM     49  C   UNL A   1      44.944  30.394  31.424  1.00  0.00     0.049 A 
ATOM     50  C   UNL A   1      44.441  25.508  28.712  1.00  0.00     0.074 A 
ATOM     51  C   UNL A   1      46.167  30.650  32.017  1.00  0.00     0.029 A 
ATOM     52  N   UNL A   1      45.049  29.157  30.804  1.00  0.00    -0.354 N 
ATOM     53  N   UNL A   1      44.705  26.599  29.386  1.00  0.00    -0.248 NA
ATOM     54  C   UNL A   1      45.588  24.601  28.566  1.00  0.00     0.031 C 
ATOM     55  C   UNL A   1      47.028  29.589  31.718  1.00  0.00     0.029 A 
ATOM     56  C   UNL A   1      46.326  28.647  30.983  1.00  0.00     0.049 A 
ATOM     57  H   UNL A   1      44.326  28.708  30.310  1.00  0.00     0.167 HD
ATOM     58  C   UNL A   1      46.034  26.500  29.770  1.00  0.00     0.074 A 
ATOM     59  C   UNL A   1      46.521  25.234  29.263  1.00  0.00     0.031 C 
ATOM     60  C   UNL A   1      46.786  27.379  30.478  1.00  0.00     0.037 A 
BRANCH  47  61
ATOM     61  C   UNL A   1      43.823  32.563  32.070  1.00  0.00     0.064 A 
ATOM     62  C   UNL A   1      44.018  33.733  31.319  1.00  0.00     0.173 A 
ATOM     63  C   UNL A   1      43.654  32.695  33.456  1.00  0.00     0.173 A 
ATOM     64  F   UNL A   1      44.196  33.661  29.991  1.00  0.00    -0.203 F 
ATOM     65  C   UNL A   1      44.073  34.980  31.936  1.00  0.00     0.198 A 
ATOM     66  C   UNL A   1      43.678  33.947  34.066  1.00  0.00     0.198 A 
ATOM     67  F   UNL A   1      43.460  31.610  34.221  1.00  0.00    -0.203 F 
ATOM     68  F   UNL A   1      44.312  36.077  31.205  1.00  0.00    -0.200 F 
ATOM     69  C   UNL A   1      43.896  35.087  33.307  1.00  0.00     0.200 A 
ATOM     70  F   UNL A   1      43.495  34.050  35.390  1.00  0.00    -0.200 F 
ATOM     71  F   UNL A   1      43.942  36.288  33.899  1.00  0.00    -0.200 F 
ENDBRANCH  47  61
BRANCH  48  72
ATOM     72  C   UNL A   1      43.049  23.780  27.349  1.00  0.00     0.064 A 
ATOM     73  C   UNL A   1      43.434  23.690  26.004  1.00  0.00     0.173 A 
ATOM     74  C   UNL A   1      42.574  22.617  27.971  1.00  0.00     0.173 A 
ATOM     75  F   UNL A   1      43.876  24.780  25.360  1.00  0.00    -0.203 F 
ATOM     76  C   UNL A   1      43.330  22.490  25.305  1.00  0.00     0.198 A 
ATOM     77  C   UNL A   1      42.498  21.411  27.279  1.00  0.00     0.198 A 
ATOM     78  F   UNL A   1      42.200  22.649  29.259  1.00  0.00    -0.203 F 
ATOM     79  F   UNL A   1      43.663  22.441  24.008  1.00  0.00    -0.200 F 
ATOM     80  C   UNL A   1      42.867  21.349  25.945  1.00  0.00     0.200 A 
ATOM     81  F   UNL A   1      42.064  20.308  27.905  1.00  0.00    -0.200 F 
ATOM     82  F   UNL A   1      42.772  20.194  25.272  1.00  0.00    -0.200 F 
ENDBRANCH  48  72
BRANCH  60  83
ATOM     83  C   UNL A   1      48.202  26.985  30.779  1.00  0.00     0.064 A 
ATOM     84  C   UNL A   1      48.523  26.189  31.888  1.00  0.00     0.173 A 
ATOM     85  C   UNL A   1      49.242  27.367  29.918  1.00  0.00     0.173 A 
ATOM     86  F   UNL A   1      47.566  25.811  32.748  1.00  0.00    -0.203 F 
ATOM     87  C   UNL A   1      49.838  25.806  32.135  1.00  0.00     0.198 A 
ATOM     88  C   UNL A   1      50.551  26.959  30.153  1.00  0.00     0.198 A 
ATOM     89  F   UNL A   1      48.985  28.123  28.841  1.00  0.00    -0.203 F 
ATOM     90  F   UNL A   1      50.130  25.081  33.224  1.00  0.00    -0.200 F 
ATOM     91  C   UNL A   1      50.849  26.184  31.264  1.00  0.00     0.200 A 
ATOM     92  F   UNL A   1      51.524  27.312  29.302  1.00  0.00    -0.200 F 
ATOM     93  F   UNL A   1      52.114  25.806  31.498  1.00  0.00    -0.200 F 
ENDBRANCH  60  83
ENDBRANCH  34  35
ENDBRANCH  26  29
ENDBRANCH  24  25
ENDBRANCH  23  24
ENDBRANCH  22  23
ENDBRANCH   3  22
TORSDOF 15
ENDMDL
