MODEL 1
REMARK VINA RESULT:     -11.5      0.000      0.000
REMARK SMILES O=C(NCCCNC(=O)[C@H](CCC(F)(F)F)Cc1ccccc1)c1ccc(-c2c3nc(c(-c4c(F)c(F)c(F)c(F)c4F)c4ccc([nH]4)c(-c4c(F)c(F)c(F)c(F)c4F)c4nc(c(-c5c(F)c(F)c(F)c(F)c5F)c5ccc2[nH]5)C=C4)C=C3)cc1
REMARK SMILES IDX 5 1 4 2 3 3 1 4 2 5 24 7 25 8 86 9 26 10 85 11 27 12 28 13
REMARK SMILES IDX 29 14 79 15 30 16 84 17 78 18 80 19 31 20 83 21 77 22 76 23
REMARK SMILES IDX 32 25 64 26 44 27 63 28 45 29 48 30 62 31 81 32 46 33 47 34
REMARK SMILES IDX 61 36 82 37 49 38 33 39 34 40 42 41 35 42 36 43 40 44 43 45
REMARK SMILES IDX 37 46 38 47 41 48 39 49 65 50 66 51 74 52 67 53 68 54 72 55
REMARK SMILES IDX 75 56 69 57 70 58 73 59 71 60 50 61 51 62 59 63 52 64 53 65
REMARK SMILES IDX 57 66 60 67 54 68 55 69 58 70 56 71 6 72 7 73 8 74 9 76
REMARK SMILES IDX 10 77 17 78 18 79 19 80 23 81 20 82 22 83 21 84 11 85 12 86
REMARK SMILES IDX 13 87 14 88 15 89 16 90
REMARK H PARENT 3 6 80 24 48 35 7 75
REMARK Flexibility Score: inf
ROOT
ATOM      1  C   UNL A   1      33.622  28.944  23.371  1.00  0.00     0.042 C 
ENDROOT
BRANCH   1   2
ATOM      2  C   UNL A   1      33.567  28.929  24.891  1.00  0.00     0.118 C 
BRANCH   2   3
ATOM      3  N   UNL A   1      32.944  30.134  25.422  1.00  0.00    -0.352 N 
ATOM      4  O   UNL A   1      32.324  31.669  26.932  1.00  0.00    -0.269 OA
ATOM      5  C   UNL A   1      33.155  30.830  26.590  1.00  0.00     0.251 C 
ATOM      6  H   UNL A   1      32.248  30.519  24.841  1.00  0.00     0.163 HD
BRANCH   5   7
ATOM      7  C   UNL A   1      34.342  30.591  27.449  1.00  0.00     0.039 A 
ATOM      8  C   UNL A   1      34.614  29.343  28.002  1.00  0.00     0.014 A 
ATOM      9  C   UNL A   1      35.273  31.625  27.626  1.00  0.00     0.014 A 
ATOM     10  C   UNL A   1      35.700  29.168  28.852  1.00  0.00     0.010 A 
ATOM     11  C   UNL A   1      36.441  31.411  28.372  1.00  0.00     0.010 A 
ATOM     12  C   UNL A   1      36.656  30.182  29.011  1.00  0.00    -0.014 A 
BRANCH  12  13
ATOM     13  C   UNL A   1      37.905  29.879  29.764  1.00  0.00     0.031 A 
ATOM     14  C   UNL A   1      38.123  30.380  31.163  1.00  0.00     0.074 A 
ATOM     15  C   UNL A   1      38.839  29.102  29.175  1.00  0.00     0.049 A 
ATOM     16  N   UNL A   1      39.137  30.169  31.965  1.00  0.00    -0.248 NA
ATOM     17  C   UNL A   1      37.077  31.240  31.735  1.00  0.00     0.031 C 
ATOM     18  C   UNL A   1      38.755  28.573  27.811  1.00  0.00     0.029 A 
ATOM     19  N   UNL A   1      40.020  28.591  29.651  1.00  0.00    -0.354 N 
ATOM     20  C   UNL A   1      38.866  30.888  33.122  1.00  0.00     0.074 A 
ATOM     21  C   UNL A   1      37.604  31.562  32.909  1.00  0.00     0.031 C 
ATOM     22  C   UNL A   1      39.789  27.752  27.589  1.00  0.00     0.029 A 
ATOM     23  C   UNL A   1      40.655  27.758  28.761  1.00  0.00     0.049 A 
ATOM     24  H   UNL A   1      40.378  28.802  30.544  1.00  0.00     0.167 HD
ATOM     25  C   UNL A   1      39.601  30.970  34.259  1.00  0.00     0.037 A 
ATOM     26  C   UNL A   1      41.812  27.079  28.869  1.00  0.00     0.037 A 
ATOM     27  C   UNL A   1      40.846  30.274  34.473  1.00  0.00     0.049 A 
ATOM     28  C   UNL A   1      42.609  27.200  30.134  1.00  0.00     0.074 A 
ATOM     29  C   UNL A   1      41.642  30.259  35.607  1.00  0.00     0.029 A 
ATOM     30  N   UNL A   1      41.477  29.471  33.534  1.00  0.00    -0.354 N 
ATOM     31  N   UNL A   1      42.323  27.856  31.232  1.00  0.00    -0.248 NA
ATOM     32  C   UNL A   1      43.895  26.492  30.172  1.00  0.00     0.031 C 
ATOM     33  C   UNL A   1      42.779  29.488  35.335  1.00  0.00     0.029 A 
ATOM     34  C   UNL A   1      42.665  28.978  34.053  1.00  0.00     0.049 A 
ATOM     35  H   UNL A   1      41.132  29.280  32.632  1.00  0.00     0.167 HD
ATOM     36  C   UNL A   1      43.383  27.628  32.098  1.00  0.00     0.074 A 
ATOM     37  C   UNL A   1      44.306  26.753  31.405  1.00  0.00     0.031 C 
ATOM     38  C   UNL A   1      43.574  28.105  33.352  1.00  0.00     0.037 A 
BRANCH  25  39
ATOM     39  C   UNL A   1      39.094  31.866  35.353  1.00  0.00     0.064 A 
ATOM     40  C   UNL A   1      38.328  31.374  36.421  1.00  0.00     0.173 A 
ATOM     41  C   UNL A   1      39.410  33.234  35.351  1.00  0.00     0.173 A 
ATOM     42  F   UNL A   1      37.990  30.077  36.468  1.00  0.00    -0.203 F 
ATOM     43  C   UNL A   1      37.871  32.223  37.427  1.00  0.00     0.198 A 
ATOM     44  C   UNL A   1      38.977  34.073  36.374  1.00  0.00     0.198 A 
ATOM     45  F   UNL A   1      40.146  33.757  34.360  1.00  0.00    -0.203 F 
ATOM     46  F   UNL A   1      37.100  31.739  38.410  1.00  0.00    -0.200 F 
ATOM     47  C   UNL A   1      38.201  33.570  37.407  1.00  0.00     0.200 A 
ATOM     48  F   UNL A   1      39.309  35.372  36.361  1.00  0.00    -0.200 F 
ATOM     49  F   UNL A   1      37.765  34.383  38.379  1.00  0.00    -0.200 F 
ENDBRANCH  25  39
BRANCH  26  50
ATOM     50  C   UNL A   1      42.278  26.226  27.744  1.00  0.00     0.064 A 
ATOM     51  C   UNL A   1      43.252  26.685  26.846  1.00  0.00     0.173 A 
ATOM     52  C   UNL A   1      41.768  24.934  27.547  1.00  0.00     0.173 A 
ATOM     53  F   UNL A   1      43.756  27.921  26.980  1.00  0.00    -0.203 F 
ATOM     54  C   UNL A   1      43.690  25.889  25.790  1.00  0.00     0.198 A 
ATOM     55  C   UNL A   1      42.229  24.127  26.510  1.00  0.00     0.198 A 
ATOM     56  F   UNL A   1      40.837  24.446  28.380  1.00  0.00    -0.203 F 
ATOM     57  F   UNL A   1      44.592  26.368  24.923  1.00  0.00    -0.200 F 
ATOM     58  C   UNL A   1      43.184  24.609  25.627  1.00  0.00     0.200 A 
ATOM     59  F   UNL A   1      41.751  22.884  26.369  1.00  0.00    -0.200 F 
ATOM     60  F   UNL A   1      43.612  23.840  24.617  1.00  0.00    -0.200 F 
ENDBRANCH  26  50
BRANCH  38  61
ATOM     61  C   UNL A   1      44.815  27.657  34.066  1.00  0.00     0.064 A 
ATOM     62  C   UNL A   1      44.842  26.481  34.830  1.00  0.00     0.173 A 
ATOM     63  C   UNL A   1      45.996  28.408  33.974  1.00  0.00     0.173 A 
ATOM     64  F   UNL A   1      43.732  25.738  34.965  1.00  0.00    -0.203 F 
ATOM     65  C   UNL A   1      45.996  26.092  35.503  1.00  0.00     0.198 A 
ATOM     66  C   UNL A   1      47.158  27.999  34.623  1.00  0.00     0.198 A 
ATOM     67  F   UNL A   1      46.026  29.538  33.253  1.00  0.00    -0.203 F 
ATOM     68  F   UNL A   1      45.982  24.995  36.274  1.00  0.00    -0.200 F 
ATOM     69  C   UNL A   1      47.154  26.846  35.394  1.00  0.00     0.200 A 
ATOM     70  F   UNL A   1      48.279  28.723  34.508  1.00  0.00    -0.200 F 
ATOM     71  F   UNL A   1      48.265  26.469  36.041  1.00  0.00    -0.200 F 
ENDBRANCH  38  61
ENDBRANCH  12  13
ENDBRANCH   5   7
ENDBRANCH   2   3
ENDBRANCH   1   2
BRANCH   1  72
ATOM     72  C   UNL A   1      32.369  28.342  22.743  1.00  0.00     0.117 C 
BRANCH  72  73
ATOM     73  N   UNL A   1      32.695  27.343  21.734  1.00  0.00    -0.356 N 
ATOM     74  C   UNL A   1      32.894  26.004  21.700  1.00  0.00     0.223 C 
ATOM     75  H   UNL A   1      32.796  27.747  20.843  1.00  0.00     0.163 HD
ATOM     76  O   UNL A   1      33.278  25.579  20.600  1.00  0.00    -0.275 OA
BRANCH  74  77
ATOM     77  C   UNL A   1      32.608  24.987  22.828  1.00  0.00     0.083 C 
BRANCH  77  78
ATOM     78  C   UNL A   1      33.584  25.279  24.011  1.00  0.00     0.049 C 
BRANCH  78  79
ATOM     79  C   UNL A   1      34.752  24.348  24.252  1.00  0.00    -0.047 A 
ATOM     80  C   UNL A   1      35.544  24.400  25.403  1.00  0.00     0.004 A 
ATOM     81  C   UNL A   1      35.057  23.379  23.283  1.00  0.00     0.004 A 
ATOM     82  C   UNL A   1      36.704  23.630  25.506  1.00  0.00     0.000 A 
ATOM     83  C   UNL A   1      36.195  22.579  23.401  1.00  0.00     0.000 A 
ATOM     84  C   UNL A   1      37.038  22.731  24.497  1.00  0.00     0.000 A 
ENDBRANCH  78  79
ENDBRANCH  77  78
BRANCH  77  85
ATOM     85  C   UNL A   1      31.163  24.632  23.194  1.00  0.00     0.023 C 
BRANCH  85  86
ATOM     86  C   UNL A   1      30.656  24.538  24.641  1.00  0.00     0.116 C 
BRANCH  86  87
ATOM     87  C   UNL A   1      30.258  25.770  25.429  1.00  0.00     0.389 C 
ATOM     88  F   UNL A   1      29.994  26.785  24.569  1.00  0.00    -0.171 F 
ATOM     89  F   UNL A   1      29.142  25.574  26.153  1.00  0.00    -0.171 F 
ATOM     90  F   UNL A   1      31.220  26.202  26.260  1.00  0.00    -0.171 F 
ENDBRANCH  86  87
ENDBRANCH  85  86
ENDBRANCH  77  85
ENDBRANCH  74  77
ENDBRANCH  72  73
ENDBRANCH   1  72
TORSDOF 15
ENDMDL
MODEL 2
REMARK VINA RESULT:     -11.5      0.579      2.096
REMARK SMILES O=C(NCCCNC(=O)[C@H](CCC(F)(F)F)Cc1ccccc1)c1ccc(-c2c3nc(c(-c4c(F)c(F)c(F)c(F)c4F)c4ccc([nH]4)c(-c4c(F)c(F)c(F)c(F)c4F)c4nc(c(-c5c(F)c(F)c(F)c(F)c5F)c5ccc2[nH]5)C=C4)C=C3)cc1
REMARK SMILES IDX 5 1 4 2 3 3 1 4 2 5 24 7 25 8 86 9 26 10 85 11 27 12 28 13
REMARK SMILES IDX 29 14 79 15 30 16 84 17 78 18 80 19 31 20 83 21 77 22 76 23
REMARK SMILES IDX 32 25 64 26 44 27 63 28 45 29 48 30 62 31 81 32 46 33 47 34
REMARK SMILES IDX 61 36 82 37 49 38 33 39 34 40 42 41 35 42 36 43 40 44 43 45
REMARK SMILES IDX 37 46 38 47 41 48 39 49 65 50 66 51 74 52 67 53 68 54 72 55
REMARK SMILES IDX 75 56 69 57 70 58 73 59 71 60 50 61 51 62 59 63 52 64 53 65
REMARK SMILES IDX 57 66 60 67 54 68 55 69 58 70 56 71 6 72 7 73 8 74 9 76
REMARK SMILES IDX 10 77 17 78 18 79 19 80 23 81 20 82 22 83 21 84 11 85 12 86
REMARK SMILES IDX 13 87 14 88 15 89 16 90
REMARK H PARENT 3 6 80 24 48 35 7 75
REMARK Flexibility Score: inf
ROOT
ATOM      1  C   UNL A   1      33.583  28.908  23.382  1.00  0.00     0.042 C 
ENDROOT
BRANCH   1   2
ATOM      2  C   UNL A   1      33.525  28.902  24.902  1.00  0.00     0.118 C 
BRANCH   2   3
ATOM      3  N   UNL A   1      32.923  30.120  25.425  1.00  0.00    -0.352 N 
ATOM      4  O   UNL A   1      32.337  31.680  26.923  1.00  0.00    -0.269 OA
ATOM      5  C   UNL A   1      33.154  30.827  26.582  1.00  0.00     0.251 C 
ATOM      6  H   UNL A   1      32.225  30.506  24.847  1.00  0.00     0.163 HD
BRANCH   5   7
ATOM      7  C   UNL A   1      34.347  30.584  27.432  1.00  0.00     0.039 A 
ATOM      8  C   UNL A   1      34.635  29.328  27.959  1.00  0.00     0.014 A 
ATOM      9  C   UNL A   1      35.268  31.625  27.626  1.00  0.00     0.014 A 
ATOM     10  C   UNL A   1      35.727  29.148  28.800  1.00  0.00     0.010 A 
ATOM     11  C   UNL A   1      36.441  31.408  28.362  1.00  0.00     0.010 A 
ATOM     12  C   UNL A   1      36.672  30.169  28.975  1.00  0.00    -0.014 A 
BRANCH  12  13
ATOM     13  C   UNL A   1      37.928  29.865  29.716  1.00  0.00     0.031 A 
ATOM     14  C   UNL A   1      38.166  30.379  31.108  1.00  0.00     0.074 A 
ATOM     15  C   UNL A   1      38.850  29.076  29.125  1.00  0.00     0.049 A 
ATOM     16  N   UNL A   1      39.188  30.169  31.901  1.00  0.00    -0.248 NA
ATOM     17  C   UNL A   1      37.133  31.252  31.683  1.00  0.00     0.031 C 
ATOM     18  C   UNL A   1      38.746  28.534  27.767  1.00  0.00     0.029 A 
ATOM     19  N   UNL A   1      40.033  28.562  29.592  1.00  0.00    -0.354 N 
ATOM     20  C   UNL A   1      38.936  30.902  33.053  1.00  0.00     0.074 A 
ATOM     21  C   UNL A   1      37.675  31.583  32.847  1.00  0.00     0.031 C 
ATOM     22  C   UNL A   1      39.772  27.704  27.542  1.00  0.00     0.029 A 
ATOM     23  C   UNL A   1      40.652  27.715  28.704  1.00  0.00     0.049 A 
ATOM     24  H   UNL A   1      40.403  28.779  30.478  1.00  0.00     0.167 HD
ATOM     25  C   UNL A   1      39.684  30.990  34.180  1.00  0.00     0.037 A 
ATOM     26  C   UNL A   1      41.806  27.030  28.805  1.00  0.00     0.037 A 
ATOM     27  C   UNL A   1      40.927  30.288  34.387  1.00  0.00     0.049 A 
ATOM     28  C   UNL A   1      42.618  27.157  30.059  1.00  0.00     0.074 A 
ATOM     29  C   UNL A   1      41.736  30.279  35.511  1.00  0.00     0.029 A 
ATOM     30  N   UNL A   1      41.541  29.471  33.449  1.00  0.00    -0.354 N 
ATOM     31  N   UNL A   1      42.349  27.827  31.153  1.00  0.00    -0.248 NA
ATOM     32  C   UNL A   1      43.899  26.442  30.089  1.00  0.00     0.031 C 
ATOM     33  C   UNL A   1      42.864  29.497  35.235  1.00  0.00     0.029 A 
ATOM     34  C   UNL A   1      42.732  28.975  33.959  1.00  0.00     0.049 A 
ATOM     35  H   UNL A   1      41.184  29.273  32.553  1.00  0.00     0.167 HD
ATOM     36  C   UNL A   1      43.417  27.601  32.009  1.00  0.00     0.074 A 
ATOM     37  C   UNL A   1      44.326  26.712  31.315  1.00  0.00     0.031 C 
ATOM     38  C   UNL A   1      43.627  28.089  33.256  1.00  0.00     0.037 A 
BRANCH  25  39
ATOM     39  C   UNL A   1      39.196  31.901  35.271  1.00  0.00     0.064 A 
ATOM     40  C   UNL A   1      39.450  33.281  35.257  1.00  0.00     0.173 A 
ATOM     41  C   UNL A   1      38.431  31.388  36.331  1.00  0.00     0.173 A 
ATOM     42  F   UNL A   1      40.183  33.822  34.273  1.00  0.00    -0.203 F 
ATOM     43  C   UNL A   1      38.984  34.107  36.277  1.00  0.00     0.198 A 
ATOM     44  C   UNL A   1      37.941  32.222  37.333  1.00  0.00     0.198 A 
ATOM     45  F   UNL A   1      38.150  30.078  36.391  1.00  0.00    -0.203 F 
ATOM     46  F   UNL A   1      39.282  35.413  36.268  1.00  0.00    -0.200 F 
ATOM     47  C   UNL A   1      38.225  33.579  37.311  1.00  0.00     0.200 A 
ATOM     48  F   UNL A   1      37.196  31.712  38.323  1.00  0.00    -0.200 F 
ATOM     49  F   UNL A   1      37.774  34.376  38.288  1.00  0.00    -0.200 F 
ENDBRANCH  25  39
BRANCH  26  50
ATOM     50  C   UNL A   1      42.252  26.162  27.684  1.00  0.00     0.064 A 
ATOM     51  C   UNL A   1      41.717  24.878  27.510  1.00  0.00     0.173 A 
ATOM     52  C   UNL A   1      43.213  26.598  26.759  1.00  0.00     0.173 A 
ATOM     53  F   UNL A   1      40.810  24.407  28.379  1.00  0.00    -0.203 F 
ATOM     54  C   UNL A   1      42.134  24.061  26.461  1.00  0.00     0.198 A 
ATOM     55  C   UNL A   1      43.605  25.794  25.692  1.00  0.00     0.198 A 
ATOM     56  F   UNL A   1      43.753  27.820  26.878  1.00  0.00    -0.203 F 
ATOM     57  F   UNL A   1      41.637  22.822  26.342  1.00  0.00    -0.200 F 
ATOM     58  C   UNL A   1      43.072  24.522  25.550  1.00  0.00     0.200 A 
ATOM     59  F   UNL A   1      44.497  26.251  24.804  1.00  0.00    -0.200 F 
ATOM     60  F   UNL A   1      43.465  23.739  24.536  1.00  0.00    -0.200 F 
ENDBRANCH  26  50
BRANCH  38  61
ATOM     61  C   UNL A   1      44.873  27.640  33.960  1.00  0.00     0.064 A 
ATOM     62  C   UNL A   1      46.072  28.363  33.869  1.00  0.00     0.173 A 
ATOM     63  C   UNL A   1      44.865  26.478  34.745  1.00  0.00     0.173 A 
ATOM     64  F   UNL A   1      46.137  29.471  33.114  1.00  0.00    -0.203 F 
ATOM     65  C   UNL A   1      47.224  27.920  34.512  1.00  0.00     0.198 A 
ATOM     66  C   UNL A   1      46.011  26.055  35.412  1.00  0.00     0.198 A 
ATOM     67  F   UNL A   1      43.744  25.752  34.868  1.00  0.00    -0.203 F 
ATOM     68  F   UNL A   1      48.373  28.596  34.364  1.00  0.00    -0.200 F 
ATOM     69  C   UNL A   1      47.192  26.771  35.287  1.00  0.00     0.200 A 
ATOM     70  F   UNL A   1      45.976  24.950  36.170  1.00  0.00    -0.200 F 
ATOM     71  F   UNL A   1      48.302  26.347  35.906  1.00  0.00    -0.200 F 
ENDBRANCH  38  61
ENDBRANCH  12  13
ENDBRANCH   5   7
ENDBRANCH   2   3
ENDBRANCH   1   2
BRANCH   1  72
ATOM     72  C   UNL A   1      32.333  28.298  22.755  1.00  0.00     0.117 C 
BRANCH  72  73
ATOM     73  N   UNL A   1      32.659  27.209  21.844  1.00  0.00    -0.356 N 
ATOM     74  C   UNL A   1      32.931  25.887  21.944  1.00  0.00     0.223 C 
ATOM     75  H   UNL A   1      32.689  27.515  20.909  1.00  0.00     0.163 HD
ATOM     76  O   UNL A   1      33.278  25.360  20.876  1.00  0.00    -0.275 OA
BRANCH  74  77
ATOM     77  C   UNL A   1      32.763  24.990  23.192  1.00  0.00     0.083 C 
BRANCH  77  78
ATOM     78  C   UNL A   1      33.923  25.310  24.186  1.00  0.00     0.049 C 
BRANCH  78  79
ATOM     79  C   UNL A   1      34.995  24.270  24.430  1.00  0.00    -0.047 A 
ATOM     80  C   UNL A   1      35.586  24.062  25.680  1.00  0.00     0.004 A 
ATOM     81  C   UNL A   1      35.415  23.466  23.358  1.00  0.00     0.004 A 
ATOM     82  C   UNL A   1      36.679  23.205  25.818  1.00  0.00     0.000 A 
ATOM     83  C   UNL A   1      36.483  22.579  23.502  1.00  0.00     0.000 A 
ATOM     84  C   UNL A   1      37.138  22.475  24.725  1.00  0.00     0.000 A 
ENDBRANCH  78  79
ENDBRANCH  77  78
BRANCH  77  85
ATOM     85  C   UNL A   1      31.373  24.769  23.797  1.00  0.00     0.023 C 
BRANCH  85  86
ATOM     86  C   UNL A   1      31.039  23.606  24.744  1.00  0.00     0.116 C 
BRANCH  86  87
ATOM     87  C   UNL A   1      31.346  23.670  26.226  1.00  0.00     0.389 C 
ATOM     88  F   UNL A   1      31.494  24.967  26.597  1.00  0.00    -0.171 F 
ATOM     89  F   UNL A   1      30.351  23.162  26.976  1.00  0.00    -0.171 F 
ATOM     90  F   UNL A   1      32.481  23.035  26.561  1.00  0.00    -0.171 F 
ENDBRANCH  86  87
ENDBRANCH  85  86
ENDBRANCH  77  85
ENDBRANCH  74  77
ENDBRANCH  72  73
ENDBRANCH   1  72
TORSDOF 15
ENDMDL
MODEL 3
REMARK VINA RESULT:     -11.3      2.796      3.834
REMARK SMILES O=C(NCCCNC(=O)[C@H](CCC(F)(F)F)Cc1ccccc1)c1ccc(-c2c3nc(c(-c4c(F)c(F)c(F)c(F)c4F)c4ccc([nH]4)c(-c4c(F)c(F)c(F)c(F)c4F)c4nc(c(-c5c(F)c(F)c(F)c(F)c5F)c5ccc2[nH]5)C=C4)C=C3)cc1
REMARK SMILES IDX 5 1 4 2 3 3 1 4 2 5 24 7 25 8 86 9 26 10 85 11 27 12 28 13
REMARK SMILES IDX 29 14 79 15 30 16 84 17 78 18 80 19 31 20 83 21 77 22 76 23
REMARK SMILES IDX 32 25 64 26 44 27 63 28 45 29 48 30 62 31 81 32 46 33 47 34
REMARK SMILES IDX 61 36 82 37 49 38 33 39 34 40 42 41 35 42 36 43 40 44 43 45
REMARK SMILES IDX 37 46 38 47 41 48 39 49 65 50 66 51 74 52 67 53 68 54 72 55
REMARK SMILES IDX 75 56 69 57 70 58 73 59 71 60 50 61 51 62 59 63 52 64 53 65
REMARK SMILES IDX 57 66 60 67 54 68 55 69 58 70 56 71 6 72 7 73 8 74 9 76
REMARK SMILES IDX 10 77 17 78 18 79 19 80 23 81 20 82 22 83 21 84 11 85 12 86
REMARK SMILES IDX 13 87 14 88 15 89 16 90
REMARK H PARENT 3 6 80 24 48 35 7 75
REMARK Flexibility Score: inf
ROOT
ATOM      1  C   UNL A   1      33.433  27.572  26.501  1.00  0.00     0.042 C 
ENDROOT
BRANCH   1   2
ATOM      2  C   UNL A   1      34.002  28.776  25.767  1.00  0.00     0.118 C 
BRANCH   2   3
ATOM      3  N   UNL A   1      33.776  30.013  26.501  1.00  0.00    -0.352 N 
ATOM      4  O   UNL A   1      33.897  31.495  28.177  1.00  0.00    -0.269 OA
ATOM      5  C   UNL A   1      34.436  30.572  27.571  1.00  0.00     0.251 C 
ATOM      6  H   UNL A   1      33.013  30.544  26.174  1.00  0.00     0.163 HD
BRANCH   5   7
ATOM      7  C   UNL A   1      35.767  30.089  28.018  1.00  0.00     0.039 A 
ATOM      8  C   UNL A   1      36.915  30.270  27.249  1.00  0.00     0.014 A 
ATOM      9  C   UNL A   1      35.894  29.527  29.297  1.00  0.00     0.014 A 
ATOM     10  C   UNL A   1      38.135  29.752  27.669  1.00  0.00     0.010 A 
ATOM     11  C   UNL A   1      37.148  29.127  29.778  1.00  0.00     0.010 A 
ATOM     12  C   UNL A   1      38.281  29.218  28.957  1.00  0.00    -0.014 A 
BRANCH  12  13
ATOM     13  C   UNL A   1      39.647  28.866  29.437  1.00  0.00     0.031 A 
ATOM     14  C   UNL A   1      40.341  29.672  30.499  1.00  0.00     0.074 A 
ATOM     15  C   UNL A   1      40.248  27.772  28.924  1.00  0.00     0.049 A 
ATOM     16  N   UNL A   1      41.512  29.471  31.051  1.00  0.00    -0.248 NA
ATOM     17  C   UNL A   1      39.641  30.864  30.997  1.00  0.00     0.031 C 
ATOM     18  C   UNL A   1      39.687  26.921  27.870  1.00  0.00     0.029 A 
ATOM     19  N   UNL A   1      41.438  27.165  29.235  1.00  0.00    -0.354 N 
ATOM     20  C   UNL A   1      41.701  30.522  31.940  1.00  0.00     0.074 A 
ATOM     21  C   UNL A   1      40.534  31.372  31.835  1.00  0.00     0.031 C 
ATOM     22  C   UNL A   1      40.487  25.864  27.681  1.00  0.00     0.029 A 
ATOM     23  C   UNL A   1      41.659  26.001  28.538  1.00  0.00     0.049 A 
ATOM     24  H   UNL A   1      42.073  27.528  29.894  1.00  0.00     0.167 HD
ATOM     25  C   UNL A   1      42.748  30.749  32.771  1.00  0.00     0.037 A 
ATOM     26  C   UNL A   1      42.693  25.141  28.573  1.00  0.00     0.037 A 
ATOM     27  C   UNL A   1      43.895  29.882  32.888  1.00  0.00     0.049 A 
ATOM     28  C   UNL A   1      43.842  25.425  29.494  1.00  0.00     0.074 A 
ATOM     29  C   UNL A   1      44.986  30.004  33.733  1.00  0.00     0.029 A 
ATOM     30  N   UNL A   1      44.100  28.734  32.137  1.00  0.00    -0.354 N 
ATOM     31  N   UNL A   1      43.990  26.404  30.353  1.00  0.00    -0.248 NA
ATOM     32  C   UNL A   1      44.973  24.491  29.443  1.00  0.00     0.031 C 
ATOM     33  C   UNL A   1      45.874  28.958  33.457  1.00  0.00     0.029 A 
ATOM     34  C   UNL A   1      45.313  28.153  32.480  1.00  0.00     0.049 A 
ATOM     35  H   UNL A   1      43.477  28.383  31.460  1.00  0.00     0.167 HD
ATOM     36  C   UNL A   1      45.221  26.195  30.958  1.00  0.00     0.074 A 
ATOM     37  C   UNL A   1      45.767  24.983  30.384  1.00  0.00     0.031 C 
ATOM     38  C   UNL A   1      45.843  26.944  31.901  1.00  0.00     0.037 A 
BRANCH  25  39
ATOM     39  C   UNL A   1      42.718  31.999  33.603  1.00  0.00     0.064 A 
ATOM     40  C   UNL A   1      43.248  33.213  33.140  1.00  0.00     0.173 A 
ATOM     41  C   UNL A   1      42.118  31.991  34.873  1.00  0.00     0.173 A 
ATOM     42  F   UNL A   1      43.841  33.276  31.938  1.00  0.00    -0.203 F 
ATOM     43  C   UNL A   1      43.206  34.362  33.927  1.00  0.00     0.198 A 
ATOM     44  C   UNL A   1      42.051  33.148  35.644  1.00  0.00     0.198 A 
ATOM     45  F   UNL A   1      41.587  30.861  35.362  1.00  0.00    -0.203 F 
ATOM     46  F   UNL A   1      43.763  35.497  33.483  1.00  0.00    -0.200 F 
ATOM     47  C   UNL A   1      42.602  34.331  35.175  1.00  0.00     0.200 A 
ATOM     48  F   UNL A   1      41.454  33.119  36.844  1.00  0.00    -0.200 F 
ATOM     49  F   UNL A   1      42.559  35.438  35.929  1.00  0.00    -0.200 F 
ENDBRANCH  25  39
BRANCH  26  50
ATOM     50  C   UNL A   1      42.680  23.931  27.709  1.00  0.00     0.064 A 
ATOM     51  C   UNL A   1      42.266  22.690  28.215  1.00  0.00     0.173 A 
ATOM     52  C   UNL A   1      43.069  23.989  26.363  1.00  0.00     0.173 A 
ATOM     53  F   UNL A   1      41.903  22.578  29.501  1.00  0.00    -0.203 F 
ATOM     54  C   UNL A   1      42.254  21.553  27.409  1.00  0.00     0.198 A 
ATOM     55  C   UNL A   1      43.026  22.859  25.550  1.00  0.00     0.198 A 
ATOM     56  F   UNL A   1      43.469  25.153  25.830  1.00  0.00    -0.203 F 
ATOM     57  F   UNL A   1      41.894  20.372  27.928  1.00  0.00    -0.200 F 
ATOM     58  C   UNL A   1      42.626  21.640  26.076  1.00  0.00     0.200 A 
ATOM     59  F   UNL A   1      43.368  22.953  24.259  1.00  0.00    -0.200 F 
ATOM     60  F   UNL A   1      42.605  20.549  25.300  1.00  0.00    -0.200 F 
ENDBRANCH  26  50
BRANCH  38  61
ATOM     61  C   UNL A   1      47.170  26.448  32.394  1.00  0.00     0.064 A 
ATOM     62  C   UNL A   1      47.266  25.520  33.443  1.00  0.00     0.173 A 
ATOM     63  C   UNL A   1      48.360  26.896  31.803  1.00  0.00     0.173 A 
ATOM     64  F   UNL A   1      46.158  25.076  34.055  1.00  0.00    -0.203 F 
ATOM     65  C   UNL A   1      48.507  25.087  33.902  1.00  0.00     0.198 A 
ATOM     66  C   UNL A   1      49.598  26.436  32.244  1.00  0.00     0.198 A 
ATOM     67  F   UNL A   1      48.323  27.780  30.794  1.00  0.00    -0.203 F 
ATOM     68  F   UNL A   1      48.577  24.245  34.943  1.00  0.00    -0.200 F 
ATOM     69  C   UNL A   1      49.670  25.540  33.299  1.00  0.00     0.200 A 
ATOM     70  F   UNL A   1      50.721  26.866  31.652  1.00  0.00    -0.200 F 
ATOM     71  F   UNL A   1      50.863  25.120  33.741  1.00  0.00    -0.200 F 
ENDBRANCH  38  61
ENDBRANCH  12  13
ENDBRANCH   5   7
ENDBRANCH   2   3
ENDBRANCH   1   2
BRANCH   1  72
ATOM     72  C   UNL A   1      31.958  27.347  26.183  1.00  0.00     0.117 C 
BRANCH  72  73
ATOM     73  N   UNL A   1      31.458  26.113  26.774  1.00  0.00    -0.356 N 
ATOM     74  C   UNL A   1      31.568  24.786  26.529  1.00  0.00     0.223 C 
ATOM     75  H   UNL A   1      30.891  26.291  27.559  1.00  0.00     0.163 HD
ATOM     76  O   UNL A   1      30.849  24.078  27.251  1.00  0.00    -0.275 OA
BRANCH  74  77
ATOM     77  C   UNL A   1      32.536  24.095  25.542  1.00  0.00     0.083 C 
BRANCH  77  78
ATOM     78  C   UNL A   1      33.921  23.936  26.244  1.00  0.00     0.049 C 
BRANCH  78  79
ATOM     79  C   UNL A   1      35.059  23.280  25.491  1.00  0.00    -0.047 A 
ATOM     80  C   UNL A   1      35.466  23.689  24.217  1.00  0.00     0.004 A 
ATOM     81  C   UNL A   1      35.748  22.218  26.097  1.00  0.00     0.004 A 
ATOM     82  C   UNL A   1      36.412  22.953  23.501  1.00  0.00     0.000 A 
ATOM     83  C   UNL A   1      36.723  21.503  25.398  1.00  0.00     0.000 A 
ATOM     84  C   UNL A   1      37.028  21.850  24.085  1.00  0.00     0.000 A 
ENDBRANCH  78  79
ENDBRANCH  77  78
BRANCH  77  85
ATOM     85  C   UNL A   1      32.052  22.917  24.690  1.00  0.00     0.023 C 
BRANCH  85  86
ATOM     86  C   UNL A   1      31.877  21.492  25.237  1.00  0.00     0.116 C 
BRANCH  86  87
ATOM     87  C   UNL A   1      32.801  20.363  24.832  1.00  0.00     0.389 C 
ATOM     88  F   UNL A   1      33.657  20.805  23.876  1.00  0.00    -0.171 F 
ATOM     89  F   UNL A   1      33.556  19.926  25.857  1.00  0.00    -0.171 F 
ATOM     90  F   UNL A   1      32.153  19.306  24.317  1.00  0.00    -0.171 F 
ENDBRANCH  86  87
ENDBRANCH  85  86
ENDBRANCH  77  85
ENDBRANCH  74  77
ENDBRANCH  72  73
ENDBRANCH   1  72
TORSDOF 15
ENDMDL
