MODEL 1
REMARK VINA RESULT:     -12.1      0.000      0.000
REMARK SMILES CCCC[C@H](C(=O)NCCCNC(=O)c1ccc(-c2c3nc(c(-c4c(F)c(F)c(F)c(F)c4F)c4ccc([nH]4)c(-c4c(F)c(F)c(F)c(F)c4F)c4nc(c(-c5c(F)c(F)c(F)c(F)c5F)c5ccc2[nH]5)C=C4)C=C3)cc1)[C@]1(O)CCCc2ccccc21
REMARK SMILES IDX 9 1 8 2 6 3 7 4 5 6 4 7 3 8 2 9 1 10 78 11 80 12 88 13 81 14
REMARK SMILES IDX 83 15 87 16 82 17 84 18 86 19 85 20 79 21 10 23 11 24 12 25
REMARK SMILES IDX 13 26 14 28 15 29 16 30 77 31 17 32 76 33 18 34 19 35 20 36
REMARK SMILES IDX 70 37 21 38 75 39 69 40 71 41 22 42 74 43 68 44 67 45 23 47
REMARK SMILES IDX 55 48 35 49 54 50 36 51 39 52 53 53 72 54 37 55 38 56 52 58
REMARK SMILES IDX 73 59 40 60 24 61 25 62 33 63 26 64 27 65 31 66 34 67 28 68
REMARK SMILES IDX 29 69 32 70 30 71 56 72 57 73 65 74 58 75 59 76 63 77 66 78
REMARK SMILES IDX 60 79 61 80 64 81 62 82 41 83 42 84 50 85 43 86 44 87 48 88
REMARK SMILES IDX 51 89 45 90 46 91 49 92 47 93
REMARK H PARENT 8 5 79 22 12 27 71 46 39 57
REMARK Flexibility Score: inf
ROOT
ATOM      1  C   UNL A   1      31.654  27.470  26.397  1.00  0.00     0.117 C 
ENDROOT
BRANCH   1   2
ATOM      2  N   UNL A   1      30.987  26.149  26.551  1.00  0.00    -0.356 N 
ATOM      3  C   UNL A   1      31.072  24.830  26.244  1.00  0.00     0.226 C 
ATOM      4  O   UNL A   1      30.548  24.186  27.184  1.00  0.00    -0.275 OA
ATOM      5  H   UNL A   1      30.168  26.284  27.078  1.00  0.00     0.163 HD
BRANCH   3   6
ATOM      6  C   UNL A   1      31.555  23.910  24.965  1.00  0.00     0.115 C 
BRANCH   6   7
ATOM      7  C   UNL A   1      30.670  24.535  23.821  1.00  0.00     0.017 C 
BRANCH   7   8
ATOM      8  C   UNL A   1      31.081  25.791  23.058  1.00  0.00     0.001 C 
BRANCH   8   9
ATOM      9  C   UNL A   1      32.052  25.635  21.887  1.00  0.00    -0.003 C 
ATOM     10  C   UNL A   1      33.359  26.402  22.016  1.00  0.00     0.004 C 
ENDBRANCH   8   9
ENDBRANCH   7   8
ENDBRANCH   6   7
BRANCH   6  11
ATOM     11  C   UNL A   1      33.058  23.451  24.370  1.00  0.00     0.101 C 
ATOM     12  C   UNL A   1      33.622  23.503  25.813  1.00  0.00     0.041 C 
ATOM     13  C   UNL A   1      34.411  22.657  24.080  1.00  0.00    -0.013 A 
ATOM     14  C   UNL A   1      33.393  22.211  26.629  1.00  0.00     0.008 C 
ATOM     15  C   UNL A   1      34.745  21.467  24.836  1.00  0.00    -0.042 A 
ATOM     16  C   UNL A   1      35.443  23.262  23.343  1.00  0.00     0.007 A 
ATOM     17  C   UNL A   1      33.707  20.977  25.805  1.00  0.00     0.036 C 
ATOM     18  C   UNL A   1      36.062  21.024  24.966  1.00  0.00     0.004 A 
ATOM     19  C   UNL A   1      36.765  22.799  23.487  1.00  0.00     0.000 A 
ATOM     20  C   UNL A   1      37.074  21.717  24.319  1.00  0.00     0.000 A 
BRANCH  11  21
ATOM     21  O   UNL A   1      32.426  22.293  23.719  1.00  0.00    -0.384 OA
ATOM     22  H   UNL A   1      32.908  21.485  23.956  1.00  0.00     0.211 HD
ENDBRANCH  11  21
ENDBRANCH   6  11
ENDBRANCH   3   6
ENDBRANCH   1   2
BRANCH   1  23
ATOM     23  C   UNL A   1      32.986  27.521  25.655  1.00  0.00     0.042 C 
BRANCH  23  24
ATOM     24  C   UNL A   1      33.418  28.907  25.209  1.00  0.00     0.118 C 
BRANCH  24  25
ATOM     25  N   UNL A   1      32.760  30.033  25.870  1.00  0.00    -0.352 N 
ATOM     26  C   UNL A   1      33.212  30.860  26.889  1.00  0.00     0.251 C 
ATOM     27  H   UNL A   1      31.853  30.237  25.542  1.00  0.00     0.163 HD
ATOM     28  O   UNL A   1      32.491  31.748  27.320  1.00  0.00    -0.269 OA
BRANCH  26  29
ATOM     29  C   UNL A   1      34.552  30.640  27.497  1.00  0.00     0.039 A 
ATOM     30  C   UNL A   1      35.448  31.708  27.623  1.00  0.00     0.014 A 
ATOM     31  C   UNL A   1      34.911  29.391  27.991  1.00  0.00     0.014 A 
ATOM     32  C   UNL A   1      36.642  31.535  28.335  1.00  0.00     0.010 A 
ATOM     33  C   UNL A   1      35.992  29.272  28.849  1.00  0.00     0.010 A 
ATOM     34  C   UNL A   1      36.897  30.328  29.003  1.00  0.00    -0.014 A 
BRANCH  34  35
ATOM     35  C   UNL A   1      38.118  30.087  29.816  1.00  0.00     0.031 A 
ATOM     36  C   UNL A   1      39.198  29.186  29.268  1.00  0.00     0.074 A 
ATOM     37  C   UNL A   1      38.208  30.572  31.069  1.00  0.00     0.049 A 
ATOM     38  N   UNL A   1      40.256  28.695  29.861  1.00  0.00    -0.248 NA
ATOM     39  C   UNL A   1      39.028  28.717  27.879  1.00  0.00     0.031 C 
ATOM     40  C   UNL A   1      37.196  31.390  31.741  1.00  0.00     0.029 A 
ATOM     41  N   UNL A   1      39.198  30.436  32.011  1.00  0.00    -0.354 N 
ATOM     42  C   UNL A   1      40.837  27.832  28.938  1.00  0.00     0.074 A 
ATOM     43  C   UNL A   1      39.969  27.793  27.785  1.00  0.00     0.031 C 
ATOM     44  C   UNL A   1      37.635  31.719  32.967  1.00  0.00     0.029 A 
ATOM     45  C   UNL A   1      38.937  31.098  33.187  1.00  0.00     0.049 A 
ATOM     46  H   UNL A   1      40.017  29.912  31.858  1.00  0.00     0.167 HD
ATOM     47  C   UNL A   1      42.014  27.168  29.022  1.00  0.00     0.037 A 
ATOM     48  C   UNL A   1      39.672  31.190  34.312  1.00  0.00     0.037 A 
ATOM     49  C   UNL A   1      42.904  27.277  30.144  1.00  0.00     0.049 A 
ATOM     50  C   UNL A   1      41.001  30.484  34.366  1.00  0.00     0.074 A 
ATOM     51  C   UNL A   1      44.159  26.721  30.309  1.00  0.00     0.029 A 
ATOM     52  N   UNL A   1      42.632  28.009  31.291  1.00  0.00    -0.354 N 
ATOM     53  N   UNL A   1      41.573  29.726  33.461  1.00  0.00    -0.248 NA
ATOM     54  C   UNL A   1      41.790  30.650  35.594  1.00  0.00     0.031 C 
ATOM     55  C   UNL A   1      44.630  27.085  31.575  1.00  0.00     0.029 A 
ATOM     56  C   UNL A   1      43.692  27.909  32.175  1.00  0.00     0.049 A 
ATOM     57  H   UNL A   1      41.808  28.522  31.452  1.00  0.00     0.167 HD
ATOM     58  C   UNL A   1      42.800  29.353  33.993  1.00  0.00     0.074 A 
ATOM     59  C   UNL A   1      42.894  29.981  35.295  1.00  0.00     0.031 C 
ATOM     60  C   UNL A   1      43.761  28.561  33.459  1.00  0.00     0.037 A 
BRANCH  47  61
ATOM     61  C   UNL A   1      42.409  26.297  27.861  1.00  0.00     0.064 A 
ATOM     62  C   UNL A   1      41.928  24.985  27.722  1.00  0.00     0.173 A 
ATOM     63  C   UNL A   1      43.276  26.781  26.869  1.00  0.00     0.173 A 
ATOM     64  F   UNL A   1      41.108  24.465  28.647  1.00  0.00    -0.203 F 
ATOM     65  C   UNL A   1      42.332  24.178  26.661  1.00  0.00     0.198 A 
ATOM     66  C   UNL A   1      43.647  25.985  25.788  1.00  0.00     0.198 A 
ATOM     67  F   UNL A   1      43.765  28.028  26.946  1.00  0.00    -0.203 F 
ATOM     68  F   UNL A   1      41.913  22.907  26.592  1.00  0.00    -0.200 F 
ATOM     69  C   UNL A   1      43.184  24.680  25.691  1.00  0.00     0.200 A 
ATOM     70  F   UNL A   1      44.460  26.476  24.843  1.00  0.00    -0.200 F 
ATOM     71  F   UNL A   1      43.570  23.904  24.668  1.00  0.00    -0.200 F 
ENDBRANCH  47  61
BRANCH  48  72
ATOM     72  C   UNL A   1      39.195  32.019  35.452  1.00  0.00     0.064 A 
ATOM     73  C   UNL A   1      39.501  33.387  35.521  1.00  0.00     0.173 A 
ATOM     74  C   UNL A   1      38.422  31.476  36.487  1.00  0.00     0.173 A 
ATOM     75  F   UNL A   1      40.250  33.953  34.562  1.00  0.00    -0.203 F 
ATOM     76  C   UNL A   1      39.075  34.171  36.591  1.00  0.00     0.198 A 
ATOM     77  C   UNL A   1      37.970  32.268  37.543  1.00  0.00     0.198 A 
ATOM     78  F   UNL A   1      38.091  30.176  36.468  1.00  0.00    -0.203 F 
ATOM     79  F   UNL A   1      39.422  35.464  36.652  1.00  0.00    -0.200 F 
ATOM     80  C   UNL A   1      38.304  33.612  37.598  1.00  0.00     0.200 A 
ATOM     81  F   UNL A   1      37.209  31.728  38.505  1.00  0.00    -0.200 F 
ATOM     82  F   UNL A   1      37.888  34.367  38.624  1.00  0.00    -0.200 F 
ENDBRANCH  48  72
BRANCH  60  83
ATOM     83  C   UNL A   1      45.013  28.364  34.262  1.00  0.00     0.064 A 
ATOM     84  C   UNL A   1      46.099  29.244  34.161  1.00  0.00     0.173 A 
ATOM     85  C   UNL A   1      45.102  27.308  35.183  1.00  0.00     0.173 A 
ATOM     86  F   UNL A   1      46.065  30.260  33.286  1.00  0.00    -0.203 F 
ATOM     87  C   UNL A   1      47.241  29.059  34.934  1.00  0.00     0.198 A 
ATOM     88  C   UNL A   1      46.232  27.146  35.978  1.00  0.00     0.198 A 
ATOM     89  F   UNL A   1      44.085  26.444  35.324  1.00  0.00    -0.203 F 
ATOM     90  F   UNL A   1      48.287  29.883  34.785  1.00  0.00    -0.200 F 
ATOM     91  C   UNL A   1      47.304  28.016  35.846  1.00  0.00     0.200 A 
ATOM     92  F   UNL A   1      46.283  26.149  36.871  1.00  0.00    -0.200 F 
ATOM     93  F   UNL A   1      48.400  27.846  36.597  1.00  0.00    -0.200 F 
ENDBRANCH  60  83
ENDBRANCH  34  35
ENDBRANCH  26  29
ENDBRANCH  24  25
ENDBRANCH  23  24
ENDBRANCH   1  23
TORSDOF 15
ENDMDL
MODEL 2
REMARK VINA RESULT:     -12.0      0.619      7.320
REMARK SMILES CCCC[C@H](C(=O)NCCCNC(=O)c1ccc(-c2c3nc(c(-c4c(F)c(F)c(F)c(F)c4F)c4ccc([nH]4)c(-c4c(F)c(F)c(F)c(F)c4F)c4nc(c(-c5c(F)c(F)c(F)c(F)c5F)c5ccc2[nH]5)C=C4)C=C3)cc1)[C@]1(O)CCCc2ccccc21
REMARK SMILES IDX 9 1 8 2 6 3 7 4 5 6 4 7 3 8 2 9 1 10 78 11 80 12 88 13 81 14
REMARK SMILES IDX 83 15 87 16 82 17 84 18 86 19 85 20 79 21 10 23 11 24 12 25
REMARK SMILES IDX 13 26 14 28 15 29 16 30 77 31 17 32 76 33 18 34 19 35 20 36
REMARK SMILES IDX 70 37 21 38 75 39 69 40 71 41 22 42 74 43 68 44 67 45 23 47
REMARK SMILES IDX 55 48 35 49 54 50 36 51 39 52 53 53 72 54 37 55 38 56 52 58
REMARK SMILES IDX 73 59 40 60 24 61 25 62 33 63 26 64 27 65 31 66 34 67 28 68
REMARK SMILES IDX 29 69 32 70 30 71 56 72 57 73 65 74 58 75 59 76 63 77 66 78
REMARK SMILES IDX 60 79 61 80 64 81 62 82 41 83 42 84 50 85 43 86 44 87 48 88
REMARK SMILES IDX 51 89 45 90 46 91 49 92 47 93
REMARK H PARENT 8 5 79 22 12 27 71 46 39 57
REMARK Flexibility Score: inf
ROOT
ATOM      1  C   UNL A   1      32.080  27.191  26.653  1.00  0.00     0.117 C 
ENDROOT
BRANCH   1   2
ATOM      2  N   UNL A   1      31.127  26.054  26.547  1.00  0.00    -0.356 N 
ATOM      3  C   UNL A   1      30.988  24.768  26.135  1.00  0.00     0.226 C 
ATOM      4  O   UNL A   1      30.153  24.215  26.891  1.00  0.00    -0.275 OA
ATOM      5  H   UNL A   1      30.264  26.347  26.917  1.00  0.00     0.163 HD
BRANCH   3   6
ATOM      6  C   UNL A   1      31.519  23.827  24.891  1.00  0.00     0.115 C 
BRANCH   6   7
ATOM      7  C   UNL A   1      30.666  24.423  23.707  1.00  0.00     0.017 C 
BRANCH   7   8
ATOM      8  C   UNL A   1      30.932  25.806  23.118  1.00  0.00     0.001 C 
BRANCH   8   9
ATOM      9  C   UNL A   1      31.936  25.916  21.970  1.00  0.00    -0.003 C 
ATOM     10  C   UNL A   1      33.311  26.443  22.353  1.00  0.00     0.004 C 
ENDBRANCH   8   9
ENDBRANCH   7   8
ENDBRANCH   6   7
BRANCH   6  11
ATOM     11  C   UNL A   1      33.043  23.369  24.353  1.00  0.00     0.101 C 
ATOM     12  C   UNL A   1      33.531  23.342  25.824  1.00  0.00     0.041 C 
ATOM     13  C   UNL A   1      34.397  22.566  24.095  1.00  0.00    -0.013 A 
ATOM     14  C   UNL A   1      33.239  22.017  26.563  1.00  0.00     0.008 C 
ATOM     15  C   UNL A   1      34.671  21.335  24.808  1.00  0.00    -0.042 A 
ATOM     16  C   UNL A   1      35.476  23.185  23.442  1.00  0.00     0.007 A 
ATOM     17  C   UNL A   1      33.576  20.818  25.697  1.00  0.00     0.036 C 
ATOM     18  C   UNL A   1      35.972  20.862  24.984  1.00  0.00     0.004 A 
ATOM     19  C   UNL A   1      36.781  22.692  23.633  1.00  0.00     0.000 A 
ATOM     20  C   UNL A   1      37.028  21.566  24.426  1.00  0.00     0.000 A 
BRANCH  11  21
ATOM     21  O   UNL A   1      32.428  22.256  23.614  1.00  0.00    -0.384 OA
ATOM     22  H   UNL A   1      32.472  21.449  24.149  1.00  0.00     0.211 HD
ENDBRANCH  11  21
ENDBRANCH   6  11
ENDBRANCH   3   6
ENDBRANCH   1   2
BRANCH   1  23
ATOM     23  C   UNL A   1      31.815  28.433  25.808  1.00  0.00     0.042 C 
BRANCH  23  24
ATOM     24  C   UNL A   1      32.940  29.454  25.800  1.00  0.00     0.118 C 
BRANCH  24  25
ATOM     25  N   UNL A   1      32.625  30.767  26.363  1.00  0.00    -0.352 N 
ATOM     26  C   UNL A   1      33.358  31.566  27.228  1.00  0.00     0.251 C 
ATOM     27  H   UNL A   1      31.758  31.141  26.085  1.00  0.00     0.163 HD
ATOM     28  O   UNL A   1      32.904  32.639  27.598  1.00  0.00    -0.269 OA
BRANCH  26  29
ATOM     29  C   UNL A   1      34.672  31.104  27.750  1.00  0.00     0.039 A 
ATOM     30  C   UNL A   1      35.707  32.023  27.955  1.00  0.00     0.014 A 
ATOM     31  C   UNL A   1      34.873  29.770  28.086  1.00  0.00     0.014 A 
ATOM     32  C   UNL A   1      36.887  31.613  28.592  1.00  0.00     0.010 A 
ATOM     33  C   UNL A   1      35.950  29.411  28.878  1.00  0.00     0.010 A 
ATOM     34  C   UNL A   1      36.994  30.313  29.109  1.00  0.00    -0.014 A 
BRANCH  34  35
ATOM     35  C   UNL A   1      38.193  29.822  29.837  1.00  0.00     0.031 A 
ATOM     36  C   UNL A   1      38.454  30.318  31.240  1.00  0.00     0.074 A 
ATOM     37  C   UNL A   1      39.094  29.038  29.215  1.00  0.00     0.049 A 
ATOM     38  N   UNL A   1      39.512  30.168  31.994  1.00  0.00    -0.248 NA
ATOM     39  C   UNL A   1      37.405  31.155  31.852  1.00  0.00     0.031 C 
ATOM     40  C   UNL A   1      38.995  28.556  27.835  1.00  0.00     0.029 A 
ATOM     41  N   UNL A   1      40.283  28.516  29.660  1.00  0.00    -0.354 N 
ATOM     42  C   UNL A   1      39.271  30.929  33.133  1.00  0.00     0.074 A 
ATOM     43  C   UNL A   1      38.014  31.610  32.934  1.00  0.00     0.031 C 
ATOM     44  C   UNL A   1      40.053  27.775  27.563  1.00  0.00     0.029 A 
ATOM     45  C   UNL A   1      40.929  27.738  28.729  1.00  0.00     0.049 A 
ATOM     46  H   UNL A   1      40.640  28.684  30.562  1.00  0.00     0.167 HD
ATOM     47  C   UNL A   1      40.006  31.015  34.267  1.00  0.00     0.037 A 
ATOM     48  C   UNL A   1      42.096  27.071  28.815  1.00  0.00     0.037 A 
ATOM     49  C   UNL A   1      41.216  30.271  34.483  1.00  0.00     0.049 A 
ATOM     50  C   UNL A   1      42.874  27.140  30.103  1.00  0.00     0.074 A 
ATOM     51  C   UNL A   1      42.003  30.209  35.617  1.00  0.00     0.029 A 
ATOM     52  N   UNL A   1      41.805  29.443  33.537  1.00  0.00    -0.354 N 
ATOM     53  N   UNL A   1      42.602  27.806  31.200  1.00  0.00    -0.248 NA
ATOM     54  C   UNL A   1      44.116  26.360  30.168  1.00  0.00     0.031 C 
ATOM     55  C   UNL A   1      43.091  29.374  35.344  1.00  0.00     0.029 A 
ATOM     56  C   UNL A   1      42.954  28.875  34.059  1.00  0.00     0.049 A 
ATOM     57  H   UNL A   1      41.458  29.284  32.630  1.00  0.00     0.167 HD
ATOM     58  C   UNL A   1      43.617  27.501  32.095  1.00  0.00     0.074 A 
ATOM     59  C   UNL A   1      44.504  26.577  31.416  1.00  0.00     0.031 C 
ATOM     60  C   UNL A   1      43.807  27.946  33.361  1.00  0.00     0.037 A 
BRANCH  47  61
ATOM     61  C   UNL A   1      39.503  31.917  35.360  1.00  0.00     0.064 A 
ATOM     62  C   UNL A   1      38.601  31.465  36.337  1.00  0.00     0.173 A 
ATOM     63  C   UNL A   1      39.932  33.250  35.438  1.00  0.00     0.173 A 
ATOM     64  F   UNL A   1      38.146  30.204  36.304  1.00  0.00    -0.203 F 
ATOM     65  C   UNL A   1      38.116  32.323  37.321  1.00  0.00     0.198 A 
ATOM     66  C   UNL A   1      39.475  34.095  36.448  1.00  0.00     0.198 A 
ATOM     67  F   UNL A   1      40.796  33.738  34.535  1.00  0.00    -0.203 F 
ATOM     68  F   UNL A   1      37.202  31.883  38.197  1.00  0.00    -0.200 F 
ATOM     69  C   UNL A   1      38.559  33.634  37.381  1.00  0.00     0.200 A 
ATOM     70  F   UNL A   1      39.915  35.359  36.512  1.00  0.00    -0.200 F 
ATOM     71  F   UNL A   1      38.094  34.458  38.331  1.00  0.00    -0.200 F 
ENDBRANCH  47  61
BRANCH  48  72
ATOM     72  C   UNL A   1      42.570  26.243  27.673  1.00  0.00     0.064 A 
ATOM     73  C   UNL A   1      43.505  26.752  26.758  1.00  0.00     0.173 A 
ATOM     74  C   UNL A   1      42.114  24.933  27.471  1.00  0.00     0.173 A 
ATOM     75  F   UNL A   1      43.962  28.006  26.898  1.00  0.00    -0.203 F 
ATOM     76  C   UNL A   1      43.944  25.993  25.675  1.00  0.00     0.198 A 
ATOM     77  C   UNL A   1      42.577  24.163  26.405  1.00  0.00     0.198 A 
ATOM     78  F   UNL A   1      41.227  24.392  28.321  1.00  0.00    -0.203 F 
ATOM     79  F   UNL A   1      44.802  26.523  24.793  1.00  0.00    -0.200 F 
ATOM     80  C   UNL A   1      43.486  24.697  25.503  1.00  0.00     0.200 A 
ATOM     81  F   UNL A   1      42.145  22.904  26.251  1.00  0.00    -0.200 F 
ATOM     82  F   UNL A   1      43.913  23.965  24.466  1.00  0.00    -0.200 F 
ENDBRANCH  48  72
BRANCH  60  83
ATOM     83  C   UNL A   1      44.990  27.406  34.109  1.00  0.00     0.064 A 
ATOM     84  C   UNL A   1      46.226  28.068  34.108  1.00  0.00     0.173 A 
ATOM     85  C   UNL A   1      44.868  26.238  34.877  1.00  0.00     0.173 A 
ATOM     86  F   UNL A   1      46.394  29.182  33.380  1.00  0.00    -0.203 F 
ATOM     87  C   UNL A   1      47.304  27.566  34.829  1.00  0.00     0.198 A 
ATOM     88  C   UNL A   1      45.938  25.757  35.623  1.00  0.00     0.198 A 
ATOM     89  F   UNL A   1      43.703  25.573  34.917  1.00  0.00    -0.203 F 
ATOM     90  F   UNL A   1      48.490  28.188  34.775  1.00  0.00    -0.200 F 
ATOM     91  C   UNL A   1      47.158  26.416  35.592  1.00  0.00     0.200 A 
ATOM     92  F   UNL A   1      45.790  24.657  36.373  1.00  0.00    -0.200 F 
ATOM     93  F   UNL A   1      48.195  25.940  36.293  1.00  0.00    -0.200 F 
ENDBRANCH  60  83
ENDBRANCH  34  35
ENDBRANCH  26  29
ENDBRANCH  24  25
ENDBRANCH  23  24
ENDBRANCH   1  23
TORSDOF 15
ENDMDL
MODEL 3
REMARK VINA RESULT:     -11.8      4.167      6.879
REMARK SMILES CCCC[C@H](C(=O)NCCCNC(=O)c1ccc(-c2c3nc(c(-c4c(F)c(F)c(F)c(F)c4F)c4ccc([nH]4)c(-c4c(F)c(F)c(F)c(F)c4F)c4nc(c(-c5c(F)c(F)c(F)c(F)c5F)c5ccc2[nH]5)C=C4)C=C3)cc1)[C@]1(O)CCCc2ccccc21
REMARK SMILES IDX 9 1 8 2 6 3 7 4 5 6 4 7 3 8 2 9 1 10 78 11 80 12 88 13 81 14
REMARK SMILES IDX 83 15 87 16 82 17 84 18 86 19 85 20 79 21 10 23 11 24 12 25
REMARK SMILES IDX 13 26 14 28 15 29 16 30 77 31 17 32 76 33 18 34 19 35 20 36
REMARK SMILES IDX 70 37 21 38 75 39 69 40 71 41 22 42 74 43 68 44 67 45 23 47
REMARK SMILES IDX 55 48 35 49 54 50 36 51 39 52 53 53 72 54 37 55 38 56 52 58
REMARK SMILES IDX 73 59 40 60 24 61 25 62 33 63 26 64 27 65 31 66 34 67 28 68
REMARK SMILES IDX 29 69 32 70 30 71 56 72 57 73 65 74 58 75 59 76 63 77 66 78
REMARK SMILES IDX 60 79 61 80 64 81 62 82 41 83 42 84 50 85 43 86 44 87 48 88
REMARK SMILES IDX 51 89 45 90 46 91 49 92 47 93
REMARK H PARENT 8 5 79 22 12 27 71 46 39 57
REMARK Flexibility Score: inf
ROOT
ATOM      1  C   UNL A   1      34.770  22.880  23.751  1.00  0.00     0.117 C 
ENDROOT
BRANCH   1   2
ATOM      2  N   UNL A   1      34.203  24.078  23.076  1.00  0.00    -0.356 N 
ATOM      3  C   UNL A   1      33.833  25.372  23.255  1.00  0.00     0.226 C 
ATOM      4  O   UNL A   1      34.027  25.976  22.173  1.00  0.00    -0.275 OA
ATOM      5  H   UNL A   1      34.026  23.842  22.137  1.00  0.00     0.163 HD
BRANCH   3   6
ATOM      6  C   UNL A   1      33.122  26.280  24.432  1.00  0.00     0.115 C 
BRANCH   6   7
ATOM      7  C   UNL A   1      32.239  25.181  25.137  1.00  0.00     0.017 C 
BRANCH   7   8
ATOM      8  C   UNL A   1      30.796  24.900  24.729  1.00  0.00     0.001 C 
BRANCH   8   9
ATOM      9  C   UNL A   1      29.738  25.953  25.061  1.00  0.00    -0.003 C 
ATOM     10  C   UNL A   1      29.189  26.726  23.871  1.00  0.00     0.004 C 
ENDBRANCH   8   9
ENDBRANCH   7   8
ENDBRANCH   6   7
BRANCH   6  11
ATOM     11  C   UNL A   1      33.707  27.383  25.556  1.00  0.00     0.101 C 
ATOM     12  C   UNL A   1      33.434  28.526  24.546  1.00  0.00     0.041 C 
ATOM     13  C   UNL A   1      33.837  28.592  26.589  1.00  0.00    -0.013 A 
ATOM     14  C   UNL A   1      31.983  29.058  24.569  1.00  0.00     0.008 C 
ATOM     15  C   UNL A   1      32.755  29.541  26.752  1.00  0.00    -0.042 A 
ATOM     16  C   UNL A   1      35.094  28.953  27.104  1.00  0.00     0.007 A 
ATOM     17  C   UNL A   1      31.492  29.255  25.991  1.00  0.00     0.036 C 
ATOM     18  C   UNL A   1      32.974  30.827  27.250  1.00  0.00     0.004 A 
ATOM     19  C   UNL A   1      35.294  30.255  27.602  1.00  0.00     0.000 A 
ATOM     20  C   UNL A   1      34.255  31.192  27.638  1.00  0.00     0.000 A 
BRANCH  11  21
ATOM     21  O   UNL A   1      32.762  26.846  26.547  1.00  0.00    -0.384 OA
ATOM     22  H   UNL A   1      32.703  27.453  27.301  1.00  0.00     0.211 HD
ENDBRANCH  11  21
ENDBRANCH   6  11
ENDBRANCH   3   6
ENDBRANCH   1   2
BRANCH   1  23
ATOM     23  C   UNL A   1      36.263  22.872  24.065  1.00  0.00     0.042 C 
BRANCH  23  24
ATOM     24  C   UNL A   1      36.616  22.442  25.478  1.00  0.00     0.118 C 
BRANCH  24  25
ATOM     25  N   UNL A   1      37.663  21.428  25.603  1.00  0.00    -0.352 N 
ATOM     26  C   UNL A   1      38.945  21.527  26.126  1.00  0.00     0.251 C 
ATOM     27  H   UNL A   1      37.422  20.536  25.261  1.00  0.00     0.163 HD
ATOM     28  O   UNL A   1      39.681  20.551  26.123  1.00  0.00    -0.269 OA
BRANCH  26  29
ATOM     29  C   UNL A   1      39.447  22.827  26.646  1.00  0.00     0.039 A 
ATOM     30  C   UNL A   1      40.446  22.850  27.627  1.00  0.00     0.014 A 
ATOM     31  C   UNL A   1      38.972  24.028  26.134  1.00  0.00     0.014 A 
ATOM     32  C   UNL A   1      41.026  24.069  28.001  1.00  0.00     0.010 A 
ATOM     33  C   UNL A   1      39.670  25.201  26.362  1.00  0.00     0.010 A 
ATOM     34  C   UNL A   1      40.681  25.251  27.328  1.00  0.00    -0.014 A 
BRANCH  34  35
ATOM     35  C   UNL A   1      41.288  26.572  27.636  1.00  0.00     0.031 A 
ATOM     36  C   UNL A   1      42.720  26.833  27.232  1.00  0.00     0.074 A 
ATOM     37  C   UNL A   1      40.611  27.480  28.366  1.00  0.00     0.049 A 
ATOM     38  N   UNL A   1      43.507  27.830  27.546  1.00  0.00    -0.248 NA
ATOM     39  C   UNL A   1      43.378  25.795  26.417  1.00  0.00     0.031 C 
ATOM     40  C   UNL A   1      39.251  27.314  28.883  1.00  0.00     0.029 A 
ATOM     41  N   UNL A   1      40.983  28.723  28.812  1.00  0.00    -0.354 N 
ATOM     42  C   UNL A   1      44.750  27.509  27.011  1.00  0.00     0.074 A 
ATOM     43  C   UNL A   1      44.640  26.190  26.436  1.00  0.00     0.031 C 
ATOM     44  C   UNL A   1      38.888  28.429  29.537  1.00  0.00     0.029 A 
ATOM     45  C   UNL A   1      40.002  29.370  29.526  1.00  0.00     0.049 A 
ATOM     46  H   UNL A   1      41.869  29.115  28.638  1.00  0.00     0.167 HD
ATOM     47  C   UNL A   1      45.872  28.265  26.960  1.00  0.00     0.037 A 
ATOM     48  C   UNL A   1      40.009  30.588  30.103  1.00  0.00     0.037 A 
ATOM     49  C   UNL A   1      45.945  29.607  27.468  1.00  0.00     0.049 A 
ATOM     50  C   UNL A   1      41.251  31.432  29.992  1.00  0.00     0.074 A 
ATOM     51  C   UNL A   1      46.996  30.502  27.400  1.00  0.00     0.029 A 
ATOM     52  N   UNL A   1      44.908  30.251  28.130  1.00  0.00    -0.354 N 
ATOM     53  N   UNL A   1      42.398  31.147  29.423  1.00  0.00    -0.248 NA
ATOM     54  C   UNL A   1      41.197  32.771  30.595  1.00  0.00     0.031 C 
ATOM     55  C   UNL A   1      46.609  31.674  28.057  1.00  0.00     0.029 A 
ATOM     56  C   UNL A   1      45.300  31.528  28.487  1.00  0.00     0.049 A 
ATOM     57  H   UNL A   1      44.026  29.856  28.317  1.00  0.00     0.167 HD
ATOM     58  C   UNL A   1      43.190  32.278  29.570  1.00  0.00     0.074 A 
ATOM     59  C   UNL A   1      42.384  33.259  30.268  1.00  0.00     0.031 C 
ATOM     60  C   UNL A   1      44.467  32.488  29.169  1.00  0.00     0.037 A 
BRANCH  47  61
ATOM     61  C   UNL A   1      47.089  27.667  26.308  1.00  0.00     0.064 A 
ATOM     62  C   UNL A   1      48.055  26.965  27.047  1.00  0.00     0.173 A 
ATOM     63  C   UNL A   1      47.290  27.791  24.925  1.00  0.00     0.173 A 
ATOM     64  F   UNL A   1      47.921  26.827  28.375  1.00  0.00    -0.203 F 
ATOM     65  C   UNL A   1      49.194  26.449  26.436  1.00  0.00     0.198 A 
ATOM     66  C   UNL A   1      48.412  27.239  24.310  1.00  0.00     0.198 A 
ATOM     67  F   UNL A   1      46.400  28.448  24.166  1.00  0.00    -0.203 F 
ATOM     68  F   UNL A   1      50.134  25.845  27.177  1.00  0.00    -0.200 F 
ATOM     69  C   UNL A   1      49.369  26.579  25.068  1.00  0.00     0.200 A 
ATOM     70  F   UNL A   1      48.573  27.353  22.985  1.00  0.00    -0.200 F 
ATOM     71  F   UNL A   1      50.464  26.078  24.479  1.00  0.00    -0.200 F 
ENDBRANCH  47  61
BRANCH  48  72
ATOM     72  C   UNL A   1      38.790  31.098  30.788  1.00  0.00     0.064 A 
ATOM     73  C   UNL A   1      38.631  30.946  32.174  1.00  0.00     0.173 A 
ATOM     74  C   UNL A   1      37.767  31.750  30.086  1.00  0.00     0.173 A 
ATOM     75  F   UNL A   1      39.574  30.316  32.890  1.00  0.00    -0.203 F 
ATOM     76  C   UNL A   1      37.487  31.404  32.825  1.00  0.00     0.198 A 
ATOM     77  C   UNL A   1      36.636  32.235  30.743  1.00  0.00     0.198 A 
ATOM     78  F   UNL A   1      37.871  31.930  28.761  1.00  0.00    -0.203 F 
ATOM     79  F   UNL A   1      37.343  31.204  34.142  1.00  0.00    -0.200 F 
ATOM     80  C   UNL A   1      36.494  32.054  32.110  1.00  0.00     0.200 A 
ATOM     81  F   UNL A   1      35.686  32.879  30.051  1.00  0.00    -0.200 F 
ATOM     82  F   UNL A   1      35.397  32.501  32.736  1.00  0.00    -0.200 F 
ENDBRANCH  48  72
BRANCH  60  83
ATOM     83  C   UNL A   1      45.058  33.841  29.437  1.00  0.00     0.064 A 
ATOM     84  C   UNL A   1      45.786  34.108  30.604  1.00  0.00     0.173 A 
ATOM     85  C   UNL A   1      44.933  34.866  28.487  1.00  0.00     0.173 A 
ATOM     86  F   UNL A   1      45.923  33.164  31.546  1.00  0.00    -0.203 F 
ATOM     87  C   UNL A   1      46.348  35.362  30.822  1.00  0.00     0.198 A 
ATOM     88  C   UNL A   1      45.524  36.108  28.693  1.00  0.00     0.198 A 
ATOM     89  F   UNL A   1      44.253  34.656  27.349  1.00  0.00    -0.203 F 
ATOM     90  F   UNL A   1      47.000  35.611  31.966  1.00  0.00    -0.200 F 
ATOM     91  C   UNL A   1      46.224  36.358  29.864  1.00  0.00     0.200 A 
ATOM     92  F   UNL A   1      45.418  37.062  27.759  1.00  0.00    -0.200 F 
ATOM     93  F   UNL A   1      46.775  37.561  30.072  1.00  0.00    -0.200 F 
ENDBRANCH  60  83
ENDBRANCH  34  35
ENDBRANCH  26  29
ENDBRANCH  24  25
ENDBRANCH  23  24
ENDBRANCH   1  23
TORSDOF 15
ENDMDL
