MODEL 1
REMARK VINA RESULT:     -13.5      0.000      0.000
REMARK SMILES CCOc1cc(C(=O)N2CCC(C(=O)NCCCNC(=O)c3ccc(-c4c5nc(c(-c6c(F)c(F)c(F)c(F)c6F)c6ccc([nH]6)c(-c6c(F)c(F)c(F)c(F)c6F)c6nc(c(-c7c(F)c(F)c(F)c(F)c7F)c7ccc4[nH]7)C=C6)C=C5)cc3)(c3ccccc3)CC2)ccc1OC
REMARK SMILES IDX 16 1 15 2 13 3 14 4 12 6 7 7 8 8 9 9 10 10 92 11 11 12 91 13
REMARK SMILES IDX 6 14 4 15 5 16 95 17 94 18 93 19 3 20 2 21 1 22 96 23 97 24
REMARK SMILES IDX 85 25 86 26 90 27 87 28 89 29 88 30 17 31 18 32 19 33 20 34
REMARK SMILES IDX 21 36 22 37 23 38 84 39 24 40 83 41 25 42 26 43 27 44 77 45
REMARK SMILES IDX 28 46 82 47 76 48 78 49 29 50 81 51 75 52 74 53 30 55 62 56
REMARK SMILES IDX 42 57 61 58 43 59 46 60 60 61 79 62 44 63 45 64 59 66 80 67
REMARK SMILES IDX 47 68 31 69 32 70 40 71 33 72 34 73 38 74 41 75 35 76 36 77
REMARK SMILES IDX 39 78 37 79 63 80 64 81 72 82 65 83 66 84 70 85 73 86 67 87
REMARK SMILES IDX 68 88 71 89 69 90 48 91 49 92 57 93 50 94 51 95 55 96 58 97
REMARK SMILES IDX 52 98 53 99 56 100 54 101
REMARK H PARENT 15 5 19 35 78 54 46 65
REMARK Flexibility Score: inf
ROOT
ATOM      1  C   UNL A   1      32.120  30.456  26.206  1.00  0.00     0.117 C 
ENDROOT
BRANCH   1   2
ATOM      2  N   UNL A   1      31.895  29.469  27.253  1.00  0.00    -0.355 N 
ATOM      3  C   UNL A   1      31.766  28.109  27.250  1.00  0.00     0.230 C 
ATOM      4  O   UNL A   1      31.366  27.668  28.330  1.00  0.00    -0.274 OA
ATOM      5  H   UNL A   1      31.821  29.865  28.152  1.00  0.00     0.163 HD
BRANCH   3   6
ATOM      6  C   UNL A   1      32.056  27.238  25.973  1.00  0.00     0.077 C 
ATOM      7  C   UNL A   1      34.120  23.379  25.795  1.00  0.00     0.253 C 
ATOM      8  O   UNL A   1      35.249  23.302  26.278  1.00  0.00    -0.269 OA
ATOM      9  N   UNL A   1      33.396  24.589  25.742  1.00  0.00    -0.339 N 
ATOM     10  C   UNL A   1      34.167  25.778  25.419  1.00  0.00     0.121 C 
ATOM     11  C   UNL A   1      31.944  24.654  25.589  1.00  0.00     0.121 C 
ATOM     12  C   UNL A   1      33.602  27.091  25.935  1.00  0.00     0.043 C 
ATOM     13  C   UNL A   1      31.285  25.900  26.165  1.00  0.00     0.043 C 
BRANCH   7  14
ATOM     14  C   UNL A   1      33.552  22.162  25.140  1.00  0.00     0.043 A 
ATOM     15  C   UNL A   1      32.756  19.862  25.207  1.00  0.00     0.161 A 
ATOM     16  C   UNL A   1      33.303  20.986  25.860  1.00  0.00     0.064 A 
ATOM     17  C   UNL A   1      32.397  19.937  23.855  1.00  0.00     0.160 A 
ATOM     18  C   UNL A   1      32.753  21.078  23.133  1.00  0.00     0.051 A 
ATOM     19  C   UNL A   1      33.368  22.157  23.756  1.00  0.00     0.018 A 
BRANCH  15  20
ATOM     20  O   UNL A   1      32.519  18.726  25.936  1.00  0.00    -0.490 OA
BRANCH  20  21
ATOM     21  C   UNL A   1      33.407  17.650  25.597  1.00  0.00     0.226 C 
ATOM     22  C   UNL A   1      32.626  16.343  25.603  1.00  0.00     0.049 C 
ENDBRANCH  20  21
ENDBRANCH  15  20
BRANCH  17  23
ATOM     23  O   UNL A   1      31.746  19.030  23.071  1.00  0.00    -0.493 OA
ATOM     24  C   UNL A   1      32.484  18.161  22.230  1.00  0.00     0.278 C 
ENDBRANCH  17  23
ENDBRANCH   7  14
BRANCH   6  25
ATOM     25  C   UNL A   1      31.575  27.848  24.604  1.00  0.00    -0.032 A 
ATOM     26  C   UNL A   1      32.424  28.451  23.659  1.00  0.00     0.005 A 
ATOM     27  C   UNL A   1      30.202  27.850  24.270  1.00  0.00     0.005 A 
ATOM     28  C   UNL A   1      31.941  29.009  22.467  1.00  0.00     0.000 A 
ATOM     29  C   UNL A   1      29.711  28.423  23.090  1.00  0.00     0.000 A 
ATOM     30  C   UNL A   1      30.584  29.003  22.183  1.00  0.00     0.000 A 
ENDBRANCH   6  25
ENDBRANCH   3   6
ENDBRANCH   1   2
BRANCH   1  31
ATOM     31  C   UNL A   1      31.724  31.857  26.653  1.00  0.00     0.042 C 
BRANCH  31  32
ATOM     32  C   UNL A   1      32.823  32.604  27.394  1.00  0.00     0.118 C 
BRANCH  32  33
ATOM     33  N   UNL A   1      32.487  33.997  27.652  1.00  0.00    -0.352 N 
ATOM     34  C   UNL A   1      32.999  34.861  28.594  1.00  0.00     0.251 C 
ATOM     35  H   UNL A   1      31.792  34.377  27.067  1.00  0.00     0.163 HD
ATOM     36  O   UNL A   1      32.479  35.945  28.790  1.00  0.00    -0.269 OA
BRANCH  34  37
ATOM     37  C   UNL A   1      34.176  34.445  29.388  1.00  0.00     0.039 A 
ATOM     38  C   UNL A   1      33.978  33.867  30.645  1.00  0.00     0.014 A 
ATOM     39  C   UNL A   1      35.465  34.594  28.874  1.00  0.00     0.014 A 
ATOM     40  C   UNL A   1      35.073  33.359  31.348  1.00  0.00     0.010 A 
ATOM     41  C   UNL A   1      36.537  34.004  29.528  1.00  0.00     0.010 A 
ATOM     42  C   UNL A   1      36.354  33.381  30.772  1.00  0.00    -0.014 A 
BRANCH  42  43
ATOM     43  C   UNL A   1      37.525  32.762  31.442  1.00  0.00     0.031 A 
ATOM     44  C   UNL A   1      38.249  31.622  30.781  1.00  0.00     0.074 A 
ATOM     45  C   UNL A   1      37.874  33.154  32.681  1.00  0.00     0.049 A 
ATOM     46  N   UNL A   1      39.207  30.863  31.247  1.00  0.00    -0.248 NA
ATOM     47  C   UNL A   1      37.805  31.266  29.424  1.00  0.00     0.031 C 
ATOM     48  C   UNL A   1      37.229  34.222  33.446  1.00  0.00     0.029 A 
ATOM     49  N   UNL A   1      38.853  32.687  33.524  1.00  0.00    -0.354 N 
ATOM     50  C   UNL A   1      39.460  29.926  30.254  1.00  0.00     0.074 A 
ATOM     51  C   UNL A   1      38.515  30.175  29.187  1.00  0.00     0.031 C 
ATOM     52  C   UNL A   1      37.846  34.350  34.630  1.00  0.00     0.029 A 
ATOM     53  C   UNL A   1      38.899  33.344  34.728  1.00  0.00     0.049 A 
ATOM     54  H   UNL A   1      39.462  31.952  33.286  1.00  0.00     0.167 HD
ATOM     55  C   UNL A   1      40.410  28.961  30.225  1.00  0.00     0.037 A 
ATOM     56  C   UNL A   1      39.697  33.149  35.795  1.00  0.00     0.037 A 
ATOM     57  C   UNL A   1      41.361  28.733  31.281  1.00  0.00     0.049 A 
ATOM     58  C   UNL A   1      40.727  32.053  35.752  1.00  0.00     0.074 A 
ATOM     59  C   UNL A   1      42.404  27.826  31.324  1.00  0.00     0.029 A 
ATOM     60  N   UNL A   1      41.379  29.420  32.487  1.00  0.00    -0.354 N 
ATOM     61  N   UNL A   1      41.003  31.212  34.785  1.00  0.00    -0.248 NA
ATOM     62  C   UNL A   1      41.554  31.879  36.954  1.00  0.00     0.031 C 
ATOM     63  C   UNL A   1      43.019  27.927  32.577  1.00  0.00     0.029 A 
ATOM     64  C   UNL A   1      42.397  28.937  33.293  1.00  0.00     0.049 A 
ATOM     65  H   UNL A   1      40.759  30.145  32.734  1.00  0.00     0.167 HD
ATOM     66  C   UNL A   1      42.057  30.435  35.243  1.00  0.00     0.074 A 
ATOM     67  C   UNL A   1      42.374  30.908  36.575  1.00  0.00     0.031 C 
ATOM     68  C   UNL A   1      42.707  29.424  34.615  1.00  0.00     0.037 A 
BRANCH  55  69
ATOM     69  C   UNL A   1      40.448  28.073  29.012  1.00  0.00     0.064 A 
ATOM     70  C   UNL A   1      41.206  28.403  27.877  1.00  0.00     0.173 A 
ATOM     71  C   UNL A   1      39.706  26.883  28.978  1.00  0.00     0.173 A 
ATOM     72  F   UNL A   1      41.925  29.536  27.850  1.00  0.00    -0.203 F 
ATOM     73  C   UNL A   1      41.176  27.605  26.737  1.00  0.00     0.198 A 
ATOM     74  C   UNL A   1      39.710  26.066  27.850  1.00  0.00     0.198 A 
ATOM     75  F   UNL A   1      38.971  26.513  30.037  1.00  0.00    -0.203 F 
ATOM     76  F   UNL A   1      41.847  27.982  25.639  1.00  0.00    -0.200 F 
ATOM     77  C   UNL A   1      40.433  26.435  26.725  1.00  0.00     0.200 A 
ATOM     78  F   UNL A   1      39.002  24.929  27.846  1.00  0.00    -0.200 F 
ATOM     79  F   UNL A   1      40.401  25.670  25.626  1.00  0.00    -0.200 F 
ENDBRANCH  55  69
BRANCH  56  80
ATOM     80  C   UNL A   1      39.586  34.046  36.974  1.00  0.00     0.064 A 
ATOM     81  C   UNL A   1      38.810  33.671  38.080  1.00  0.00     0.173 A 
ATOM     82  C   UNL A   1      40.258  35.275  37.034  1.00  0.00     0.173 A 
ATOM     83  F   UNL A   1      38.132  32.514  38.060  1.00  0.00    -0.203 F 
ATOM     84  C   UNL A   1      38.703  34.496  39.198  1.00  0.00     0.198 A 
ATOM     85  C   UNL A   1      40.170  36.087  38.163  1.00  0.00     0.198 A 
ATOM     86  F   UNL A   1      41.016  35.678  36.003  1.00  0.00    -0.203 F 
ATOM     87  F   UNL A   1      37.927  34.128  40.226  1.00  0.00    -0.200 F 
ATOM     88  C   UNL A   1      39.389  35.700  39.241  1.00  0.00     0.200 A 
ATOM     89  F   UNL A   1      40.845  37.245  38.207  1.00  0.00    -0.200 F 
ATOM     90  F   UNL A   1      39.293  36.489  40.320  1.00  0.00    -0.200 F 
ENDBRANCH  56  80
BRANCH  68  91
ATOM     91  C   UNL A   1      43.860  28.790  35.340  1.00  0.00     0.064 A 
ATOM     92  C   UNL A   1      43.686  27.684  36.183  1.00  0.00     0.173 A 
ATOM     93  C   UNL A   1      45.164  29.275  35.151  1.00  0.00     0.173 A 
ATOM     94  F   UNL A   1      42.458  27.193  36.409  1.00  0.00    -0.203 F 
ATOM     95  C   UNL A   1      44.773  27.101  36.830  1.00  0.00     0.198 A 
ATOM     96  C   UNL A   1      46.251  28.671  35.775  1.00  0.00     0.198 A 
ATOM     97  F   UNL A   1      45.386  30.329  34.350  1.00  0.00    -0.203 F 
ATOM     98  F   UNL A   1      44.578  26.074  37.670  1.00  0.00    -0.200 F 
ATOM     99  C   UNL A   1      46.054  27.589  36.620  1.00  0.00     0.200 A 
ATOM    100  F   UNL A   1      47.490  29.134  35.558  1.00  0.00    -0.200 F 
ATOM    101  F   UNL A   1      47.099  27.020  37.236  1.00  0.00    -0.200 F 
ENDBRANCH  68  91
ENDBRANCH  42  43
ENDBRANCH  34  37
ENDBRANCH  32  33
ENDBRANCH  31  32
ENDBRANCH   1  31
TORSDOF 15
ENDMDL
MODEL 2
REMARK VINA RESULT:     -13.3      5.468     11.315
REMARK SMILES CCOc1cc(C(=O)N2CCC(C(=O)NCCCNC(=O)c3ccc(-c4c5nc(c(-c6c(F)c(F)c(F)c(F)c6F)c6ccc([nH]6)c(-c6c(F)c(F)c(F)c(F)c6F)c6nc(c(-c7c(F)c(F)c(F)c(F)c7F)c7ccc4[nH]7)C=C6)C=C5)cc3)(c3ccccc3)CC2)ccc1OC
REMARK SMILES IDX 16 1 15 2 13 3 14 4 12 6 7 7 8 8 9 9 10 10 92 11 11 12 91 13
REMARK SMILES IDX 6 14 4 15 5 16 95 17 94 18 93 19 3 20 2 21 1 22 96 23 97 24
REMARK SMILES IDX 85 25 86 26 90 27 87 28 89 29 88 30 17 31 18 32 19 33 20 34
REMARK SMILES IDX 21 36 22 37 23 38 84 39 24 40 83 41 25 42 26 43 27 44 77 45
REMARK SMILES IDX 28 46 82 47 76 48 78 49 29 50 81 51 75 52 74 53 30 55 62 56
REMARK SMILES IDX 42 57 61 58 43 59 46 60 60 61 79 62 44 63 45 64 59 66 80 67
REMARK SMILES IDX 47 68 31 69 32 70 40 71 33 72 34 73 38 74 41 75 35 76 36 77
REMARK SMILES IDX 39 78 37 79 63 80 64 81 72 82 65 83 66 84 70 85 73 86 67 87
REMARK SMILES IDX 68 88 71 89 69 90 48 91 49 92 57 93 50 94 51 95 55 96 58 97
REMARK SMILES IDX 52 98 53 99 56 100 54 101
REMARK H PARENT 15 5 19 35 78 54 46 65
REMARK Flexibility Score: inf
ROOT
ATOM      1  C   UNL A   1      36.967  21.076  25.167  1.00  0.00     0.117 C 
ENDROOT
BRANCH   1   2
ATOM      2  N   UNL A   1      37.112  22.101  24.143  1.00  0.00    -0.355 N 
ATOM      3  C   UNL A   1      36.238  22.971  23.553  1.00  0.00     0.230 C 
ATOM      4  O   UNL A   1      36.721  23.532  22.568  1.00  0.00    -0.274 OA
ATOM      5  H   UNL A   1      38.033  22.185  23.804  1.00  0.00     0.163 HD
BRANCH   3   6
ATOM      6  C   UNL A   1      34.767  23.168  24.074  1.00  0.00     0.077 C 
ATOM      7  C   UNL A   1      32.779  26.944  25.061  1.00  0.00     0.253 C 
ATOM      8  O   UNL A   1      33.319  27.688  25.878  1.00  0.00    -0.269 OA
ATOM      9  N   UNL A   1      33.301  25.678  24.722  1.00  0.00    -0.339 N 
ATOM     10  C   UNL A   1      33.856  24.905  25.820  1.00  0.00     0.121 C 
ATOM     11  C   UNL A   1      32.962  24.969  23.490  1.00  0.00     0.121 C 
ATOM     12  C   UNL A   1      34.923  23.890  25.440  1.00  0.00     0.043 C 
ATOM     13  C   UNL A   1      34.021  23.997  22.987  1.00  0.00     0.043 C 
BRANCH   7  14
ATOM     14  C   UNL A   1      31.459  27.360  24.498  1.00  0.00     0.043 A 
ATOM     15  C   UNL A   1      29.999  28.988  23.426  1.00  0.00     0.161 A 
ATOM     16  C   UNL A   1      31.258  28.637  23.957  1.00  0.00     0.064 A 
ATOM     17  C   UNL A   1      28.967  28.043  23.374  1.00  0.00     0.160 A 
ATOM     18  C   UNL A   1      29.153  26.816  24.015  1.00  0.00     0.051 A 
ATOM     19  C   UNL A   1      30.367  26.498  24.613  1.00  0.00     0.018 A 
BRANCH  15  20
ATOM     20  O   UNL A   1      29.832  30.243  22.899  1.00  0.00    -0.490 OA
BRANCH  20  21
ATOM     21  C   UNL A   1      29.295  31.178  23.847  1.00  0.00     0.226 C 
ATOM     22  C   UNL A   1      27.897  31.587  23.402  1.00  0.00     0.049 C 
ENDBRANCH  20  21
ENDBRANCH  15  20
BRANCH  17  23
ATOM     23  O   UNL A   1      27.734  28.124  22.797  1.00  0.00    -0.493 OA
ATOM     24  C   UNL A   1      26.571  28.133  23.606  1.00  0.00     0.278 C 
ENDBRANCH  17  23
ENDBRANCH   7  14
BRANCH   6  25
ATOM     25  C   UNL A   1      33.934  21.851  24.292  1.00  0.00    -0.032 A 
ATOM     26  C   UNL A   1      33.128  21.247  23.311  1.00  0.00     0.005 A 
ATOM     27  C   UNL A   1      33.930  21.213  25.553  1.00  0.00     0.005 A 
ATOM     28  C   UNL A   1      32.378  20.089  23.566  1.00  0.00     0.000 A 
ATOM     29  C   UNL A   1      33.169  20.068  25.819  1.00  0.00     0.000 A 
ATOM     30  C   UNL A   1      32.393  19.502  24.821  1.00  0.00     0.000 A 
ENDBRANCH   6  25
ENDBRANCH   3   6
ENDBRANCH   1   2
BRANCH   1  31
ATOM     31  C   UNL A   1      38.061  20.021  25.073  1.00  0.00     0.042 C 
BRANCH  31  32
ATOM     32  C   UNL A   1      39.328  20.374  25.837  1.00  0.00     0.118 C 
BRANCH  32  33
ATOM     33  N   UNL A   1      40.253  19.255  25.949  1.00  0.00    -0.352 N 
ATOM     34  C   UNL A   1      41.616  19.263  26.141  1.00  0.00     0.251 C 
ATOM     35  H   UNL A   1      39.843  18.363  25.877  1.00  0.00     0.163 HD
ATOM     36  O   UNL A   1      42.264  18.236  26.035  1.00  0.00    -0.269 OA
BRANCH  34  37
ATOM     37  C   UNL A   1      42.293  20.541  26.453  1.00  0.00     0.039 A 
ATOM     38  C   UNL A   1      42.847  21.288  25.411  1.00  0.00     0.014 A 
ATOM     39  C   UNL A   1      42.345  21.012  27.766  1.00  0.00     0.014 A 
ATOM     40  C   UNL A   1      43.378  22.552  25.677  1.00  0.00     0.010 A 
ATOM     41  C   UNL A   1      42.783  22.306  28.013  1.00  0.00     0.010 A 
ATOM     42  C   UNL A   1      43.305  23.090  26.973  1.00  0.00    -0.014 A 
BRANCH  42  43
ATOM     43  C   UNL A   1      43.766  24.467  27.277  1.00  0.00     0.031 A 
ATOM     44  C   UNL A   1      42.789  25.484  27.799  1.00  0.00     0.074 A 
ATOM     45  C   UNL A   1      45.030  24.830  26.991  1.00  0.00     0.049 A 
ATOM     46  N   UNL A   1      42.954  26.765  28.006  1.00  0.00    -0.248 NA
ATOM     47  C   UNL A   1      41.432  24.997  28.090  1.00  0.00     0.031 C 
ATOM     48  C   UNL A   1      46.063  23.949  26.447  1.00  0.00     0.029 A 
ATOM     49  N   UNL A   1      45.657  26.047  27.106  1.00  0.00    -0.354 N 
ATOM     50  C   UNL A   1      41.718  27.240  28.424  1.00  0.00     0.074 A 
ATOM     51  C   UNL A   1      40.800  26.122  28.383  1.00  0.00     0.031 C 
ATOM     52  C   UNL A   1      47.203  24.643  26.304  1.00  0.00     0.029 A 
ATOM     53  C   UNL A   1      46.969  26.028  26.701  1.00  0.00     0.049 A 
ATOM     54  H   UNL A   1      45.209  26.854  27.446  1.00  0.00     0.167 HD
ATOM     55  C   UNL A   1      41.383  28.489  28.827  1.00  0.00     0.037 A 
ATOM     56  C   UNL A   1      47.878  27.021  26.649  1.00  0.00     0.037 A 
ATOM     57  C   UNL A   1      42.307  29.591  28.886  1.00  0.00     0.049 A 
ATOM     58  C   UNL A   1      47.477  28.407  27.076  1.00  0.00     0.074 A 
ATOM     59  C   UNL A   1      42.087  30.879  29.340  1.00  0.00     0.029 A 
ATOM     60  N   UNL A   1      43.630  29.534  28.469  1.00  0.00    -0.354 N 
ATOM     61  N   UNL A   1      46.325  28.833  27.529  1.00  0.00    -0.248 NA
ATOM     62  C   UNL A   1      48.508  29.449  26.978  1.00  0.00     0.031 C 
ATOM     63  C   UNL A   1      43.262  31.616  29.148  1.00  0.00     0.029 A 
ATOM     64  C   UNL A   1      44.231  30.772  28.628  1.00  0.00     0.049 A 
ATOM     65  H   UNL A   1      44.075  28.731  28.112  1.00  0.00     0.167 HD
ATOM     66  C   UNL A   1      46.499  30.181  27.808  1.00  0.00     0.074 A 
ATOM     67  C   UNL A   1      47.872  30.501  27.475  1.00  0.00     0.031 C 
ATOM     68  C   UNL A   1      45.603  31.073  28.300  1.00  0.00     0.037 A 
BRANCH  55  69
ATOM     69  C   UNL A   1      39.951  28.722  29.221  1.00  0.00     0.064 A 
ATOM     70  C   UNL A   1      39.491  28.468  30.524  1.00  0.00     0.173 A 
ATOM     71  C   UNL A   1      39.022  29.192  28.281  1.00  0.00     0.173 A 
ATOM     72  F   UNL A   1      40.334  28.007  31.460  1.00  0.00    -0.203 F 
ATOM     73  C   UNL A   1      38.148  28.625  30.854  1.00  0.00     0.198 A 
ATOM     74  C   UNL A   1      37.686  29.384  28.625  1.00  0.00     0.198 A 
ATOM     75  F   UNL A   1      39.407  29.459  27.024  1.00  0.00    -0.203 F 
ATOM     76  F   UNL A   1      37.720  28.303  32.083  1.00  0.00    -0.200 F 
ATOM     77  C   UNL A   1      37.247  29.087  29.906  1.00  0.00     0.200 A 
ATOM     78  F   UNL A   1      36.821  29.845  27.712  1.00  0.00    -0.200 F 
ATOM     79  F   UNL A   1      35.954  29.232  30.223  1.00  0.00    -0.200 F 
ENDBRANCH  55  69
BRANCH  56  80
ATOM     80  C   UNL A   1      49.270  26.725  26.221  1.00  0.00     0.064 A 
ATOM     81  C   UNL A   1      50.210  26.251  27.146  1.00  0.00     0.173 A 
ATOM     82  C   UNL A   1      49.684  26.887  24.892  1.00  0.00     0.173 A 
ATOM     83  F   UNL A   1      49.865  26.100  28.434  1.00  0.00    -0.203 F 
ATOM     84  C   UNL A   1      51.517  25.960  26.759  1.00  0.00     0.198 A 
ATOM     85  C   UNL A   1      50.984  26.571  24.501  1.00  0.00     0.198 A 
ATOM     86  F   UNL A   1      48.821  27.335  23.968  1.00  0.00    -0.203 F 
ATOM     87  F   UNL A   1      52.404  25.541  27.671  1.00  0.00    -0.200 F 
ATOM     88  C   UNL A   1      51.900  26.112  25.436  1.00  0.00     0.200 A 
ATOM     89  F   UNL A   1      51.349  26.708  23.219  1.00  0.00    -0.200 F 
ATOM     90  F   UNL A   1      53.155  25.824  25.063  1.00  0.00    -0.200 F 
ENDBRANCH  56  80
BRANCH  68  91
ATOM     91  C   UNL A   1      46.091  32.471  28.554  1.00  0.00     0.064 A 
ATOM     92  C   UNL A   1      45.991  33.478  27.585  1.00  0.00     0.173 A 
ATOM     93  C   UNL A   1      46.628  32.814  29.806  1.00  0.00     0.173 A 
ATOM     94  F   UNL A   1      45.500  33.198  26.368  1.00  0.00    -0.203 F 
ATOM     95  C   UNL A   1      46.433  34.772  27.850  1.00  0.00     0.198 A 
ATOM     96  C   UNL A   1      47.039  34.115  30.078  1.00  0.00     0.198 A 
ATOM     97  F   UNL A   1      46.741  31.888  30.770  1.00  0.00    -0.203 F 
ATOM     98  F   UNL A   1      46.373  35.708  26.891  1.00  0.00    -0.200 F 
ATOM     99  C   UNL A   1      46.949  35.091  29.097  1.00  0.00     0.200 A 
ATOM    100  F   UNL A   1      47.523  34.424  31.288  1.00  0.00    -0.200 F 
ATOM    101  F   UNL A   1      47.364  36.339  29.352  1.00  0.00    -0.200 F 
ENDBRANCH  68  91
ENDBRANCH  42  43
ENDBRANCH  34  37
ENDBRANCH  32  33
ENDBRANCH  31  32
ENDBRANCH   1  31
TORSDOF 15
ENDMDL
MODEL 3
REMARK VINA RESULT:     -13.3      5.112     10.597
REMARK SMILES CCOc1cc(C(=O)N2CCC(C(=O)NCCCNC(=O)c3ccc(-c4c5nc(c(-c6c(F)c(F)c(F)c(F)c6F)c6ccc([nH]6)c(-c6c(F)c(F)c(F)c(F)c6F)c6nc(c(-c7c(F)c(F)c(F)c(F)c7F)c7ccc4[nH]7)C=C6)C=C5)cc3)(c3ccccc3)CC2)ccc1OC
REMARK SMILES IDX 16 1 15 2 13 3 14 4 12 6 7 7 8 8 9 9 10 10 92 11 11 12 91 13
REMARK SMILES IDX 6 14 4 15 5 16 95 17 94 18 93 19 3 20 2 21 1 22 96 23 97 24
REMARK SMILES IDX 85 25 86 26 90 27 87 28 89 29 88 30 17 31 18 32 19 33 20 34
REMARK SMILES IDX 21 36 22 37 23 38 84 39 24 40 83 41 25 42 26 43 27 44 77 45
REMARK SMILES IDX 28 46 82 47 76 48 78 49 29 50 81 51 75 52 74 53 30 55 62 56
REMARK SMILES IDX 42 57 61 58 43 59 46 60 60 61 79 62 44 63 45 64 59 66 80 67
REMARK SMILES IDX 47 68 31 69 32 70 40 71 33 72 34 73 38 74 41 75 35 76 36 77
REMARK SMILES IDX 39 78 37 79 63 80 64 81 72 82 65 83 66 84 70 85 73 86 67 87
REMARK SMILES IDX 68 88 71 89 69 90 48 91 49 92 57 93 50 94 51 95 55 96 58 97
REMARK SMILES IDX 52 98 53 99 56 100 54 101
REMARK H PARENT 15 5 19 35 78 54 46 65
REMARK Flexibility Score: inf
ROOT
ATOM      1  C   UNL A   1      36.308  21.681  25.069  1.00  0.00     0.117 C 
ENDROOT
BRANCH   1   2
ATOM      2  N   UNL A   1      35.603  21.439  26.320  1.00  0.00    -0.355 N 
ATOM      3  C   UNL A   1      34.321  21.668  26.736  1.00  0.00     0.230 C 
ATOM      4  O   UNL A   1      34.183  21.514  27.951  1.00  0.00    -0.274 OA
ATOM      5  H   UNL A   1      36.168  21.022  27.012  1.00  0.00     0.163 HD
BRANCH   3   6
ATOM      6  C   UNL A   1      33.185  22.126  25.749  1.00  0.00     0.077 C 
ATOM      7  C   UNL A   1      30.757  25.763  25.992  1.00  0.00     0.253 C 
ATOM      8  O   UNL A   1      30.135  25.978  27.032  1.00  0.00    -0.269 OA
ATOM      9  N   UNL A   1      31.515  24.591  25.786  1.00  0.00    -0.339 N 
ATOM     10  C   UNL A   1      30.931  23.359  26.290  1.00  0.00     0.121 C 
ATOM     11  C   UNL A   1      32.583  24.485  24.795  1.00  0.00     0.121 C 
ATOM     12  C   UNL A   1      31.917  22.255  26.636  1.00  0.00     0.043 C 
ATOM     13  C   UNL A   1      33.666  23.463  25.112  1.00  0.00     0.043 C 
BRANCH   7  14
ATOM     14  C   UNL A   1      30.601  26.735  24.868  1.00  0.00     0.043 A 
ATOM     15  C   UNL A   1      31.423  28.557  23.477  1.00  0.00     0.161 A 
ATOM     16  C   UNL A   1      31.604  27.663  24.552  1.00  0.00     0.064 A 
ATOM     17  C   UNL A   1      30.275  28.478  22.678  1.00  0.00     0.160 A 
ATOM     18  C   UNL A   1      29.245  27.623  23.075  1.00  0.00     0.051 A 
ATOM     19  C   UNL A   1      29.385  26.798  24.185  1.00  0.00     0.018 A 
BRANCH  15  20
ATOM     20  O   UNL A   1      32.422  29.451  23.187  1.00  0.00    -0.490 OA
BRANCH  20  21
ATOM     21  C   UNL A   1      33.734  28.883  23.323  1.00  0.00     0.226 C 
ATOM     22  C   UNL A   1      34.129  28.229  22.007  1.00  0.00     0.049 C 
ENDBRANCH  20  21
ENDBRANCH  15  20
BRANCH  17  23
ATOM     23  O   UNL A   1      29.960  29.144  21.531  1.00  0.00    -0.493 OA
ATOM     24  C   UNL A   1      29.271  30.381  21.596  1.00  0.00     0.278 C 
ENDBRANCH  17  23
ENDBRANCH   7  14
BRANCH   6  25
ATOM     25  C   UNL A   1      32.872  21.143  24.561  1.00  0.00    -0.032 A 
ATOM     26  C   UNL A   1      32.435  21.548  23.287  1.00  0.00     0.005 A 
ATOM     27  C   UNL A   1      32.983  19.746  24.746  1.00  0.00     0.005 A 
ATOM     28  C   UNL A   1      32.137  20.629  22.270  1.00  0.00     0.000 A 
ATOM     29  C   UNL A   1      32.669  18.823  23.740  1.00  0.00     0.000 A 
ATOM     30  C   UNL A   1      32.247  19.266  22.497  1.00  0.00     0.000 A 
ENDBRANCH   6  25
ENDBRANCH   3   6
ENDBRANCH   1   2
BRANCH   1  31
ATOM     31  C   UNL A   1      37.424  20.669  24.843  1.00  0.00     0.042 C 
BRANCH  31  32
ATOM     32  C   UNL A   1      38.665  20.919  25.686  1.00  0.00     0.118 C 
BRANCH  32  33
ATOM     33  N   UNL A   1      39.548  19.763  25.750  1.00  0.00    -0.352 N 
ATOM     34  C   UNL A   1      40.900  19.707  26.010  1.00  0.00     0.251 C 
ATOM     35  H   UNL A   1      39.116  18.894  25.585  1.00  0.00     0.163 HD
ATOM     36  O   UNL A   1      41.520  18.671  25.851  1.00  0.00    -0.269 OA
BRANCH  34  37
ATOM     37  C   UNL A   1      41.598  20.932  26.458  1.00  0.00     0.039 A 
ATOM     38  C   UNL A   1      42.092  21.821  25.501  1.00  0.00     0.014 A 
ATOM     39  C   UNL A   1      41.730  21.213  27.819  1.00  0.00     0.014 A 
ATOM     40  C   UNL A   1      42.642  23.038  25.912  1.00  0.00     0.010 A 
ATOM     41  C   UNL A   1      42.187  22.460  28.221  1.00  0.00     0.010 A 
ATOM     42  C   UNL A   1      42.649  23.386  27.273  1.00  0.00    -0.014 A 
BRANCH  42  43
ATOM     43  C   UNL A   1      43.131  24.709  27.741  1.00  0.00     0.031 A 
ATOM     44  C   UNL A   1      42.141  25.781  28.104  1.00  0.00     0.074 A 
ATOM     45  C   UNL A   1      44.450  24.980  27.744  1.00  0.00     0.049 A 
ATOM     46  N   UNL A   1      42.349  27.036  28.411  1.00  0.00    -0.248 NA
ATOM     47  C   UNL A   1      40.722  25.394  28.080  1.00  0.00     0.031 C 
ATOM     48  C   UNL A   1      45.509  24.040  27.378  1.00  0.00     0.029 A 
ATOM     49  N   UNL A   1      45.124  26.136  28.053  1.00  0.00    -0.354 N 
ATOM     50  C   UNL A   1      41.090  27.592  28.588  1.00  0.00     0.074 A 
ATOM     51  C   UNL A   1      40.124  26.555  28.297  1.00  0.00     0.031 C 
ATOM     52  C   UNL A   1      46.700  24.643  27.514  1.00  0.00     0.029 A 
ATOM     53  C   UNL A   1      46.486  26.026  27.929  1.00  0.00     0.049 A 
ATOM     54  H   UNL A   1      44.673  26.963  28.337  1.00  0.00     0.167 HD
ATOM     55  C   UNL A   1      40.767  28.848  28.982  1.00  0.00     0.037 A 
ATOM     56  C   UNL A   1      47.454  26.943  28.121  1.00  0.00     0.037 A 
ATOM     57  C   UNL A   1      41.734  29.868  29.291  1.00  0.00     0.049 A 
ATOM     58  C   UNL A   1      47.072  28.340  28.531  1.00  0.00     0.074 A 
ATOM     59  C   UNL A   1      41.516  31.151  29.760  1.00  0.00     0.029 A 
ATOM     60  N   UNL A   1      43.107  29.720  29.155  1.00  0.00    -0.354 N 
ATOM     61  N   UNL A   1      45.883  28.840  28.759  1.00  0.00    -0.248 NA
ATOM     62  C   UNL A   1      48.172  29.298  28.707  1.00  0.00     0.031 C 
ATOM     63  C   UNL A   1      42.754  31.797  29.857  1.00  0.00     0.029 A 
ATOM     64  C   UNL A   1      43.748  30.898  29.504  1.00  0.00     0.049 A 
ATOM     65  H   UNL A   1      43.560  28.899  28.855  1.00  0.00     0.167 HD
ATOM     66  C   UNL A   1      46.090  30.158  29.141  1.00  0.00     0.074 A 
ATOM     67  C   UNL A   1      47.521  30.378  29.117  1.00  0.00     0.031 C 
ATOM     68  C   UNL A   1      45.176  31.100  29.485  1.00  0.00     0.037 A 
BRANCH  55  69
ATOM     69  C   UNL A   1      39.305  29.181  29.082  1.00  0.00     0.064 A 
ATOM     70  C   UNL A   1      38.622  29.152  30.309  1.00  0.00     0.173 A 
ATOM     71  C   UNL A   1      38.572  29.519  27.935  1.00  0.00     0.173 A 
ATOM     72  F   UNL A   1      39.271  28.824  31.437  1.00  0.00    -0.203 F 
ATOM     73  C   UNL A   1      37.253  29.397  30.374  1.00  0.00     0.198 A 
ATOM     74  C   UNL A   1      37.210  29.801  28.010  1.00  0.00     0.198 A 
ATOM     75  F   UNL A   1      39.174  29.570  26.738  1.00  0.00    -0.203 F 
ATOM     76  F   UNL A   1      36.610  29.288  31.546  1.00  0.00    -0.200 F 
ATOM     77  C   UNL A   1      36.549  29.726  29.227  1.00  0.00     0.200 A 
ATOM     78  F   UNL A   1      36.535  30.133  26.902  1.00  0.00    -0.200 F 
ATOM     79  F   UNL A   1      35.230  29.956  29.290  1.00  0.00    -0.200 F 
ENDBRANCH  55  69
BRANCH  56  80
ATOM     80  C   UNL A   1      48.880  26.553  27.976  1.00  0.00     0.064 A 
ATOM     81  C   UNL A   1      49.473  26.491  26.707  1.00  0.00     0.173 A 
ATOM     82  C   UNL A   1      49.682  26.256  29.087  1.00  0.00     0.173 A 
ATOM     83  F   UNL A   1      48.740  26.747  25.613  1.00  0.00    -0.203 F 
ATOM     84  C   UNL A   1      50.812  26.136  26.554  1.00  0.00     0.198 A 
ATOM     85  C   UNL A   1      51.027  25.926  28.935  1.00  0.00     0.198 A 
ATOM     86  F   UNL A   1      49.162  26.304  30.323  1.00  0.00    -0.203 F 
ATOM     87  F   UNL A   1      51.343  26.052  25.327  1.00  0.00    -0.200 F 
ATOM     88  C   UNL A   1      51.590  25.862  27.668  1.00  0.00     0.200 A 
ATOM     89  F   UNL A   1      51.779  25.672  30.014  1.00  0.00    -0.200 F 
ATOM     90  F   UNL A   1      52.879  25.529  27.521  1.00  0.00    -0.200 F 
ENDBRANCH  56  80
BRANCH  68  91
ATOM     91  C   UNL A   1      45.697  32.442  29.911  1.00  0.00     0.064 A 
ATOM     92  C   UNL A   1      45.822  33.509  29.010  1.00  0.00     0.173 A 
ATOM     93  C   UNL A   1      46.037  32.673  31.254  1.00  0.00     0.173 A 
ATOM     94  F   UNL A   1      45.525  33.336  27.713  1.00  0.00    -0.203 F 
ATOM     95  C   UNL A   1      46.290  34.751  29.433  1.00  0.00     0.198 A 
ATOM     96  C   UNL A   1      46.475  33.924  31.678  1.00  0.00     0.198 A 
ATOM     97  F   UNL A   1      45.932  31.687  32.158  1.00  0.00    -0.203 F 
ATOM     98  F   UNL A   1      46.446  35.743  28.544  1.00  0.00    -0.200 F 
ATOM     99  C   UNL A   1      46.608  34.960  30.766  1.00  0.00     0.200 A 
ATOM    100  F   UNL A   1      46.767  34.127  32.970  1.00  0.00    -0.200 F 
ATOM    101  F   UNL A   1      47.049  36.158  31.171  1.00  0.00    -0.200 F 
ENDBRANCH  68  91
ENDBRANCH  42  43
ENDBRANCH  34  37
ENDBRANCH  32  33
ENDBRANCH  31  32
ENDBRANCH   1  31
TORSDOF 15
ENDMDL
