MODEL 1
REMARK VINA RESULT:     -15.6      0.000      0.000
REMARK SMILES C[C@]12C(=O)N(c3ccc(C(=O)NCCCNC(=O)c4ccc(-c5c6nc(c(-c7c(F)c(F)c(F)c(F)c7F)c7ccc([nH]7)c(-c7c(F)c(F)c(F)c(F)c7F)c7nc(c(-c8c(F)c(F)c(F)c(F)c8F)c8ccc5[nH]8)C=C7)C=C6)cc4)cc3)C(=O)[C@H]1[C@H]1c3ccccc3[C@@H]2c2ccccc21
REMARK SMILES IDX 14 1 13 2 12 3 10 4 11 5 9 7 6 8 7 9 83 10 8 11 82 12 5 13
REMARK SMILES IDX 1 14 2 15 3 16 86 17 94 18 4 19 84 20 87 21 93 22 95 23
REMARK SMILES IDX 85 24 88 25 100 26 92 27 96 28 89 29 99 30 91 31 97 32 90 33
REMARK SMILES IDX 98 34 15 35 16 36 17 37 18 39 19 40 20 41 81 42 21 43 80 44
REMARK SMILES IDX 22 45 23 46 24 47 74 48 25 49 79 50 73 51 75 52 26 53 78 54
REMARK SMILES IDX 72 55 71 56 27 58 59 59 39 60 58 61 40 62 43 63 57 64 76 65
REMARK SMILES IDX 41 66 42 67 56 69 77 70 44 71 28 72 29 73 37 74 30 75 31 76
REMARK SMILES IDX 35 77 38 78 32 79 33 80 36 81 34 82 60 83 61 84 69 85 62 86
REMARK SMILES IDX 63 87 67 88 70 89 64 90 65 91 68 92 66 93 45 94 46 95 54 96
REMARK SMILES IDX 47 97 48 98 52 99 55 100 49 101 50 102 53 103 51 104
REMARK H PARENT 12 6 16 38 75 57 43 68
REMARK Flexibility Score: inf
ROOT
ATOM      1  C   UNL A   1      31.202  32.092  26.921  1.00  0.00     0.042 C 
ENDROOT
BRANCH   1   2
ATOM      2  C   UNL A   1      31.227  31.290  25.627  1.00  0.00     0.118 C 
BRANCH   2   3
ATOM      3  N   UNL A   1      30.021  31.473  24.836  1.00  0.00    -0.352 N 
ATOM      4  C   UNL A   1      29.511  30.801  23.757  1.00  0.00     0.251 C 
ATOM      5  O   UNL A   1      28.557  31.303  23.164  1.00  0.00    -0.269 OA
ATOM      6  H   UNL A   1      29.461  32.225  25.135  1.00  0.00     0.163 HD
BRANCH   4   7
ATOM      7  C   UNL A   1      30.057  29.508  23.274  1.00  0.00     0.039 A 
ATOM      8  C   UNL A   1      31.104  26.930  22.651  1.00  0.00     0.052 A 
ATOM      9  C   UNL A   1      29.813  27.091  23.183  1.00  0.00     0.027 A 
ATOM     10  C   UNL A   1      31.837  28.100  22.405  1.00  0.00     0.027 A 
ATOM     11  C   UNL A   1      29.296  28.358  23.489  1.00  0.00     0.016 A 
ATOM     12  C   UNL A   1      31.341  29.362  22.757  1.00  0.00     0.016 A 
BRANCH   8  13
ATOM     13  N   UNL A   1      31.732  25.648  22.585  1.00  0.00    -0.250 N 
ATOM     14  C   UNL A   1      31.952  22.142  22.988  1.00  0.00     0.024 C 
ATOM     15  C   UNL A   1      32.228  23.558  23.510  1.00  0.00     0.071 C 
ATOM     16  C   UNL A   1      31.141  24.485  23.026  1.00  0.00     0.241 C 
ATOM     17  C   UNL A   1      33.528  24.149  22.896  1.00  0.00     0.107 C 
ATOM     18  C   UNL A   1      32.292  23.653  25.078  1.00  0.00     0.066 C 
ATOM     19  O   UNL A   1      29.960  24.190  23.075  1.00  0.00    -0.273 OA
ATOM     20  C   UNL A   1      33.050  25.423  22.234  1.00  0.00     0.238 C 
ATOM     21  C   UNL A   1      34.567  24.471  24.021  1.00  0.00     0.063 C 
ATOM     22  C   UNL A   1      32.669  25.094  25.466  1.00  0.00    -0.036 A 
ATOM     23  C   UNL A   1      33.485  22.788  25.472  1.00  0.00    -0.036 A 
ATOM     24  O   UNL A   1      33.785  26.099  21.522  1.00  0.00    -0.274 OA
ATOM     25  C   UNL A   1      33.909  25.522  24.918  1.00  0.00    -0.036 A 
ATOM     26  C   UNL A   1      34.707  23.208  24.877  1.00  0.00    -0.036 A 
ATOM     27  C   UNL A   1      31.896  25.974  26.209  1.00  0.00     0.005 A 
ATOM     28  C   UNL A   1      33.437  21.699  26.329  1.00  0.00     0.005 A 
ATOM     29  C   UNL A   1      34.380  26.812  25.124  1.00  0.00     0.004 A 
ATOM     30  C   UNL A   1      35.883  22.529  25.153  1.00  0.00     0.004 A 
ATOM     31  C   UNL A   1      32.365  27.278  26.404  1.00  0.00     0.000 A 
ATOM     32  C   UNL A   1      34.623  21.019  26.598  1.00  0.00     0.000 A 
ATOM     33  C   UNL A   1      33.597  27.691  25.872  1.00  0.00     0.000 A 
ATOM     34  C   UNL A   1      35.833  21.429  26.016  1.00  0.00     0.000 A 
ENDBRANCH   8  13
ENDBRANCH   4   7
ENDBRANCH   2   3
ENDBRANCH   1   2
BRANCH   1  35
ATOM     35  C   UNL A   1      32.525  32.783  27.226  1.00  0.00     0.118 C 
BRANCH  35  36
ATOM     36  N   UNL A   1      32.356  34.178  27.620  1.00  0.00    -0.352 N 
ATOM     37  C   UNL A   1      32.977  34.942  28.579  1.00  0.00     0.251 C 
ATOM     38  H   UNL A   1      31.670  34.662  27.103  1.00  0.00     0.163 HD
ATOM     39  O   UNL A   1      32.504  36.036  28.875  1.00  0.00    -0.269 OA
BRANCH  37  40
ATOM     40  C   UNL A   1      34.185  34.457  29.284  1.00  0.00     0.039 A 
ATOM     41  C   UNL A   1      35.458  34.653  28.757  1.00  0.00     0.014 A 
ATOM     42  C   UNL A   1      34.044  33.823  30.525  1.00  0.00     0.014 A 
ATOM     43  C   UNL A   1      36.557  34.041  29.350  1.00  0.00     0.010 A 
ATOM     44  C   UNL A   1      35.167  33.303  31.180  1.00  0.00     0.010 A 
ATOM     45  C   UNL A   1      36.426  33.353  30.565  1.00  0.00    -0.014 A 
BRANCH  45  46
ATOM     46  C   UNL A   1      37.619  32.683  31.150  1.00  0.00     0.031 A 
ATOM     47  C   UNL A   1      38.076  33.009  32.547  1.00  0.00     0.074 A 
ATOM     48  C   UNL A   1      38.240  31.710  30.452  1.00  0.00     0.049 A 
ATOM     49  N   UNL A   1      39.053  32.480  33.241  1.00  0.00    -0.248 NA
ATOM     50  C   UNL A   1      37.344  34.067  33.261  1.00  0.00     0.031 C 
ATOM     51  C   UNL A   1      37.886  31.295  29.094  1.00  0.00     0.029 A 
ATOM     52  N   UNL A   1      39.263  30.866  30.801  1.00  0.00    -0.354 N 
ATOM     53  C   UNL A   1      39.065  33.153  34.456  1.00  0.00     0.074 A 
ATOM     54  C   UNL A   1      38.019  34.149  34.399  1.00  0.00     0.031 C 
ATOM     55  C   UNL A   1      38.625  30.229  28.754  1.00  0.00     0.029 A 
ATOM     56  C   UNL A   1      39.547  29.924  29.842  1.00  0.00     0.049 A 
ATOM     57  H   UNL A   1      39.746  30.928  31.657  1.00  0.00     0.167 HD
ATOM     58  C   UNL A   1      39.863  32.944  35.531  1.00  0.00     0.037 A 
ATOM     59  C   UNL A   1      40.453  28.927  29.837  1.00  0.00     0.037 A 
ATOM     60  C   UNL A   1      40.880  31.927  35.604  1.00  0.00     0.049 A 
ATOM     61  C   UNL A   1      41.348  28.740  31.028  1.00  0.00     0.074 A 
ATOM     62  C   UNL A   1      41.720  31.624  36.661  1.00  0.00     0.029 A 
ATOM     63  N   UNL A   1      41.188  31.044  34.581  1.00  0.00    -0.354 N 
ATOM     64  N   UNL A   1      41.348  29.385  32.168  1.00  0.00    -0.248 NA
ATOM     65  C   UNL A   1      42.381  27.699  30.924  1.00  0.00     0.031 C 
ATOM     66  C   UNL A   1      42.563  30.581  36.264  1.00  0.00     0.029 A 
ATOM     67  C   UNL A   1      42.221  30.208  34.975  1.00  0.00     0.049 A 
ATOM     68  H   UNL A   1      40.740  31.014  33.705  1.00  0.00     0.167 HD
ATOM     69  C   UNL A   1      42.376  28.831  32.918  1.00  0.00     0.074 A 
ATOM     70  C   UNL A   1      42.961  27.778  32.114  1.00  0.00     0.031 C 
ATOM     71  C   UNL A   1      42.799  29.172  34.159  1.00  0.00     0.037 A 
BRANCH  58  72
ATOM     72  C   UNL A   1      39.676  33.834  36.725  1.00  0.00     0.064 A 
ATOM     73  C   UNL A   1      40.262  35.106  36.791  1.00  0.00     0.173 A 
ATOM     74  C   UNL A   1      38.849  33.434  37.785  1.00  0.00     0.173 A 
ATOM     75  F   UNL A   1      41.070  35.529  35.808  1.00  0.00    -0.203 F 
ATOM     76  C   UNL A   1      40.040  35.939  37.884  1.00  0.00     0.198 A 
ATOM     77  C   UNL A   1      38.610  34.279  38.865  1.00  0.00     0.198 A 
ATOM     78  F   UNL A   1      38.259  32.228  37.767  1.00  0.00    -0.203 F 
ATOM     79  F   UNL A   1      40.636  37.138  37.942  1.00  0.00    -0.200 F 
ATOM     80  C   UNL A   1      39.208  35.530  38.915  1.00  0.00     0.200 A 
ATOM     81  F   UNL A   1      37.796  33.887  39.855  1.00  0.00    -0.200 F 
ATOM     82  F   UNL A   1      38.985  36.339  39.960  1.00  0.00    -0.200 F 
ENDBRANCH  58  72
BRANCH  59  83
ATOM     83  C   UNL A   1      40.543  28.028  28.658  1.00  0.00     0.064 A 
ATOM     84  C   UNL A   1      39.835  26.819  28.620  1.00  0.00     0.173 A 
ATOM     85  C   UNL A   1      41.306  28.375  27.533  1.00  0.00     0.173 A 
ATOM     86  F   UNL A   1      39.109  26.434  29.681  1.00  0.00    -0.203 F 
ATOM     87  C   UNL A   1      39.886  25.992  27.500  1.00  0.00     0.198 A 
ATOM     88  C   UNL A   1      41.334  27.561  26.404  1.00  0.00     0.198 A 
ATOM     89  F   UNL A   1      42.000  29.522  27.521  1.00  0.00    -0.203 F 
ATOM     90  F   UNL A   1      39.218  24.830  27.497  1.00  0.00    -0.200 F 
ATOM     91  C   UNL A   1      40.626  26.368  26.389  1.00  0.00     0.200 A 
ATOM     92  F   UNL A   1      42.038  27.935  25.327  1.00  0.00    -0.200 F 
ATOM     93  F   UNL A   1      40.660  25.580  25.306  1.00  0.00    -0.200 F 
ENDBRANCH  59  83
BRANCH  71  94
ATOM     94  C   UNL A   1      43.957  28.408  34.726  1.00  0.00     0.064 A 
ATOM     95  C   UNL A   1      45.270  28.880  34.596  1.00  0.00     0.173 A 
ATOM     96  C   UNL A   1      43.745  27.237  35.467  1.00  0.00     0.173 A 
ATOM     97  F   UNL A   1      45.522  29.989  33.885  1.00  0.00    -0.203 F 
ATOM     98  C   UNL A   1      46.334  28.199  35.180  1.00  0.00     0.198 A 
ATOM     99  C   UNL A   1      44.809  26.571  36.069  1.00  0.00     0.198 A 
ATOM    100  F   UNL A   1      42.506  26.750  35.625  1.00  0.00    -0.203 F 
ATOM    101  F   UNL A   1      47.587  28.651  35.021  1.00  0.00    -0.200 F 
ATOM    102  C   UNL A   1      46.102  27.051  35.924  1.00  0.00     0.200 A 
ATOM    103  F   UNL A   1      44.583  25.468  36.798  1.00  0.00    -0.200 F 
ATOM    104  F   UNL A   1      47.127  26.405  36.498  1.00  0.00    -0.200 F 
ENDBRANCH  71  94
ENDBRANCH  45  46
ENDBRANCH  37  40
ENDBRANCH  35  36
ENDBRANCH   1  35
TORSDOF 11
ENDMDL
MODEL 2
REMARK VINA RESULT:     -15.6      4.951     10.391
REMARK SMILES C[C@]12C(=O)N(c3ccc(C(=O)NCCCNC(=O)c4ccc(-c5c6nc(c(-c7c(F)c(F)c(F)c(F)c7F)c7ccc([nH]7)c(-c7c(F)c(F)c(F)c(F)c7F)c7nc(c(-c8c(F)c(F)c(F)c(F)c8F)c8ccc5[nH]8)C=C7)C=C6)cc4)cc3)C(=O)[C@H]1[C@H]1c3ccccc3[C@@H]2c2ccccc21
REMARK SMILES IDX 14 1 13 2 12 3 10 4 11 5 9 7 6 8 7 9 83 10 8 11 82 12 5 13
REMARK SMILES IDX 1 14 2 15 3 16 86 17 94 18 4 19 84 20 87 21 93 22 95 23
REMARK SMILES IDX 85 24 88 25 100 26 92 27 96 28 89 29 99 30 91 31 97 32 90 33
REMARK SMILES IDX 98 34 15 35 16 36 17 37 18 39 19 40 20 41 81 42 21 43 80 44
REMARK SMILES IDX 22 45 23 46 24 47 74 48 25 49 79 50 73 51 75 52 26 53 78 54
REMARK SMILES IDX 72 55 71 56 27 58 59 59 39 60 58 61 40 62 43 63 57 64 76 65
REMARK SMILES IDX 41 66 42 67 56 69 77 70 44 71 28 72 29 73 37 74 30 75 31 76
REMARK SMILES IDX 35 77 38 78 32 79 33 80 36 81 34 82 60 83 61 84 69 85 62 86
REMARK SMILES IDX 63 87 67 88 70 89 64 90 65 91 68 92 66 93 45 94 46 95 54 96
REMARK SMILES IDX 47 97 48 98 52 99 55 100 49 101 50 102 53 103 51 104
REMARK H PARENT 12 6 16 38 75 57 43 68
REMARK Flexibility Score: inf
ROOT
ATOM      1  C   UNL A   1      37.619  19.767  25.140  1.00  0.00     0.042 C 
ENDROOT
BRANCH   1   2
ATOM      2  C   UNL A   1      36.579  20.846  24.878  1.00  0.00     0.118 C 
BRANCH   2   3
ATOM      3  N   UNL A   1      37.051  21.862  23.951  1.00  0.00    -0.352 N 
ATOM      4  C   UNL A   1      36.466  22.988  23.435  1.00  0.00     0.251 C 
ATOM      5  O   UNL A   1      37.040  23.562  22.509  1.00  0.00    -0.269 OA
ATOM      6  H   UNL A   1      37.970  21.711  23.632  1.00  0.00     0.163 HD
BRANCH   4   7
ATOM      7  C   UNL A   1      35.183  23.538  23.937  1.00  0.00     0.039 A 
ATOM      8  C   UNL A   1      32.685  24.734  24.616  1.00  0.00     0.052 A 
ATOM      9  C   UNL A   1      32.784  23.761  23.606  1.00  0.00     0.027 A 
ATOM     10  C   UNL A   1      33.866  25.060  25.299  1.00  0.00     0.027 A 
ATOM     11  C   UNL A   1      34.012  23.171  23.272  1.00  0.00     0.016 A 
ATOM     12  C   UNL A   1      35.100  24.508  24.931  1.00  0.00     0.016 A 
BRANCH   8  13
ATOM     13  N   UNL A   1      31.505  25.523  24.781  1.00  0.00    -0.250 N 
ATOM     14  C   UNL A   1      28.246  26.651  23.998  1.00  0.00     0.024 C 
ATOM     15  C   UNL A   1      29.768  26.823  23.906  1.00  0.00     0.071 C 
ATOM     16  C   UNL A   1      30.422  25.463  23.932  1.00  0.00     0.241 C 
ATOM     17  C   UNL A   1      30.338  27.539  25.163  1.00  0.00     0.107 C 
ATOM     18  C   UNL A   1      30.243  27.571  22.608  1.00  0.00     0.066 C 
ATOM     19  O   UNL A   1      30.014  24.528  23.265  1.00  0.00    -0.273 OA
ATOM     20  C   UNL A   1      31.353  26.550  25.694  1.00  0.00     0.238 C 
ATOM     21  C   UNL A   1      31.037  28.879  24.757  1.00  0.00     0.063 C 
ATOM     22  C   UNL A   1      31.768  27.763  22.685  1.00  0.00    -0.036 A 
ATOM     23  C   UNL A   1      29.639  28.967  22.721  1.00  0.00    -0.036 A 
ATOM     24  O   UNL A   1      31.918  26.716  26.769  1.00  0.00    -0.274 OA
ATOM     25  C   UNL A   1      32.191  28.493  23.829  1.00  0.00    -0.036 A 
ATOM     26  C   UNL A   1      30.041  29.662  23.896  1.00  0.00    -0.036 A 
ATOM     27  C   UNL A   1      32.707  27.244  21.805  1.00  0.00     0.005 A 
ATOM     28  C   UNL A   1      28.790  29.550  21.793  1.00  0.00     0.005 A 
ATOM     29  C   UNL A   1      33.538  28.715  24.084  1.00  0.00     0.004 A 
ATOM     30  C   UNL A   1      29.586  30.949  24.130  1.00  0.00     0.004 A 
ATOM     31  C   UNL A   1      34.064  27.458  22.071  1.00  0.00     0.000 A 
ATOM     32  C   UNL A   1      28.333  30.844  22.039  1.00  0.00     0.000 A 
ATOM     33  C   UNL A   1      34.475  28.191  23.195  1.00  0.00     0.000 A 
ATOM     34  C   UNL A   1      28.727  31.536  23.195  1.00  0.00     0.000 A 
ENDBRANCH   8  13
ENDBRANCH   4   7
ENDBRANCH   2   3
ENDBRANCH   1   2
BRANCH   1  35
ATOM     35  C   UNL A   1      38.888  20.300  25.794  1.00  0.00     0.118 C 
BRANCH  35  36
ATOM     36  N   UNL A   1      39.953  19.305  25.854  1.00  0.00    -0.352 N 
ATOM     37  C   UNL A   1      41.308  19.423  26.058  1.00  0.00     0.251 C 
ATOM     38  H   UNL A   1      39.646  18.378  25.724  1.00  0.00     0.163 HD
ATOM     39  O   UNL A   1      42.034  18.457  25.841  1.00  0.00    -0.269 OA
BRANCH  37  40
ATOM     40  C   UNL A   1      41.909  20.701  26.501  1.00  0.00     0.039 A 
ATOM     41  C   UNL A   1      42.129  20.967  27.850  1.00  0.00     0.014 A 
ATOM     42  C   UNL A   1      42.302  21.642  25.541  1.00  0.00     0.014 A 
ATOM     43  C   UNL A   1      42.534  22.236  28.249  1.00  0.00     0.010 A 
ATOM     44  C   UNL A   1      42.816  22.881  25.940  1.00  0.00     0.010 A 
ATOM     45  C   UNL A   1      42.878  23.212  27.301  1.00  0.00    -0.014 A 
BRANCH  45  46
ATOM     46  C   UNL A   1      43.274  24.568  27.769  1.00  0.00     0.031 A 
ATOM     47  C   UNL A   1      44.718  24.993  27.756  1.00  0.00     0.074 A 
ATOM     48  C   UNL A   1      42.318  25.452  28.121  1.00  0.00     0.049 A 
ATOM     49  N   UNL A   1      45.239  26.154  28.067  1.00  0.00    -0.248 NA
ATOM     50  C   UNL A   1      45.709  23.988  27.343  1.00  0.00     0.031 C 
ATOM     51  C   UNL A   1      40.884  25.164  28.166  1.00  0.00     0.029 A 
ATOM     52  N   UNL A   1      42.401  26.777  28.464  1.00  0.00    -0.354 N 
ATOM     53  C   UNL A   1      46.612  26.011  27.907  1.00  0.00     0.074 A 
ATOM     54  C   UNL A   1      46.850  24.644  27.502  1.00  0.00     0.031 C 
ATOM     55  C   UNL A   1      40.217  26.294  28.439  1.00  0.00     0.029 A 
ATOM     56  C   UNL A   1      41.177  27.372  28.653  1.00  0.00     0.049 A 
ATOM     57  H   UNL A   1      43.255  27.256  28.564  1.00  0.00     0.167 HD
ATOM     58  C   UNL A   1      47.584  26.941  28.066  1.00  0.00     0.037 A 
ATOM     59  C   UNL A   1      40.861  28.642  28.967  1.00  0.00     0.037 A 
ATOM     60  C   UNL A   1      47.346  28.312  28.432  1.00  0.00     0.049 A 
ATOM     61  C   UNL A   1      41.960  29.645  29.170  1.00  0.00     0.074 A 
ATOM     62  C   UNL A   1      48.265  29.334  28.591  1.00  0.00     0.029 A 
ATOM     63  N   UNL A   1      46.096  28.855  28.690  1.00  0.00    -0.354 N 
ATOM     64  N   UNL A   1      43.252  29.493  29.017  1.00  0.00    -0.248 NA
ATOM     65  C   UNL A   1      41.559  30.990  29.606  1.00  0.00     0.031 C 
ATOM     66  C   UNL A   1      47.577  30.486  28.982  1.00  0.00     0.029 A 
ATOM     67  C   UNL A   1      46.224  30.193  29.028  1.00  0.00     0.049 A 
ATOM     68  H   UNL A   1      45.245  28.363  28.641  1.00  0.00     0.167 HD
ATOM     69  C   UNL A   1      43.819  30.718  29.337  1.00  0.00     0.074 A 
ATOM     70  C   UNL A   1      42.728  31.612  29.667  1.00  0.00     0.031 C 
ATOM     71  C   UNL A   1      45.129  31.066  29.363  1.00  0.00     0.037 A 
BRANCH  58  72
ATOM     72  C   UNL A   1      49.005  26.512  27.844  1.00  0.00     0.064 A 
ATOM     73  C   UNL A   1      49.552  26.421  26.556  1.00  0.00     0.173 A 
ATOM     74  C   UNL A   1      49.845  26.250  28.936  1.00  0.00     0.173 A 
ATOM     75  F   UNL A   1      48.785  26.650  25.480  1.00  0.00    -0.203 F 
ATOM     76  C   UNL A   1      50.885  26.067  26.369  1.00  0.00     0.198 A 
ATOM     77  C   UNL A   1      51.185  25.920  28.747  1.00  0.00     0.198 A 
ATOM     78  F   UNL A   1      49.372  26.330  30.190  1.00  0.00    -0.203 F 
ATOM     79  F   UNL A   1      51.379  25.955  25.128  1.00  0.00    -0.200 F 
ATOM     80  C   UNL A   1      51.702  25.826  27.463  1.00  0.00     0.200 A 
ATOM     81  F   UNL A   1      51.976  25.699  29.805  1.00  0.00    -0.200 F 
ATOM     82  F   UNL A   1      52.989  25.499  27.281  1.00  0.00    -0.200 F 
ENDBRANCH  58  72
BRANCH  59  83
ATOM     83  C   UNL A   1      39.433  29.030  29.099  1.00  0.00     0.064 A 
ATOM     84  C   UNL A   1      38.686  29.415  27.977  1.00  0.00     0.173 A 
ATOM     85  C   UNL A   1      38.777  28.986  30.338  1.00  0.00     0.173 A 
ATOM     86  F   UNL A   1      39.276  29.492  26.774  1.00  0.00    -0.203 F 
ATOM     87  C   UNL A   1      37.336  29.740  28.090  1.00  0.00     0.198 A 
ATOM     88  C   UNL A   1      37.421  29.286  30.445  1.00  0.00     0.198 A 
ATOM     89  F   UNL A   1      39.448  28.623  31.440  1.00  0.00    -0.203 F 
ATOM     90  F   UNL A   1      36.650  30.127  27.006  1.00  0.00    -0.200 F 
ATOM     91  C   UNL A   1      36.702  29.666  29.321  1.00  0.00     0.200 A 
ATOM     92  F   UNL A   1      36.810  29.197  31.633  1.00  0.00    -0.200 F 
ATOM     93  F   UNL A   1      35.400  29.962  29.426  1.00  0.00    -0.200 F 
ENDBRANCH  59  83
BRANCH  71  94
ATOM     94  C   UNL A   1      45.461  32.470  29.767  1.00  0.00     0.064 A 
ATOM     95  C   UNL A   1      45.760  32.789  31.099  1.00  0.00     0.173 A 
ATOM     96  C   UNL A   1      45.553  33.488  28.807  1.00  0.00     0.173 A 
ATOM     97  F   UNL A   1      45.673  31.851  32.054  1.00  0.00    -0.203 F 
ATOM     98  C   UNL A   1      46.130  34.082  31.457  1.00  0.00     0.198 A 
ATOM     99  C   UNL A   1      45.945  34.775  29.165  1.00  0.00     0.198 A 
ATOM    100  F   UNL A   1      45.282  33.229  27.519  1.00  0.00    -0.203 F 
ATOM    101  F   UNL A   1      46.385  34.374  32.741  1.00  0.00    -0.200 F 
ATOM    102  C   UNL A   1      46.232  35.071  30.489  1.00  0.00     0.200 A 
ATOM    103  F   UNL A   1      46.055  35.726  28.228  1.00  0.00    -0.200 F 
ATOM    104  F   UNL A   1      46.603  36.312  30.834  1.00  0.00    -0.200 F 
ENDBRANCH  71  94
ENDBRANCH  45  46
ENDBRANCH  37  40
ENDBRANCH  35  36
ENDBRANCH   1  35
TORSDOF 11
ENDMDL
MODEL 3
REMARK VINA RESULT:     -15.5      0.292      6.896
REMARK SMILES C[C@]12C(=O)N(c3ccc(C(=O)NCCCNC(=O)c4ccc(-c5c6nc(c(-c7c(F)c(F)c(F)c(F)c7F)c7ccc([nH]7)c(-c7c(F)c(F)c(F)c(F)c7F)c7nc(c(-c8c(F)c(F)c(F)c(F)c8F)c8ccc5[nH]8)C=C7)C=C6)cc4)cc3)C(=O)[C@H]1[C@H]1c3ccccc3[C@@H]2c2ccccc21
REMARK SMILES IDX 14 1 13 2 12 3 10 4 11 5 9 7 6 8 7 9 83 10 8 11 82 12 5 13
REMARK SMILES IDX 1 14 2 15 3 16 86 17 94 18 4 19 84 20 87 21 93 22 95 23
REMARK SMILES IDX 85 24 88 25 100 26 92 27 96 28 89 29 99 30 91 31 97 32 90 33
REMARK SMILES IDX 98 34 15 35 16 36 17 37 18 39 19 40 20 41 81 42 21 43 80 44
REMARK SMILES IDX 22 45 23 46 24 47 74 48 25 49 79 50 73 51 75 52 26 53 78 54
REMARK SMILES IDX 72 55 71 56 27 58 59 59 39 60 58 61 40 62 43 63 57 64 76 65
REMARK SMILES IDX 41 66 42 67 56 69 77 70 44 71 28 72 29 73 37 74 30 75 31 76
REMARK SMILES IDX 35 77 38 78 32 79 33 80 36 81 34 82 60 83 61 84 69 85 62 86
REMARK SMILES IDX 63 87 67 88 70 89 64 90 65 91 68 92 66 93 45 94 46 95 54 96
REMARK SMILES IDX 47 97 48 98 52 99 55 100 49 101 50 102 53 103 51 104
REMARK H PARENT 12 6 16 38 75 57 43 68
REMARK Flexibility Score: inf
ROOT
ATOM      1  C   UNL A   1      31.050  32.193  26.799  1.00  0.00     0.042 C 
ENDROOT
BRANCH   1   2
ATOM      2  C   UNL A   1      31.082  31.360  25.526  1.00  0.00     0.118 C 
BRANCH   2   3
ATOM      3  N   UNL A   1      29.892  31.544  24.710  1.00  0.00    -0.352 N 
ATOM      4  C   UNL A   1      29.390  30.856  23.638  1.00  0.00     0.251 C 
ATOM      5  O   UNL A   1      28.454  31.360  23.017  1.00  0.00    -0.269 OA
ATOM      6  H   UNL A   1      29.340  32.312  24.982  1.00  0.00     0.163 HD
BRANCH   4   7
ATOM      7  C   UNL A   1      29.922  29.543  23.194  1.00  0.00     0.039 A 
ATOM      8  C   UNL A   1      31.005  26.963  22.648  1.00  0.00     0.052 A 
ATOM      9  C   UNL A   1      29.826  27.123  23.397  1.00  0.00     0.027 A 
ATOM     10  C   UNL A   1      31.601  28.131  22.150  1.00  0.00     0.027 A 
ATOM     11  C   UNL A   1      29.292  28.391  23.665  1.00  0.00     0.016 A 
ATOM     12  C   UNL A   1      31.096  29.400  22.460  1.00  0.00     0.016 A 
BRANCH   8  13
ATOM     13  N   UNL A   1      31.695  25.712  22.594  1.00  0.00    -0.250 N 
ATOM     14  C   UNL A   1      32.080  22.224  23.027  1.00  0.00     0.024 C 
ATOM     15  C   UNL A   1      32.287  23.656  23.538  1.00  0.00     0.071 C 
ATOM     16  C   UNL A   1      31.158  24.526  23.043  1.00  0.00     0.241 C 
ATOM     17  C   UNL A   1      33.559  24.303  22.923  1.00  0.00     0.107 C 
ATOM     18  C   UNL A   1      32.341  23.766  25.105  1.00  0.00     0.066 C 
ATOM     19  O   UNL A   1      29.992  24.175  23.091  1.00  0.00    -0.273 OA
ATOM     20  C   UNL A   1      33.023  25.548  22.249  1.00  0.00     0.238 C 
ATOM     21  C   UNL A   1      34.577  24.683  24.048  1.00  0.00     0.063 C 
ATOM     22  C   UNL A   1      32.648  25.227  25.482  1.00  0.00    -0.036 A 
ATOM     23  C   UNL A   1      33.572  22.963  25.509  1.00  0.00    -0.036 A 
ATOM     24  O   UNL A   1      33.727  26.252  21.534  1.00  0.00    -0.274 OA
ATOM     25  C   UNL A   1      33.868  25.710  24.935  1.00  0.00    -0.036 A 
ATOM     26  C   UNL A   1      34.775  23.436  24.915  1.00  0.00    -0.036 A 
ATOM     27  C   UNL A   1      31.830  26.075  26.216  1.00  0.00     0.005 A 
ATOM     28  C   UNL A   1      33.574  21.880  26.376  1.00  0.00     0.005 A 
ATOM     29  C   UNL A   1      34.275  27.022  25.131  1.00  0.00     0.004 A 
ATOM     30  C   UNL A   1      35.981  22.816  25.200  1.00  0.00     0.004 A 
ATOM     31  C   UNL A   1      32.236  27.401  26.402  1.00  0.00     0.000 A 
ATOM     32  C   UNL A   1      34.790  21.259  26.653  1.00  0.00     0.000 A 
ATOM     33  C   UNL A   1      33.449  27.868  25.870  1.00  0.00     0.000 A 
ATOM     34  C   UNL A   1      35.981  21.722  26.071  1.00  0.00     0.000 A 
ENDBRANCH   8  13
ENDBRANCH   4   7
ENDBRANCH   2   3
ENDBRANCH   1   2
BRANCH   1  35
ATOM     35  C   UNL A   1      32.407  32.780  27.168  1.00  0.00     0.118 C 
BRANCH  35  36
ATOM     36  N   UNL A   1      32.335  34.198  27.507  1.00  0.00    -0.352 N 
ATOM     37  C   UNL A   1      32.959  34.940  28.481  1.00  0.00     0.251 C 
ATOM     38  H   UNL A   1      31.727  34.719  26.933  1.00  0.00     0.163 HD
ATOM     39  O   UNL A   1      32.566  36.081  28.713  1.00  0.00    -0.269 OA
BRANCH  37  40
ATOM     40  C   UNL A   1      34.074  34.380  29.278  1.00  0.00     0.039 A 
ATOM     41  C   UNL A   1      35.397  34.513  28.864  1.00  0.00     0.014 A 
ATOM     42  C   UNL A   1      33.794  33.740  30.492  1.00  0.00     0.014 A 
ATOM     43  C   UNL A   1      36.406  33.833  29.538  1.00  0.00     0.010 A 
ATOM     44  C   UNL A   1      34.826  33.151  31.230  1.00  0.00     0.010 A 
ATOM     45  C   UNL A   1      36.135  33.138  30.726  1.00  0.00    -0.014 A 
BRANCH  45  46
ATOM     46  C   UNL A   1      37.235  32.395  31.398  1.00  0.00     0.031 A 
ATOM     47  C   UNL A   1      37.995  31.321  30.666  1.00  0.00     0.074 A 
ATOM     48  C   UNL A   1      37.610  32.752  32.643  1.00  0.00     0.049 A 
ATOM     49  N   UNL A   1      39.021  30.615  31.071  1.00  0.00    -0.248 NA
ATOM     50  C   UNL A   1      37.546  30.992  29.304  1.00  0.00     0.031 C 
ATOM     51  C   UNL A   1      36.960  33.783  33.453  1.00  0.00     0.029 A 
ATOM     52  N   UNL A   1      38.652  32.323  33.426  1.00  0.00    -0.354 N 
ATOM     53  C   UNL A   1      39.324  29.750  30.027  1.00  0.00     0.074 A 
ATOM     54  C   UNL A   1      38.357  29.995  28.980  1.00  0.00     0.031 C 
ATOM     55  C   UNL A   1      37.660  33.961  34.582  1.00  0.00     0.029 A 
ATOM     56  C   UNL A   1      38.770  33.015  34.607  1.00  0.00     0.049 A 
ATOM     57  H   UNL A   1      39.256  31.591  33.166  1.00  0.00     0.167 HD
ATOM     58  C   UNL A   1      40.331  28.847  29.940  1.00  0.00     0.037 A 
ATOM     59  C   UNL A   1      39.669  32.898  35.603  1.00  0.00     0.037 A 
ATOM     60  C   UNL A   1      41.317  28.629  30.965  1.00  0.00     0.049 A 
ATOM     61  C   UNL A   1      40.754  31.865  35.496  1.00  0.00     0.074 A 
ATOM     62  C   UNL A   1      42.389  27.754  30.956  1.00  0.00     0.029 A 
ATOM     63  N   UNL A   1      41.355  29.297  32.180  1.00  0.00    -0.354 N 
ATOM     64  N   UNL A   1      41.026  31.055  34.504  1.00  0.00    -0.248 NA
ATOM     65  C   UNL A   1      41.646  31.719  36.655  1.00  0.00     0.031 C 
ATOM     66  C   UNL A   1      43.055  27.865  32.181  1.00  0.00     0.029 A 
ATOM     67  C   UNL A   1      42.422  28.837  32.937  1.00  0.00     0.049 A 
ATOM     68  H   UNL A   1      40.720  29.993  32.463  1.00  0.00     0.167 HD
ATOM     69  C   UNL A   1      42.117  30.303  34.915  1.00  0.00     0.074 A 
ATOM     70  C   UNL A   1      42.476  30.773  36.238  1.00  0.00     0.031 C 
ATOM     71  C   UNL A   1      42.758  29.308  34.256  1.00  0.00     0.037 A 
BRANCH  58  72
ATOM     72  C   UNL A   1      40.423  28.020  28.692  1.00  0.00     0.064 A 
ATOM     73  C   UNL A   1      41.189  28.432  27.592  1.00  0.00     0.173 A 
ATOM     74  C   UNL A   1      39.787  26.771  28.620  1.00  0.00     0.173 A 
ATOM     75  F   UNL A   1      41.805  29.623  27.608  1.00  0.00    -0.203 F 
ATOM     76  C   UNL A   1      41.302  27.631  26.459  1.00  0.00     0.198 A 
ATOM     77  C   UNL A   1      39.923  25.962  27.495  1.00  0.00     0.198 A 
ATOM     78  F   UNL A   1      39.047  26.328  29.648  1.00  0.00    -0.203 F 
ATOM     79  F   UNL A   1      42.014  28.059  25.407  1.00  0.00    -0.200 F 
ATOM     80  C   UNL A   1      40.677  26.394  26.415  1.00  0.00     0.200 A 
ATOM     81  F   UNL A   1      39.329  24.762  27.458  1.00  0.00    -0.200 F 
ATOM     82  F   UNL A   1      40.800  25.619  25.328  1.00  0.00    -0.200 F 
ENDBRANCH  58  72
BRANCH  59  83
ATOM     83  C   UNL A   1      39.576  33.797  36.782  1.00  0.00     0.064 A 
ATOM     84  C   UNL A   1      40.193  35.055  36.777  1.00  0.00     0.173 A 
ATOM     85  C   UNL A   1      38.838  33.434  37.918  1.00  0.00     0.173 A 
ATOM     86  F   UNL A   1      40.927  35.437  35.721  1.00  0.00    -0.203 F 
ATOM     87  C   UNL A   1      40.074  35.917  37.865  1.00  0.00     0.198 A 
ATOM     88  C   UNL A   1      38.698  34.307  38.994  1.00  0.00     0.198 A 
ATOM     89  F   UNL A   1      38.228  32.241  37.970  1.00  0.00    -0.203 F 
ATOM     90  F   UNL A   1      40.693  37.106  37.845  1.00  0.00    -0.200 F 
ATOM     91  C   UNL A   1      39.318  35.548  38.968  1.00  0.00     0.200 A 
ATOM     92  F   UNL A   1      37.955  33.952  40.050  1.00  0.00    -0.200 F 
ATOM     93  F   UNL A   1      39.190  36.385  40.006  1.00  0.00    -0.200 F 
ENDBRANCH  59  83
BRANCH  71  94
ATOM     94  C   UNL A   1      43.909  28.649  34.954  1.00  0.00     0.064 A 
ATOM     95  C   UNL A   1      45.214  29.143  34.825  1.00  0.00     0.173 A 
ATOM     96  C   UNL A   1      43.695  27.562  35.814  1.00  0.00     0.173 A 
ATOM     97  F   UNL A   1      45.469  30.172  34.003  1.00  0.00    -0.203 F 
ATOM     98  C   UNL A   1      46.268  28.565  35.526  1.00  0.00     0.198 A 
ATOM     99  C   UNL A   1      44.748  27.002  36.531  1.00  0.00     0.198 A 
ATOM    100  F   UNL A   1      42.463  27.059  35.975  1.00  0.00    -0.203 F 
ATOM    101  F   UNL A   1      47.515  29.035  35.368  1.00  0.00    -0.200 F 
ATOM    102  C   UNL A   1      46.034  27.501  36.386  1.00  0.00     0.200 A 
ATOM    103  F   UNL A   1      44.518  25.982  37.371  1.00  0.00    -0.200 F 
ATOM    104  F   UNL A   1      47.048  26.956  37.071  1.00  0.00    -0.200 F 
ENDBRANCH  71  94
ENDBRANCH  45  46
ENDBRANCH  37  40
ENDBRANCH  35  36
ENDBRANCH   1  35
TORSDOF 11
ENDMDL
