MODEL 1
REMARK VINA RESULT:     -14.0      0.000      0.000
REMARK SMILES Cc1c(CC(=O)NCCCNC(=O)c2ccc(-c3c4nc(c(-c5c(F)c(F)c(F)c(F)c5F)c5ccc([nH]5)c(-c5c(F)c(F)c(F)c(F)c5F)c5nc(c(-c6c(F)c(F)c(F)c(F)c6F)c6ccc3[nH]6)C=C5)C=C4)cc2)cc(-c2ccccc2)cc1-c1ccccc1
REMARK SMILES IDX 9 1 8 2 7 3 5 4 6 5 4 7 3 8 1 9 2 10 86 11 77 12 85 13 78 14
REMARK SMILES IDX 87 15 88 16 92 17 89 18 91 19 90 20 79 21 80 22 84 23 81 24
REMARK SMILES IDX 83 25 82 26 10 27 11 28 12 29 13 31 14 32 15 33 76 34 16 35
REMARK SMILES IDX 75 36 17 37 18 38 19 39 69 40 20 41 74 42 68 43 70 44 21 45
REMARK SMILES IDX 73 46 67 47 66 48 22 50 54 51 34 52 53 53 35 54 38 55 52 56
REMARK SMILES IDX 71 57 36 58 37 59 51 61 72 62 39 63 23 64 24 65 32 66 25 67
REMARK SMILES IDX 26 68 30 69 33 70 27 71 28 72 31 73 29 74 55 75 56 76 64 77
REMARK SMILES IDX 57 78 58 79 62 80 65 81 59 82 60 83 63 84 61 85 40 86 41 87
REMARK SMILES IDX 49 88 42 89 43 90 47 91 50 92 44 93 45 94 48 95 46 96
REMARK H PARENT 7 6 11 30 70 49 38 60
REMARK Flexibility Score: inf
ROOT
ATOM      1  C   UNL A   1      34.426  32.657  29.427  1.00  0.00     0.042 C 
ENDROOT
BRANCH   1   2
ATOM      2  C   UNL A   1      34.221  32.135  28.007  1.00  0.00     0.117 C 
BRANCH   2   3
ATOM      3  N   UNL A   1      35.265  31.212  27.591  1.00  0.00    -0.356 N 
ATOM      4  C   UNL A   1      35.193  29.862  27.377  1.00  0.00     0.224 C 
ATOM      5  O   UNL A   1      36.221  29.278  27.025  1.00  0.00    -0.275 OA
ATOM      6  H   UNL A   1      36.151  31.615  27.443  1.00  0.00     0.163 HD
BRANCH   4   7
ATOM      7  C   UNL A   1      33.879  29.105  27.564  1.00  0.00     0.135 C 
BRANCH   7   8
ATOM      8  C   UNL A   1      33.373  28.448  26.291  1.00  0.00    -0.035 A 
ATOM      9  C   UNL A   1      31.743  30.344  25.776  1.00  0.00     0.045 C 
ATOM     10  C   UNL A   1      32.324  28.975  25.494  1.00  0.00    -0.040 A 
ATOM     11  C   UNL A   1      31.835  28.211  24.398  1.00  0.00    -0.015 A 
ATOM     12  C   UNL A   1      33.965  27.218  25.931  1.00  0.00     0.013 A 
ATOM     13  C   UNL A   1      32.444  26.974  24.098  1.00  0.00     0.017 A 
ATOM     14  C   UNL A   1      33.519  26.469  24.837  1.00  0.00    -0.017 A 
BRANCH  11  15
ATOM     15  C   UNL A   1      30.673  28.621  23.585  1.00  0.00    -0.018 A 
ATOM     16  C   UNL A   1      29.408  28.051  23.816  1.00  0.00     0.009 A 
ATOM     17  C   UNL A   1      30.790  29.582  22.570  1.00  0.00     0.009 A 
ATOM     18  C   UNL A   1      28.295  28.441  23.068  1.00  0.00     0.001 A 
ATOM     19  C   UNL A   1      29.674  29.984  21.830  1.00  0.00     0.001 A 
ATOM     20  C   UNL A   1      28.428  29.412  22.079  1.00  0.00     0.000 A 
ENDBRANCH  11  15
BRANCH  14  21
ATOM     21  C   UNL A   1      34.162  25.194  24.475  1.00  0.00    -0.018 A 
ATOM     22  C   UNL A   1      33.849  24.532  23.277  1.00  0.00     0.009 A 
ATOM     23  C   UNL A   1      35.099  24.597  25.334  1.00  0.00     0.009 A 
ATOM     24  C   UNL A   1      34.448  23.311  22.953  1.00  0.00     0.001 A 
ATOM     25  C   UNL A   1      35.695  23.376  25.013  1.00  0.00     0.001 A 
ATOM     26  C   UNL A   1      35.370  22.732  23.822  1.00  0.00     0.000 A 
ENDBRANCH  14  21
ENDBRANCH   7   8
ENDBRANCH   4   7
ENDBRANCH   2   3
ENDBRANCH   1   2
BRANCH   1  27
ATOM     27  C   UNL A   1      34.340  34.169  29.549  1.00  0.00     0.118 C 
BRANCH  27  28
ATOM     28  N   UNL A   1      33.419  34.637  30.578  1.00  0.00    -0.352 N 
ATOM     29  C   UNL A   1      33.561  34.596  31.956  1.00  0.00     0.251 C 
ATOM     30  H   UNL A   1      32.581  35.035  30.249  1.00  0.00     0.163 HD
ATOM     31  O   UNL A   1      32.672  34.998  32.686  1.00  0.00    -0.269 OA
BRANCH  29  32
ATOM     32  C   UNL A   1      34.864  34.177  32.526  1.00  0.00     0.039 A 
ATOM     33  C   UNL A   1      35.972  35.005  32.315  1.00  0.00     0.014 A 
ATOM     34  C   UNL A   1      35.029  32.901  33.056  1.00  0.00     0.014 A 
ATOM     35  C   UNL A   1      37.251  34.461  32.394  1.00  0.00     0.010 A 
ATOM     36  C   UNL A   1      36.284  32.330  33.024  1.00  0.00     0.010 A 
ATOM     37  C   UNL A   1      37.387  33.094  32.629  1.00  0.00    -0.014 A 
BRANCH  37  38
ATOM     38  C   UNL A   1      38.612  32.352  32.354  1.00  0.00     0.031 A 
ATOM     39  C   UNL A   1      38.585  31.121  31.538  1.00  0.00     0.074 A 
ATOM     40  C   UNL A   1      39.795  32.874  32.749  1.00  0.00     0.049 A 
ATOM     41  N   UNL A   1      39.501  30.212  31.567  1.00  0.00    -0.248 NA
ATOM     42  C   UNL A   1      37.488  30.799  30.633  1.00  0.00     0.031 C 
ATOM     43  C   UNL A   1      41.130  32.472  32.312  1.00  0.00     0.029 A 
ATOM     44  N   UNL A   1      40.031  33.784  33.795  1.00  0.00    -0.354 N 
ATOM     45  C   UNL A   1      39.271  29.346  30.522  1.00  0.00     0.074 A 
ATOM     46  C   UNL A   1      37.975  29.724  30.005  1.00  0.00     0.031 C 
ATOM     47  C   UNL A   1      42.024  32.868  33.230  1.00  0.00     0.029 A 
ATOM     48  C   UNL A   1      41.275  33.405  34.352  1.00  0.00     0.049 A 
ATOM     49  H   UNL A   1      39.453  34.529  34.079  1.00  0.00     0.167 HD
ATOM     50  C   UNL A   1      40.262  28.494  30.129  1.00  0.00     0.037 A 
ATOM     51  C   UNL A   1      41.378  32.964  35.639  1.00  0.00     0.037 A 
ATOM     52  C   UNL A   1      41.438  28.622  30.984  1.00  0.00     0.049 A 
ATOM     53  C   UNL A   1      41.951  31.573  35.770  1.00  0.00     0.074 A 
ATOM     54  C   UNL A   1      42.624  29.326  30.842  1.00  0.00     0.029 A 
ATOM     55  N   UNL A   1      41.369  28.230  32.316  1.00  0.00    -0.354 N 
ATOM     56  N   UNL A   1      41.982  30.709  34.796  1.00  0.00    -0.248 NA
ATOM     57  C   UNL A   1      42.499  31.035  37.011  1.00  0.00     0.031 C 
ATOM     58  C   UNL A   1      43.251  29.392  32.109  1.00  0.00     0.029 A 
ATOM     59  C   UNL A   1      42.456  28.713  33.017  1.00  0.00     0.049 A 
ATOM     60  H   UNL A   1      40.646  27.687  32.705  1.00  0.00     0.167 HD
ATOM     61  C   UNL A   1      42.510  29.528  35.247  1.00  0.00     0.074 A 
ATOM     62  C   UNL A   1      42.836  29.788  36.636  1.00  0.00     0.031 C 
ATOM     63  C   UNL A   1      42.619  28.436  34.434  1.00  0.00     0.037 A 
BRANCH  50  64
ATOM     64  C   UNL A   1      40.273  27.771  28.800  1.00  0.00     0.064 A 
ATOM     65  C   UNL A   1      39.691  26.491  28.661  1.00  0.00     0.173 A 
ATOM     66  C   UNL A   1      40.890  28.262  27.635  1.00  0.00     0.173 A 
ATOM     67  F   UNL A   1      38.962  25.941  29.641  1.00  0.00    -0.203 F 
ATOM     68  C   UNL A   1      39.838  25.718  27.506  1.00  0.00     0.198 A 
ATOM     69  C   UNL A   1      41.087  27.470  26.499  1.00  0.00     0.198 A 
ATOM     70  F   UNL A   1      41.272  29.542  27.542  1.00  0.00    -0.203 F 
ATOM     71  F   UNL A   1      39.273  24.505  27.442  1.00  0.00    -0.200 F 
ATOM     72  C   UNL A   1      40.574  26.190  26.440  1.00  0.00     0.200 A 
ATOM     73  F   UNL A   1      41.780  27.958  25.461  1.00  0.00    -0.200 F 
ATOM     74  F   UNL A   1      40.761  25.430  25.354  1.00  0.00    -0.200 F 
ENDBRANCH  50  64
BRANCH  51  75
ATOM     75  C   UNL A   1      40.363  33.559  36.546  1.00  0.00     0.064 A 
ATOM     76  C   UNL A   1      39.202  32.812  36.823  1.00  0.00     0.173 A 
ATOM     77  C   UNL A   1      40.683  34.608  37.414  1.00  0.00     0.173 A 
ATOM     78  F   UNL A   1      38.855  31.792  36.022  1.00  0.00    -0.203 F 
ATOM     79  C   UNL A   1      38.462  33.028  37.984  1.00  0.00     0.198 A 
ATOM     80  C   UNL A   1      39.930  34.830  38.571  1.00  0.00     0.198 A 
ATOM     81  F   UNL A   1      41.787  35.341  37.215  1.00  0.00    -0.203 F 
ATOM     82  F   UNL A   1      37.431  32.222  38.279  1.00  0.00    -0.200 F 
ATOM     83  C   UNL A   1      38.845  34.018  38.872  1.00  0.00     0.200 A 
ATOM     84  F   UNL A   1      40.317  35.768  39.447  1.00  0.00    -0.200 F 
ATOM     85  F   UNL A   1      38.197  34.162  40.036  1.00  0.00    -0.200 F 
ENDBRANCH  51  75
BRANCH  63  86
ATOM     86  C   UNL A   1      42.970  27.031  34.860  1.00  0.00     0.064 A 
ATOM     87  C   UNL A   1      42.028  26.006  35.036  1.00  0.00     0.173 A 
ATOM     88  C   UNL A   1      44.328  26.634  34.953  1.00  0.00     0.173 A 
ATOM     89  F   UNL A   1      40.719  26.224  34.862  1.00  0.00    -0.203 F 
ATOM     90  C   UNL A   1      42.411  24.695  35.338  1.00  0.00     0.198 A 
ATOM     91  C   UNL A   1      44.706  25.314  35.196  1.00  0.00     0.198 A 
ATOM     92  F   UNL A   1      45.330  27.509  34.783  1.00  0.00    -0.203 F 
ATOM     93  F   UNL A   1      41.472  23.759  35.534  1.00  0.00    -0.200 F 
ATOM     94  C   UNL A   1      43.748  24.347  35.404  1.00  0.00     0.200 A 
ATOM     95  F   UNL A   1      46.007  24.985  35.204  1.00  0.00    -0.200 F 
ATOM     96  F   UNL A   1      44.108  23.079  35.643  1.00  0.00    -0.200 F 
ENDBRANCH  63  86
ENDBRANCH  37  38
ENDBRANCH  29  32
ENDBRANCH  27  28
ENDBRANCH   1  27
TORSDOF 13
ENDMDL
MODEL 2
REMARK VINA RESULT:     -13.9      5.554     11.089
REMARK SMILES Cc1c(CC(=O)NCCCNC(=O)c2ccc(-c3c4nc(c(-c5c(F)c(F)c(F)c(F)c5F)c5ccc([nH]5)c(-c5c(F)c(F)c(F)c(F)c5F)c5nc(c(-c6c(F)c(F)c(F)c(F)c6F)c6ccc3[nH]6)C=C5)C=C4)cc2)cc(-c2ccccc2)cc1-c1ccccc1
REMARK SMILES IDX 9 1 8 2 7 3 5 4 6 5 4 7 3 8 1 9 2 10 86 11 77 12 85 13 78 14
REMARK SMILES IDX 87 15 88 16 92 17 89 18 91 19 90 20 79 21 80 22 84 23 81 24
REMARK SMILES IDX 83 25 82 26 10 27 11 28 12 29 13 31 14 32 15 33 76 34 16 35
REMARK SMILES IDX 75 36 17 37 18 38 19 39 69 40 20 41 74 42 68 43 70 44 21 45
REMARK SMILES IDX 73 46 67 47 66 48 22 50 54 51 34 52 53 53 35 54 38 55 52 56
REMARK SMILES IDX 71 57 36 58 37 59 51 61 72 62 39 63 23 64 24 65 32 66 25 67
REMARK SMILES IDX 26 68 30 69 33 70 27 71 28 72 31 73 29 74 55 75 56 76 64 77
REMARK SMILES IDX 57 78 58 79 62 80 65 81 59 82 60 83 63 84 61 85 40 86 41 87
REMARK SMILES IDX 49 88 42 89 43 90 47 91 50 92 44 93 45 94 48 95 46 96
REMARK H PARENT 7 6 11 30 70 49 38 60
REMARK Flexibility Score: inf
ROOT
ATOM      1  C   UNL A   1      41.276  21.856  25.986  1.00  0.00     0.042 C 
ENDROOT
BRANCH   1   2
ATOM      2  C   UNL A   1      39.848  21.329  26.119  1.00  0.00     0.117 C 
BRANCH   2   3
ATOM      3  N   UNL A   1      38.913  22.348  26.571  1.00  0.00    -0.356 N 
ATOM      4  C   UNL A   1      37.793  22.830  25.952  1.00  0.00     0.224 C 
ATOM      5  O   UNL A   1      37.146  23.706  26.531  1.00  0.00    -0.275 OA
ATOM      6  H   UNL A   1      39.116  22.747  27.447  1.00  0.00     0.163 HD
BRANCH   4   7
ATOM      7  C   UNL A   1      37.356  22.297  24.588  1.00  0.00     0.135 C 
BRANCH   7   8
ATOM      8  C   UNL A   1      35.884  21.924  24.528  1.00  0.00    -0.035 A 
ATOM      9  C   UNL A   1      35.130  24.327  24.121  1.00  0.00     0.045 C 
ATOM     10  C   UNL A   1      34.834  22.869  24.392  1.00  0.00    -0.040 A 
ATOM     11  C   UNL A   1      33.486  22.425  24.484  1.00  0.00    -0.015 A 
ATOM     12  C   UNL A   1      35.569  20.554  24.669  1.00  0.00     0.013 A 
ATOM     13  C   UNL A   1      33.226  21.048  24.653  1.00  0.00     0.017 A 
ATOM     14  C   UNL A   1      34.248  20.096  24.729  1.00  0.00    -0.017 A 
BRANCH  11  15
ATOM     15  C   UNL A   1      32.332  23.346  24.472  1.00  0.00    -0.018 A 
ATOM     16  C   UNL A   1      31.921  23.986  25.656  1.00  0.00     0.009 A 
ATOM     17  C   UNL A   1      31.619  23.613  23.294  1.00  0.00     0.009 A 
ATOM     18  C   UNL A   1      30.843  24.873  25.658  1.00  0.00     0.001 A 
ATOM     19  C   UNL A   1      30.549  24.512  23.291  1.00  0.00     0.001 A 
ATOM     20  C   UNL A   1      30.161  25.141  24.473  1.00  0.00     0.000 A 
ENDBRANCH  11  15
BRANCH  14  21
ATOM     21  C   UNL A   1      33.947  18.661  24.864  1.00  0.00    -0.018 A 
ATOM     22  C   UNL A   1      34.780  17.683  24.299  1.00  0.00     0.009 A 
ATOM     23  C   UNL A   1      32.800  18.234  25.553  1.00  0.00     0.009 A 
ATOM     24  C   UNL A   1      34.473  16.323  24.413  1.00  0.00     0.001 A 
ATOM     25  C   UNL A   1      32.490  16.877  25.665  1.00  0.00     0.001 A 
ATOM     26  C   UNL A   1      33.327  15.921  25.095  1.00  0.00     0.000 A 
ENDBRANCH  14  21
ENDBRANCH   7   8
ENDBRANCH   4   7
ENDBRANCH   2   3
ENDBRANCH   1   2
BRANCH   1  27
ATOM     27  C   UNL A   1      42.343  20.867  26.423  1.00  0.00     0.118 C 
BRANCH  27  28
ATOM     28  N   UNL A   1      43.130  20.311  25.329  1.00  0.00    -0.352 N 
ATOM     29  C   UNL A   1      44.175  20.891  24.626  1.00  0.00     0.251 C 
ATOM     30  H   UNL A   1      42.886  19.399  25.049  1.00  0.00     0.163 HD
ATOM     31  O   UNL A   1      44.708  20.302  23.703  1.00  0.00    -0.269 OA
BRANCH  29  32
ATOM     32  C   UNL A   1      44.719  22.187  25.100  1.00  0.00     0.039 A 
ATOM     33  C   UNL A   1      45.439  22.200  26.300  1.00  0.00     0.014 A 
ATOM     34  C   UNL A   1      44.336  23.381  24.495  1.00  0.00     0.014 A 
ATOM     35  C   UNL A   1      45.549  23.390  27.013  1.00  0.00     0.010 A 
ATOM     36  C   UNL A   1      44.344  24.535  25.249  1.00  0.00     0.010 A 
ATOM     37  C   UNL A   1      44.891  24.523  26.536  1.00  0.00    -0.014 A 
BRANCH  37  38
ATOM     38  C   UNL A   1      44.607  25.692  27.361  1.00  0.00     0.031 A 
ATOM     39  C   UNL A   1      43.254  26.283  27.397  1.00  0.00     0.074 A 
ATOM     40  C   UNL A   1      45.568  26.153  28.194  1.00  0.00     0.049 A 
ATOM     41  N   UNL A   1      43.004  27.496  27.760  1.00  0.00    -0.248 NA
ATOM     42  C   UNL A   1      42.062  25.551  26.988  1.00  0.00     0.031 C 
ATOM     43  C   UNL A   1      45.402  27.083  29.308  1.00  0.00     0.029 A 
ATOM     44  N   UNL A   1      46.961  25.997  28.076  1.00  0.00    -0.354 N 
ATOM     45  C   UNL A   1      41.640  27.623  27.898  1.00  0.00     0.074 A 
ATOM     46  C   UNL A   1      41.097  26.401  27.352  1.00  0.00     0.031 C 
ATOM     47  C   UNL A   1      46.588  27.646  29.583  1.00  0.00     0.029 A 
ATOM     48  C   UNL A   1      47.518  27.205  28.559  1.00  0.00     0.049 A 
ATOM     49  H   UNL A   1      47.447  25.214  27.730  1.00  0.00     0.167 HD
ATOM     50  C   UNL A   1      41.133  28.691  28.579  1.00  0.00     0.037 A 
ATOM     51  C   UNL A   1      48.238  28.035  27.751  1.00  0.00     0.037 A 
ATOM     52  C   UNL A   1      42.195  29.595  29.011  1.00  0.00     0.049 A 
ATOM     53  C   UNL A   1      47.670  29.430  27.638  1.00  0.00     0.074 A 
ATOM     54  C   UNL A   1      42.868  29.737  30.215  1.00  0.00     0.029 A 
ATOM     55  N   UNL A   1      42.926  30.304  28.065  1.00  0.00    -0.354 N 
ATOM     56  N   UNL A   1      46.437  29.734  27.931  1.00  0.00    -0.248 NA
ATOM     57  C   UNL A   1      48.430  30.579  27.156  1.00  0.00     0.031 C 
ATOM     58  C   UNL A   1      44.034  30.504  29.979  1.00  0.00     0.029 A 
ATOM     59  C   UNL A   1      44.061  30.842  28.638  1.00  0.00     0.049 A 
ATOM     60  H   UNL A   1      42.672  30.405  27.119  1.00  0.00     0.167 HD
ATOM     61  C   UNL A   1      46.220  31.062  27.671  1.00  0.00     0.074 A 
ATOM     62  C   UNL A   1      47.503  31.552  27.206  1.00  0.00     0.031 C 
ATOM     63  C   UNL A   1      44.993  31.635  27.853  1.00  0.00     0.037 A 
BRANCH  50  64
ATOM     64  C   UNL A   1      39.717  28.758  29.108  1.00  0.00     0.064 A 
ATOM     65  C   UNL A   1      38.664  29.260  28.310  1.00  0.00     0.173 A 
ATOM     66  C   UNL A   1      39.339  28.394  30.413  1.00  0.00     0.173 A 
ATOM     67  F   UNL A   1      38.836  29.534  27.011  1.00  0.00    -0.203 F 
ATOM     68  C   UNL A   1      37.385  29.505  28.819  1.00  0.00     0.198 A 
ATOM     69  C   UNL A   1      38.077  28.690  30.940  1.00  0.00     0.198 A 
ATOM     70  F   UNL A   1      40.163  27.690  31.200  1.00  0.00    -0.203 F 
ATOM     71  F   UNL A   1      36.433  29.996  28.014  1.00  0.00    -0.200 F 
ATOM     72  C   UNL A   1      37.104  29.261  30.146  1.00  0.00     0.200 A 
ATOM     73  F   UNL A   1      37.814  28.418  32.225  1.00  0.00    -0.200 F 
ATOM     74  F   UNL A   1      35.896  29.546  30.648  1.00  0.00    -0.200 F 
ENDBRANCH  50  64
BRANCH  51  75
ATOM     75  C   UNL A   1      48.963  27.319  26.671  1.00  0.00     0.064 A 
ATOM     76  C   UNL A   1      48.370  27.265  25.395  1.00  0.00     0.173 A 
ATOM     77  C   UNL A   1      50.334  27.054  26.761  1.00  0.00     0.173 A 
ATOM     78  F   UNL A   1      47.058  27.515  25.255  1.00  0.00    -0.203 F 
ATOM     79  C   UNL A   1      49.137  27.075  24.247  1.00  0.00     0.198 A 
ATOM     80  C   UNL A   1      51.097  26.852  25.608  1.00  0.00     0.198 A 
ATOM     81  F   UNL A   1      50.960  27.112  27.944  1.00  0.00    -0.203 F 
ATOM     82  F   UNL A   1      48.560  27.148  23.038  1.00  0.00    -0.200 F 
ATOM     83  C   UNL A   1      50.505  26.898  24.353  1.00  0.00     0.200 A 
ATOM     84  F   UNL A   1      52.427  26.710  25.706  1.00  0.00    -0.200 F 
ATOM     85  F   UNL A   1      51.259  26.817  23.248  1.00  0.00    -0.200 F 
ENDBRANCH  51  75
BRANCH  63  86
ATOM     86  C   UNL A   1      44.569  33.012  27.402  1.00  0.00     0.064 A 
ATOM     87  C   UNL A   1      43.963  33.280  26.165  1.00  0.00     0.173 A 
ATOM     88  C   UNL A   1      44.626  34.105  28.302  1.00  0.00     0.173 A 
ATOM     89  F   UNL A   1      43.746  32.308  25.269  1.00  0.00    -0.203 F 
ATOM     90  C   UNL A   1      43.500  34.556  25.830  1.00  0.00     0.198 A 
ATOM     91  C   UNL A   1      44.110  35.362  27.987  1.00  0.00     0.198 A 
ATOM     92  F   UNL A   1      45.158  33.981  29.527  1.00  0.00    -0.203 F 
ATOM     93  F   UNL A   1      42.963  34.770  24.621  1.00  0.00    -0.200 F 
ATOM     94  C   UNL A   1      43.561  35.592  26.744  1.00  0.00     0.200 A 
ATOM     95  F   UNL A   1      44.130  36.340  28.904  1.00  0.00    -0.200 F 
ATOM     96  F   UNL A   1      43.069  36.799  26.436  1.00  0.00    -0.200 F 
ENDBRANCH  63  86
ENDBRANCH  37  38
ENDBRANCH  29  32
ENDBRANCH  27  28
ENDBRANCH   1  27
TORSDOF 13
ENDMDL
MODEL 3
REMARK VINA RESULT:     -13.9      5.530     11.412
REMARK SMILES Cc1c(CC(=O)NCCCNC(=O)c2ccc(-c3c4nc(c(-c5c(F)c(F)c(F)c(F)c5F)c5ccc([nH]5)c(-c5c(F)c(F)c(F)c(F)c5F)c5nc(c(-c6c(F)c(F)c(F)c(F)c6F)c6ccc3[nH]6)C=C5)C=C4)cc2)cc(-c2ccccc2)cc1-c1ccccc1
REMARK SMILES IDX 9 1 8 2 7 3 5 4 6 5 4 7 3 8 1 9 2 10 86 11 77 12 85 13 78 14
REMARK SMILES IDX 87 15 88 16 92 17 89 18 91 19 90 20 79 21 80 22 84 23 81 24
REMARK SMILES IDX 83 25 82 26 10 27 11 28 12 29 13 31 14 32 15 33 76 34 16 35
REMARK SMILES IDX 75 36 17 37 18 38 19 39 69 40 20 41 74 42 68 43 70 44 21 45
REMARK SMILES IDX 73 46 67 47 66 48 22 50 54 51 34 52 53 53 35 54 38 55 52 56
REMARK SMILES IDX 71 57 36 58 37 59 51 61 72 62 39 63 23 64 24 65 32 66 25 67
REMARK SMILES IDX 26 68 30 69 33 70 27 71 28 72 31 73 29 74 55 75 56 76 64 77
REMARK SMILES IDX 57 78 58 79 62 80 65 81 59 82 60 83 63 84 61 85 40 86 41 87
REMARK SMILES IDX 49 88 42 89 43 90 47 91 50 92 44 93 45 94 48 95 46 96
REMARK H PARENT 7 6 11 30 70 49 38 60
REMARK Flexibility Score: inf
ROOT
ATOM      1  C   UNL A   1      41.263  21.970  26.076  1.00  0.00     0.042 C 
ENDROOT
BRANCH   1   2
ATOM      2  C   UNL A   1      39.821  21.510  26.275  1.00  0.00     0.117 C 
BRANCH   2   3
ATOM      3  N   UNL A   1      38.915  22.610  26.567  1.00  0.00    -0.356 N 
ATOM      4  C   UNL A   1      37.812  23.031  25.875  1.00  0.00     0.224 C 
ATOM      5  O   UNL A   1      37.189  24.000  26.317  1.00  0.00    -0.275 OA
ATOM      6  H   UNL A   1      39.126  23.126  27.378  1.00  0.00     0.163 HD
BRANCH   4   7
ATOM      7  C   UNL A   1      37.365  22.320  24.599  1.00  0.00     0.135 C 
BRANCH   7   8
ATOM      8  C   UNL A   1      35.946  21.782  24.672  1.00  0.00    -0.035 A 
ATOM      9  C   UNL A   1      36.711  19.373  25.023  1.00  0.00     0.045 C 
ATOM     10  C   UNL A   1      35.629  20.403  24.789  1.00  0.00    -0.040 A 
ATOM     11  C   UNL A   1      34.268  19.996  24.712  1.00  0.00    -0.015 A 
ATOM     12  C   UNL A   1      34.901  22.726  24.566  1.00  0.00     0.013 A 
ATOM     13  C   UNL A   1      33.264  20.979  24.577  1.00  0.00     0.017 A 
ATOM     14  C   UNL A   1      33.555  22.346  24.522  1.00  0.00    -0.017 A 
BRANCH  11  15
ATOM     15  C   UNL A   1      33.850  18.581  24.705  1.00  0.00    -0.018 A 
ATOM     16  C   UNL A   1      34.297  17.713  23.692  1.00  0.00     0.009 A 
ATOM     17  C   UNL A   1      33.006  18.060  25.698  1.00  0.00     0.009 A 
ATOM     18  C   UNL A   1      33.925  16.366  23.681  1.00  0.00     0.001 A 
ATOM     19  C   UNL A   1      32.646  16.710  25.696  1.00  0.00     0.001 A 
ATOM     20  C   UNL A   1      33.104  15.864  24.688  1.00  0.00     0.000 A 
ENDBRANCH  11  15
BRANCH  14  21
ATOM     21  C   UNL A   1      32.484  23.351  24.423  1.00  0.00    -0.018 A 
ATOM     22  C   UNL A   1      32.366  24.389  25.362  1.00  0.00     0.009 A 
ATOM     23  C   UNL A   1      31.536  23.287  23.388  1.00  0.00     0.009 A 
ATOM     24  C   UNL A   1      31.332  25.326  25.272  1.00  0.00     0.001 A 
ATOM     25  C   UNL A   1      30.501  24.220  23.300  1.00  0.00     0.001 A 
ATOM     26  C   UNL A   1      30.399  25.240  24.242  1.00  0.00     0.000 A 
ENDBRANCH  14  21
ENDBRANCH   7   8
ENDBRANCH   4   7
ENDBRANCH   2   3
ENDBRANCH   1   2
BRANCH   1  27
ATOM     27  C   UNL A   1      42.303  20.940  26.483  1.00  0.00     0.118 C 
BRANCH  27  28
ATOM     28  N   UNL A   1      43.073  20.393  25.372  1.00  0.00    -0.352 N 
ATOM     29  C   UNL A   1      44.108  20.978  24.660  1.00  0.00     0.251 C 
ATOM     30  H   UNL A   1      42.822  19.485  25.087  1.00  0.00     0.163 HD
ATOM     31  O   UNL A   1      44.626  20.396  23.723  1.00  0.00    -0.269 OA
BRANCH  29  32
ATOM     32  C   UNL A   1      44.662  22.268  25.138  1.00  0.00     0.039 A 
ATOM     33  C   UNL A   1      45.379  22.271  26.340  1.00  0.00     0.014 A 
ATOM     34  C   UNL A   1      44.291  23.466  24.534  1.00  0.00     0.014 A 
ATOM     35  C   UNL A   1      45.497  23.459  27.057  1.00  0.00     0.010 A 
ATOM     36  C   UNL A   1      44.307  24.619  25.292  1.00  0.00     0.010 A 
ATOM     37  C   UNL A   1      44.850  24.599  26.580  1.00  0.00    -0.014 A 
BRANCH  37  38
ATOM     38  C   UNL A   1      44.575  25.768  27.407  1.00  0.00     0.031 A 
ATOM     39  C   UNL A   1      43.221  26.357  27.459  1.00  0.00     0.074 A 
ATOM     40  C   UNL A   1      45.545  26.232  28.227  1.00  0.00     0.049 A 
ATOM     41  N   UNL A   1      42.973  27.569  27.824  1.00  0.00    -0.248 NA
ATOM     42  C   UNL A   1      42.025  25.621  27.066  1.00  0.00     0.031 C 
ATOM     43  C   UNL A   1      45.391  27.163  29.342  1.00  0.00     0.029 A 
ATOM     44  N   UNL A   1      46.937  26.079  28.092  1.00  0.00    -0.354 N 
ATOM     45  C   UNL A   1      41.610  27.693  27.979  1.00  0.00     0.074 A 
ATOM     46  C   UNL A   1      41.062  26.469  27.441  1.00  0.00     0.031 C 
ATOM     47  C   UNL A   1      46.578  27.729  29.601  1.00  0.00     0.029 A 
ATOM     48  C   UNL A   1      47.497  27.289  28.566  1.00  0.00     0.049 A 
ATOM     49  H   UNL A   1      47.419  25.296  27.740  1.00  0.00     0.167 HD
ATOM     50  C   UNL A   1      41.109  28.762  28.665  1.00  0.00     0.037 A 
ATOM     51  C   UNL A   1      48.204  28.120  27.748  1.00  0.00     0.037 A 
ATOM     52  C   UNL A   1      42.175  29.668  29.082  1.00  0.00     0.049 A 
ATOM     53  C   UNL A   1      47.632  29.513  27.641  1.00  0.00     0.074 A 
ATOM     54  C   UNL A   1      42.863  29.813  30.277  1.00  0.00     0.029 A 
ATOM     55  N   UNL A   1      42.892  30.377  28.126  1.00  0.00    -0.354 N 
ATOM     56  N   UNL A   1      46.402  29.815  27.948  1.00  0.00    -0.248 NA
ATOM     57  C   UNL A   1      48.383  30.663  27.147  1.00  0.00     0.031 C 
ATOM     58  C   UNL A   1      44.024  30.582  30.026  1.00  0.00     0.029 A 
ATOM     59  C   UNL A   1      44.033  30.919  28.684  1.00  0.00     0.049 A 
ATOM     60  H   UNL A   1      42.626  30.477  27.183  1.00  0.00     0.167 HD
ATOM     61  C   UNL A   1      46.179  31.142  27.690  1.00  0.00     0.074 A 
ATOM     62  C   UNL A   1      47.455  31.635  27.208  1.00  0.00     0.031 C 
ATOM     63  C   UNL A   1      44.954  31.713  27.887  1.00  0.00     0.037 A 
BRANCH  50  64
ATOM     64  C   UNL A   1      39.700  28.826  29.211  1.00  0.00     0.064 A 
ATOM     65  C   UNL A   1      38.634  29.317  28.423  1.00  0.00     0.173 A 
ATOM     66  C   UNL A   1      39.341  28.470  30.524  1.00  0.00     0.173 A 
ATOM     67  F   UNL A   1      38.788  29.581  27.120  1.00  0.00    -0.203 F 
ATOM     68  C   UNL A   1      37.361  29.560  28.946  1.00  0.00     0.198 A 
ATOM     69  C   UNL A   1      38.084  28.765  31.065  1.00  0.00     0.198 A 
ATOM     70  F   UNL A   1      40.177  27.777  31.306  1.00  0.00    -0.203 F 
ATOM     71  F   UNL A   1      36.396  30.039  28.150  1.00  0.00    -0.200 F 
ATOM     72  C   UNL A   1      37.098  29.325  30.279  1.00  0.00     0.200 A 
ATOM     73  F   UNL A   1      37.838  28.502  32.356  1.00  0.00    -0.200 F 
ATOM     74  F   UNL A   1      35.895  29.608  30.795  1.00  0.00    -0.200 F 
ENDBRANCH  50  64
BRANCH  51  75
ATOM     75  C   UNL A   1      48.917  27.403  26.660  1.00  0.00     0.064 A 
ATOM     76  C   UNL A   1      48.307  27.344  25.393  1.00  0.00     0.173 A 
ATOM     77  C   UNL A   1      50.291  27.145  26.731  1.00  0.00     0.173 A 
ATOM     78  F   UNL A   1      46.993  27.588  25.270  1.00  0.00    -0.203 F 
ATOM     79  C   UNL A   1      49.059  27.154  24.235  1.00  0.00     0.198 A 
ATOM     80  C   UNL A   1      51.039  26.942  25.569  1.00  0.00     0.198 A 
ATOM     81  F   UNL A   1      50.933  27.208  27.906  1.00  0.00    -0.203 F 
ATOM     82  F   UNL A   1      48.465  27.221  23.034  1.00  0.00    -0.200 F 
ATOM     83  C   UNL A   1      50.429  26.983  24.322  1.00  0.00     0.200 A 
ATOM     84  F   UNL A   1      52.371  26.807  25.649  1.00  0.00    -0.200 F 
ATOM     85  F   UNL A   1      51.168  26.902  23.207  1.00  0.00    -0.200 F 
ENDBRANCH  51  75
BRANCH  63  86
ATOM     86  C   UNL A   1      44.521  33.088  27.439  1.00  0.00     0.064 A 
ATOM     87  C   UNL A   1      43.948  33.361  26.187  1.00  0.00     0.173 A 
ATOM     88  C   UNL A   1      44.533  34.171  28.353  1.00  0.00     0.173 A 
ATOM     89  F   UNL A   1      43.774  32.397  25.274  1.00  0.00    -0.203 F 
ATOM     90  C   UNL A   1      43.475  34.634  25.853  1.00  0.00     0.198 A 
ATOM     91  C   UNL A   1      44.006  35.423  28.037  1.00  0.00     0.198 A 
ATOM     92  F   UNL A   1      45.030  34.040  29.592  1.00  0.00    -0.203 F 
ATOM     93  F   UNL A   1      42.971  34.854  24.631  1.00  0.00    -0.200 F 
ATOM     94  C   UNL A   1      43.491  35.659  26.781  1.00  0.00     0.200 A 
ATOM     95  F   UNL A   1      43.982  36.390  28.966  1.00  0.00    -0.200 F 
ATOM     96  F   UNL A   1      42.989  36.862  26.473  1.00  0.00    -0.200 F 
ENDBRANCH  63  86
ENDBRANCH  37  38
ENDBRANCH  29  32
ENDBRANCH  27  28
ENDBRANCH   1  27
TORSDOF 13
ENDMDL
