MODEL 1
REMARK VINA RESULT:     -12.2      0.000      0.000
REMARK SMILES Cc1cscc1-c1nnnn1C[C@@H](C)C(=O)NCCCNC(=O)c1ccc(-c2c3nc(c(-c4c(F)c(F)c(F)c(F)c4F)c4ccc([nH]4)c(-c4c(F)c(F)c(F)c(F)c4F)c4nc(c(-c5c(F)c(F)c(F)c(F)c5F)c5ccc2[nH]5)C=C4)C=C3)cc1
REMARK SMILES IDX 18 1 17 2 15 3 16 4 13 6 14 7 12 8 11 9 7 10 8 11 9 12 10 13
REMARK SMILES IDX 6 14 1 15 2 16 3 17 4 18 5 19 19 20 20 21 21 22 22 23 23 25
REMARK SMILES IDX 24 26 25 27 86 28 26 29 85 30 27 31 28 32 29 33 79 34 30 35
REMARK SMILES IDX 84 36 78 37 80 38 31 39 83 40 77 41 76 42 32 44 64 45 44 46
REMARK SMILES IDX 63 47 45 48 48 49 62 50 81 51 46 52 47 53 61 55 82 56 49 57
REMARK SMILES IDX 33 58 34 59 42 60 35 61 36 62 40 63 43 64 37 65 38 66 41 67
REMARK SMILES IDX 39 68 65 69 66 70 74 71 67 72 68 73 72 74 75 75 69 76 70 77
REMARK SMILES IDX 73 78 71 79 50 80 51 81 59 82 52 83 53 84 57 85 60 86 54 87
REMARK SMILES IDX 55 88 58 89 56 90
REMARK H PARENT 17 5 21 24 80 43 48 54
REMARK Flexibility Score: inf
ROOT
ATOM      1  C   UNL A   1      31.752  30.429  25.905  1.00  0.00     0.117 C 
ENDROOT
BRANCH   1   2
ATOM      2  N   UNL A   1      33.011  29.905  26.425  1.00  0.00    -0.356 N 
ATOM      3  C   UNL A   1      33.699  28.760  26.149  1.00  0.00     0.224 C 
ATOM      4  O   UNL A   1      34.775  28.587  26.725  1.00  0.00    -0.275 OA
ATOM      5  H   UNL A   1      33.442  30.482  27.097  1.00  0.00     0.163 HD
BRANCH   3   6
ATOM      6  C   UNL A   1      33.158  27.704  25.198  1.00  0.00     0.097 C 
ATOM      7  C   UNL A   1      33.461  26.296  25.703  1.00  0.00     0.020 C 
BRANCH   6   8
ATOM      8  C   UNL A   1      33.589  28.078  23.776  1.00  0.00     0.161 C 
BRANCH   8   9
ATOM      9  N   UNL A   1      33.115  27.252  22.702  1.00  0.00    -0.225 N 
ATOM     10  C   UNL A   1      31.857  27.130  22.184  1.00  0.00     0.183 A 
ATOM     11  N   UNL A   1      31.869  26.094  21.370  1.00  0.00    -0.108 NA
ATOM     12  N   UNL A   1      33.183  25.707  21.261  1.00  0.00    -0.023 NA
ATOM     13  N   UNL A   1      33.958  26.437  22.049  1.00  0.00    -0.045 NA
BRANCH  10  14
ATOM     14  C   UNL A   1      30.656  27.948  22.506  1.00  0.00     0.034 A 
ATOM     15  C   UNL A   1      29.319  26.250  23.998  1.00  0.00     0.046 C 
ATOM     16  C   UNL A   1      29.494  27.539  23.256  1.00  0.00    -0.029 A 
ATOM     17  C   UNL A   1      28.556  28.556  23.278  1.00  0.00     0.069 A 
ATOM     18  S   UNL A   1      29.088  29.978  22.493  1.00  0.00    -0.151 S 
ATOM     19  C   UNL A   1      30.594  29.269  22.118  1.00  0.00     0.077 A 
ENDBRANCH  10  14
ENDBRANCH   8   9
ENDBRANCH   6   8
ENDBRANCH   3   6
ENDBRANCH   1   2
BRANCH   1  20
ATOM     20  C   UNL A   1      31.400  31.824  26.435  1.00  0.00     0.042 C 
BRANCH  20  21
ATOM     21  C   UNL A   1      32.512  32.424  27.267  1.00  0.00     0.118 C 
BRANCH  21  22
ATOM     22  N   UNL A   1      32.312  33.844  27.583  1.00  0.00    -0.352 N 
ATOM     23  C   UNL A   1      32.977  34.625  28.526  1.00  0.00     0.251 C 
ATOM     24  H   UNL A   1      31.617  34.305  27.060  1.00  0.00     0.163 HD
ATOM     25  O   UNL A   1      32.519  35.681  28.911  1.00  0.00    -0.269 OA
BRANCH  23  26
ATOM     26  C   UNL A   1      34.263  34.122  29.043  1.00  0.00     0.039 A 
ATOM     27  C   UNL A   1      34.392  33.416  30.241  1.00  0.00     0.014 A 
ATOM     28  C   UNL A   1      35.356  34.310  28.216  1.00  0.00     0.014 A 
ATOM     29  C   UNL A   1      35.635  32.857  30.542  1.00  0.00     0.010 A 
ATOM     30  C   UNL A   1      36.412  33.466  28.331  1.00  0.00     0.010 A 
ATOM     31  C   UNL A   1      36.637  32.887  29.562  1.00  0.00    -0.014 A 
BRANCH  31  32
ATOM     32  C   UNL A   1      37.957  32.306  29.735  1.00  0.00     0.031 A 
ATOM     33  C   UNL A   1      38.076  30.912  29.259  1.00  0.00     0.074 A 
ATOM     34  C   UNL A   1      39.033  33.070  30.041  1.00  0.00     0.049 A 
ATOM     35  N   UNL A   1      38.266  29.853  29.970  1.00  0.00    -0.248 NA
ATOM     36  C   UNL A   1      37.806  30.641  27.839  1.00  0.00     0.031 C 
ATOM     37  C   UNL A   1      39.123  34.532  30.190  1.00  0.00     0.029 A 
ATOM     38  N   UNL A   1      40.330  32.688  30.182  1.00  0.00    -0.354 N 
ATOM     39  C   UNL A   1      38.345  28.800  29.067  1.00  0.00     0.074 A 
ATOM     40  C   UNL A   1      37.851  29.308  27.814  1.00  0.00     0.031 C 
ATOM     41  C   UNL A   1      40.417  34.919  30.169  1.00  0.00     0.029 A 
ATOM     42  C   UNL A   1      41.247  33.733  30.197  1.00  0.00     0.049 A 
ATOM     43  H   UNL A   1      40.597  31.745  30.268  1.00  0.00     0.167 HD
ATOM     44  C   UNL A   1      39.058  27.681  29.367  1.00  0.00     0.037 A 
ATOM     45  C   UNL A   1      42.598  33.613  30.207  1.00  0.00     0.037 A 
ATOM     46  C   UNL A   1      39.336  27.614  30.782  1.00  0.00     0.049 A 
ATOM     47  C   UNL A   1      42.903  32.233  30.665  1.00  0.00     0.074 A 
ATOM     48  C   UNL A   1      38.552  27.569  31.920  1.00  0.00     0.029 A 
ATOM     49  N   UNL A   1      40.584  28.003  31.211  1.00  0.00    -0.354 N 
ATOM     50  N   UNL A   1      42.650  31.799  31.869  1.00  0.00    -0.248 NA
ATOM     51  C   UNL A   1      43.031  31.204  29.643  1.00  0.00     0.031 C 
ATOM     52  C   UNL A   1      39.223  28.406  32.864  1.00  0.00     0.029 A 
ATOM     53  C   UNL A   1      40.412  28.846  32.279  1.00  0.00     0.049 A 
ATOM     54  H   UNL A   1      41.444  27.725  30.823  1.00  0.00     0.167 HD
ATOM     55  C   UNL A   1      42.168  30.510  31.688  1.00  0.00     0.074 A 
ATOM     56  C   UNL A   1      42.496  30.173  30.303  1.00  0.00     0.031 C 
ATOM     57  C   UNL A   1      41.290  29.955  32.575  1.00  0.00     0.037 A 
BRANCH  44  58
ATOM     58  C   UNL A   1      39.827  26.858  28.359  1.00  0.00     0.064 A 
ATOM     59  C   UNL A   1      39.654  25.458  28.355  1.00  0.00     0.173 A 
ATOM     60  C   UNL A   1      40.927  27.334  27.613  1.00  0.00     0.173 A 
ATOM     61  F   UNL A   1      38.646  24.892  29.035  1.00  0.00    -0.203 F 
ATOM     62  C   UNL A   1      40.566  24.603  27.731  1.00  0.00     0.198 A 
ATOM     63  C   UNL A   1      41.802  26.479  26.946  1.00  0.00     0.198 A 
ATOM     64  F   UNL A   1      41.273  28.625  27.584  1.00  0.00    -0.203 F 
ATOM     65  F   UNL A   1      40.433  23.278  27.870  1.00  0.00    -0.200 F 
ATOM     66  C   UNL A   1      41.645  25.114  27.034  1.00  0.00     0.200 A 
ATOM     67  F   UNL A   1      42.850  26.996  26.287  1.00  0.00    -0.200 F 
ATOM     68  F   UNL A   1      42.557  24.297  26.494  1.00  0.00    -0.200 F 
ENDBRANCH  44  58
BRANCH  45  69
ATOM     69  C   UNL A   1      43.603  34.477  29.544  1.00  0.00     0.064 A 
ATOM     70  C   UNL A   1      43.877  34.354  28.173  1.00  0.00     0.173 A 
ATOM     71  C   UNL A   1      44.103  35.630  30.181  1.00  0.00     0.173 A 
ATOM     72  F   UNL A   1      43.399  33.308  27.483  1.00  0.00    -0.203 F 
ATOM     73  C   UNL A   1      44.584  35.339  27.473  1.00  0.00     0.198 A 
ATOM     74  C   UNL A   1      44.810  36.611  29.483  1.00  0.00     0.198 A 
ATOM     75  F   UNL A   1      43.828  35.876  31.470  1.00  0.00    -0.203 F 
ATOM     76  F   UNL A   1      44.769  35.218  26.151  1.00  0.00    -0.200 F 
ATOM     77  C   UNL A   1      45.039  36.472  28.127  1.00  0.00     0.200 A 
ATOM     78  F   UNL A   1      45.209  37.723  30.118  1.00  0.00    -0.200 F 
ATOM     79  F   UNL A   1      45.655  37.448  27.445  1.00  0.00    -0.200 F 
ENDBRANCH  45  69
BRANCH  57  80
ATOM     80  C   UNL A   1      41.051  30.682  33.872  1.00  0.00     0.064 A 
ATOM     81  C   UNL A   1      41.891  30.591  34.998  1.00  0.00     0.173 A 
ATOM     82  C   UNL A   1      40.013  31.621  33.926  1.00  0.00     0.173 A 
ATOM     83  F   UNL A   1      42.963  29.792  34.995  1.00  0.00    -0.203 F 
ATOM     84  C   UNL A   1      41.676  31.373  36.132  1.00  0.00     0.198 A 
ATOM     85  C   UNL A   1      39.822  32.427  35.045  1.00  0.00     0.198 A 
ATOM     86  F   UNL A   1      39.212  31.795  32.864  1.00  0.00    -0.203 F 
ATOM     87  F   UNL A   1      42.490  31.258  37.193  1.00  0.00    -0.200 F 
ATOM     88  C   UNL A   1      40.646  32.296  36.152  1.00  0.00     0.200 A 
ATOM     89  F   UNL A   1      38.854  33.354  35.040  1.00  0.00    -0.200 F 
ATOM     90  F   UNL A   1      40.464  33.079  37.225  1.00  0.00    -0.200 F 
ENDBRANCH  57  80
ENDBRANCH  31  32
ENDBRANCH  23  26
ENDBRANCH  21  22
ENDBRANCH  20  21
ENDBRANCH   1  20
TORSDOF 13
ENDMDL
MODEL 2
REMARK VINA RESULT:     -12.2      4.724      9.593
REMARK SMILES Cc1cscc1-c1nnnn1C[C@@H](C)C(=O)NCCCNC(=O)c1ccc(-c2c3nc(c(-c4c(F)c(F)c(F)c(F)c4F)c4ccc([nH]4)c(-c4c(F)c(F)c(F)c(F)c4F)c4nc(c(-c5c(F)c(F)c(F)c(F)c5F)c5ccc2[nH]5)C=C4)C=C3)cc1
REMARK SMILES IDX 18 1 17 2 15 3 16 4 13 6 14 7 12 8 11 9 7 10 8 11 9 12 10 13
REMARK SMILES IDX 6 14 1 15 2 16 3 17 4 18 5 19 19 20 20 21 21 22 22 23 23 25
REMARK SMILES IDX 24 26 25 27 86 28 26 29 85 30 27 31 28 32 29 33 79 34 30 35
REMARK SMILES IDX 84 36 78 37 80 38 31 39 83 40 77 41 76 42 32 44 64 45 44 46
REMARK SMILES IDX 63 47 45 48 48 49 62 50 81 51 46 52 47 53 61 55 82 56 49 57
REMARK SMILES IDX 33 58 34 59 42 60 35 61 36 62 40 63 43 64 37 65 38 66 41 67
REMARK SMILES IDX 39 68 65 69 66 70 74 71 67 72 68 73 72 74 75 75 69 76 70 77
REMARK SMILES IDX 73 78 71 79 50 80 51 81 59 82 52 83 53 84 57 85 60 86 54 87
REMARK SMILES IDX 55 88 58 89 56 90
REMARK H PARENT 17 5 21 24 80 43 48 54
REMARK Flexibility Score: inf
ROOT
ATOM      1  C   UNL A   1      36.368  20.923  25.305  1.00  0.00     0.117 C 
ENDROOT
BRANCH   1   2
ATOM      2  N   UNL A   1      35.047  20.301  25.329  1.00  0.00    -0.356 N 
ATOM      3  C   UNL A   1      33.794  20.837  25.357  1.00  0.00     0.224 C 
ATOM      4  O   UNL A   1      32.839  20.058  25.339  1.00  0.00    -0.275 OA
ATOM      5  H   UNL A   1      35.065  19.317  25.326  1.00  0.00     0.163 HD
BRANCH   3   6
ATOM      6  C   UNL A   1      33.560  22.338  25.445  1.00  0.00     0.097 C 
ATOM      7  C   UNL A   1      33.829  22.859  26.854  1.00  0.00     0.020 C 
BRANCH   6   8
ATOM      8  C   UNL A   1      32.207  22.647  24.798  1.00  0.00     0.161 C 
BRANCH   8   9
ATOM      9  N   UNL A   1      31.230  23.330  25.600  1.00  0.00    -0.225 N 
ATOM     10  C   UNL A   1      30.860  24.645  25.592  1.00  0.00     0.183 A 
ATOM     11  N   UNL A   1      30.099  24.842  26.650  1.00  0.00    -0.108 NA
ATOM     12  N   UNL A   1      29.865  23.601  27.191  1.00  0.00    -0.023 NA
ATOM     13  N   UNL A   1      30.529  22.664  26.530  1.00  0.00    -0.045 NA
BRANCH  10  14
ATOM     14  C   UNL A   1      31.272  25.702  24.628  1.00  0.00     0.034 A 
ATOM     15  C   UNL A   1      33.625  26.336  25.608  1.00  0.00     0.046 C 
ATOM     16  C   UNL A   1      32.470  26.504  24.670  1.00  0.00    -0.029 A 
ATOM     17  C   UNL A   1      32.461  27.431  23.642  1.00  0.00     0.069 A 
ATOM     18  S   UNL A   1      31.099  27.288  22.620  1.00  0.00    -0.151 S 
ATOM     19  C   UNL A   1      30.497  25.970  23.522  1.00  0.00     0.077 A 
ENDBRANCH  10  14
ENDBRANCH   8   9
ENDBRANCH   6   8
ENDBRANCH   3   6
ENDBRANCH   1   2
BRANCH   1  20
ATOM     20  C   UNL A   1      37.497  19.954  24.936  1.00  0.00     0.042 C 
BRANCH  20  21
ATOM     21  C   UNL A   1      38.834  20.382  25.499  1.00  0.00     0.118 C 
BRANCH  21  22
ATOM     22  N   UNL A   1      39.786  19.276  25.667  1.00  0.00    -0.352 N 
ATOM     23  C   UNL A   1      41.148  19.339  25.951  1.00  0.00     0.251 C 
ATOM     24  H   UNL A   1      39.411  18.371  25.564  1.00  0.00     0.163 HD
ATOM     25  O   UNL A   1      41.881  18.392  25.757  1.00  0.00    -0.269 OA
BRANCH  23  26
ATOM     26  C   UNL A   1      41.672  20.603  26.500  1.00  0.00     0.039 A 
ATOM     27  C   UNL A   1      42.322  21.570  25.731  1.00  0.00     0.014 A 
ATOM     28  C   UNL A   1      41.402  20.834  27.837  1.00  0.00     0.014 A 
ATOM     29  C   UNL A   1      42.629  22.790  26.333  1.00  0.00     0.010 A 
ATOM     30  C   UNL A   1      41.359  22.115  28.281  1.00  0.00     0.010 A 
ATOM     31  C   UNL A   1      42.129  23.048  27.617  1.00  0.00    -0.014 A 
BRANCH  31  32
ATOM     32  C   UNL A   1      42.343  24.291  28.337  1.00  0.00     0.031 A 
ATOM     33  C   UNL A   1      41.277  25.297  28.146  1.00  0.00     0.074 A 
ATOM     34  C   UNL A   1      43.284  24.398  29.305  1.00  0.00     0.049 A 
ATOM     35  N   UNL A   1      41.366  26.429  27.535  1.00  0.00    -0.248 NA
ATOM     36  C   UNL A   1      39.909  24.939  28.551  1.00  0.00     0.031 C 
ATOM     37  C   UNL A   1      44.178  23.362  29.850  1.00  0.00     0.029 A 
ATOM     38  N   UNL A   1      43.568  25.465  30.097  1.00  0.00    -0.354 N 
ATOM     39  C   UNL A   1      40.115  27.024  27.657  1.00  0.00     0.074 A 
ATOM     40  C   UNL A   1      39.219  25.988  28.097  1.00  0.00     0.031 C 
ATOM     41  C   UNL A   1      44.723  23.787  31.011  1.00  0.00     0.029 A 
ATOM     42  C   UNL A   1      44.371  25.179  31.195  1.00  0.00     0.049 A 
ATOM     43  H   UNL A   1      43.230  26.370  29.906  1.00  0.00     0.167 HD
ATOM     44  C   UNL A   1      39.987  28.379  27.638  1.00  0.00     0.037 A 
ATOM     45  C   UNL A   1      44.697  26.037  32.193  1.00  0.00     0.037 A 
ATOM     46  C   UNL A   1      41.180  29.000  27.114  1.00  0.00     0.049 A 
ATOM     47  C   UNL A   1      44.449  27.408  31.681  1.00  0.00     0.074 A 
ATOM     48  C   UNL A   1      41.861  28.924  25.913  1.00  0.00     0.029 A 
ATOM     49  N   UNL A   1      42.078  29.528  28.012  1.00  0.00    -0.354 N 
ATOM     50  N   UNL A   1      45.134  27.952  30.712  1.00  0.00    -0.248 NA
ATOM     51  C   UNL A   1      43.129  27.977  31.909  1.00  0.00     0.031 C 
ATOM     52  C   UNL A   1      43.244  28.932  26.272  1.00  0.00     0.029 A 
ATOM     53  C   UNL A   1      43.328  29.091  27.656  1.00  0.00     0.049 A 
ATOM     54  H   UNL A   1      41.862  30.114  28.772  1.00  0.00     0.167 HD
ATOM     55  C   UNL A   1      44.192  28.624  29.944  1.00  0.00     0.074 A 
ATOM     56  C   UNL A   1      42.987  28.665  30.772  1.00  0.00     0.031 C 
ATOM     57  C   UNL A   1      44.383  28.816  28.606  1.00  0.00     0.037 A 
BRANCH  44  58
ATOM     58  C   UNL A   1      38.964  29.154  28.435  1.00  0.00     0.064 A 
ATOM     59  C   UNL A   1      38.921  28.979  29.834  1.00  0.00     0.173 A 
ATOM     60  C   UNL A   1      37.850  29.817  27.875  1.00  0.00     0.173 A 
ATOM     61  F   UNL A   1      39.920  28.355  30.476  1.00  0.00    -0.203 F 
ATOM     62  C   UNL A   1      37.809  29.354  30.592  1.00  0.00     0.198 A 
ATOM     63  C   UNL A   1      36.768  30.240  28.644  1.00  0.00     0.198 A 
ATOM     64  F   UNL A   1      37.702  29.988  26.557  1.00  0.00    -0.203 F 
ATOM     65  F   UNL A   1      37.759  29.044  31.894  1.00  0.00    -0.200 F 
ATOM     66  C   UNL A   1      36.729  29.976  29.995  1.00  0.00     0.200 A 
ATOM     67  F   UNL A   1      35.725  30.830  28.041  1.00  0.00    -0.200 F 
ATOM     68  F   UNL A   1      35.635  30.276  30.706  1.00  0.00    -0.200 F 
ENDBRANCH  44  58
BRANCH  45  69
ATOM     69  C   UNL A   1      44.883  25.743  33.635  1.00  0.00     0.064 A 
ATOM     70  C   UNL A   1      43.784  25.540  34.483  1.00  0.00     0.173 A 
ATOM     71  C   UNL A   1      46.144  25.371  34.144  1.00  0.00     0.173 A 
ATOM     72  F   UNL A   1      42.544  25.825  34.058  1.00  0.00    -0.203 F 
ATOM     73  C   UNL A   1      43.931  24.972  35.754  1.00  0.00     0.198 A 
ATOM     74  C   UNL A   1      46.290  24.808  35.412  1.00  0.00     0.198 A 
ATOM     75  F   UNL A   1      47.244  25.454  33.380  1.00  0.00    -0.203 F 
ATOM     76  F   UNL A   1      42.850  24.733  36.510  1.00  0.00    -0.200 F 
ATOM     77  C   UNL A   1      45.183  24.596  36.212  1.00  0.00     0.200 A 
ATOM     78  F   UNL A   1      47.502  24.409  35.827  1.00  0.00    -0.200 F 
ATOM     79  F   UNL A   1      45.317  23.989  37.400  1.00  0.00    -0.200 F 
ENDBRANCH  45  69
BRANCH  57  80
ATOM     80  C   UNL A   1      45.740  28.498  28.037  1.00  0.00     0.064 A 
ATOM     81  C   UNL A   1      46.103  27.247  27.505  1.00  0.00     0.173 A 
ATOM     82  C   UNL A   1      46.661  29.544  27.890  1.00  0.00     0.173 A 
ATOM     83  F   UNL A   1      45.247  26.220  27.513  1.00  0.00    -0.203 F 
ATOM     84  C   UNL A   1      47.340  27.047  26.893  1.00  0.00     0.198 A 
ATOM     85  C   UNL A   1      47.880  29.351  27.248  1.00  0.00     0.198 A 
ATOM     86  F   UNL A   1      46.351  30.774  28.327  1.00  0.00    -0.203 F 
ATOM     87  F   UNL A   1      47.660  25.840  26.402  1.00  0.00    -0.200 F 
ATOM     88  C   UNL A   1      48.225  28.101  26.758  1.00  0.00     0.200 A 
ATOM     89  F   UNL A   1      48.713  30.387  27.076  1.00  0.00    -0.200 F 
ATOM     90  F   UNL A   1      49.397  27.921  26.133  1.00  0.00    -0.200 F 
ENDBRANCH  57  80
ENDBRANCH  31  32
ENDBRANCH  23  26
ENDBRANCH  21  22
ENDBRANCH  20  21
ENDBRANCH   1  20
TORSDOF 13
ENDMDL
MODEL 3
REMARK VINA RESULT:     -12.1      3.194      7.622
REMARK SMILES Cc1cscc1-c1nnnn1C[C@@H](C)C(=O)NCCCNC(=O)c1ccc(-c2c3nc(c(-c4c(F)c(F)c(F)c(F)c4F)c4ccc([nH]4)c(-c4c(F)c(F)c(F)c(F)c4F)c4nc(c(-c5c(F)c(F)c(F)c(F)c5F)c5ccc2[nH]5)C=C4)C=C3)cc1
REMARK SMILES IDX 18 1 17 2 15 3 16 4 13 6 14 7 12 8 11 9 7 10 8 11 9 12 10 13
REMARK SMILES IDX 6 14 1 15 2 16 3 17 4 18 5 19 19 20 20 21 21 22 22 23 23 25
REMARK SMILES IDX 24 26 25 27 86 28 26 29 85 30 27 31 28 32 29 33 79 34 30 35
REMARK SMILES IDX 84 36 78 37 80 38 31 39 83 40 77 41 76 42 32 44 64 45 44 46
REMARK SMILES IDX 63 47 45 48 48 49 62 50 81 51 46 52 47 53 61 55 82 56 49 57
REMARK SMILES IDX 33 58 34 59 42 60 35 61 36 62 40 63 43 64 37 65 38 66 41 67
REMARK SMILES IDX 39 68 65 69 66 70 74 71 67 72 68 73 72 74 75 75 69 76 70 77
REMARK SMILES IDX 73 78 71 79 50 80 51 81 59 82 52 83 53 84 57 85 60 86 54 87
REMARK SMILES IDX 55 88 58 89 56 90
REMARK H PARENT 17 5 21 24 80 43 48 54
REMARK Flexibility Score: inf
ROOT
ATOM      1  C   UNL A   1      31.800  29.176  26.297  1.00  0.00     0.117 C 
ENDROOT
BRANCH   1   2
ATOM      2  N   UNL A   1      31.602  27.815  26.787  1.00  0.00    -0.356 N 
ATOM      3  C   UNL A   1      31.457  26.628  26.131  1.00  0.00     0.224 C 
ATOM      4  O   UNL A   1      31.336  25.609  26.813  1.00  0.00    -0.275 OA
ATOM      5  H   UNL A   1      31.566  27.741  27.768  1.00  0.00     0.163 HD
BRANCH   3   6
ATOM      6  C   UNL A   1      31.407  26.547  24.613  1.00  0.00     0.097 C 
ATOM      7  C   UNL A   1      30.159  25.807  24.138  1.00  0.00     0.020 C 
BRANCH   6   8
ATOM      8  C   UNL A   1      32.774  26.067  24.116  1.00  0.00     0.161 C 
BRANCH   8   9
ATOM      9  N   UNL A   1      32.849  25.553  22.777  1.00  0.00    -0.225 N 
ATOM     10  C   UNL A   1      33.094  24.281  22.343  1.00  0.00     0.183 A 
ATOM     11  N   UNL A   1      33.287  24.344  21.041  1.00  0.00    -0.108 NA
ATOM     12  N   UNL A   1      32.977  25.630  20.669  1.00  0.00    -0.023 NA
ATOM     13  N   UNL A   1      32.673  26.368  21.726  1.00  0.00    -0.045 NA
BRANCH  10  14
ATOM     14  C   UNL A   1      33.199  23.043  23.163  1.00  0.00     0.034 A 
ATOM     15  C   UNL A   1      35.569  23.393  24.237  1.00  0.00     0.046 C 
ATOM     16  C   UNL A   1      34.325  22.611  23.953  1.00  0.00    -0.029 A 
ATOM     17  C   UNL A   1      34.070  21.370  24.510  1.00  0.00     0.069 A 
ATOM     18  S   UNL A   1      32.504  20.784  24.158  1.00  0.00    -0.151 S 
ATOM     19  C   UNL A   1      32.124  22.187  23.263  1.00  0.00     0.077 A 
ENDBRANCH  10  14
ENDBRANCH   8   9
ENDBRANCH   6   8
ENDBRANCH   3   6
ENDBRANCH   1   2
BRANCH   1  20
ATOM     20  C   UNL A   1      33.268  29.619  26.288  1.00  0.00     0.042 C 
BRANCH  20  21
ATOM     21  C   UNL A   1      33.703  30.208  27.611  1.00  0.00     0.118 C 
BRANCH  21  22
ATOM     22  N   UNL A   1      34.201  31.586  27.510  1.00  0.00    -0.352 N 
ATOM     23  C   UNL A   1      35.402  32.111  27.981  1.00  0.00     0.251 C 
ATOM     24  H   UNL A   1      33.608  32.221  27.048  1.00  0.00     0.163 HD
ATOM     25  O   UNL A   1      35.561  33.307  28.117  1.00  0.00    -0.269 OA
BRANCH  23  26
ATOM     26  C   UNL A   1      36.479  31.161  28.312  1.00  0.00     0.039 A 
ATOM     27  C   UNL A   1      36.592  29.891  27.743  1.00  0.00     0.014 A 
ATOM     28  C   UNL A   1      37.454  31.635  29.172  1.00  0.00     0.014 A 
ATOM     29  C   UNL A   1      37.741  29.149  28.018  1.00  0.00     0.010 A 
ATOM     30  C   UNL A   1      38.692  31.084  29.119  1.00  0.00     0.010 A 
ATOM     31  C   UNL A   1      38.792  29.771  28.707  1.00  0.00    -0.014 A 
BRANCH  31  32
ATOM     32  C   UNL A   1      40.053  29.123  29.020  1.00  0.00     0.031 A 
ATOM     33  C   UNL A   1      40.297  28.930  30.464  1.00  0.00     0.074 A 
ATOM     34  C   UNL A   1      40.790  28.508  28.064  1.00  0.00     0.049 A 
ATOM     35  N   UNL A   1      41.194  29.504  31.193  1.00  0.00    -0.248 NA
ATOM     36  C   UNL A   1      39.337  28.116  31.224  1.00  0.00     0.031 C 
ATOM     37  C   UNL A   1      40.485  28.312  26.637  1.00  0.00     0.029 A 
ATOM     38  N   UNL A   1      41.953  27.820  28.204  1.00  0.00    -0.354 N 
ATOM     39  C   UNL A   1      41.046  28.967  32.466  1.00  0.00     0.074 A 
ATOM     40  C   UNL A   1      39.776  28.291  32.473  1.00  0.00     0.031 C 
ATOM     41  C   UNL A   1      41.308  27.377  26.113  1.00  0.00     0.029 A 
ATOM     42  C   UNL A   1      42.311  27.049  27.104  1.00  0.00     0.049 A 
ATOM     43  H   UNL A   1      42.499  27.864  29.022  1.00  0.00     0.167 HD
ATOM     44  C   UNL A   1      42.105  28.903  33.319  1.00  0.00     0.037 A 
ATOM     45  C   UNL A   1      43.353  26.184  27.037  1.00  0.00     0.037 A 
ATOM     46  C   UNL A   1      43.174  29.767  32.875  1.00  0.00     0.049 A 
ATOM     47  C   UNL A   1      44.286  26.549  28.133  1.00  0.00     0.074 A 
ATOM     48  C   UNL A   1      43.286  31.124  32.641  1.00  0.00     0.029 A 
ATOM     49  N   UNL A   1      44.229  29.191  32.206  1.00  0.00    -0.354 N 
ATOM     50  N   UNL A   1      44.953  27.670  28.172  1.00  0.00    -0.248 NA
ATOM     51  C   UNL A   1      44.097  25.890  29.417  1.00  0.00     0.031 C 
ATOM     52  C   UNL A   1      44.080  31.231  31.459  1.00  0.00     0.029 A 
ATOM     53  C   UNL A   1      44.472  29.945  31.086  1.00  0.00     0.049 A 
ATOM     54  H   UNL A   1      44.721  28.385  32.483  1.00  0.00     0.167 HD
ATOM     55  C   UNL A   1      44.895  28.073  29.499  1.00  0.00     0.074 A 
ATOM     56  C   UNL A   1      44.419  26.899  30.231  1.00  0.00     0.031 C 
ATOM     57  C   UNL A   1      44.948  29.395  29.837  1.00  0.00     0.037 A 
BRANCH  44  58
ATOM     58  C   UNL A   1      42.332  27.796  34.322  1.00  0.00     0.064 A 
ATOM     59  C   UNL A   1      42.920  26.593  33.879  1.00  0.00     0.173 A 
ATOM     60  C   UNL A   1      41.742  27.746  35.603  1.00  0.00     0.173 A 
ATOM     61  F   UNL A   1      43.504  26.519  32.674  1.00  0.00    -0.203 F 
ATOM     62  C   UNL A   1      42.836  25.413  34.623  1.00  0.00     0.198 A 
ATOM     63  C   UNL A   1      41.710  26.580  36.366  1.00  0.00     0.198 A 
ATOM     64  F   UNL A   1      41.075  28.778  36.130  1.00  0.00    -0.203 F 
ATOM     65  F   UNL A   1      43.289  24.266  34.100  1.00  0.00    -0.200 F 
ATOM     66  C   UNL A   1      42.223  25.405  35.862  1.00  0.00     0.200 A 
ATOM     67  F   UNL A   1      41.099  26.592  37.559  1.00  0.00    -0.200 F 
ATOM     68  F   UNL A   1      42.082  24.263  36.546  1.00  0.00    -0.200 F 
ENDBRANCH  44  58
BRANCH  45  69
ATOM     69  C   UNL A   1      43.430  24.890  26.318  1.00  0.00     0.064 A 
ATOM     70  C   UNL A   1      44.333  24.697  25.262  1.00  0.00     0.173 A 
ATOM     71  C   UNL A   1      42.824  23.730  26.842  1.00  0.00     0.173 A 
ATOM     72  F   UNL A   1      44.987  25.744  24.736  1.00  0.00    -0.203 F 
ATOM     73  C   UNL A   1      44.636  23.419  24.777  1.00  0.00     0.198 A 
ATOM     74  C   UNL A   1      43.124  22.457  26.356  1.00  0.00     0.198 A 
ATOM     75  F   UNL A   1      42.007  23.804  27.904  1.00  0.00    -0.203 F 
ATOM     76  F   UNL A   1      45.552  23.270  23.810  1.00  0.00    -0.200 F 
ATOM     77  C   UNL A   1      44.039  22.300  25.333  1.00  0.00     0.200 A 
ATOM     78  F   UNL A   1      42.572  21.379  26.932  1.00  0.00    -0.200 F 
ATOM     79  F   UNL A   1      44.379  21.072  24.916  1.00  0.00    -0.200 F 
ENDBRANCH  45  69
BRANCH  57  80
ATOM     80  C   UNL A   1      45.315  30.380  28.759  1.00  0.00     0.064 A 
ATOM     81  C   UNL A   1      44.382  31.022  27.923  1.00  0.00     0.173 A 
ATOM     82  C   UNL A   1      46.647  30.803  28.670  1.00  0.00     0.173 A 
ATOM     83  F   UNL A   1      43.077  30.750  28.011  1.00  0.00    -0.203 F 
ATOM     84  C   UNL A   1      44.774  32.007  27.017  1.00  0.00     0.198 A 
ATOM     85  C   UNL A   1      47.030  31.812  27.791  1.00  0.00     0.198 A 
ATOM     86  F   UNL A   1      47.574  30.269  29.480  1.00  0.00    -0.203 F 
ATOM     87  F   UNL A   1      43.863  32.595  26.226  1.00  0.00    -0.200 F 
ATOM     88  C   UNL A   1      46.097  32.407  26.956  1.00  0.00     0.200 A 
ATOM     89  F   UNL A   1      48.303  32.229  27.772  1.00  0.00    -0.200 F 
ATOM     90  F   UNL A   1      46.468  33.383  26.117  1.00  0.00    -0.200 F 
ENDBRANCH  57  80
ENDBRANCH  31  32
ENDBRANCH  23  26
ENDBRANCH  21  22
ENDBRANCH  20  21
ENDBRANCH   1  20
TORSDOF 13
ENDMDL
