MODEL 1
REMARK VINA RESULT:     -11.6      0.000      0.000
REMARK SMILES CCC[C@@H](C)C[C@H](C(=O)NCCCNC(=O)c1ccc(-c2c3nc(c(-c4c(F)c(F)c(F)c(F)c4F)c4ccc([nH]4)c(-c4c(F)c(F)c(F)c(F)c4F)c4nc(c(-c5c(F)c(F)c(F)c(F)c5F)c5ccc2[nH]5)C=C4)C=C3)cc1)c1ccccc1C
REMARK SMILES IDX 11 1 10 2 8 3 9 4 7 6 6 7 4 8 5 9 3 10 2 11 1 12 80 13 81 14
REMARK SMILES IDX 85 15 82 16 84 17 86 18 83 19 12 20 13 21 14 22 15 23 16 25
REMARK SMILES IDX 17 26 18 27 79 28 19 29 78 30 20 31 21 32 22 33 72 34 23 35
REMARK SMILES IDX 77 36 71 37 73 38 24 39 76 40 70 41 69 42 25 44 57 45 37 46
REMARK SMILES IDX 56 47 38 48 41 49 55 50 74 51 39 52 40 53 54 55 75 56 42 57
REMARK SMILES IDX 26 58 27 59 35 60 28 61 29 62 33 63 36 64 30 65 31 66 34 67
REMARK SMILES IDX 32 68 58 69 59 70 67 71 60 72 61 73 65 74 68 75 62 76 63 77
REMARK SMILES IDX 66 78 64 79 43 80 44 81 52 82 45 83 46 84 50 85 53 86 47 87
REMARK SMILES IDX 48 88 51 89 49 90
REMARK H PARENT 10 5 14 24 73 43 41 54
REMARK Flexibility Score: inf
ROOT
ATOM      1  C   UNL A   1      31.660  30.850  26.112  1.00  0.00     0.117 C 
ENDROOT
BRANCH   1   2
ATOM      2  N   UNL A   1      31.570  29.805  27.118  1.00  0.00    -0.356 N 
ATOM      3  C   UNL A   1      31.717  28.450  27.027  1.00  0.00     0.227 C 
ATOM      4  O   UNL A   1      31.568  27.794  28.062  1.00  0.00    -0.274 OA
ATOM      5  H   UNL A   1      31.366  30.131  28.025  1.00  0.00     0.163 HD
BRANCH   3   6
ATOM      6  C   UNL A   1      32.105  27.791  25.694  1.00  0.00     0.109 C 
BRANCH   6   7
ATOM      7  C   UNL A   1      33.119  26.679  26.043  1.00  0.00     0.021 C 
BRANCH   7   8
ATOM      8  C   UNL A   1      33.536  25.788  24.850  1.00  0.00    -0.013 C 
ATOM      9  C   UNL A   1      34.714  24.900  25.274  1.00  0.00     0.007 C 
BRANCH   8  10
ATOM     10  C   UNL A   1      33.913  26.643  23.619  1.00  0.00     0.003 C 
BRANCH  10  11
ATOM     11  C   UNL A   1      33.251  26.226  22.302  1.00  0.00    -0.003 C 
ATOM     12  C   UNL A   1      32.239  25.103  22.467  1.00  0.00     0.004 C 
ENDBRANCH  10  11
ENDBRANCH   8  10
ENDBRANCH   7   8
ENDBRANCH   6   7
BRANCH   6  13
ATOM     13  C   UNL A   1      30.852  27.529  24.848  1.00  0.00    -0.033 A 
ATOM     14  C   UNL A   1      30.609  28.504  23.846  1.00  0.00     0.005 A 
ATOM     15  C   UNL A   1      29.902  26.496  24.987  1.00  0.00    -0.047 A 
ATOM     16  C   UNL A   1      29.468  28.500  23.048  1.00  0.00     0.000 A 
ATOM     17  C   UNL A   1      28.748  26.509  24.169  1.00  0.00     0.004 A 
ATOM     18  C   UNL A   1      29.979  25.379  25.988  1.00  0.00     0.044 C 
ATOM     19  C   UNL A   1      28.528  27.500  23.215  1.00  0.00     0.000 A 
ENDBRANCH   6  13
ENDBRANCH   3   6
ENDBRANCH   1   2
BRANCH   1  20
ATOM     20  C   UNL A   1      31.425  32.237  26.701  1.00  0.00     0.042 C 
BRANCH  20  21
ATOM     21  C   UNL A   1      32.691  32.932  27.189  1.00  0.00     0.118 C 
BRANCH  21  22
ATOM     22  N   UNL A   1      32.444  34.288  27.656  1.00  0.00    -0.352 N 
ATOM     23  C   UNL A   1      33.013  34.991  28.689  1.00  0.00     0.251 C 
ATOM     24  H   UNL A   1      31.757  34.781  27.151  1.00  0.00     0.163 HD
ATOM     25  O   UNL A   1      32.526  36.064  29.031  1.00  0.00    -0.269 OA
BRANCH  23  26
ATOM     26  C   UNL A   1      34.192  34.458  29.409  1.00  0.00     0.039 A 
ATOM     27  C   UNL A   1      33.991  33.810  30.632  1.00  0.00     0.014 A 
ATOM     28  C   UNL A   1      35.487  34.617  28.911  1.00  0.00     0.014 A 
ATOM     29  C   UNL A   1      35.079  33.264  31.316  1.00  0.00     0.010 A 
ATOM     30  C   UNL A   1      36.559  34.000  29.550  1.00  0.00     0.010 A 
ATOM     31  C   UNL A   1      36.368  33.320  30.762  1.00  0.00    -0.014 A 
BRANCH  31  32
ATOM     32  C   UNL A   1      37.520  32.662  31.431  1.00  0.00     0.031 A 
ATOM     33  C   UNL A   1      38.216  31.497  30.783  1.00  0.00     0.074 A 
ATOM     34  C   UNL A   1      37.896  33.071  32.659  1.00  0.00     0.049 A 
ATOM     35  N   UNL A   1      39.197  30.759  31.240  1.00  0.00    -0.248 NA
ATOM     36  C   UNL A   1      37.725  31.087  29.459  1.00  0.00     0.031 C 
ATOM     37  C   UNL A   1      37.264  34.149  33.419  1.00  0.00     0.029 A 
ATOM     38  N   UNL A   1      38.890  32.618  33.490  1.00  0.00    -0.354 N 
ATOM     39  C   UNL A   1      39.426  29.792  30.271  1.00  0.00     0.074 A 
ATOM     40  C   UNL A   1      38.448  30.002  29.225  1.00  0.00     0.031 C 
ATOM     41  C   UNL A   1      37.894  34.287  34.595  1.00  0.00     0.029 A 
ATOM     42  C   UNL A   1      38.947  33.281  34.691  1.00  0.00     0.049 A 
ATOM     43  H   UNL A   1      39.504  31.887  33.248  1.00  0.00     0.167 HD
ATOM     44  C   UNL A   1      40.379  28.828  30.246  1.00  0.00     0.037 A 
ATOM     45  C   UNL A   1      39.749  33.094  35.757  1.00  0.00     0.037 A 
ATOM     46  C   UNL A   1      41.365  28.639  31.279  1.00  0.00     0.049 A 
ATOM     47  C   UNL A   1      40.804  32.022  35.704  1.00  0.00     0.074 A 
ATOM     48  C   UNL A   1      42.421  27.746  31.308  1.00  0.00     0.029 A 
ATOM     49  N   UNL A   1      41.407  29.347  32.471  1.00  0.00    -0.354 N 
ATOM     50  N   UNL A   1      41.069  31.170  34.742  1.00  0.00    -0.248 NA
ATOM     51  C   UNL A   1      41.676  31.892  36.878  1.00  0.00     0.031 C 
ATOM     52  C   UNL A   1      43.066  27.871  32.543  1.00  0.00     0.029 A 
ATOM     53  C   UNL A   1      42.452  28.887  33.259  1.00  0.00     0.049 A 
ATOM     54  H   UNL A   1      40.787  30.070  32.721  1.00  0.00     0.167 HD
ATOM     55  C   UNL A   1      42.150  30.420  35.185  1.00  0.00     0.074 A 
ATOM     56  C   UNL A   1      42.504  30.931  36.493  1.00  0.00     0.031 C 
ATOM     57  C   UNL A   1      42.792  29.401  34.561  1.00  0.00     0.037 A 
BRANCH  44  58
ATOM     58  C   UNL A   1      40.396  27.896  29.066  1.00  0.00     0.064 A 
ATOM     59  C   UNL A   1      41.187  28.148  27.934  1.00  0.00     0.173 A 
ATOM     60  C   UNL A   1      39.635  26.718  29.082  1.00  0.00     0.173 A 
ATOM     61  F   UNL A   1      41.928  29.264  27.862  1.00  0.00    -0.203 F 
ATOM     62  C   UNL A   1      41.185  27.275  26.850  1.00  0.00     0.198 A 
ATOM     63  C   UNL A   1      39.662  25.830  28.010  1.00  0.00     0.198 A 
ATOM     64  F   UNL A   1      38.867  26.423  30.143  1.00  0.00    -0.203 F 
ATOM     65  F   UNL A   1      41.903  27.567  25.756  1.00  0.00    -0.200 F 
ATOM     66  C   UNL A   1      40.429  26.113  26.890  1.00  0.00     0.200 A 
ATOM     67  F   UNL A   1      38.943  24.700  28.060  1.00  0.00    -0.200 F 
ATOM     68  F   UNL A   1      40.433  25.272  25.848  1.00  0.00    -0.200 F 
ENDBRANCH  44  58
BRANCH  45  69
ATOM     69  C   UNL A   1      39.589  33.952  36.961  1.00  0.00     0.064 A 
ATOM     70  C   UNL A   1      40.180  35.221  37.028  1.00  0.00     0.173 A 
ATOM     71  C   UNL A   1      38.829  33.526  38.060  1.00  0.00     0.173 A 
ATOM     72  F   UNL A   1      40.931  35.664  36.009  1.00  0.00    -0.203 F 
ATOM     73  C   UNL A   1      40.033  36.024  38.157  1.00  0.00     0.198 A 
ATOM     74  C   UNL A   1      38.656  34.344  39.175  1.00  0.00     0.198 A 
ATOM     75  F   UNL A   1      38.235  32.324  38.042  1.00  0.00    -0.203 F 
ATOM     76  F   UNL A   1      40.645  37.215  38.213  1.00  0.00    -0.200 F 
ATOM     77  C   UNL A   1      39.265  35.589  39.227  1.00  0.00     0.200 A 
ATOM     78  F   UNL A   1      37.898  33.926  40.199  1.00  0.00    -0.200 F 
ATOM     79  F   UNL A   1      39.115  36.366  40.307  1.00  0.00    -0.200 F 
ENDBRANCH  45  69
BRANCH  57  80
ATOM     80  C   UNL A   1      43.961  28.784  35.275  1.00  0.00     0.064 A 
ATOM     81  C   UNL A   1      43.805  27.692  36.143  1.00  0.00     0.173 A 
ATOM     82  C   UNL A   1      45.261  29.267  35.058  1.00  0.00     0.173 A 
ATOM     83  F   UNL A   1      42.583  27.201  36.397  1.00  0.00    -0.203 F 
ATOM     84  C   UNL A   1      44.902  27.127  36.788  1.00  0.00     0.198 A 
ATOM     85  C   UNL A   1      46.359  28.679  35.678  1.00  0.00     0.198 A 
ATOM     86  F   UNL A   1      45.467  30.305  34.233  1.00  0.00    -0.203 F 
ATOM     87  F   UNL A   1      44.723  26.120  37.653  1.00  0.00    -0.200 F 
ATOM     88  C   UNL A   1      46.178  27.615  36.548  1.00  0.00     0.200 A 
ATOM     89  F   UNL A   1      47.593  29.141  35.433  1.00  0.00    -0.200 F 
ATOM     90  F   UNL A   1      47.234  27.065  37.163  1.00  0.00    -0.200 F 
ENDBRANCH  57  80
ENDBRANCH  31  32
ENDBRANCH  23  26
ENDBRANCH  21  22
ENDBRANCH  20  21
ENDBRANCH   1  20
TORSDOF 15
ENDMDL
MODEL 2
REMARK VINA RESULT:     -11.5      5.324     10.256
REMARK SMILES CCC[C@@H](C)C[C@H](C(=O)NCCCNC(=O)c1ccc(-c2c3nc(c(-c4c(F)c(F)c(F)c(F)c4F)c4ccc([nH]4)c(-c4c(F)c(F)c(F)c(F)c4F)c4nc(c(-c5c(F)c(F)c(F)c(F)c5F)c5ccc2[nH]5)C=C4)C=C3)cc1)c1ccccc1C
REMARK SMILES IDX 11 1 10 2 8 3 9 4 7 6 6 7 4 8 5 9 3 10 2 11 1 12 80 13 81 14
REMARK SMILES IDX 85 15 82 16 84 17 86 18 83 19 12 20 13 21 14 22 15 23 16 25
REMARK SMILES IDX 17 26 18 27 79 28 19 29 78 30 20 31 21 32 22 33 72 34 23 35
REMARK SMILES IDX 77 36 71 37 73 38 24 39 76 40 70 41 69 42 25 44 57 45 37 46
REMARK SMILES IDX 56 47 38 48 41 49 55 50 74 51 39 52 40 53 54 55 75 56 42 57
REMARK SMILES IDX 26 58 27 59 35 60 28 61 29 62 33 63 36 64 30 65 31 66 34 67
REMARK SMILES IDX 32 68 58 69 59 70 67 71 60 72 61 73 65 74 68 75 62 76 63 77
REMARK SMILES IDX 66 78 64 79 43 80 44 81 52 82 45 83 46 84 50 85 53 86 47 87
REMARK SMILES IDX 48 88 51 89 49 90
REMARK H PARENT 10 5 14 24 73 43 41 54
REMARK Flexibility Score: inf
ROOT
ATOM      1  C   UNL A   1      42.456  22.297  25.481  1.00  0.00     0.117 C 
ENDROOT
BRANCH   1   2
ATOM      2  N   UNL A   1      43.899  22.121  25.513  1.00  0.00    -0.356 N 
ATOM      3  C   UNL A   1      44.867  22.741  26.250  1.00  0.00     0.227 C 
ATOM      4  O   UNL A   1      46.035  22.394  26.054  1.00  0.00    -0.274 OA
ATOM      5  H   UNL A   1      44.237  21.434  24.893  1.00  0.00     0.163 HD
BRANCH   3   6
ATOM      6  C   UNL A   1      44.495  23.787  27.311  1.00  0.00     0.109 C 
BRANCH   6   7
ATOM      7  C   UNL A   1      44.850  23.158  28.678  1.00  0.00     0.021 C 
BRANCH   7   8
ATOM      8  C   UNL A   1      43.646  22.955  29.627  1.00  0.00    -0.013 C 
ATOM      9  C   UNL A   1      42.466  23.801  29.131  1.00  0.00     0.007 C 
BRANCH   8  10
ATOM     10  C   UNL A   1      44.012  23.330  31.081  1.00  0.00     0.003 C 
BRANCH  10  11
ATOM     11  C   UNL A   1      44.694  24.691  31.258  1.00  0.00    -0.003 C 
ATOM     12  C   UNL A   1      45.219  24.921  32.666  1.00  0.00     0.004 C 
ENDBRANCH  10  11
ENDBRANCH   8  10
ENDBRANCH   7   8
ENDBRANCH   6   7
BRANCH   6  13
ATOM     13  C   UNL A   1      44.996  25.174  26.887  1.00  0.00    -0.033 A 
ATOM     14  C   UNL A   1      44.180  25.819  25.922  1.00  0.00     0.005 A 
ATOM     15  C   UNL A   1      46.175  25.838  27.284  1.00  0.00    -0.047 A 
ATOM     16  C   UNL A   1      44.522  27.035  25.334  1.00  0.00     0.000 A 
ATOM     17  C   UNL A   1      46.507  27.072  26.676  1.00  0.00     0.004 A 
ATOM     18  C   UNL A   1      47.166  25.318  28.285  1.00  0.00     0.044 C 
ATOM     19  C   UNL A   1      45.696  27.662  25.709  1.00  0.00     0.000 A 
ENDBRANCH   6  13
ENDBRANCH   3   6
ENDBRANCH   1   2
BRANCH   1  20
ATOM     20  C   UNL A   1      41.728  21.216  26.273  1.00  0.00     0.042 C 
BRANCH  20  21
ATOM     21  C   UNL A   1      40.505  21.714  27.035  1.00  0.00     0.118 C 
BRANCH  21  22
ATOM     22  N   UNL A   1      39.438  22.161  26.154  1.00  0.00    -0.352 N 
ATOM     23  C   UNL A   1      38.814  23.381  26.058  1.00  0.00     0.251 C 
ATOM     24  H   UNL A   1      39.108  21.479  25.524  1.00  0.00     0.163 HD
ATOM     25  O   UNL A   1      37.805  23.491  25.368  1.00  0.00    -0.269 OA
BRANCH  23  26
ATOM     26  C   UNL A   1      39.331  24.556  26.795  1.00  0.00     0.039 A 
ATOM     27  C   UNL A   1      40.181  25.443  26.127  1.00  0.00     0.014 A 
ATOM     28  C   UNL A   1      39.014  24.775  28.137  1.00  0.00     0.014 A 
ATOM     29  C   UNL A   1      40.654  26.580  26.784  1.00  0.00     0.010 A 
ATOM     30  C   UNL A   1      39.417  25.951  28.764  1.00  0.00     0.010 A 
ATOM     31  C   UNL A   1      40.245  26.865  28.097  1.00  0.00    -0.014 A 
BRANCH  31  32
ATOM     32  C   UNL A   1      40.664  28.118  28.776  1.00  0.00     0.031 A 
ATOM     33  C   UNL A   1      42.072  28.282  29.276  1.00  0.00     0.074 A 
ATOM     34  C   UNL A   1      39.753  29.084  29.006  1.00  0.00     0.049 A 
ATOM     35  N   UNL A   1      42.605  29.275  29.943  1.00  0.00    -0.248 NA
ATOM     36  C   UNL A   1      42.999  27.169  29.018  1.00  0.00     0.031 C 
ATOM     37  C   UNL A   1      38.342  29.020  28.624  1.00  0.00     0.029 A 
ATOM     38  N   UNL A   1      39.873  30.301  29.629  1.00  0.00    -0.354 N 
ATOM     39  C   UNL A   1      43.916  28.899  30.199  1.00  0.00     0.074 A 
ATOM     40  C   UNL A   1      44.086  27.566  29.663  1.00  0.00     0.031 C 
ATOM     41  C   UNL A   1      37.731  30.153  29.005  1.00  0.00     0.029 A 
ATOM     42  C   UNL A   1      38.696  31.005  29.694  1.00  0.00     0.049 A 
ATOM     43  H   UNL A   1      40.723  30.638  29.995  1.00  0.00     0.167 HD
ATOM     44  C   UNL A   1      44.897  29.610  30.808  1.00  0.00     0.037 A 
ATOM     45  C   UNL A   1      38.419  32.198  30.255  1.00  0.00     0.037 A 
ATOM     46  C   UNL A   1      44.729  30.946  31.320  1.00  0.00     0.049 A 
ATOM     47  C   UNL A   1      39.525  32.972  30.919  1.00  0.00     0.074 A 
ATOM     48  C   UNL A   1      45.680  31.781  31.879  1.00  0.00     0.029 A 
ATOM     49  N   UNL A   1      43.527  31.638  31.344  1.00  0.00    -0.354 N 
ATOM     50  N   UNL A   1      40.785  32.643  31.077  1.00  0.00    -0.248 NA
ATOM     51  C   UNL A   1      39.173  34.284  31.476  1.00  0.00     0.031 C 
ATOM     52  C   UNL A   1      45.042  32.953  32.297  1.00  0.00     0.029 A 
ATOM     53  C   UNL A   1      43.705  32.877  31.942  1.00  0.00     0.049 A 
ATOM     54  H   UNL A   1      42.672  31.300  30.990  1.00  0.00     0.167 HD
ATOM     55  C   UNL A   1      41.380  33.715  31.727  1.00  0.00     0.074 A 
ATOM     56  C   UNL A   1      40.347  34.712  31.918  1.00  0.00     0.031 C 
ATOM     57  C   UNL A   1      42.668  33.859  32.130  1.00  0.00     0.037 A 
BRANCH  44  58
ATOM     58  C   UNL A   1      46.239  28.952  30.965  1.00  0.00     0.064 A 
ATOM     59  C   UNL A   1      46.599  28.273  32.141  1.00  0.00     0.173 A 
ATOM     60  C   UNL A   1      47.167  28.971  29.913  1.00  0.00     0.173 A 
ATOM     61  F   UNL A   1      45.754  28.230  33.182  1.00  0.00    -0.203 F 
ATOM     62  C   UNL A   1      47.849  27.674  32.269  1.00  0.00     0.198 A 
ATOM     63  C   UNL A   1      48.403  28.341  30.032  1.00  0.00     0.198 A 
ATOM     64  F   UNL A   1      46.872  29.597  28.763  1.00  0.00    -0.203 F 
ATOM     65  F   UNL A   1      48.192  27.083  33.422  1.00  0.00    -0.200 F 
ATOM     66  C   UNL A   1      48.747  27.701  31.213  1.00  0.00     0.200 A 
ATOM     67  F   UNL A   1      49.262  28.354  29.003  1.00  0.00    -0.200 F 
ATOM     68  F   UNL A   1      49.947  27.119  31.336  1.00  0.00    -0.200 F 
ENDBRANCH  44  58
BRANCH  45  69
ATOM     69  C   UNL A   1      37.034  32.735  30.199  1.00  0.00     0.064 A 
ATOM     70  C   UNL A   1      36.583  33.459  29.086  1.00  0.00     0.173 A 
ATOM     71  C   UNL A   1      36.130  32.523  31.250  1.00  0.00     0.173 A 
ATOM     72  F   UNL A   1      37.416  33.704  28.064  1.00  0.00    -0.203 F 
ATOM     73  C   UNL A   1      35.286  33.966  29.035  1.00  0.00     0.198 A 
ATOM     74  C   UNL A   1      34.823  33.003  31.183  1.00  0.00     0.198 A 
ATOM     75  F   UNL A   1      36.508  31.830  32.333  1.00  0.00    -0.203 F 
ATOM     76  F   UNL A   1      34.895  34.691  27.979  1.00  0.00    -0.200 F 
ATOM     77  C   UNL A   1      34.405  33.731  30.079  1.00  0.00     0.200 A 
ATOM     78  F   UNL A   1      33.970  32.758  32.187  1.00  0.00    -0.200 F 
ATOM     79  F   UNL A   1      33.155  34.209  30.025  1.00  0.00    -0.200 F 
ENDBRANCH  45  69
BRANCH  57  80
ATOM     80  C   UNL A   1      43.040  35.154  32.795  1.00  0.00     0.064 A 
ATOM     81  C   UNL A   1      43.500  36.257  32.060  1.00  0.00     0.173 A 
ATOM     82  C   UNL A   1      42.899  35.305  34.183  1.00  0.00     0.173 A 
ATOM     83  F   UNL A   1      43.669  36.161  30.733  1.00  0.00    -0.203 F 
ATOM     84  C   UNL A   1      43.831  37.452  32.694  1.00  0.00     0.198 A 
ATOM     85  C   UNL A   1      43.197  36.511  34.809  1.00  0.00     0.198 A 
ATOM     86  F   UNL A   1      42.456  34.283  34.933  1.00  0.00    -0.203 F 
ATOM     87  F   UNL A   1      44.319  38.475  31.978  1.00  0.00    -0.200 F 
ATOM     88  C   UNL A   1      43.671  37.581  34.065  1.00  0.00     0.200 A 
ATOM     89  F   UNL A   1      43.027  36.639  36.132  1.00  0.00    -0.200 F 
ATOM     90  F   UNL A   1      43.983  38.735  34.672  1.00  0.00    -0.200 F 
ENDBRANCH  57  80
ENDBRANCH  31  32
ENDBRANCH  23  26
ENDBRANCH  21  22
ENDBRANCH  20  21
ENDBRANCH   1  20
TORSDOF 15
ENDMDL
MODEL 3
REMARK VINA RESULT:     -11.4      6.067     11.273
REMARK SMILES CCC[C@@H](C)C[C@H](C(=O)NCCCNC(=O)c1ccc(-c2c3nc(c(-c4c(F)c(F)c(F)c(F)c4F)c4ccc([nH]4)c(-c4c(F)c(F)c(F)c(F)c4F)c4nc(c(-c5c(F)c(F)c(F)c(F)c5F)c5ccc2[nH]5)C=C4)C=C3)cc1)c1ccccc1C
REMARK SMILES IDX 11 1 10 2 8 3 9 4 7 6 6 7 4 8 5 9 3 10 2 11 1 12 80 13 81 14
REMARK SMILES IDX 85 15 82 16 84 17 86 18 83 19 12 20 13 21 14 22 15 23 16 25
REMARK SMILES IDX 17 26 18 27 79 28 19 29 78 30 20 31 21 32 22 33 72 34 23 35
REMARK SMILES IDX 77 36 71 37 73 38 24 39 76 40 70 41 69 42 25 44 57 45 37 46
REMARK SMILES IDX 56 47 38 48 41 49 55 50 74 51 39 52 40 53 54 55 75 56 42 57
REMARK SMILES IDX 26 58 27 59 35 60 28 61 29 62 33 63 36 64 30 65 31 66 34 67
REMARK SMILES IDX 32 68 58 69 59 70 67 71 60 72 61 73 65 74 68 75 62 76 63 77
REMARK SMILES IDX 66 78 64 79 43 80 44 81 52 82 45 83 46 84 50 85 53 86 47 87
REMARK SMILES IDX 48 88 51 89 49 90
REMARK H PARENT 10 5 14 24 73 43 41 54
REMARK Flexibility Score: inf
ROOT
ATOM      1  C   UNL A   1      36.795  20.331  24.904  1.00  0.00     0.117 C 
ENDROOT
BRANCH   1   2
ATOM      2  N   UNL A   1      37.019  21.766  24.850  1.00  0.00    -0.356 N 
ATOM      3  C   UNL A   1      36.191  22.820  25.114  1.00  0.00     0.227 C 
ATOM      4  O   UNL A   1      36.654  23.954  24.967  1.00  0.00    -0.274 OA
ATOM      5  H   UNL A   1      37.928  22.024  24.572  1.00  0.00     0.163 HD
BRANCH   3   6
ATOM      6  C   UNL A   1      34.761  22.584  25.625  1.00  0.00     0.109 C 
BRANCH   6   7
ATOM      7  C   UNL A   1      34.382  23.842  26.438  1.00  0.00     0.021 C 
BRANCH   7   8
ATOM      8  C   UNL A   1      33.329  24.753  25.765  1.00  0.00    -0.013 C 
ATOM      9  C   UNL A   1      33.881  26.183  25.685  1.00  0.00     0.007 C 
BRANCH   8  10
ATOM     10  C   UNL A   1      31.991  24.727  26.539  1.00  0.00     0.003 C 
BRANCH  10  11
ATOM     11  C   UNL A   1      30.816  24.082  25.797  1.00  0.00    -0.003 C 
ATOM     12  C   UNL A   1      30.583  22.631  26.186  1.00  0.00     0.004 C 
ENDBRANCH  10  11
ENDBRANCH   8  10
ENDBRANCH   7   8
ENDBRANCH   6   7
BRANCH   6  13
ATOM     13  C   UNL A   1      33.879  22.035  24.496  1.00  0.00    -0.033 A 
ATOM     14  C   UNL A   1      33.757  22.900  23.377  1.00  0.00     0.005 A 
ATOM     15  C   UNL A   1      33.142  20.833  24.466  1.00  0.00    -0.047 A 
ATOM     16  C   UNL A   1      32.917  22.628  22.300  1.00  0.00     0.000 A 
ATOM     17  C   UNL A   1      32.293  20.574  23.364  1.00  0.00     0.004 A 
ATOM     18  C   UNL A   1      33.135  19.795  25.551  1.00  0.00     0.044 C 
ATOM     19  C   UNL A   1      32.175  21.461  22.296  1.00  0.00     0.000 A 
ENDBRANCH   6  13
ENDBRANCH   3   6
ENDBRANCH   1   2
BRANCH   1  20
ATOM     20  C   UNL A   1      38.093  19.541  24.770  1.00  0.00     0.042 C 
BRANCH  20  21
ATOM     21  C   UNL A   1      39.214  20.019  25.685  1.00  0.00     0.118 C 
BRANCH  21  22
ATOM     22  N   UNL A   1      40.261  19.024  25.858  1.00  0.00    -0.352 N 
ATOM     23  C   UNL A   1      41.603  19.178  26.108  1.00  0.00     0.251 C 
ATOM     24  H   UNL A   1      39.960  18.089  25.783  1.00  0.00     0.163 HD
ATOM     25  O   UNL A   1      42.347  18.205  26.033  1.00  0.00    -0.269 OA
BRANCH  23  26
ATOM     26  C   UNL A   1      42.164  20.507  26.441  1.00  0.00     0.039 A 
ATOM     27  C   UNL A   1      42.681  21.293  25.407  1.00  0.00     0.014 A 
ATOM     28  C   UNL A   1      42.213  20.970  27.758  1.00  0.00     0.014 A 
ATOM     29  C   UNL A   1      43.183  22.565  25.686  1.00  0.00     0.010 A 
ATOM     30  C   UNL A   1      42.634  22.270  28.023  1.00  0.00     0.010 A 
ATOM     31  C   UNL A   1      43.128  23.082  26.990  1.00  0.00    -0.014 A 
BRANCH  31  32
ATOM     32  C   UNL A   1      43.570  24.469  27.286  1.00  0.00     0.031 A 
ATOM     33  C   UNL A   1      42.588  25.494  27.783  1.00  0.00     0.074 A 
ATOM     34  C   UNL A   1      44.846  24.826  27.038  1.00  0.00     0.049 A 
ATOM     35  N   UNL A   1      42.774  26.765  28.037  1.00  0.00    -0.248 NA
ATOM     36  C   UNL A   1      41.206  25.037  27.995  1.00  0.00     0.031 C 
ATOM     37  C   UNL A   1      45.879  23.941  26.500  1.00  0.00     0.029 A 
ATOM     38  N   UNL A   1      45.487  26.029  27.193  1.00  0.00    -0.354 N 
ATOM     39  C   UNL A   1      41.535  27.260  28.419  1.00  0.00     0.074 A 
ATOM     40  C   UNL A   1      40.593  26.167  28.312  1.00  0.00     0.031 C 
ATOM     41  C   UNL A   1      47.027  24.625  26.384  1.00  0.00     0.029 A 
ATOM     42  C   UNL A   1      46.803  26.006  26.801  1.00  0.00     0.049 A 
ATOM     43  H   UNL A   1      45.045  26.833  27.551  1.00  0.00     0.167 HD
ATOM     44  C   UNL A   1      41.216  28.509  28.839  1.00  0.00     0.037 A 
ATOM     45  C   UNL A   1      47.724  26.988  26.769  1.00  0.00     0.037 A 
ATOM     46  C   UNL A   1      42.163  29.587  28.965  1.00  0.00     0.049 A 
ATOM     47  C   UNL A   1      47.348  28.364  27.247  1.00  0.00     0.074 A 
ATOM     48  C   UNL A   1      41.955  30.862  29.459  1.00  0.00     0.029 A 
ATOM     49  N   UNL A   1      43.494  29.518  28.583  1.00  0.00    -0.354 N 
ATOM     50  N   UNL A   1      46.193  28.798  27.691  1.00  0.00    -0.248 NA
ATOM     51  C   UNL A   1      48.406  29.383  27.229  1.00  0.00     0.031 C 
ATOM     52  C   UNL A   1      43.145  31.584  29.319  1.00  0.00     0.029 A 
ATOM     53  C   UNL A   1      44.112  30.741  28.797  1.00  0.00     0.049 A 
ATOM     54  H   UNL A   1      43.936  28.719  28.213  1.00  0.00     0.167 HD
ATOM     55  C   UNL A   1      46.390  30.131  28.026  1.00  0.00     0.074 A 
ATOM     56  C   UNL A   1      47.780  30.428  27.752  1.00  0.00     0.031 C 
ATOM     57  C   UNL A   1      45.497  31.026  28.517  1.00  0.00     0.037 A 
BRANCH  44  58
ATOM     58  C   UNL A   1      39.778  28.780  29.185  1.00  0.00     0.064 A 
ATOM     59  C   UNL A   1      38.866  29.265  28.234  1.00  0.00     0.173 A 
ATOM     60  C   UNL A   1      39.297  28.520  30.478  1.00  0.00     0.173 A 
ATOM     61  F   UNL A   1      39.273  29.539  26.986  1.00  0.00    -0.203 F 
ATOM     62  C   UNL A   1      37.539  29.516  28.576  1.00  0.00     0.198 A 
ATOM     63  C   UNL A   1      37.962  28.739  30.806  1.00  0.00     0.198 A 
ATOM     64  F   UNL A   1      40.123  28.047  31.424  1.00  0.00    -0.203 F 
ATOM     65  F   UNL A   1      36.702  30.034  27.667  1.00  0.00    -0.200 F 
ATOM     66  C   UNL A   1      37.086  29.246  29.858  1.00  0.00     0.200 A 
ATOM     67  F   UNL A   1      37.523  28.461  32.041  1.00  0.00    -0.200 F 
ATOM     68  F   UNL A   1      35.808  29.481  30.183  1.00  0.00    -0.200 F 
ENDBRANCH  44  58
BRANCH  45  69
ATOM     69  C   UNL A   1      49.096  26.696  26.275  1.00  0.00     0.064 A 
ATOM     70  C   UNL A   1      50.079  26.181  27.131  1.00  0.00     0.173 A 
ATOM     71  C   UNL A   1      49.446  26.913  24.934  1.00  0.00     0.173 A 
ATOM     72  F   UNL A   1      49.797  25.974  28.426  1.00  0.00    -0.203 F 
ATOM     73  C   UNL A   1      51.365  25.910  26.670  1.00  0.00     0.198 A 
ATOM     74  C   UNL A   1      50.724  26.612  24.467  1.00  0.00     0.198 A 
ATOM     75  F   UNL A   1      48.541  27.396  24.072  1.00  0.00    -0.203 F 
ATOM     76  F   UNL A   1      52.298  25.459  27.519  1.00  0.00    -0.200 F 
ATOM     77  C   UNL A   1      51.685  26.119  25.336  1.00  0.00     0.200 A 
ATOM     78  F   UNL A   1      51.023  26.798  23.174  1.00  0.00    -0.200 F 
ATOM     79  F   UNL A   1      52.919  25.848  24.891  1.00  0.00    -0.200 F 
ENDBRANCH  45  69
BRANCH  57  80
ATOM     80  C   UNL A   1      46.002  32.409  28.815  1.00  0.00     0.064 A 
ATOM     81  C   UNL A   1      46.579  32.735  30.051  1.00  0.00     0.173 A 
ATOM     82  C   UNL A   1      45.943  33.413  27.835  1.00  0.00     0.173 A 
ATOM     83  F   UNL A   1      46.647  31.817  31.028  1.00  0.00    -0.203 F 
ATOM     84  C   UNL A   1      47.051  34.020  30.306  1.00  0.00     0.198 A 
ATOM     85  C   UNL A   1      46.446  34.687  28.081  1.00  0.00     0.198 A 
ATOM     86  F   UNL A   1      45.406  33.154  26.632  1.00  0.00    -0.203 F 
ATOM     87  F   UNL A   1      47.550  34.323  31.512  1.00  0.00    -0.200 F 
ATOM     88  C   UNL A   1      46.992  34.992  29.318  1.00  0.00     0.200 A 
ATOM     89  F   UNL A   1      46.403  35.620  27.119  1.00  0.00    -0.200 F 
ATOM     90  F   UNL A   1      47.455  36.226  29.561  1.00  0.00    -0.200 F 
ENDBRANCH  57  80
ENDBRANCH  31  32
ENDBRANCH  23  26
ENDBRANCH  21  22
ENDBRANCH  20  21
ENDBRANCH   1  20
TORSDOF 15
ENDMDL
