MODEL 1
REMARK VINA RESULT:     -13.0      0.000      0.000
REMARK SMILES C[C@@H](C(=O)NCCCNC(=O)c1ccc(-c2c3nc(c(-c4c(F)c(F)c(F)c(F)c4F)c4ccc([nH]4)c(-c4c(F)c(F)c(F)c(F)c4F)c4nc(c(-c5c(F)c(F)c(F)c(F)c5F)c5ccc2[nH]5)C=C4)C=C3)cc1)N1C(=O)/C(=C/c2ccc(F)cc2)SC1=S
REMARK SMILES IDX 7 1 6 2 5 3 3 4 4 5 2 7 1 8 75 9 76 10 88 11 77 12 78 13
REMARK SMILES IDX 87 14 89 15 79 16 80 17 81 18 86 19 82 20 85 21 83 22 84 23
REMARK SMILES IDX 8 24 9 25 10 26 11 28 12 29 13 30 74 31 14 32 73 33 15 34
REMARK SMILES IDX 16 35 17 36 67 37 18 38 72 39 66 40 68 41 19 42 71 43 65 44
REMARK SMILES IDX 64 45 20 47 52 48 32 49 51 50 33 51 36 52 50 53 69 54 34 55
REMARK SMILES IDX 35 56 49 58 70 59 37 60 21 61 22 62 30 63 23 64 24 65 28 66
REMARK SMILES IDX 31 67 25 68 26 69 29 70 27 71 53 72 54 73 62 74 55 75 56 76
REMARK SMILES IDX 60 77 63 78 57 79 58 80 61 81 59 82 38 83 39 84 47 85 40 86
REMARK SMILES IDX 41 87 45 88 48 89 42 90 43 91 46 92 44 93
REMARK H PARENT 5 6 9 27 68 46 36 57
REMARK Flexibility Score: inf
ROOT
ATOM      1  C   UNL A   1      32.992  28.759  23.495  1.00  0.00     0.042 C 
ENDROOT
BRANCH   1   2
ATOM      2  C   UNL A   1      32.264  27.421  23.377  1.00  0.00     0.117 C 
BRANCH   2   3
ATOM      3  N   UNL A   1      33.094  26.433  22.716  1.00  0.00    -0.354 N 
ATOM      4  C   UNL A   1      33.671  25.300  23.209  1.00  0.00     0.242 C 
ATOM      5  O   UNL A   1      34.403  24.663  22.447  1.00  0.00    -0.273 OA
ATOM      6  H   UNL A   1      33.268  26.607  21.763  1.00  0.00     0.163 HD
BRANCH   4   7
ATOM      7  C   UNL A   1      33.378  24.836  24.651  1.00  0.00     0.178 C 
ATOM      8  C   UNL A   1      34.022  25.699  25.734  1.00  0.00     0.042 C 
BRANCH   7   9
ATOM      9  N   UNL A   1      33.694  23.391  24.726  1.00  0.00    -0.281 N 
ATOM     10  C   UNL A   1      32.697  22.519  24.303  1.00  0.00     0.266 C 
ATOM     11  C   UNL A   1      34.921  22.814  24.995  1.00  0.00     0.149 C 
ATOM     12  O   UNL A   1      31.584  22.837  23.907  1.00  0.00    -0.268 OA
ATOM     13  C   UNL A   1      33.154  21.111  24.405  1.00  0.00     0.081 C 
ATOM     14  S   UNL A   1      34.777  21.060  24.956  1.00  0.00    -0.054 SA
ATOM     15  S   UNL A   1      36.391  23.521  25.348  1.00  0.00    -0.052 S 
ATOM     16  C   UNL A   1      32.358  20.071  24.117  1.00  0.00     0.029 C 
BRANCH  16  17
ATOM     17  C   UNL A   1      32.725  18.667  24.327  1.00  0.00    -0.024 A 
ATOM     18  C   UNL A   1      33.279  17.908  23.289  1.00  0.00     0.011 A 
ATOM     19  C   UNL A   1      32.528  18.080  25.587  1.00  0.00     0.011 A 
ATOM     20  C   UNL A   1      33.653  16.582  23.520  1.00  0.00     0.040 A 
ATOM     21  C   UNL A   1      32.907  16.758  25.815  1.00  0.00     0.040 A 
ATOM     22  C   UNL A   1      33.468  16.022  24.780  1.00  0.00     0.123 A 
ATOM     23  F   UNL A   1      33.840  14.754  25.001  1.00  0.00    -0.207 F 
ENDBRANCH  16  17
ENDBRANCH   7   9
ENDBRANCH   4   7
ENDBRANCH   2   3
ENDBRANCH   1   2
BRANCH   1  24
ATOM     24  C   UNL A   1      33.495  29.053  24.905  1.00  0.00     0.118 C 
BRANCH  24  25
ATOM     25  N   UNL A   1      32.870  30.236  25.479  1.00  0.00    -0.352 N 
ATOM     26  C   UNL A   1      33.155  30.912  26.638  1.00  0.00     0.251 C 
ATOM     27  H   UNL A   1      32.124  30.607  24.955  1.00  0.00     0.163 HD
ATOM     28  O   UNL A   1      32.375  31.768  27.045  1.00  0.00    -0.269 OA
BRANCH  26  29
ATOM     29  C   UNL A   1      34.384  30.615  27.406  1.00  0.00     0.039 A 
ATOM     30  C   UNL A   1      35.302  31.646  27.626  1.00  0.00     0.014 A 
ATOM     31  C   UNL A   1      34.661  29.325  27.866  1.00  0.00     0.014 A 
ATOM     32  C   UNL A   1      36.472  31.394  28.346  1.00  0.00     0.010 A 
ATOM     33  C   UNL A   1      35.786  29.094  28.654  1.00  0.00     0.010 A 
ATOM     34  C   UNL A   1      36.711  30.122  28.890  1.00  0.00    -0.014 A 
BRANCH  34  35
ATOM     35  C   UNL A   1      37.934  29.843  29.687  1.00  0.00     0.031 A 
ATOM     36  C   UNL A   1      38.988  28.913  29.153  1.00  0.00     0.074 A 
ATOM     37  C   UNL A   1      38.069  30.380  30.914  1.00  0.00     0.049 A 
ATOM     38  N   UNL A   1      40.094  28.499  29.720  1.00  0.00    -0.248 NA
ATOM     39  C   UNL A   1      38.756  28.352  27.813  1.00  0.00     0.031 C 
ATOM     40  C   UNL A   1      37.099  31.266  31.560  1.00  0.00     0.029 A 
ATOM     41  N   UNL A   1      39.072  30.254  31.842  1.00  0.00    -0.354 N 
ATOM     42  C   UNL A   1      40.675  27.618  28.816  1.00  0.00     0.074 A 
ATOM     43  C   UNL A   1      39.773  27.513  27.690  1.00  0.00     0.031 C 
ATOM     44  C   UNL A   1      37.568  31.626  32.765  1.00  0.00     0.029 A 
ATOM     45  C   UNL A   1      38.848  30.963  32.996  1.00  0.00     0.049 A 
ATOM     46  H   UNL A   1      39.877  29.705  31.694  1.00  0.00     0.167 HD
ATOM     47  C   UNL A   1      41.864  26.972  28.907  1.00  0.00     0.037 A 
ATOM     48  C   UNL A   1      39.587  31.062  34.117  1.00  0.00     0.037 A 
ATOM     49  C   UNL A   1      42.766  27.096  30.023  1.00  0.00     0.049 A 
ATOM     50  C   UNL A   1      40.895  30.320  34.202  1.00  0.00     0.074 A 
ATOM     51  C   UNL A   1      44.018  26.532  30.185  1.00  0.00     0.029 A 
ATOM     52  N   UNL A   1      42.506  27.828  31.173  1.00  0.00    -0.354 N 
ATOM     53  N   UNL A   1      41.469  29.547  33.313  1.00  0.00    -0.248 NA
ATOM     54  C   UNL A   1      41.660  30.473  35.446  1.00  0.00     0.031 C 
ATOM     55  C   UNL A   1      44.490  26.872  31.458  1.00  0.00     0.029 A 
ATOM     56  C   UNL A   1      43.563  27.707  32.060  1.00  0.00     0.049 A 
ATOM     57  H   UNL A   1      41.690  28.357  31.333  1.00  0.00     0.167 HD
ATOM     58  C   UNL A   1      42.678  29.153  33.871  1.00  0.00     0.074 A 
ATOM     59  C   UNL A   1      42.758  29.782  35.173  1.00  0.00     0.031 C 
ATOM     60  C   UNL A   1      43.637  28.348  33.350  1.00  0.00     0.037 A 
BRANCH  47  61
ATOM     61  C   UNL A   1      42.247  26.063  27.773  1.00  0.00     0.064 A 
ATOM     62  C   UNL A   1      41.778  24.742  27.690  1.00  0.00     0.173 A 
ATOM     63  C   UNL A   1      43.081  26.525  26.742  1.00  0.00     0.173 A 
ATOM     64  F   UNL A   1      40.986  24.244  28.651  1.00  0.00    -0.203 F 
ATOM     65  C   UNL A   1      42.163  23.908  26.642  1.00  0.00     0.198 A 
ATOM     66  C   UNL A   1      43.433  25.699  25.677  1.00  0.00     0.198 A 
ATOM     67  F   UNL A   1      43.551  27.781  26.765  1.00  0.00    -0.203 F 
ATOM     68  F   UNL A   1      41.754  22.631  26.620  1.00  0.00    -0.200 F 
ATOM     69  C   UNL A   1      42.984  24.388  25.635  1.00  0.00     0.200 A 
ATOM     70  F   UNL A   1      44.212  26.172  24.695  1.00  0.00    -0.200 F 
ATOM     71  F   UNL A   1      43.351  23.586  24.627  1.00  0.00    -0.200 F 
ENDBRANCH  47  61
BRANCH  48  72
ATOM     72  C   UNL A   1      39.127  31.924  35.237  1.00  0.00     0.064 A 
ATOM     73  C   UNL A   1      38.396  31.383  36.305  1.00  0.00     0.173 A 
ATOM     74  C   UNL A   1      39.403  33.299  35.267  1.00  0.00     0.173 A 
ATOM     75  F   UNL A   1      38.090  30.078  36.313  1.00  0.00    -0.203 F 
ATOM     76  C   UNL A   1      37.941  32.188  37.347  1.00  0.00     0.198 A 
ATOM     77  C   UNL A   1      38.975  34.097  36.325  1.00  0.00     0.198 A 
ATOM     78  F   UNL A   1      40.105  33.865  34.274  1.00  0.00    -0.203 F 
ATOM     79  F   UNL A   1      37.204  31.654  38.330  1.00  0.00    -0.200 F 
ATOM     80  C   UNL A   1      38.237  33.543  37.361  1.00  0.00     0.200 A 
ATOM     81  F   UNL A   1      39.277  35.402  36.343  1.00  0.00    -0.200 F 
ATOM     82  F   UNL A   1      37.804  34.315  38.366  1.00  0.00    -0.200 F 
ENDBRANCH  48  72
BRANCH  60  83
ATOM     83  C   UNL A   1      44.886  28.145  34.162  1.00  0.00     0.064 A 
ATOM     84  C   UNL A   1      45.985  29.011  34.065  1.00  0.00     0.173 A 
ATOM     85  C   UNL A   1      44.967  27.082  35.076  1.00  0.00     0.173 A 
ATOM     86  F   UNL A   1      45.965  30.033  33.197  1.00  0.00    -0.203 F 
ATOM     87  C   UNL A   1      47.129  28.803  34.831  1.00  0.00     0.198 A 
ATOM     88  C   UNL A   1      46.099  26.899  35.866  1.00  0.00     0.198 A 
ATOM     89  F   UNL A   1      43.942  26.229  35.214  1.00  0.00    -0.203 F 
ATOM     90  F   UNL A   1      48.189  29.610  34.680  1.00  0.00    -0.200 F 
ATOM     91  C   UNL A   1      47.183  27.753  35.735  1.00  0.00     0.200 A 
ATOM     92  F   UNL A   1      46.139  25.894  36.752  1.00  0.00    -0.200 F 
ATOM     93  F   UNL A   1      48.283  27.559  36.477  1.00  0.00    -0.200 F 
ENDBRANCH  60  83
ENDBRANCH  34  35
ENDBRANCH  26  29
ENDBRANCH  24  25
ENDBRANCH   1  24
TORSDOF 12
ENDMDL
MODEL 2
REMARK VINA RESULT:     -12.7      2.779      8.058
REMARK SMILES C[C@@H](C(=O)NCCCNC(=O)c1ccc(-c2c3nc(c(-c4c(F)c(F)c(F)c(F)c4F)c4ccc([nH]4)c(-c4c(F)c(F)c(F)c(F)c4F)c4nc(c(-c5c(F)c(F)c(F)c(F)c5F)c5ccc2[nH]5)C=C4)C=C3)cc1)N1C(=O)/C(=C/c2ccc(F)cc2)SC1=S
REMARK SMILES IDX 7 1 6 2 5 3 3 4 4 5 2 7 1 8 75 9 76 10 88 11 77 12 78 13
REMARK SMILES IDX 87 14 89 15 79 16 80 17 81 18 86 19 82 20 85 21 83 22 84 23
REMARK SMILES IDX 8 24 9 25 10 26 11 28 12 29 13 30 74 31 14 32 73 33 15 34
REMARK SMILES IDX 16 35 17 36 67 37 18 38 72 39 66 40 68 41 19 42 71 43 65 44
REMARK SMILES IDX 64 45 20 47 52 48 32 49 51 50 33 51 36 52 50 53 69 54 34 55
REMARK SMILES IDX 35 56 49 58 70 59 37 60 21 61 22 62 30 63 23 64 24 65 28 66
REMARK SMILES IDX 31 67 25 68 26 69 29 70 27 71 53 72 54 73 62 74 55 75 56 76
REMARK SMILES IDX 60 77 63 78 57 79 58 80 61 81 59 82 38 83 39 84 47 85 40 86
REMARK SMILES IDX 41 87 45 88 48 89 42 90 43 91 46 92 44 93
REMARK H PARENT 5 6 9 27 68 46 36 57
REMARK Flexibility Score: inf
ROOT
ATOM      1  C   UNL A   1      32.989  28.020  26.868  1.00  0.00     0.042 C 
ENDROOT
BRANCH   1   2
ATOM      2  C   UNL A   1      31.677  28.071  26.087  1.00  0.00     0.117 C 
BRANCH   2   3
ATOM      3  N   UNL A   1      30.763  27.040  26.537  1.00  0.00    -0.354 N 
ATOM      4  C   UNL A   1      30.384  25.878  25.933  1.00  0.00     0.242 C 
ATOM      5  O   UNL A   1      29.521  25.203  26.501  1.00  0.00    -0.273 OA
ATOM      6  H   UNL A   1      30.352  27.204  27.417  1.00  0.00     0.163 HD
BRANCH   4   7
ATOM      7  C   UNL A   1      31.045  25.430  24.612  1.00  0.00     0.178 C 
ATOM      8  C   UNL A   1      30.073  24.856  23.584  1.00  0.00     0.042 C 
BRANCH   7   9
ATOM      9  N   UNL A   1      32.185  24.553  24.960  1.00  0.00    -0.281 N 
ATOM     10  C   UNL A   1      33.454  25.055  24.693  1.00  0.00     0.266 C 
ATOM     11  C   UNL A   1      32.146  23.374  25.683  1.00  0.00     0.149 C 
ATOM     12  O   UNL A   1      33.706  26.133  24.174  1.00  0.00    -0.268 OA
ATOM     13  C   UNL A   1      34.499  24.089  25.114  1.00  0.00     0.081 C 
ATOM     14  S   UNL A   1      33.771  22.715  25.838  1.00  0.00    -0.054 SA
ATOM     15  S   UNL A   1      30.850  22.558  26.345  1.00  0.00    -0.052 S 
ATOM     16  C   UNL A   1      35.807  24.305  24.910  1.00  0.00     0.029 C 
BRANCH  16  17
ATOM     17  C   UNL A   1      36.860  23.324  25.192  1.00  0.00    -0.024 A 
ATOM     18  C   UNL A   1      37.913  23.634  26.060  1.00  0.00     0.011 A 
ATOM     19  C   UNL A   1      36.806  22.057  24.590  1.00  0.00     0.011 A 
ATOM     20  C   UNL A   1      38.889  22.674  26.341  1.00  0.00     0.040 A 
ATOM     21  C   UNL A   1      37.778  21.100  24.876  1.00  0.00     0.040 A 
ATOM     22  C   UNL A   1      38.809  21.416  25.751  1.00  0.00     0.123 A 
ATOM     23  F   UNL A   1      39.739  20.494  26.032  1.00  0.00    -0.207 F 
ENDBRANCH  16  17
ENDBRANCH   7   9
ENDBRANCH   4   7
ENDBRANCH   2   3
ENDBRANCH   1   2
BRANCH   1  24
ATOM     24  C   UNL A   1      34.077  28.917  26.285  1.00  0.00     0.118 C 
BRANCH  24  25
ATOM     25  N   UNL A   1      33.954  30.297  26.732  1.00  0.00    -0.352 N 
ATOM     26  C   UNL A   1      34.682  30.993  27.663  1.00  0.00     0.251 C 
ATOM     27  H   UNL A   1      33.235  30.811  26.299  1.00  0.00     0.163 HD
ATOM     28  O   UNL A   1      34.286  32.091  28.041  1.00  0.00    -0.269 OA
BRANCH  26  29
ATOM     29  C   UNL A   1      35.930  30.431  28.224  1.00  0.00     0.039 A 
ATOM     30  C   UNL A   1      37.120  30.598  27.510  1.00  0.00     0.014 A 
ATOM     31  C   UNL A   1      35.929  29.703  29.417  1.00  0.00     0.014 A 
ATOM     32  C   UNL A   1      38.314  30.076  28.014  1.00  0.00     0.010 A 
ATOM     33  C   UNL A   1      37.131  29.255  29.960  1.00  0.00     0.010 A 
ATOM     34  C   UNL A   1      38.334  29.424  29.257  1.00  0.00    -0.014 A 
BRANCH  34  35
ATOM     35  C   UNL A   1      39.599  28.891  29.827  1.00  0.00     0.031 A 
ATOM     36  C   UNL A   1      40.255  29.583  30.989  1.00  0.00     0.074 A 
ATOM     37  C   UNL A   1      40.187  27.819  29.263  1.00  0.00     0.049 A 
ATOM     38  N   UNL A   1      41.387  29.309  31.588  1.00  0.00    -0.248 NA
ATOM     39  C   UNL A   1      39.559  30.759  31.535  1.00  0.00     0.031 C 
ATOM     40  C   UNL A   1      39.670  27.082  28.108  1.00  0.00     0.029 A 
ATOM     41  N   UNL A   1      41.352  27.166  29.580  1.00  0.00    -0.354 N 
ATOM     42  C   UNL A   1      41.545  30.286  32.564  1.00  0.00     0.074 A 
ATOM     43  C   UNL A   1      40.425  31.192  32.439  1.00  0.00     0.031 C 
ATOM     44  C   UNL A   1      40.499  26.063  27.832  1.00  0.00     0.029 A 
ATOM     45  C   UNL A   1      41.626  26.100  28.760  1.00  0.00     0.049 A 
ATOM     46  H   UNL A   1      41.937  27.438  30.324  1.00  0.00     0.167 HD
ATOM     47  C   UNL A   1      42.525  30.404  33.494  1.00  0.00     0.037 A 
ATOM     48  C   UNL A   1      42.672  25.251  28.752  1.00  0.00     0.037 A 
ATOM     49  C   UNL A   1      43.628  29.487  33.625  1.00  0.00     0.049 A 
ATOM     50  C   UNL A   1      43.756  25.414  29.783  1.00  0.00     0.074 A 
ATOM     51  C   UNL A   1      44.639  29.483  34.569  1.00  0.00     0.029 A 
ATOM     52  N   UNL A   1      43.869  28.415  32.777  1.00  0.00    -0.354 N 
ATOM     53  N   UNL A   1      43.861  26.298  30.745  1.00  0.00    -0.248 NA
ATOM     54  C   UNL A   1      44.867  24.454  29.730  1.00  0.00     0.031 C 
ATOM     55  C   UNL A   1      45.526  28.447  34.256  1.00  0.00     0.029 A 
ATOM     56  C   UNL A   1      45.029  27.760  33.161  1.00  0.00     0.049 A 
ATOM     57  H   UNL A   1      43.300  28.156  32.016  1.00  0.00     0.167 HD
ATOM     58  C   UNL A   1      45.023  25.978  31.436  1.00  0.00     0.074 A 
ATOM     59  C   UNL A   1      45.584  24.812  30.786  1.00  0.00     0.031 C 
ATOM     60  C   UNL A   1      45.572  26.592  32.513  1.00  0.00     0.037 A 
BRANCH  47  61
ATOM     61  C   UNL A   1      42.452  31.576  34.432  1.00  0.00     0.064 A 
ATOM     62  C   UNL A   1      43.047  32.810  34.125  1.00  0.00     0.173 A 
ATOM     63  C   UNL A   1      41.760  31.469  35.649  1.00  0.00     0.173 A 
ATOM     64  F   UNL A   1      43.728  32.966  32.981  1.00  0.00    -0.203 F 
ATOM     65  C   UNL A   1      42.987  33.878  35.019  1.00  0.00     0.198 A 
ATOM     66  C   UNL A   1      41.671  32.551  36.523  1.00  0.00     0.198 A 
ATOM     67  F   UNL A   1      41.165  30.317  35.991  1.00  0.00    -0.203 F 
ATOM     68  F   UNL A   1      43.618  35.025  34.731  1.00  0.00    -0.200 F 
ATOM     69  C   UNL A   1      42.295  33.750  36.212  1.00  0.00     0.200 A 
ATOM     70  F   UNL A   1      40.987  32.430  37.668  1.00  0.00    -0.200 F 
ATOM     71  F   UNL A   1      42.237  34.778  37.069  1.00  0.00    -0.200 F 
ENDBRANCH  47  61
BRANCH  48  72
ATOM     72  C   UNL A   1      42.726  24.148  27.757  1.00  0.00     0.064 A 
ATOM     73  C   UNL A   1      42.349  22.844  28.109  1.00  0.00     0.173 A 
ATOM     74  C   UNL A   1      43.154  24.370  26.440  1.00  0.00     0.173 A 
ATOM     75  F   UNL A   1      41.952  22.578  29.361  1.00  0.00    -0.203 F 
ATOM     76  C   UNL A   1      42.419  21.801  27.188  1.00  0.00     0.198 A 
ATOM     77  C   UNL A   1      43.193  23.332  25.511  1.00  0.00     0.198 A 
ATOM     78  F   UNL A   1      43.518  25.600  26.049  1.00  0.00    -0.203 F 
ATOM     79  F   UNL A   1      42.099  20.556  27.565  1.00  0.00    -0.200 F 
ATOM     80  C   UNL A   1      42.834  22.046  25.888  1.00  0.00     0.200 A 
ATOM     81  F   UNL A   1      43.578  23.577  24.251  1.00  0.00    -0.200 F 
ATOM     82  F   UNL A   1      42.895  21.044  25.002  1.00  0.00    -0.200 F 
ENDBRANCH  48  72
BRANCH  60  83
ATOM     83  C   UNL A   1      46.816  25.982  33.097  1.00  0.00     0.064 A 
ATOM     84  C   UNL A   1      46.763  24.958  34.054  1.00  0.00     0.173 A 
ATOM     85  C   UNL A   1      48.081  26.410  32.664  1.00  0.00     0.173 A 
ATOM     86  F   UNL A   1      45.580  24.522  34.513  1.00  0.00    -0.203 F 
ATOM     87  C   UNL A   1      47.930  24.407  34.578  1.00  0.00     0.198 A 
ATOM     88  C   UNL A   1      49.245  25.831  33.163  1.00  0.00     0.198 A 
ATOM     89  F   UNL A   1      48.189  27.380  31.744  1.00  0.00    -0.203 F 
ATOM     90  F   UNL A   1      47.855  23.469  35.533  1.00  0.00    -0.200 F 
ATOM     91  C   UNL A   1      49.169  24.838  34.127  1.00  0.00     0.200 A 
ATOM     92  F   UNL A   1      50.439  26.237  32.711  1.00  0.00    -0.200 F 
ATOM     93  F   UNL A   1      50.290  24.300  34.627  1.00  0.00    -0.200 F 
ENDBRANCH  60  83
ENDBRANCH  34  35
ENDBRANCH  26  29
ENDBRANCH  24  25
ENDBRANCH   1  24
TORSDOF 12
ENDMDL
MODEL 3
REMARK VINA RESULT:     -12.7      2.170      7.863
REMARK SMILES C[C@@H](C(=O)NCCCNC(=O)c1ccc(-c2c3nc(c(-c4c(F)c(F)c(F)c(F)c4F)c4ccc([nH]4)c(-c4c(F)c(F)c(F)c(F)c4F)c4nc(c(-c5c(F)c(F)c(F)c(F)c5F)c5ccc2[nH]5)C=C4)C=C3)cc1)N1C(=O)/C(=C/c2ccc(F)cc2)SC1=S
REMARK SMILES IDX 7 1 6 2 5 3 3 4 4 5 2 7 1 8 75 9 76 10 88 11 77 12 78 13
REMARK SMILES IDX 87 14 89 15 79 16 80 17 81 18 86 19 82 20 85 21 83 22 84 23
REMARK SMILES IDX 8 24 9 25 10 26 11 28 12 29 13 30 74 31 14 32 73 33 15 34
REMARK SMILES IDX 16 35 17 36 67 37 18 38 72 39 66 40 68 41 19 42 71 43 65 44
REMARK SMILES IDX 64 45 20 47 52 48 32 49 51 50 33 51 36 52 50 53 69 54 34 55
REMARK SMILES IDX 35 56 49 58 70 59 37 60 21 61 22 62 30 63 23 64 24 65 28 66
REMARK SMILES IDX 31 67 25 68 26 69 29 70 27 71 53 72 54 73 62 74 55 75 56 76
REMARK SMILES IDX 60 77 63 78 57 79 58 80 61 81 59 82 38 83 39 84 47 85 40 86
REMARK SMILES IDX 41 87 45 88 48 89 42 90 43 91 46 92 44 93
REMARK H PARENT 5 6 9 27 68 46 36 57
REMARK Flexibility Score: inf
ROOT
ATOM      1  C   UNL A   1      33.076  29.099  24.269  1.00  0.00     0.042 C 
ENDROOT
BRANCH   1   2
ATOM      2  C   UNL A   1      31.729  28.426  24.011  1.00  0.00     0.117 C 
BRANCH   2   3
ATOM      3  N   UNL A   1      31.253  27.742  25.198  1.00  0.00    -0.354 N 
ATOM      4  C   UNL A   1      31.018  26.416  25.411  1.00  0.00     0.242 C 
ATOM      5  O   UNL A   1      30.536  26.097  26.501  1.00  0.00    -0.273 OA
ATOM      6  H   UNL A   1      31.072  28.326  25.969  1.00  0.00     0.163 HD
BRANCH   4   7
ATOM      7  C   UNL A   1      31.381  25.372  24.333  1.00  0.00     0.178 C 
ATOM      8  C   UNL A   1      30.193  24.568  23.810  1.00  0.00     0.042 C 
BRANCH   7   9
ATOM      9  N   UNL A   1      32.507  24.566  24.855  1.00  0.00    -0.281 N 
ATOM     10  C   UNL A   1      33.778  24.928  24.422  1.00  0.00     0.266 C 
ATOM     11  C   UNL A   1      32.464  23.616  25.859  1.00  0.00     0.149 C 
ATOM     12  O   UNL A   1      34.040  25.824  23.632  1.00  0.00    -0.268 OA
ATOM     13  C   UNL A   1      34.810  24.059  25.040  1.00  0.00     0.081 C 
ATOM     14  S   UNL A   1      34.072  22.951  26.121  1.00  0.00    -0.054 SA
ATOM     15  S   UNL A   1      31.174  23.055  26.757  1.00  0.00    -0.052 S 
ATOM     16  C   UNL A   1      36.113  24.159  24.740  1.00  0.00     0.029 C 
BRANCH  16  17
ATOM     17  C   UNL A   1      37.146  23.240  25.228  1.00  0.00    -0.024 A 
ATOM     18  C   UNL A   1      37.177  21.907  24.800  1.00  0.00     0.011 A 
ATOM     19  C   UNL A   1      38.119  23.703  26.126  1.00  0.00     0.011 A 
ATOM     20  C   UNL A   1      38.189  21.055  25.250  1.00  0.00     0.040 A 
ATOM     21  C   UNL A   1      39.130  22.852  26.570  1.00  0.00     0.040 A 
ATOM     22  C   UNL A   1      39.158  21.536  26.126  1.00  0.00     0.123 A 
ATOM     23  F   UNL A   1      40.134  20.721  26.546  1.00  0.00    -0.207 F 
ENDBRANCH  16  17
ENDBRANCH   7   9
ENDBRANCH   4   7
ENDBRANCH   2   3
ENDBRANCH   1   2
BRANCH   1  24
ATOM     24  C   UNL A   1      33.365  29.331  25.749  1.00  0.00     0.118 C 
BRANCH  24  25
ATOM     25  N   UNL A   1      33.072  30.696  26.162  1.00  0.00    -0.352 N 
ATOM     26  C   UNL A   1      33.612  31.449  27.173  1.00  0.00     0.251 C 
ATOM     27  H   UNL A   1      32.376  31.149  25.634  1.00  0.00     0.163 HD
ATOM     28  O   UNL A   1      33.082  32.510  27.485  1.00  0.00    -0.269 OA
BRANCH  26  29
ATOM     29  C   UNL A   1      34.819  30.991  27.897  1.00  0.00     0.039 A 
ATOM     30  C   UNL A   1      35.909  31.861  28.000  1.00  0.00     0.014 A 
ATOM     31  C   UNL A   1      34.903  29.702  28.430  1.00  0.00     0.014 A 
ATOM     32  C   UNL A   1      37.062  31.455  28.676  1.00  0.00     0.010 A 
ATOM     33  C   UNL A   1      36.019  29.328  29.174  1.00  0.00     0.010 A 
ATOM     34  C   UNL A   1      37.116  30.194  29.293  1.00  0.00    -0.014 A 
BRANCH  34  35
ATOM     35  C   UNL A   1      38.321  29.757  30.045  1.00  0.00     0.031 A 
ATOM     36  C   UNL A   1      38.570  30.268  31.437  1.00  0.00     0.074 A 
ATOM     37  C   UNL A   1      39.219  28.945  29.456  1.00  0.00     0.049 A 
ATOM     38  N   UNL A   1      39.587  30.051  32.232  1.00  0.00    -0.248 NA
ATOM     39  C   UNL A   1      37.550  31.167  32.002  1.00  0.00     0.031 C 
ATOM     40  C   UNL A   1      39.111  28.412  28.097  1.00  0.00     0.029 A 
ATOM     41  N   UNL A   1      40.404  28.432  29.921  1.00  0.00    -0.354 N 
ATOM     42  C   UNL A   1      39.339  30.799  33.377  1.00  0.00     0.074 A 
ATOM     43  C   UNL A   1      38.106  31.520  33.151  1.00  0.00     0.031 C 
ATOM     44  C   UNL A   1      40.171  27.625  27.849  1.00  0.00     0.029 A 
ATOM     45  C   UNL A   1      41.053  27.633  29.013  1.00  0.00     0.049 A 
ATOM     46  H   UNL A   1      40.756  28.621  30.822  1.00  0.00     0.167 HD
ATOM     47  C   UNL A   1      40.064  30.861  34.521  1.00  0.00     0.037 A 
ATOM     48  C   UNL A   1      42.230  26.985  29.105  1.00  0.00     0.037 A 
ATOM     49  C   UNL A   1      41.281  30.126  34.747  1.00  0.00     0.049 A 
ATOM     50  C   UNL A   1      43.025  27.085  30.380  1.00  0.00     0.074 A 
ATOM     51  C   UNL A   1      42.057  30.074  35.891  1.00  0.00     0.029 A 
ATOM     52  N   UNL A   1      41.906  29.322  33.804  1.00  0.00    -0.354 N 
ATOM     53  N   UNL A   1      42.747  27.738  31.482  1.00  0.00    -0.248 NA
ATOM     54  C   UNL A   1      44.296  26.351  30.424  1.00  0.00     0.031 C 
ATOM     55  C   UNL A   1      43.183  29.288  35.620  1.00  0.00     0.029 A 
ATOM     56  C   UNL A   1      43.072  28.793  34.332  1.00  0.00     0.049 A 
ATOM     57  H   UNL A   1      41.568  29.153  32.894  1.00  0.00     0.167 HD
ATOM     58  C   UNL A   1      43.785  27.462  32.363  1.00  0.00     0.074 A 
ATOM     59  C   UNL A   1      44.694  26.574  31.668  1.00  0.00     0.031 C 
ATOM     60  C   UNL A   1      43.964  27.899  33.634  1.00  0.00     0.037 A 
BRANCH  47  61
ATOM     61  C   UNL A   1      39.562  31.768  35.611  1.00  0.00     0.064 A 
ATOM     62  C   UNL A   1      40.031  33.083  35.757  1.00  0.00     0.173 A 
ATOM     63  C   UNL A   1      38.581  31.321  36.511  1.00  0.00     0.173 A 
ATOM     64  F   UNL A   1      40.974  33.560  34.930  1.00  0.00    -0.203 F 
ATOM     65  C   UNL A   1      39.569  33.901  36.786  1.00  0.00     0.198 A 
ATOM     66  C   UNL A   1      38.095  32.155  37.516  1.00  0.00     0.198 A 
ATOM     67  F   UNL A   1      38.089  30.077  36.414  1.00  0.00    -0.203 F 
ATOM     68  F   UNL A   1      40.081  35.129  36.944  1.00  0.00    -0.200 F 
ATOM     69  C   UNL A   1      38.598  33.438  37.660  1.00  0.00     0.200 A 
ATOM     70  F   UNL A   1      37.143  31.711  38.348  1.00  0.00    -0.200 F 
ATOM     71  F   UNL A   1      38.153  34.226  38.648  1.00  0.00    -0.200 F 
ENDBRANCH  47  61
BRANCH  48  72
ATOM     72  C   UNL A   1      42.712  26.156  27.970  1.00  0.00     0.064 A 
ATOM     73  C   UNL A   1      42.311  24.818  27.838  1.00  0.00     0.173 A 
ATOM     74  C   UNL A   1      43.579  26.675  26.998  1.00  0.00     0.173 A 
ATOM     75  F   UNL A   1      41.498  24.270  28.752  1.00  0.00    -0.203 F 
ATOM     76  C   UNL A   1      42.776  24.027  26.790  1.00  0.00     0.198 A 
ATOM     77  C   UNL A   1      44.019  25.892  25.932  1.00  0.00     0.198 A 
ATOM     78  F   UNL A   1      43.987  27.950  27.074  1.00  0.00    -0.203 F 
ATOM     79  F   UNL A   1      42.414  22.739  26.714  1.00  0.00    -0.200 F 
ATOM     80  C   UNL A   1      43.623  24.566  25.833  1.00  0.00     0.200 A 
ATOM     81  F   UNL A   1      44.824  26.422  25.001  1.00  0.00    -0.200 F 
ATOM     82  F   UNL A   1      44.065  23.807  24.822  1.00  0.00    -0.200 F 
ENDBRANCH  48  72
BRANCH  60  83
ATOM     83  C   UNL A   1      45.161  27.381  34.381  1.00  0.00     0.064 A 
ATOM     84  C   UNL A   1      45.113  26.200  35.136  1.00  0.00     0.173 A 
ATOM     85  C   UNL A   1      46.386  28.064  34.311  1.00  0.00     0.173 A 
ATOM     86  F   UNL A   1      43.964  25.516  35.248  1.00  0.00    -0.203 F 
ATOM     87  C   UNL A   1      46.236  25.738  35.817  1.00  0.00     0.198 A 
ATOM     88  C   UNL A   1      47.517  27.580  34.963  1.00  0.00     0.198 A 
ATOM     89  F   UNL A   1      46.491  29.195  33.597  1.00  0.00    -0.203 F 
ATOM     90  F   UNL A   1      46.151  24.638  36.578  1.00  0.00    -0.200 F 
ATOM     91  C   UNL A   1      47.439  26.424  35.724  1.00  0.00     0.200 A 
ATOM     92  F   UNL A   1      48.681  28.235  34.857  1.00  0.00    -0.200 F 
ATOM     93  F   UNL A   1      48.521  25.974  36.374  1.00  0.00    -0.200 F 
ENDBRANCH  60  83
ENDBRANCH  34  35
ENDBRANCH  26  29
ENDBRANCH  24  25
ENDBRANCH   1  24
TORSDOF 12
ENDMDL
