MODEL 1
REMARK VINA RESULT:     -12.0      0.000      0.000
REMARK SMILES C[C@@H]([C@H](C)O)[C@@H](Cc1ccccc1)C(=O)NCCCNC(=O)c1ccc(-c2c3nc(c(-c4c(F)c(F)c(F)c(F)c4F)c4ccc([nH]4)c(-c4c(F)c(F)c(F)c(F)c4F)c4nc(c(-c5c(F)c(F)c(F)c(F)c5F)c5ccc2[nH]5)C=C4)C=C3)cc1
REMARK SMILES IDX 17 1 16 2 14 3 15 4 6 6 2 7 1 8 3 9 4 10 5 11 7 13 8 14 9 15
REMARK SMILES IDX 13 16 10 17 12 18 11 19 18 20 19 21 20 22 21 23 22 25 23 26
REMARK SMILES IDX 24 27 85 28 25 29 84 30 26 31 27 32 28 33 78 34 29 35 83 36
REMARK SMILES IDX 77 37 79 38 30 39 82 40 76 41 75 42 31 44 63 45 43 46 62 47
REMARK SMILES IDX 44 48 47 49 61 50 80 51 45 52 46 53 60 55 81 56 48 57 32 58
REMARK SMILES IDX 33 59 41 60 34 61 35 62 39 63 42 64 36 65 37 66 40 67 38 68
REMARK SMILES IDX 64 69 65 70 73 71 66 72 67 73 71 74 74 75 68 76 69 77 72 78
REMARK SMILES IDX 70 79 49 80 50 81 58 82 51 83 52 84 56 85 59 86 53 87 54 88
REMARK SMILES IDX 57 89 55 90
REMARK H PARENT 16 5 5 12 20 24 79 43 47 54
REMARK Flexibility Score: inf
ROOT
ATOM      1  C   UNL A   1      31.834  30.455  26.753  1.00  0.00     0.117 C 
ENDROOT
BRANCH   1   2
ATOM      2  N   UNL A   1      32.699  29.932  25.717  1.00  0.00    -0.356 N 
ATOM      3  C   UNL A   1      32.346  29.208  24.613  1.00  0.00     0.223 C 
ATOM      4  O   UNL A   1      33.070  29.310  23.619  1.00  0.00    -0.275 OA
ATOM      5  H   UNL A   1      33.659  30.121  25.820  1.00  0.00     0.163 HD
BRANCH   3   6
ATOM      6  C   UNL A   1      31.106  28.308  24.587  1.00  0.00     0.088 C 
BRANCH   6   7
ATOM      7  C   UNL A   1      30.328  28.257  23.227  1.00  0.00     0.027 C 
ATOM      8  C   UNL A   1      29.036  27.434  23.350  1.00  0.00     0.011 C 
BRANCH   7   9
ATOM      9  C   UNL A   1      29.960  29.666  22.653  1.00  0.00     0.115 C 
ATOM     10  C   UNL A   1      28.532  29.725  22.107  1.00  0.00     0.038 C 
BRANCH   9  11
ATOM     11  O   UNL A   1      30.805  30.084  21.590  1.00  0.00    -0.393 OA
ATOM     12  H   UNL A   1      31.542  30.603  21.948  1.00  0.00     0.210 HD
ENDBRANCH   9  11
ENDBRANCH   7   9
ENDBRANCH   6   7
BRANCH   6  13
ATOM     13  C   UNL A   1      31.403  26.973  25.336  1.00  0.00     0.049 C 
BRANCH  13  14
ATOM     14  C   UNL A   1      32.586  26.131  24.909  1.00  0.00    -0.047 A 
ATOM     15  C   UNL A   1      33.628  25.835  25.798  1.00  0.00     0.004 A 
ATOM     16  C   UNL A   1      32.650  25.600  23.608  1.00  0.00     0.004 A 
ATOM     17  C   UNL A   1      34.661  24.969  25.426  1.00  0.00     0.000 A 
ATOM     18  C   UNL A   1      33.674  24.719  23.244  1.00  0.00     0.000 A 
ATOM     19  C   UNL A   1      34.670  24.390  24.159  1.00  0.00     0.000 A 
ENDBRANCH  13  14
ENDBRANCH   6  13
ENDBRANCH   3   6
ENDBRANCH   1   2
BRANCH   1  20
ATOM     20  C   UNL A   1      31.649  31.954  26.718  1.00  0.00     0.042 C 
BRANCH  20  21
ATOM     21  C   UNL A   1      32.848  32.691  27.288  1.00  0.00     0.118 C 
BRANCH  21  22
ATOM     22  N   UNL A   1      32.559  34.092  27.605  1.00  0.00    -0.352 N 
ATOM     23  C   UNL A   1      33.027  34.904  28.607  1.00  0.00     0.251 C 
ATOM     24  H   UNL A   1      31.919  34.524  26.995  1.00  0.00     0.163 HD
ATOM     25  O   UNL A   1      32.483  35.981  28.833  1.00  0.00    -0.269 OA
BRANCH  23  26
ATOM     26  C   UNL A   1      34.177  34.471  29.421  1.00  0.00     0.039 A 
ATOM     27  C   UNL A   1      33.963  33.900  30.678  1.00  0.00     0.014 A 
ATOM     28  C   UNL A   1      35.471  34.613  28.925  1.00  0.00     0.014 A 
ATOM     29  C   UNL A   1      35.048  33.386  31.390  1.00  0.00     0.010 A 
ATOM     30  C   UNL A   1      36.522  33.980  29.563  1.00  0.00     0.010 A 
ATOM     31  C   UNL A   1      36.327  33.373  30.811  1.00  0.00    -0.014 A 
BRANCH  31  32
ATOM     32  C   UNL A   1      37.496  32.760  31.485  1.00  0.00     0.031 A 
ATOM     33  C   UNL A   1      38.217  31.618  30.819  1.00  0.00     0.074 A 
ATOM     34  C   UNL A   1      37.831  33.147  32.729  1.00  0.00     0.049 A 
ATOM     35  N   UNL A   1      39.151  30.835  31.295  1.00  0.00    -0.248 NA
ATOM     36  C   UNL A   1      37.791  31.276  29.450  1.00  0.00     0.031 C 
ATOM     37  C   UNL A   1      37.163  34.197  33.502  1.00  0.00     0.029 A 
ATOM     38  N   UNL A   1      38.813  32.691  33.572  1.00  0.00    -0.354 N 
ATOM     39  C   UNL A   1      39.392  29.894  30.303  1.00  0.00     0.074 A 
ATOM     40  C   UNL A   1      38.460  30.156  29.230  1.00  0.00     0.031 C 
ATOM     41  C   UNL A   1      37.773  34.325  34.691  1.00  0.00     0.029 A 
ATOM     42  C   UNL A   1      38.844  33.339  34.783  1.00  0.00     0.049 A 
ATOM     43  H   UNL A   1      39.434  31.966  33.332  1.00  0.00     0.167 HD
ATOM     44  C   UNL A   1      40.332  28.920  30.273  1.00  0.00     0.037 A 
ATOM     45  C   UNL A   1      39.645  33.150  35.847  1.00  0.00     0.037 A 
ATOM     46  C   UNL A   1      41.290  28.704  31.322  1.00  0.00     0.049 A 
ATOM     47  C   UNL A   1      40.702  32.080  35.780  1.00  0.00     0.074 A 
ATOM     48  C   UNL A   1      42.334  27.798  31.367  1.00  0.00     0.029 A 
ATOM     49  N   UNL A   1      41.323  29.415  32.514  1.00  0.00    -0.354 N 
ATOM     50  N   UNL A   1      40.967  31.239  34.809  1.00  0.00    -0.248 NA
ATOM     51  C   UNL A   1      41.573  31.937  36.953  1.00  0.00     0.031 C 
ATOM     52  C   UNL A   1      42.974  27.934  32.603  1.00  0.00     0.029 A 
ATOM     53  C   UNL A   1      42.361  28.958  33.308  1.00  0.00     0.049 A 
ATOM     54  H   UNL A   1      40.700  30.137  32.759  1.00  0.00     0.167 HD
ATOM     55  C   UNL A   1      42.052  30.489  35.240  1.00  0.00     0.074 A 
ATOM     56  C   UNL A   1      42.404  30.985  36.554  1.00  0.00     0.031 C 
ATOM     57  C   UNL A   1      42.699  29.479  34.607  1.00  0.00     0.037 A 
BRANCH  44  58
ATOM     58  C   UNL A   1      40.375  28.035  29.060  1.00  0.00     0.064 A 
ATOM     59  C   UNL A   1      41.144  28.366  27.932  1.00  0.00     0.173 A 
ATOM     60  C   UNL A   1      39.652  26.833  29.028  1.00  0.00     0.173 A 
ATOM     61  F   UNL A   1      41.843  29.510  27.904  1.00  0.00    -0.203 F 
ATOM     62  C   UNL A   1      41.154  27.549  26.805  1.00  0.00     0.198 A 
ATOM     63  C   UNL A   1      39.693  26.000  27.912  1.00  0.00     0.198 A 
ATOM     64  F   UNL A   1      38.904  26.465  30.078  1.00  0.00    -0.203 F 
ATOM     65  F   UNL A   1      41.845  27.920  25.718  1.00  0.00    -0.200 F 
ATOM     66  C   UNL A   1      40.436  26.364  26.799  1.00  0.00     0.200 A 
ATOM     67  F   UNL A   1      39.008  24.849  27.912  1.00  0.00    -0.200 F 
ATOM     68  F   UNL A   1      40.450  25.576  25.714  1.00  0.00    -0.200 F 
ENDBRANCH  44  58
BRANCH  45  69
ATOM     69  C   UNL A   1      39.509  34.018  37.046  1.00  0.00     0.064 A 
ATOM     70  C   UNL A   1      40.133  35.273  37.094  1.00  0.00     0.173 A 
ATOM     71  C   UNL A   1      38.759  33.620  38.162  1.00  0.00     0.173 A 
ATOM     72  F   UNL A   1      40.875  35.691  36.059  1.00  0.00    -0.203 F 
ATOM     73  C   UNL A   1      40.030  36.087  38.220  1.00  0.00     0.198 A 
ATOM     74  C   UNL A   1      38.632  34.447  39.276  1.00  0.00     0.198 A 
ATOM     75  F   UNL A   1      38.134  32.434  38.163  1.00  0.00    -0.203 F 
ATOM     76  F   UNL A   1      40.673  37.262  38.256  1.00  0.00    -0.200 F 
ATOM     77  C   UNL A   1      39.274  35.676  39.309  1.00  0.00     0.200 A 
ATOM     78  F   UNL A   1      37.887  34.054  40.318  1.00  0.00    -0.200 F 
ATOM     79  F   UNL A   1      39.172  36.461  40.389  1.00  0.00    -0.200 F 
ENDBRANCH  45  69
BRANCH  57  80
ATOM     80  C   UNL A   1      43.876  28.874  35.311  1.00  0.00     0.064 A 
ATOM     81  C   UNL A   1      45.182  29.338  35.094  1.00  0.00     0.173 A 
ATOM     82  C   UNL A   1      43.689  27.844  36.246  1.00  0.00     0.173 A 
ATOM     83  F   UNL A   1      45.412  30.309  34.198  1.00  0.00    -0.203 F 
ATOM     84  C   UNL A   1      46.260  28.776  35.771  1.00  0.00     0.198 A 
ATOM     85  C   UNL A   1      44.767  27.308  36.945  1.00  0.00     0.198 A 
ATOM     86  F   UNL A   1      42.459  27.370  36.494  1.00  0.00    -0.203 F 
ATOM     87  F   UNL A   1      47.505  29.203  35.514  1.00  0.00    -0.200 F 
ATOM     88  C   UNL A   1      46.051  27.769  36.701  1.00  0.00     0.200 A 
ATOM     89  F   UNL A   1      44.561  26.344  37.852  1.00  0.00    -0.200 F 
ATOM     90  F   UNL A   1      47.090  27.235  37.358  1.00  0.00    -0.200 F 
ENDBRANCH  57  80
ENDBRANCH  31  32
ENDBRANCH  23  26
ENDBRANCH  21  22
ENDBRANCH  20  21
ENDBRANCH   1  20
TORSDOF 15
ENDMDL
MODEL 2
REMARK VINA RESULT:     -11.9      0.084      1.713
REMARK SMILES C[C@@H]([C@H](C)O)[C@@H](Cc1ccccc1)C(=O)NCCCNC(=O)c1ccc(-c2c3nc(c(-c4c(F)c(F)c(F)c(F)c4F)c4ccc([nH]4)c(-c4c(F)c(F)c(F)c(F)c4F)c4nc(c(-c5c(F)c(F)c(F)c(F)c5F)c5ccc2[nH]5)C=C4)C=C3)cc1
REMARK SMILES IDX 17 1 16 2 14 3 15 4 6 6 2 7 1 8 3 9 4 10 5 11 7 13 8 14 9 15
REMARK SMILES IDX 13 16 10 17 12 18 11 19 18 20 19 21 20 22 21 23 22 25 23 26
REMARK SMILES IDX 24 27 85 28 25 29 84 30 26 31 27 32 28 33 78 34 29 35 83 36
REMARK SMILES IDX 77 37 79 38 30 39 82 40 76 41 75 42 31 44 63 45 43 46 62 47
REMARK SMILES IDX 44 48 47 49 61 50 80 51 45 52 46 53 60 55 81 56 48 57 32 58
REMARK SMILES IDX 33 59 41 60 34 61 35 62 39 63 42 64 36 65 37 66 40 67 38 68
REMARK SMILES IDX 64 69 65 70 73 71 66 72 67 73 71 74 74 75 68 76 69 77 72 78
REMARK SMILES IDX 70 79 49 80 50 81 58 82 51 83 52 84 56 85 59 86 53 87 54 88
REMARK SMILES IDX 57 89 55 90
REMARK H PARENT 16 5 5 12 20 24 79 43 47 54
REMARK Flexibility Score: inf
ROOT
ATOM      1  C   UNL A   1      31.761  30.584  26.676  1.00  0.00     0.117 C 
ENDROOT
BRANCH   1   2
ATOM      2  N   UNL A   1      32.638  30.010  25.678  1.00  0.00    -0.356 N 
ATOM      3  C   UNL A   1      32.297  29.237  24.603  1.00  0.00     0.223 C 
ATOM      4  O   UNL A   1      33.034  29.290  23.616  1.00  0.00    -0.275 OA
ATOM      5  H   UNL A   1      33.598  30.199  25.785  1.00  0.00     0.163 HD
BRANCH   3   6
ATOM      6  C   UNL A   1      31.052  28.343  24.601  1.00  0.00     0.088 C 
BRANCH   6   7
ATOM      7  C   UNL A   1      30.288  28.239  23.236  1.00  0.00     0.027 C 
ATOM      8  C   UNL A   1      29.007  27.401  23.372  1.00  0.00     0.011 C 
BRANCH   7   9
ATOM      9  C   UNL A   1      29.905  29.625  22.616  1.00  0.00     0.115 C 
ATOM     10  C   UNL A   1      28.487  29.642  22.043  1.00  0.00     0.038 C 
BRANCH   9  11
ATOM     11  O   UNL A   1      30.762  30.028  21.557  1.00  0.00    -0.393 OA
ATOM     12  H   UNL A   1      31.687  29.910  21.826  1.00  0.00     0.210 HD
ENDBRANCH   9  11
ENDBRANCH   7   9
ENDBRANCH   6   7
BRANCH   6  13
ATOM     13  C   UNL A   1      31.333  27.039  25.408  1.00  0.00     0.049 C 
BRANCH  13  14
ATOM     14  C   UNL A   1      32.431  26.104  24.947  1.00  0.00    -0.047 A 
ATOM     15  C   UNL A   1      32.454  25.594  23.642  1.00  0.00     0.004 A 
ATOM     16  C   UNL A   1      33.475  25.747  25.820  1.00  0.00     0.004 A 
ATOM     17  C   UNL A   1      33.529  24.819  23.196  1.00  0.00     0.000 A 
ATOM     18  C   UNL A   1      34.559  24.987  25.366  1.00  0.00     0.000 A 
ATOM     19  C   UNL A   1      34.593  24.538  24.049  1.00  0.00     0.000 A 
ENDBRANCH  13  14
ENDBRANCH   6  13
ENDBRANCH   3   6
ENDBRANCH   1   2
BRANCH   1  20
ATOM     20  C   UNL A   1      31.653  32.090  26.624  1.00  0.00     0.042 C 
BRANCH  20  21
ATOM     21  C   UNL A   1      32.814  32.771  27.327  1.00  0.00     0.118 C 
BRANCH  21  22
ATOM     22  N   UNL A   1      32.548  34.179  27.636  1.00  0.00    -0.352 N 
ATOM     23  C   UNL A   1      33.034  34.990  28.630  1.00  0.00     0.251 C 
ATOM     24  H   UNL A   1      31.911  34.616  27.027  1.00  0.00     0.163 HD
ATOM     25  O   UNL A   1      32.507  36.077  28.852  1.00  0.00    -0.269 OA
BRANCH  23  26
ATOM     26  C   UNL A   1      34.181  34.545  29.441  1.00  0.00     0.039 A 
ATOM     27  C   UNL A   1      33.965  33.978  30.699  1.00  0.00     0.014 A 
ATOM     28  C   UNL A   1      35.475  34.673  28.941  1.00  0.00     0.014 A 
ATOM     29  C   UNL A   1      35.046  33.452  31.409  1.00  0.00     0.010 A 
ATOM     30  C   UNL A   1      36.521  34.028  29.577  1.00  0.00     0.010 A 
ATOM     31  C   UNL A   1      36.323  33.424  30.826  1.00  0.00    -0.014 A 
BRANCH  31  32
ATOM     32  C   UNL A   1      37.488  32.799  31.497  1.00  0.00     0.031 A 
ATOM     33  C   UNL A   1      38.191  31.646  30.832  1.00  0.00     0.074 A 
ATOM     34  C   UNL A   1      37.833  33.187  32.738  1.00  0.00     0.049 A 
ATOM     35  N   UNL A   1      39.117  30.853  31.307  1.00  0.00    -0.248 NA
ATOM     36  C   UNL A   1      37.755  31.304  29.467  1.00  0.00     0.031 C 
ATOM     37  C   UNL A   1      37.181  34.248  33.510  1.00  0.00     0.029 A 
ATOM     38  N   UNL A   1      38.812  32.721  33.579  1.00  0.00    -0.354 N 
ATOM     39  C   UNL A   1      39.342  29.906  30.317  1.00  0.00     0.074 A 
ATOM     40  C   UNL A   1      38.408  30.175  29.247  1.00  0.00     0.031 C 
ATOM     41  C   UNL A   1      37.798  34.373  34.696  1.00  0.00     0.029 A 
ATOM     42  C   UNL A   1      38.857  33.374  34.787  1.00  0.00     0.049 A 
ATOM     43  H   UNL A   1      39.423  31.988  33.339  1.00  0.00     0.167 HD
ATOM     44  C   UNL A   1      40.269  28.920  30.287  1.00  0.00     0.037 A 
ATOM     45  C   UNL A   1      39.661  33.179  35.848  1.00  0.00     0.037 A 
ATOM     46  C   UNL A   1      41.229  28.695  31.332  1.00  0.00     0.049 A 
ATOM     47  C   UNL A   1      40.703  32.094  35.780  1.00  0.00     0.074 A 
ATOM     48  C   UNL A   1      42.261  27.777  31.376  1.00  0.00     0.029 A 
ATOM     49  N   UNL A   1      41.276  29.410  32.522  1.00  0.00    -0.354 N 
ATOM     50  N   UNL A   1      40.954  31.248  34.811  1.00  0.00    -0.248 NA
ATOM     51  C   UNL A   1      41.577  31.945  36.950  1.00  0.00     0.031 C 
ATOM     52  C   UNL A   1      42.909  27.909  32.609  1.00  0.00     0.029 A 
ATOM     53  C   UNL A   1      42.312  28.943  33.312  1.00  0.00     0.049 A 
ATOM     54  H   UNL A   1      40.663  30.141  32.767  1.00  0.00     0.167 HD
ATOM     55  C   UNL A   1      42.030  30.485  35.240  1.00  0.00     0.074 A 
ATOM     56  C   UNL A   1      42.395  30.982  36.551  1.00  0.00     0.031 C 
ATOM     57  C   UNL A   1      42.662  29.465  34.609  1.00  0.00     0.037 A 
BRANCH  44  58
ATOM     58  C   UNL A   1      40.296  28.030  29.077  1.00  0.00     0.064 A 
ATOM     59  C   UNL A   1      39.600  26.811  29.043  1.00  0.00     0.173 A 
ATOM     60  C   UNL A   1      41.013  28.405  27.931  1.00  0.00     0.173 A 
ATOM     61  F   UNL A   1      38.910  26.396  30.117  1.00  0.00    -0.203 F 
ATOM     62  C   UNL A   1      39.654  25.983  27.924  1.00  0.00     0.198 A 
ATOM     63  C   UNL A   1      41.036  27.591  26.800  1.00  0.00     0.198 A 
ATOM     64  F   UNL A   1      41.692  29.561  27.905  1.00  0.00    -0.203 F 
ATOM     65  F   UNL A   1      39.035  24.795  27.942  1.00  0.00    -0.200 F 
ATOM     66  C   UNL A   1      40.365  26.377  26.802  1.00  0.00     0.200 A 
ATOM     67  F   UNL A   1      41.713  27.980  25.711  1.00  0.00    -0.200 F 
ATOM     68  F   UNL A   1      40.413  25.582  25.724  1.00  0.00    -0.200 F 
ENDBRANCH  44  58
BRANCH  45  69
ATOM     69  C   UNL A   1      39.541  34.053  37.045  1.00  0.00     0.064 A 
ATOM     70  C   UNL A   1      38.788  33.645  38.154  1.00  0.00     0.173 A 
ATOM     71  C   UNL A   1      40.173  35.303  37.110  1.00  0.00     0.173 A 
ATOM     72  F   UNL A   1      38.151  32.464  38.133  1.00  0.00    -0.203 F 
ATOM     73  C   UNL A   1      38.651  34.463  39.273  1.00  0.00     0.198 A 
ATOM     74  C   UNL A   1      40.060  36.108  38.242  1.00  0.00     0.198 A 
ATOM     75  F   UNL A   1      40.914  35.735  36.080  1.00  0.00    -0.203 F 
ATOM     76  F   UNL A   1      37.888  34.067  40.302  1.00  0.00    -0.200 F 
ATOM     77  C   UNL A   1      39.292  35.692  39.319  1.00  0.00     0.200 A 
ATOM     78  F   UNL A   1      40.695  37.287  38.288  1.00  0.00    -0.200 F 
ATOM     79  F   UNL A   1      39.164  36.476  40.397  1.00  0.00    -0.200 F 
ENDBRANCH  45  69
BRANCH  57  80
ATOM     80  C   UNL A   1      43.835  28.847  35.309  1.00  0.00     0.064 A 
ATOM     81  C   UNL A   1      45.142  29.316  35.111  1.00  0.00     0.173 A 
ATOM     82  C   UNL A   1      43.641  27.801  36.224  1.00  0.00     0.173 A 
ATOM     83  F   UNL A   1      45.378  30.304  34.234  1.00  0.00    -0.203 F 
ATOM     84  C   UNL A   1      46.216  28.743  35.785  1.00  0.00     0.198 A 
ATOM     85  C   UNL A   1      44.715  27.252  36.920  1.00  0.00     0.198 A 
ATOM     86  F   UNL A   1      42.410  27.321  36.455  1.00  0.00    -0.203 F 
ATOM     87  F   UNL A   1      47.462  29.175  35.545  1.00  0.00    -0.200 F 
ATOM     88  C   UNL A   1      46.000  27.718  36.694  1.00  0.00     0.200 A 
ATOM     89  F   UNL A   1      44.503  26.271  37.809  1.00  0.00    -0.200 F 
ATOM     90  F   UNL A   1      47.036  27.173  37.349  1.00  0.00    -0.200 F 
ENDBRANCH  57  80
ENDBRANCH  31  32
ENDBRANCH  23  26
ENDBRANCH  21  22
ENDBRANCH  20  21
ENDBRANCH   1  20
TORSDOF 15
ENDMDL
MODEL 3
REMARK VINA RESULT:     -11.8      5.576     10.813
REMARK SMILES C[C@@H]([C@H](C)O)[C@@H](Cc1ccccc1)C(=O)NCCCNC(=O)c1ccc(-c2c3nc(c(-c4c(F)c(F)c(F)c(F)c4F)c4ccc([nH]4)c(-c4c(F)c(F)c(F)c(F)c4F)c4nc(c(-c5c(F)c(F)c(F)c(F)c5F)c5ccc2[nH]5)C=C4)C=C3)cc1
REMARK SMILES IDX 17 1 16 2 14 3 15 4 6 6 2 7 1 8 3 9 4 10 5 11 7 13 8 14 9 15
REMARK SMILES IDX 13 16 10 17 12 18 11 19 18 20 19 21 20 22 21 23 22 25 23 26
REMARK SMILES IDX 24 27 85 28 25 29 84 30 26 31 27 32 28 33 78 34 29 35 83 36
REMARK SMILES IDX 77 37 79 38 30 39 82 40 76 41 75 42 31 44 63 45 43 46 62 47
REMARK SMILES IDX 44 48 47 49 61 50 80 51 45 52 46 53 60 55 81 56 48 57 32 58
REMARK SMILES IDX 33 59 41 60 34 61 35 62 39 63 42 64 36 65 37 66 40 67 38 68
REMARK SMILES IDX 64 69 65 70 73 71 66 72 67 73 71 74 74 75 68 76 69 77 72 78
REMARK SMILES IDX 70 79 49 80 50 81 58 82 51 83 52 84 56 85 59 86 53 87 54 88
REMARK SMILES IDX 57 89 55 90
REMARK H PARENT 16 5 5 12 20 24 79 43 47 54
REMARK Flexibility Score: inf
ROOT
ATOM      1  C   UNL A   1      35.413  23.416  23.614  1.00  0.00     0.117 C 
ENDROOT
BRANCH   1   2
ATOM      2  N   UNL A   1      34.303  22.847  22.880  1.00  0.00    -0.356 N 
ATOM      3  C   UNL A   1      33.098  22.427  23.371  1.00  0.00     0.223 C 
ATOM      4  O   UNL A   1      32.130  22.483  22.607  1.00  0.00    -0.275 OA
ATOM      5  H   UNL A   1      34.431  22.749  21.910  1.00  0.00     0.163 HD
BRANCH   3   6
ATOM      6  C   UNL A   1      32.932  21.913  24.805  1.00  0.00     0.088 C 
BRANCH   6   7
ATOM      7  C   UNL A   1      32.511  22.984  25.869  1.00  0.00     0.027 C 
ATOM      8  C   UNL A   1      30.982  23.083  25.992  1.00  0.00     0.011 C 
BRANCH   7   9
ATOM      9  C   UNL A   1      33.102  22.727  27.296  1.00  0.00     0.115 C 
ATOM     10  C   UNL A   1      34.269  21.738  27.281  1.00  0.00     0.038 C 
BRANCH   9  11
ATOM     11  O   UNL A   1      32.155  22.204  28.216  1.00  0.00    -0.393 OA
ATOM     12  H   UNL A   1      31.510  22.892  28.443  1.00  0.00     0.210 HD
ENDBRANCH   9  11
ENDBRANCH   7   9
ENDBRANCH   6   7
BRANCH   6  13
ATOM     13  C   UNL A   1      32.204  20.535  24.794  1.00  0.00     0.049 C 
BRANCH  13  14
ATOM     14  C   UNL A   1      32.913  19.326  24.222  1.00  0.00    -0.047 A 
ATOM     15  C   UNL A   1      34.160  18.914  24.712  1.00  0.00     0.004 A 
ATOM     16  C   UNL A   1      32.318  18.569  23.197  1.00  0.00     0.004 A 
ATOM     17  C   UNL A   1      34.755  17.735  24.251  1.00  0.00     0.000 A 
ATOM     18  C   UNL A   1      32.905  17.381  22.750  1.00  0.00     0.000 A 
ATOM     19  C   UNL A   1      34.116  16.956  23.290  1.00  0.00     0.000 A 
ENDBRANCH  13  14
ENDBRANCH   6  13
ENDBRANCH   3   6
ENDBRANCH   1   2
BRANCH   1  20
ATOM     20  C   UNL A   1      36.553  22.458  23.869  1.00  0.00     0.042 C 
BRANCH  20  21
ATOM     21  C   UNL A   1      36.978  22.451  25.327  1.00  0.00     0.118 C 
BRANCH  21  22
ATOM     22  N   UNL A   1      37.872  21.338  25.655  1.00  0.00    -0.352 N 
ATOM     23  C   UNL A   1      39.160  21.326  26.129  1.00  0.00     0.251 C 
ATOM     24  H   UNL A   1      37.483  20.446  25.510  1.00  0.00     0.163 HD
ATOM     25  O   UNL A   1      39.811  20.285  26.120  1.00  0.00    -0.269 OA
BRANCH  23  26
ATOM     26  C   UNL A   1      39.763  22.572  26.636  1.00  0.00     0.039 A 
ATOM     27  C   UNL A   1      40.778  22.513  27.595  1.00  0.00     0.014 A 
ATOM     28  C   UNL A   1      39.335  23.801  26.141  1.00  0.00     0.014 A 
ATOM     29  C   UNL A   1      41.424  23.689  27.981  1.00  0.00     0.010 A 
ATOM     30  C   UNL A   1      40.067  24.943  26.415  1.00  0.00     0.010 A 
ATOM     31  C   UNL A   1      41.109  24.904  27.351  1.00  0.00    -0.014 A 
BRANCH  31  32
ATOM     32  C   UNL A   1      41.825  26.165  27.658  1.00  0.00     0.031 A 
ATOM     33  C   UNL A   1      41.121  27.241  28.441  1.00  0.00     0.074 A 
ATOM     34  C   UNL A   1      43.047  26.385  27.139  1.00  0.00     0.049 A 
ATOM     35  N   UNL A   1      41.493  28.473  28.680  1.00  0.00    -0.248 NA
ATOM     36  C   UNL A   1      39.793  26.903  28.983  1.00  0.00     0.031 C 
ATOM     37  C   UNL A   1      43.801  25.443  26.309  1.00  0.00     0.029 A 
ATOM     38  N   UNL A   1      43.867  27.481  27.223  1.00  0.00    -0.354 N 
ATOM     39  C   UNL A   1      40.435  29.057  29.362  1.00  0.00     0.074 A 
ATOM     40  C   UNL A   1      39.378  28.074  29.436  1.00  0.00     0.031 C 
ATOM     41  C   UNL A   1      44.984  25.988  25.986  1.00  0.00     0.029 A 
ATOM     42  C   UNL A   1      45.055  27.333  26.547  1.00  0.00     0.049 A 
ATOM     43  H   UNL A   1      43.628  28.297  27.718  1.00  0.00     0.167 HD
ATOM     44  C   UNL A   1      40.363  30.293  29.910  1.00  0.00     0.037 A 
ATOM     45  C   UNL A   1      46.079  28.192  26.396  1.00  0.00     0.037 A 
ATOM     46  C   UNL A   1      41.441  31.244  29.878  1.00  0.00     0.049 A 
ATOM     47  C   UNL A   1      45.988  29.550  27.038  1.00  0.00     0.074 A 
ATOM     48  C   UNL A   1      41.509  32.494  30.464  1.00  0.00     0.029 A 
ATOM     49  N   UNL A   1      42.650  31.038  29.227  1.00  0.00    -0.354 N 
ATOM     50  N   UNL A   1      45.011  30.070  27.740  1.00  0.00    -0.248 NA
ATOM     51  C   UNL A   1      47.147  30.438  26.872  1.00  0.00     0.031 C 
ATOM     52  C   UNL A   1      42.744  33.062  30.134  1.00  0.00     0.029 A 
ATOM     53  C   UNL A   1      43.465  32.146  29.384  1.00  0.00     0.049 A 
ATOM     54  H   UNL A   1      42.891  30.225  28.726  1.00  0.00     0.167 HD
ATOM     55  C   UNL A   1      45.445  31.330  28.124  1.00  0.00     0.074 A 
ATOM     56  C   UNL A   1      46.782  31.490  27.590  1.00  0.00     0.031 C 
ATOM     57  C   UNL A   1      44.797  32.274  28.852  1.00  0.00     0.037 A 
BRANCH  44  58
ATOM     58  C   UNL A   1      39.085  30.672  30.603  1.00  0.00     0.064 A 
ATOM     59  C   UNL A   1      38.920  30.507  31.987  1.00  0.00     0.173 A 
ATOM     60  C   UNL A   1      38.016  31.220  29.878  1.00  0.00     0.173 A 
ATOM     61  F   UNL A   1      39.905  29.975  32.726  1.00  0.00    -0.203 F 
ATOM     62  C   UNL A   1      37.721  30.839  32.613  1.00  0.00     0.198 A 
ATOM     63  C   UNL A   1      36.831  31.584  30.513  1.00  0.00     0.198 A 
ATOM     64  F   UNL A   1      38.120  31.404  28.554  1.00  0.00    -0.203 F 
ATOM     65  F   UNL A   1      37.567  30.612  33.925  1.00  0.00    -0.200 F 
ATOM     66  C   UNL A   1      36.681  31.384  31.877  1.00  0.00     0.200 A 
ATOM     67  F   UNL A   1      35.830  32.122  29.802  1.00  0.00    -0.200 F 
ATOM     68  F   UNL A   1      35.528  31.706  32.481  1.00  0.00    -0.200 F 
ENDBRANCH  44  58
BRANCH  45  69
ATOM     69  C   UNL A   1      47.292  27.780  25.641  1.00  0.00     0.064 A 
ATOM     70  C   UNL A   1      48.433  27.326  26.317  1.00  0.00     0.173 A 
ATOM     71  C   UNL A   1      47.340  27.828  24.241  1.00  0.00     0.173 A 
ATOM     72  F   UNL A   1      48.442  27.278  27.657  1.00  0.00    -0.203 F 
ATOM     73  C   UNL A   1      49.583  26.956  25.623  1.00  0.00     0.198 A 
ATOM     74  C   UNL A   1      48.480  27.431  23.545  1.00  0.00     0.198 A 
ATOM     75  F   UNL A   1      46.272  28.245  23.546  1.00  0.00    -0.203 F 
ATOM     76  F   UNL A   1      50.675  26.568  26.297  1.00  0.00    -0.200 F 
ATOM     77  C   UNL A   1      49.604  27.004  24.237  1.00  0.00     0.200 A 
ATOM     78  F   UNL A   1      48.490  27.461  22.206  1.00  0.00    -0.200 F 
ATOM     79  F   UNL A   1      50.708  26.644  23.569  1.00  0.00    -0.200 F 
ENDBRANCH  45  69
BRANCH  57  80
ATOM     80  C   UNL A   1      45.541  33.541  29.148  1.00  0.00     0.064 A 
ATOM     81  C   UNL A   1      46.371  33.664  30.272  1.00  0.00     0.173 A 
ATOM     82  C   UNL A   1      45.456  34.632  28.269  1.00  0.00     0.173 A 
ATOM     83  F   UNL A   1      46.472  32.653  31.149  1.00  0.00    -0.203 F 
ATOM     84  C   UNL A   1      47.069  34.842  30.518  1.00  0.00     0.198 A 
ATOM     85  C   UNL A   1      46.181  35.797  28.503  1.00  0.00     0.198 A 
ATOM     86  F   UNL A   1      44.682  34.563  27.176  1.00  0.00    -0.203 F 
ATOM     87  F   UNL A   1      47.820  34.954  31.624  1.00  0.00    -0.200 F 
ATOM     88  C   UNL A   1      46.980  35.903  29.630  1.00  0.00     0.200 A 
ATOM     89  F   UNL A   1      46.105  36.816  27.636  1.00  0.00    -0.200 F 
ATOM     90  F   UNL A   1      47.660  37.034  29.865  1.00  0.00    -0.200 F 
ENDBRANCH  57  80
ENDBRANCH  31  32
ENDBRANCH  23  26
ENDBRANCH  21  22
ENDBRANCH  20  21
ENDBRANCH   1  20
TORSDOF 15
ENDMDL
