MODEL 1
REMARK VINA RESULT:     -12.0      0.000      0.000
REMARK SMILES Cc1c(CCC(=O)N2CCC(C(=O)NCCCNC(=O)c3ccc(-c4c5nc(c(-c6c(F)c(F)c(F)c(F)c6F)c6ccc([nH]6)c(-c6c(F)c(F)c(F)c(F)c6F)c6nc(c(-c7c(F)c(F)c(F)c(F)c7F)c7ccc4[nH]7)C=C6)C=C5)cc3)CC2)c(=O)oc2cc3oc4c(c3cc12)CCCC4
REMARK SMILES IDX 15 1 14 2 12 3 13 4 11 6 6 7 7 8 8 9 9 10 85 11 10 12 84 13
REMARK SMILES IDX 5 14 4 15 3 16 1 17 2 18 97 19 86 20 89 21 96 22 87 23 88 24
REMARK SMILES IDX 90 25 95 26 91 27 94 28 92 29 93 30 98 31 101 32 99 33
REMARK SMILES IDX 100 34 16 35 17 36 18 37 19 38 20 40 21 41 22 42 83 43 23 44
REMARK SMILES IDX 82 45 24 46 25 47 26 48 76 49 27 50 81 51 75 52 77 53 28 54
REMARK SMILES IDX 80 55 74 56 73 57 29 59 61 60 41 61 60 62 42 63 45 64 59 65
REMARK SMILES IDX 78 66 43 67 44 68 58 70 79 71 46 72 30 73 31 74 39 75 32 76
REMARK SMILES IDX 33 77 37 78 40 79 34 80 35 81 38 82 36 83 62 84 63 85 71 86
REMARK SMILES IDX 64 87 65 88 69 89 72 90 66 91 67 92 70 93 68 94 47 95 48 96
REMARK SMILES IDX 56 97 49 98 50 99 54 100 57 101 51 102 52 103 55 104 53 105
REMARK H PARENT 14 5 18 39 77 58 45 69
REMARK Flexibility Score: inf
ROOT
ATOM      1  C   UNL A   1      42.285  26.872  35.655  1.00  0.00     0.117 C 
ENDROOT
BRANCH   1   2
ATOM      2  N   UNL A   1      43.352  27.839  35.815  1.00  0.00    -0.356 N 
ATOM      3  C   UNL A   1      43.521  29.025  35.169  1.00  0.00     0.223 C 
ATOM      4  O   UNL A   1      44.678  29.384  34.941  1.00  0.00    -0.275 OA
ATOM      5  H   UNL A   1      44.045  27.609  36.476  1.00  0.00     0.163 HD
BRANCH   3   6
ATOM      6  C   UNL A   1      42.348  29.960  34.910  1.00  0.00     0.082 C 
ATOM      7  C   UNL A   1      38.925  31.408  36.399  1.00  0.00     0.222 C 
ATOM      8  O   UNL A   1      38.155  30.448  36.445  1.00  0.00    -0.275 OA
ATOM      9  N   UNL A   1      39.934  31.481  35.430  1.00  0.00    -0.343 N 
ATOM     10  C   UNL A   1      39.969  30.610  34.228  1.00  0.00     0.120 C 
ATOM     11  C   UNL A   1      41.240  31.932  35.838  1.00  0.00     0.120 C 
ATOM     12  C   UNL A   1      41.056  29.480  34.252  1.00  0.00     0.035 C 
ATOM     13  C   UNL A   1      41.948  30.638  36.202  1.00  0.00     0.035 C 
BRANCH   7  14
ATOM     14  C   UNL A   1      38.748  32.618  37.365  1.00  0.00     0.105 C 
BRANCH  14  15
ATOM     15  C   UNL A   1      38.153  33.959  36.844  1.00  0.00     0.053 C 
BRANCH  15  16
ATOM     16  C   UNL A   1      38.159  34.112  35.330  1.00  0.00     0.042 A 
ATOM     17  C   UNL A   1      40.087  35.728  35.233  1.00  0.00     0.046 C 
ATOM     18  C   UNL A   1      39.165  34.691  34.665  1.00  0.00    -0.030 A 
ATOM     19  C   UNL A   1      39.282  34.323  33.265  1.00  0.00     0.022 A 
ATOM     20  C   UNL A   1      36.954  33.772  34.489  1.00  0.00     0.339 A 
ATOM     21  C   UNL A   1      38.167  34.423  32.473  1.00  0.00     0.142 A 
ATOM     22  C   UNL A   1      40.430  33.803  32.703  1.00  0.00     0.024 A 
ATOM     23  O   UNL A   1      35.981  33.206  34.973  1.00  0.00    -0.246 OA
ATOM     24  O   UNL A   1      36.936  34.284  33.154  1.00  0.00    -0.422 OA
ATOM     25  C   UNL A   1      38.283  34.576  31.076  1.00  0.00     0.095 A 
ATOM     26  C   UNL A   1      40.632  33.961  31.347  1.00  0.00     0.025 A 
ATOM     27  C   UNL A   1      39.601  34.490  30.587  1.00  0.00     0.138 A 
ATOM     28  C   UNL A   1      41.809  33.930  30.581  1.00  0.00     0.001 A 
ATOM     29  O   UNL A   1      40.149  34.973  29.417  1.00  0.00    -0.461 OA
ATOM     30  C   UNL A   1      41.501  34.766  29.533  1.00  0.00     0.108 A 
ATOM     31  C   UNL A   1      43.217  33.700  31.013  1.00  0.00     0.040 C 
ATOM     32  C   UNL A   1      42.500  35.744  29.020  1.00  0.00     0.076 C 
ATOM     33  C   UNL A   1      43.979  35.040  31.071  1.00  0.00     0.005 C 
ATOM     34  C   UNL A   1      43.328  36.199  30.265  1.00  0.00     0.008 C 
ENDBRANCH  15  16
ENDBRANCH  14  15
ENDBRANCH   7  14
ENDBRANCH   3   6
ENDBRANCH   1   2
BRANCH   1  35
ATOM     35  C   UNL A   1      42.539  25.705  36.593  1.00  0.00     0.042 C 
BRANCH  35  36
ATOM     36  C   UNL A   1      42.411  24.359  35.871  1.00  0.00     0.118 C 
BRANCH  36  37
ATOM     37  N   UNL A   1      43.516  23.453  36.137  1.00  0.00    -0.352 N 
ATOM     38  C   UNL A   1      44.656  23.268  35.391  1.00  0.00     0.251 C 
ATOM     39  H   UNL A   1      43.437  22.904  36.950  1.00  0.00     0.163 HD
ATOM     40  O   UNL A   1      45.481  22.413  35.691  1.00  0.00    -0.269 OA
BRANCH  38  41
ATOM     41  C   UNL A   1      44.826  24.081  34.175  1.00  0.00     0.039 A 
ATOM     42  C   UNL A   1      45.473  25.317  34.249  1.00  0.00     0.014 A 
ATOM     43  C   UNL A   1      44.223  23.650  32.989  1.00  0.00     0.014 A 
ATOM     44  C   UNL A   1      45.421  26.177  33.166  1.00  0.00     0.010 A 
ATOM     45  C   UNL A   1      44.213  24.496  31.885  1.00  0.00     0.010 A 
ATOM     46  C   UNL A   1      44.794  25.766  31.985  1.00  0.00    -0.014 A 
BRANCH  46  47
ATOM     47  C   UNL A   1      44.966  26.652  30.833  1.00  0.00     0.031 A 
ATOM     48  C   UNL A   1      44.938  25.922  29.535  1.00  0.00     0.074 A 
ATOM     49  C   UNL A   1      44.652  27.960  30.846  1.00  0.00     0.049 A 
ATOM     50  N   UNL A   1      43.827  25.620  28.931  1.00  0.00    -0.248 NA
ATOM     51  C   UNL A   1      46.114  25.232  29.008  1.00  0.00     0.031 C 
ATOM     52  C   UNL A   1      43.555  28.549  31.617  1.00  0.00     0.029 A 
ATOM     53  N   UNL A   1      45.067  28.965  30.007  1.00  0.00    -0.354 N 
ATOM     54  C   UNL A   1      44.128  24.645  28.002  1.00  0.00     0.074 A 
ATOM     55  C   UNL A   1      45.561  24.452  28.067  1.00  0.00     0.031 C 
ATOM     56  C   UNL A   1      43.249  29.746  31.073  1.00  0.00     0.029 A 
ATOM     57  C   UNL A   1      44.230  30.074  30.042  1.00  0.00     0.049 A 
ATOM     58  H   UNL A   1      45.871  28.907  29.442  1.00  0.00     0.167 HD
ATOM     59  C   UNL A   1      43.183  24.030  27.246  1.00  0.00     0.037 A 
ATOM     60  C   UNL A   1      44.019  30.903  28.985  1.00  0.00     0.037 A 
ATOM     61  C   UNL A   1      41.836  24.473  27.438  1.00  0.00     0.049 A 
ATOM     62  C   UNL A   1      43.204  30.007  28.082  1.00  0.00     0.074 A 
ATOM     63  C   UNL A   1      40.733  24.074  28.161  1.00  0.00     0.029 A 
ATOM     64  N   UNL A   1      41.451  25.642  26.824  1.00  0.00    -0.354 N 
ATOM     65  N   UNL A   1      41.924  29.763  28.195  1.00  0.00    -0.248 NA
ATOM     66  C   UNL A   1      43.926  29.067  27.219  1.00  0.00     0.031 C 
ATOM     67  C   UNL A   1      39.921  25.244  28.297  1.00  0.00     0.029 A 
ATOM     68  C   UNL A   1      40.613  26.293  27.694  1.00  0.00     0.049 A 
ATOM     69  H   UNL A   1      41.723  25.952  25.931  1.00  0.00     0.167 HD
ATOM     70  C   UNL A   1      41.739  28.494  27.640  1.00  0.00     0.074 A 
ATOM     71  C   UNL A   1      42.998  28.140  27.025  1.00  0.00     0.031 C 
ATOM     72  C   UNL A   1      40.637  27.726  27.873  1.00  0.00     0.037 A 
BRANCH  59  73
ATOM     73  C   UNL A   1      43.488  23.083  26.164  1.00  0.00     0.064 A 
ATOM     74  C   UNL A   1      43.297  21.718  26.416  1.00  0.00     0.173 A 
ATOM     75  C   UNL A   1      44.122  23.461  24.979  1.00  0.00     0.173 A 
ATOM     76  F   UNL A   1      42.690  21.326  27.550  1.00  0.00    -0.203 F 
ATOM     77  C   UNL A   1      43.762  20.755  25.532  1.00  0.00     0.198 A 
ATOM     78  C   UNL A   1      44.582  22.493  24.088  1.00  0.00     0.198 A 
ATOM     79  F   UNL A   1      44.328  24.757  24.702  1.00  0.00    -0.203 F 
ATOM     80  F   UNL A   1      43.604  19.457  25.820  1.00  0.00    -0.200 F 
ATOM     81  C   UNL A   1      44.415  21.143  24.372  1.00  0.00     0.200 A 
ATOM     82  F   UNL A   1      45.213  22.861  22.965  1.00  0.00    -0.200 F 
ATOM     83  F   UNL A   1      44.891  20.213  23.533  1.00  0.00    -0.200 F 
ENDBRANCH  59  73
BRANCH  60  84
ATOM     84  C   UNL A   1      45.243  31.656  28.551  1.00  0.00     0.064 A 
ATOM     85  C   UNL A   1      45.202  32.338  27.313  1.00  0.00     0.173 A 
ATOM     86  C   UNL A   1      46.440  31.770  29.271  1.00  0.00     0.173 A 
ATOM     87  F   UNL A   1      44.145  32.195  26.499  1.00  0.00    -0.203 F 
ATOM     88  C   UNL A   1      46.229  33.187  26.898  1.00  0.00     0.198 A 
ATOM     89  C   UNL A   1      47.458  32.640  28.869  1.00  0.00     0.198 A 
ATOM     90  F   UNL A   1      46.649  31.059  30.386  1.00  0.00    -0.203 F 
ATOM     91  F   UNL A   1      46.122  33.851  25.739  1.00  0.00    -0.200 F 
ATOM     92  C   UNL A   1      47.343  33.364  27.695  1.00  0.00     0.200 A 
ATOM     93  F   UNL A   1      48.541  32.795  29.644  1.00  0.00    -0.200 F 
ATOM     94  F   UNL A   1      48.305  34.225  27.334  1.00  0.00    -0.200 F 
ENDBRANCH  60  84
BRANCH  72  95
ATOM     95  C   UNL A   1      39.520  28.407  28.580  1.00  0.00     0.064 A 
ATOM     96  C   UNL A   1      38.635  29.224  27.862  1.00  0.00     0.173 A 
ATOM     97  C   UNL A   1      39.290  28.228  29.952  1.00  0.00     0.173 A 
ATOM     98  F   UNL A   1      38.810  29.416  26.545  1.00  0.00    -0.203 F 
ATOM     99  C   UNL A   1      37.549  29.823  28.491  1.00  0.00     0.198 A 
ATOM    100  C   UNL A   1      38.186  28.805  30.570  1.00  0.00     0.198 A 
ATOM    101  F   UNL A   1      40.117  27.475  30.693  1.00  0.00    -0.203 F 
ATOM    102  F   UNL A   1      36.710  30.594  27.784  1.00  0.00    -0.200 F 
ATOM    103  C   UNL A   1      37.316  29.601  29.839  1.00  0.00     0.200 A 
ATOM    104  F   UNL A   1      37.948  28.571  31.869  1.00  0.00    -0.200 F 
ATOM    105  F   UNL A   1      36.244  30.145  30.433  1.00  0.00    -0.200 F 
ENDBRANCH  72  95
ENDBRANCH  46  47
ENDBRANCH  38  41
ENDBRANCH  36  37
ENDBRANCH  35  36
ENDBRANCH   1  35
TORSDOF 13
ENDMDL
MODEL 2
REMARK VINA RESULT:     -11.9      4.740      9.679
REMARK SMILES Cc1c(CCC(=O)N2CCC(C(=O)NCCCNC(=O)c3ccc(-c4c5nc(c(-c6c(F)c(F)c(F)c(F)c6F)c6ccc([nH]6)c(-c6c(F)c(F)c(F)c(F)c6F)c6nc(c(-c7c(F)c(F)c(F)c(F)c7F)c7ccc4[nH]7)C=C6)C=C5)cc3)CC2)c(=O)oc2cc3oc4c(c3cc12)CCCC4
REMARK SMILES IDX 15 1 14 2 12 3 13 4 11 6 6 7 7 8 8 9 9 10 85 11 10 12 84 13
REMARK SMILES IDX 5 14 4 15 3 16 1 17 2 18 97 19 86 20 89 21 96 22 87 23 88 24
REMARK SMILES IDX 90 25 95 26 91 27 94 28 92 29 93 30 98 31 101 32 99 33
REMARK SMILES IDX 100 34 16 35 17 36 18 37 19 38 20 40 21 41 22 42 83 43 23 44
REMARK SMILES IDX 82 45 24 46 25 47 26 48 76 49 27 50 81 51 75 52 77 53 28 54
REMARK SMILES IDX 80 55 74 56 73 57 29 59 61 60 41 61 60 62 42 63 45 64 59 65
REMARK SMILES IDX 78 66 43 67 44 68 58 70 79 71 46 72 30 73 31 74 39 75 32 76
REMARK SMILES IDX 33 77 37 78 40 79 34 80 35 81 38 82 36 83 62 84 63 85 71 86
REMARK SMILES IDX 64 87 65 88 69 89 72 90 66 91 67 92 70 93 68 94 47 95 48 96
REMARK SMILES IDX 56 97 49 98 50 99 54 100 57 101 51 102 52 103 55 104 53 105
REMARK H PARENT 14 5 18 39 77 58 45 69
REMARK Flexibility Score: inf
ROOT
ATOM      1  C   UNL A   1      37.797  22.456  25.493  1.00  0.00     0.117 C 
ENDROOT
BRANCH   1   2
ATOM      2  N   UNL A   1      36.525  22.201  26.140  1.00  0.00    -0.356 N 
ATOM      3  C   UNL A   1      35.443  23.022  26.227  1.00  0.00     0.223 C 
ATOM      4  O   UNL A   1      34.763  22.953  27.254  1.00  0.00    -0.275 OA
ATOM      5  H   UNL A   1      36.432  21.322  26.573  1.00  0.00     0.163 HD
BRANCH   3   6
ATOM      6  C   UNL A   1      34.977  23.849  25.037  1.00  0.00     0.082 C 
ATOM      7  C   UNL A   1      31.897  25.849  23.445  1.00  0.00     0.222 C 
ATOM      8  O   UNL A   1      31.047  24.995  23.190  1.00  0.00    -0.275 OA
ATOM      9  N   UNL A   1      33.263  25.542  23.423  1.00  0.00    -0.343 N 
ATOM     10  C   UNL A   1      33.806  24.303  22.808  1.00  0.00     0.120 C 
ATOM     11  C   UNL A   1      34.096  26.059  24.478  1.00  0.00     0.120 C 
ATOM     12  C   UNL A   1      34.302  23.215  23.822  1.00  0.00     0.035 C 
ATOM     13  C   UNL A   1      34.059  24.951  25.516  1.00  0.00     0.035 C 
BRANCH   7  14
ATOM     14  C   UNL A   1      31.483  27.327  23.718  1.00  0.00     0.105 C 
BRANCH  14  15
ATOM     15  C   UNL A   1      30.899  27.736  25.102  1.00  0.00     0.053 C 
BRANCH  15  16
ATOM     16  C   UNL A   1      31.629  28.882  25.788  1.00  0.00     0.042 A 
ATOM     17  C   UNL A   1      32.477  27.530  27.735  1.00  0.00     0.046 C 
ATOM     18  C   UNL A   1      32.498  28.692  26.786  1.00  0.00    -0.030 A 
ATOM     19  C   UNL A   1      33.463  29.758  26.987  1.00  0.00     0.022 A 
ATOM     20  C   UNL A   1      31.298  30.324  25.500  1.00  0.00     0.339 A 
ATOM     21  C   UNL A   1      32.995  31.042  27.100  1.00  0.00     0.142 A 
ATOM     22  C   UNL A   1      34.829  29.565  26.990  1.00  0.00     0.024 A 
ATOM     23  O   UNL A   1      30.542  30.632  24.585  1.00  0.00    -0.246 OA
ATOM     24  O   UNL A   1      31.771  31.293  26.439  1.00  0.00    -0.422 OA
ATOM     25  C   UNL A   1      33.748  32.030  27.769  1.00  0.00     0.095 A 
ATOM     26  C   UNL A   1      35.622  30.466  27.670  1.00  0.00     0.025 A 
ATOM     27  C   UNL A   1      35.029  31.611  28.178  1.00  0.00     0.138 A 
ATOM     28  C   UNL A   1      36.919  30.340  28.195  1.00  0.00     0.001 A 
ATOM     29  O   UNL A   1      35.854  32.107  29.165  1.00  0.00    -0.461 OA
ATOM     30  C   UNL A   1      36.894  31.217  29.254  1.00  0.00     0.108 A 
ATOM     31  C   UNL A   1      37.847  29.173  28.163  1.00  0.00     0.040 C 
ATOM     32  C   UNL A   1      37.518  30.853  30.558  1.00  0.00     0.076 C 
ATOM     33  C   UNL A   1      37.849  28.460  29.531  1.00  0.00     0.005 C 
ATOM     34  C   UNL A   1      37.310  29.313  30.715  1.00  0.00     0.008 C 
ENDBRANCH  15  16
ENDBRANCH  14  15
ENDBRANCH   7  14
ENDBRANCH   3   6
ENDBRANCH   1   2
BRANCH   1  35
ATOM     35  C   UNL A   1      38.530  23.536  26.267  1.00  0.00     0.042 C 
BRANCH  35  36
ATOM     36  C   UNL A   1      39.718  22.964  27.051  1.00  0.00     0.118 C 
BRANCH  36  37
ATOM     37  N   UNL A   1      40.748  22.391  26.202  1.00  0.00    -0.352 N 
ATOM     38  C   UNL A   1      41.934  22.963  25.806  1.00  0.00     0.251 C 
ATOM     39  H   UNL A   1      40.575  21.481  25.868  1.00  0.00     0.163 HD
ATOM     40  O   UNL A   1      42.685  22.394  25.023  1.00  0.00    -0.269 OA
BRANCH  38  41
ATOM     41  C   UNL A   1      42.244  24.317  26.294  1.00  0.00     0.039 A 
ATOM     42  C   UNL A   1      43.043  24.481  27.428  1.00  0.00     0.014 A 
ATOM     43  C   UNL A   1      41.628  25.411  25.679  1.00  0.00     0.014 A 
ATOM     44  C   UNL A   1      43.137  25.729  28.019  1.00  0.00     0.010 A 
ATOM     45  C   UNL A   1      41.762  26.675  26.246  1.00  0.00     0.010 A 
ATOM     46  C   UNL A   1      42.499  26.825  27.428  1.00  0.00    -0.014 A 
BRANCH  46  47
ATOM     47  C   UNL A   1      42.820  28.132  28.001  1.00  0.00     0.031 A 
ATOM     48  C   UNL A   1      42.698  28.157  29.485  1.00  0.00     0.074 A 
ATOM     49  C   UNL A   1      43.624  29.030  27.404  1.00  0.00     0.049 A 
ATOM     50  N   UNL A   1      43.656  27.759  30.269  1.00  0.00    -0.248 NA
ATOM     51  C   UNL A   1      41.410  28.331  30.154  1.00  0.00     0.031 C 
ATOM     52  C   UNL A   1      44.773  28.693  26.560  1.00  0.00     0.029 A 
ATOM     53  N   UNL A   1      43.736  30.382  27.622  1.00  0.00    -0.354 N 
ATOM     54  C   UNL A   1      43.096  27.549  31.512  1.00  0.00     0.074 A 
ATOM     55  C   UNL A   1      41.707  27.938  31.402  1.00  0.00     0.031 C 
ATOM     56  C   UNL A   1      45.586  29.769  26.502  1.00  0.00     0.029 A 
ATOM     57  C   UNL A   1      44.935  30.903  27.152  1.00  0.00     0.049 A 
ATOM     58  H   UNL A   1      43.042  30.923  28.063  1.00  0.00     0.167 HD
ATOM     59  C   UNL A   1      43.797  27.044  32.559  1.00  0.00     0.037 A 
ATOM     60  C   UNL A   1      45.572  31.969  27.706  1.00  0.00     0.037 A 
ATOM     61  C   UNL A   1      45.179  26.764  32.317  1.00  0.00     0.049 A 
ATOM     62  C   UNL A   1      46.058  31.363  29.002  1.00  0.00     0.074 A 
ATOM     63  C   UNL A   1      45.947  25.670  31.983  1.00  0.00     0.029 A 
ATOM     64  N   UNL A   1      46.061  27.819  32.342  1.00  0.00    -0.354 N 
ATOM     65  N   UNL A   1      47.115  30.607  29.147  1.00  0.00    -0.248 NA
ATOM     66  C   UNL A   1      45.122  31.317  30.130  1.00  0.00     0.031 C 
ATOM     67  C   UNL A   1      47.136  26.202  31.393  1.00  0.00     0.029 A 
ATOM     68  C   UNL A   1      46.988  27.588  31.356  1.00  0.00     0.049 A 
ATOM     69  H   UNL A   1      46.034  28.592  32.950  1.00  0.00     0.167 HD
ATOM     70  C   UNL A   1      46.841  29.795  30.251  1.00  0.00     0.074 A 
ATOM     71  C   UNL A   1      45.620  30.308  30.831  1.00  0.00     0.031 C 
ATOM     72  C   UNL A   1      47.515  28.641  30.521  1.00  0.00     0.037 A 
BRANCH  59  73
ATOM     73  C   UNL A   1      43.262  26.929  33.924  1.00  0.00     0.064 A 
ATOM     74  C   UNL A   1      42.967  25.646  34.405  1.00  0.00     0.173 A 
ATOM     75  C   UNL A   1      42.868  28.034  34.682  1.00  0.00     0.173 A 
ATOM     76  F   UNL A   1      43.333  24.565  33.695  1.00  0.00    -0.203 F 
ATOM     77  C   UNL A   1      42.263  25.470  35.587  1.00  0.00     0.198 A 
ATOM     78  C   UNL A   1      42.168  27.855  35.874  1.00  0.00     0.198 A 
ATOM     79  F   UNL A   1      43.127  29.278  34.253  1.00  0.00    -0.203 F 
ATOM     80  F   UNL A   1      41.958  24.234  36.002  1.00  0.00    -0.200 F 
ATOM     81  C   UNL A   1      41.854  26.576  36.317  1.00  0.00     0.200 A 
ATOM     82  F   UNL A   1      41.770  28.920  36.583  1.00  0.00    -0.200 F 
ATOM     83  F   UNL A   1      41.148  26.407  37.443  1.00  0.00    -0.200 F 
ENDBRANCH  59  73
BRANCH  60  84
ATOM     84  C   UNL A   1      44.802  33.254  27.608  1.00  0.00     0.064 A 
ATOM     85  C   UNL A   1      44.174  33.562  26.379  1.00  0.00     0.173 A 
ATOM     86  C   UNL A   1      44.621  34.189  28.637  1.00  0.00     0.173 A 
ATOM     87  F   UNL A   1      44.384  32.789  25.302  1.00  0.00    -0.203 F 
ATOM     88  C   UNL A   1      43.313  34.651  26.237  1.00  0.00     0.198 A 
ATOM     89  C   UNL A   1      43.738  35.264  28.503  1.00  0.00     0.198 A 
ATOM     90  F   UNL A   1      45.278  34.077  29.798  1.00  0.00    -0.203 F 
ATOM     91  F   UNL A   1      42.702  34.873  25.064  1.00  0.00    -0.200 F 
ATOM     92  C   UNL A   1      43.068  35.483  27.312  1.00  0.00     0.200 A 
ATOM     93  F   UNL A   1      43.517  36.074  29.549  1.00  0.00    -0.200 F 
ATOM     94  F   UNL A   1      42.195  36.493  27.202  1.00  0.00    -0.200 F 
ENDBRANCH  60  84
BRANCH  72  95
ATOM     95  C   UNL A   1      48.726  28.399  29.693  1.00  0.00     0.064 A 
ATOM     96  C   UNL A   1      49.981  28.820  30.152  1.00  0.00     0.173 A 
ATOM     97  C   UNL A   1      48.665  27.718  28.468  1.00  0.00     0.173 A 
ATOM     98  F   UNL A   1      50.090  29.467  31.324  1.00  0.00    -0.203 F 
ATOM     99  C   UNL A   1      51.135  28.552  29.423  1.00  0.00     0.198 A 
ATOM    100  C   UNL A   1      49.823  27.426  27.756  1.00  0.00     0.198 A 
ATOM    101  F   UNL A   1      47.488  27.311  27.968  1.00  0.00    -0.203 F 
ATOM    102  F   UNL A   1      52.326  28.957  29.884  1.00  0.00    -0.200 F 
ATOM    103  C   UNL A   1      51.057  27.843  28.234  1.00  0.00     0.200 A 
ATOM    104  F   UNL A   1      49.750  26.720  26.619  1.00  0.00    -0.200 F 
ATOM    105  F   UNL A   1      52.174  27.548  27.555  1.00  0.00    -0.200 F 
ENDBRANCH  72  95
ENDBRANCH  46  47
ENDBRANCH  38  41
ENDBRANCH  36  37
ENDBRANCH  35  36
ENDBRANCH   1  35
TORSDOF 13
ENDMDL
MODEL 3
REMARK VINA RESULT:     -11.7      7.314     12.199
REMARK SMILES Cc1c(CCC(=O)N2CCC(C(=O)NCCCNC(=O)c3ccc(-c4c5nc(c(-c6c(F)c(F)c(F)c(F)c6F)c6ccc([nH]6)c(-c6c(F)c(F)c(F)c(F)c6F)c6nc(c(-c7c(F)c(F)c(F)c(F)c7F)c7ccc4[nH]7)C=C6)C=C5)cc3)CC2)c(=O)oc2cc3oc4c(c3cc12)CCCC4
REMARK SMILES IDX 15 1 14 2 12 3 13 4 11 6 6 7 7 8 8 9 9 10 85 11 10 12 84 13
REMARK SMILES IDX 5 14 4 15 3 16 1 17 2 18 97 19 86 20 89 21 96 22 87 23 88 24
REMARK SMILES IDX 90 25 95 26 91 27 94 28 92 29 93 30 98 31 101 32 99 33
REMARK SMILES IDX 100 34 16 35 17 36 18 37 19 38 20 40 21 41 22 42 83 43 23 44
REMARK SMILES IDX 82 45 24 46 25 47 26 48 76 49 27 50 81 51 75 52 77 53 28 54
REMARK SMILES IDX 80 55 74 56 73 57 29 59 61 60 41 61 60 62 42 63 45 64 59 65
REMARK SMILES IDX 78 66 43 67 44 68 58 70 79 71 46 72 30 73 31 74 39 75 32 76
REMARK SMILES IDX 33 77 37 78 40 79 34 80 35 81 38 82 36 83 62 84 63 85 71 86
REMARK SMILES IDX 64 87 65 88 69 89 72 90 66 91 67 92 70 93 68 94 47 95 48 96
REMARK SMILES IDX 56 97 49 98 50 99 54 100 57 101 51 102 52 103 55 104 53 105
REMARK H PARENT 14 5 18 39 77 58 45 69
REMARK Flexibility Score: inf
ROOT
ATOM      1  C   UNL A   1      43.463  37.322  27.675  1.00  0.00     0.117 C 
ENDROOT
BRANCH   1   2
ATOM      2  N   UNL A   1      42.715  38.439  28.216  1.00  0.00    -0.356 N 
ATOM      3  C   UNL A   1      42.939  39.770  28.041  1.00  0.00     0.223 C 
ATOM      4  O   UNL A   1      42.671  40.517  28.984  1.00  0.00    -0.275 OA
ATOM      5  H   UNL A   1      41.947  38.205  28.786  1.00  0.00     0.163 HD
BRANCH   3   6
ATOM      6  C   UNL A   1      43.319  40.336  26.680  1.00  0.00     0.082 C 
ATOM      7  C   UNL A   1      45.178  43.332  24.784  1.00  0.00     0.222 C 
ATOM      8  O   UNL A   1      44.506  44.337  25.020  1.00  0.00    -0.275 OA
ATOM      9  N   UNL A   1      44.588  42.064  24.726  1.00  0.00    -0.343 N 
ATOM     10  C   UNL A   1      43.121  41.854  24.630  1.00  0.00     0.120 C 
ATOM     11  C   UNL A   1      45.274  40.963  25.353  1.00  0.00     0.120 C 
ATOM     12  C   UNL A   1      42.432  41.335  25.939  1.00  0.00     0.035 C 
ATOM     13  C   UNL A   1      44.696  40.957  26.758  1.00  0.00     0.035 C 
BRANCH   7  14
ATOM     14  C   UNL A   1      46.697  43.449  24.457  1.00  0.00     0.105 C 
BRANCH  14  15
ATOM     15  C   UNL A   1      47.163  43.874  23.034  1.00  0.00     0.053 C 
BRANCH  15  16
ATOM     16  C   UNL A   1      46.096  43.765  21.954  1.00  0.00     0.042 A 
ATOM     17  C   UNL A   1      45.260  46.130  22.166  1.00  0.00     0.046 C 
ATOM     18  C   UNL A   1      45.470  44.831  21.445  1.00  0.00    -0.030 A 
ATOM     19  C   UNL A   1      44.887  44.645  20.129  1.00  0.00     0.022 A 
ATOM     20  C   UNL A   1      45.553  42.433  21.502  1.00  0.00     0.339 A 
ATOM     21  C   UNL A   1      44.066  43.564  19.930  1.00  0.00     0.142 A 
ATOM     22  C   UNL A   1      45.174  45.446  19.043  1.00  0.00     0.024 A 
ATOM     23  O   UNL A   1      46.063  41.381  21.869  1.00  0.00    -0.246 OA
ATOM     24  O   UNL A   1      44.326  42.455  20.768  1.00  0.00    -0.422 OA
ATOM     25  C   UNL A   1      43.097  43.569  18.905  1.00  0.00     0.095 A 
ATOM     26  C   UNL A   1      44.247  45.538  18.025  1.00  0.00     0.025 A 
ATOM     27  C   UNL A   1      43.146  44.697  18.063  1.00  0.00     0.138 A 
ATOM     28  C   UNL A   1      44.048  46.524  17.045  1.00  0.00     0.001 A 
ATOM     29  O   UNL A   1      42.170  45.249  17.259  1.00  0.00    -0.461 OA
ATOM     30  C   UNL A   1      42.697  46.431  16.803  1.00  0.00     0.108 A 
ATOM     31  C   UNL A   1      44.803  47.786  16.802  1.00  0.00     0.040 C 
ATOM     32  C   UNL A   1      41.868  47.657  16.635  1.00  0.00     0.076 C 
ATOM     33  C   UNL A   1      44.012  48.992  17.349  1.00  0.00     0.005 C 
ATOM     34  C   UNL A   1      42.497  48.730  17.581  1.00  0.00     0.008 C 
ENDBRANCH  15  16
ENDBRANCH  14  15
ENDBRANCH   7  14
ENDBRANCH   3   6
ENDBRANCH   1   2
BRANCH   1  35
ATOM     35  C   UNL A   1      42.648  36.682  26.565  1.00  0.00     0.042 C 
BRANCH  35  36
ATOM     36  C   UNL A   1      43.149  35.270  26.236  1.00  0.00     0.118 C 
BRANCH  36  37
ATOM     37  N   UNL A   1      44.409  35.258  25.511  1.00  0.00    -0.352 N 
ATOM     38  C   UNL A   1      45.455  34.378  25.647  1.00  0.00     0.251 C 
ATOM     39  H   UNL A   1      44.527  35.970  24.841  1.00  0.00     0.163 HD
ATOM     40  O   UNL A   1      46.498  34.526  25.020  1.00  0.00    -0.269 OA
BRANCH  38  41
ATOM     41  C   UNL A   1      45.317  33.286  26.626  1.00  0.00     0.039 A 
ATOM     42  C   UNL A   1      45.872  33.421  27.901  1.00  0.00     0.014 A 
ATOM     43  C   UNL A   1      44.736  32.083  26.214  1.00  0.00     0.014 A 
ATOM     44  C   UNL A   1      45.950  32.316  28.729  1.00  0.00     0.010 A 
ATOM     45  C   UNL A   1      44.771  30.984  27.066  1.00  0.00     0.010 A 
ATOM     46  C   UNL A   1      45.398  31.099  28.314  1.00  0.00    -0.014 A 
BRANCH  46  47
ATOM     47  C   UNL A   1      45.342  30.047  29.329  1.00  0.00     0.031 A 
ATOM     48  C   UNL A   1      43.952  29.743  29.768  1.00  0.00     0.074 A 
ATOM     49  C   UNL A   1      46.287  29.100  29.473  1.00  0.00     0.049 A 
ATOM     50  N   UNL A   1      43.178  28.928  29.115  1.00  0.00    -0.248 NA
ATOM     51  C   UNL A   1      43.260  30.555  30.767  1.00  0.00     0.031 C 
ATOM     52  C   UNL A   1      47.072  28.529  28.376  1.00  0.00     0.029 A 
ATOM     53  N   UNL A   1      46.557  28.294  30.552  1.00  0.00    -0.354 N 
ATOM     54  C   UNL A   1      41.889  29.167  29.546  1.00  0.00     0.074 A 
ATOM     55  C   UNL A   1      41.988  30.166  30.587  1.00  0.00     0.031 C 
ATOM     56  C   UNL A   1      47.574  27.345  28.787  1.00  0.00     0.029 A 
ATOM     57  C   UNL A   1      47.292  27.166  30.209  1.00  0.00     0.049 A 
ATOM     58  H   UNL A   1      46.262  28.494  31.470  1.00  0.00     0.167 HD
ATOM     59  C   UNL A   1      40.806  28.550  29.008  1.00  0.00     0.037 A 
ATOM     60  C   UNL A   1      47.202  25.972  30.853  1.00  0.00     0.037 A 
ATOM     61  C   UNL A   1      41.072  27.597  27.975  1.00  0.00     0.049 A 
ATOM     62  C   UNL A   1      45.831  25.517  30.411  1.00  0.00     0.074 A 
ATOM     63  C   UNL A   1      41.084  27.575  26.597  1.00  0.00     0.029 A 
ATOM     64  N   UNL A   1      41.497  26.344  28.351  1.00  0.00    -0.354 N 
ATOM     65  N   UNL A   1      45.541  24.962  29.262  1.00  0.00    -0.248 NA
ATOM     66  C   UNL A   1      44.670  26.021  31.150  1.00  0.00     0.031 C 
ATOM     67  C   UNL A   1      41.935  26.482  26.239  1.00  0.00     0.029 A 
ATOM     68  C   UNL A   1      42.430  25.944  27.426  1.00  0.00     0.049 A 
ATOM     69  H   UNL A   1      41.191  25.831  29.132  1.00  0.00     0.167 HD
ATOM     70  C   UNL A   1      44.204  25.291  29.020  1.00  0.00     0.074 A 
ATOM     71  C   UNL A   1      43.719  25.908  30.234  1.00  0.00     0.031 C 
ATOM     72  C   UNL A   1      43.623  25.217  27.789  1.00  0.00     0.037 A 
BRANCH  59  73
ATOM     73  C   UNL A   1      39.439  28.690  29.531  1.00  0.00     0.064 A 
ATOM     74  C   UNL A   1      38.516  29.413  28.764  1.00  0.00     0.173 A 
ATOM     75  C   UNL A   1      39.075  28.300  30.821  1.00  0.00     0.173 A 
ATOM     76  F   UNL A   1      38.841  29.803  27.519  1.00  0.00    -0.203 F 
ATOM     77  C   UNL A   1      37.281  29.773  29.283  1.00  0.00     0.198 A 
ATOM     78  C   UNL A   1      37.830  28.655  31.338  1.00  0.00     0.198 A 
ATOM     79  F   UNL A   1      39.932  27.611  31.590  1.00  0.00    -0.203 F 
ATOM     80  F   UNL A   1      36.435  30.500  28.542  1.00  0.00    -0.200 F 
ATOM     81  C   UNL A   1      36.942  29.402  30.575  1.00  0.00     0.200 A 
ATOM     82  F   UNL A   1      37.497  28.299  32.587  1.00  0.00    -0.200 F 
ATOM     83  F   UNL A   1      35.761  29.775  31.087  1.00  0.00    -0.200 F 
ENDBRANCH  59  73
BRANCH  60  84
ATOM     84  C   UNL A   1      47.659  26.018  32.282  1.00  0.00     0.064 A 
ATOM     85  C   UNL A   1      48.775  26.827  32.600  1.00  0.00     0.173 A 
ATOM     86  C   UNL A   1      47.068  25.344  33.360  1.00  0.00     0.173 A 
ATOM     87  F   UNL A   1      49.478  27.419  31.622  1.00  0.00    -0.203 F 
ATOM     88  C   UNL A   1      49.177  27.055  33.917  1.00  0.00     0.198 A 
ATOM     89  C   UNL A   1      47.453  25.593  34.680  1.00  0.00     0.198 A 
ATOM     90  F   UNL A   1      46.096  24.445  33.165  1.00  0.00    -0.203 F 
ATOM     91  F   UNL A   1      50.211  27.870  34.169  1.00  0.00    -0.200 F 
ATOM     92  C   UNL A   1      48.492  26.464  34.960  1.00  0.00     0.200 A 
ATOM     93  F   UNL A   1      46.790  25.003  35.686  1.00  0.00    -0.200 F 
ATOM     94  F   UNL A   1      48.832  26.727  36.229  1.00  0.00    -0.200 F 
ENDBRANCH  60  84
BRANCH  72  95
ATOM     95  C   UNL A   1      44.432  24.544  26.739  1.00  0.00     0.064 A 
ATOM     96  C   UNL A   1      45.376  25.278  26.007  1.00  0.00     0.173 A 
ATOM     97  C   UNL A   1      44.314  23.171  26.475  1.00  0.00     0.173 A 
ATOM     98  F   UNL A   1      45.532  26.592  26.232  1.00  0.00    -0.203 F 
ATOM     99  C   UNL A   1      46.185  24.657  25.062  1.00  0.00     0.198 A 
ATOM    100  C   UNL A   1      45.145  22.549  25.550  1.00  0.00     0.198 A 
ATOM    101  F   UNL A   1      43.412  22.423  27.129  1.00  0.00    -0.203 F 
ATOM    102  F   UNL A   1      47.087  25.376  24.379  1.00  0.00    -0.200 F 
ATOM    103  C   UNL A   1      46.080  23.292  24.845  1.00  0.00     0.200 A 
ATOM    104  F   UNL A   1      45.059  21.225  25.358  1.00  0.00    -0.200 F 
ATOM    105  F   UNL A   1      46.891  22.688  23.964  1.00  0.00    -0.200 F 
ENDBRANCH  72  95
ENDBRANCH  46  47
ENDBRANCH  38  41
ENDBRANCH  36  37
ENDBRANCH  35  36
ENDBRANCH   1  35
TORSDOF 13
ENDMDL
