MODEL 1
REMARK VINA RESULT:     -13.9      0.000      0.000
REMARK SMILES NS(=O)(=O)c1ccc(C(=O)N2CC[C@H](c3ccccc3C(=O)NCCCNC(=O)c3ccc(-c4c5nc(c(-c6c(F)c(F)c(F)c(F)c6F)c6ccc([nH]6)c(-c6c(F)c(F)c(F)c(F)c6F)c6nc(c(-c7c(F)c(F)c(F)c(F)c7F)c7ccc4[nH]7)C=C6)C=C5)cc3)C2)cc1
REMARK SMILES IDX 21 1 22 2 23 3 20 5 15 6 16 7 17 8 19 9 18 10 14 11 11 12
REMARK SMILES IDX 12 13 93 14 13 15 9 16 10 17 8 18 5 19 6 20 95 21 7 22 94 23
REMARK SMILES IDX 2 24 3 25 4 26 1 27 24 30 25 31 26 32 27 33 28 34 29 36
REMARK SMILES IDX 30 37 31 38 92 39 32 40 91 41 33 42 34 43 35 44 85 45 36 46
REMARK SMILES IDX 90 47 84 48 86 49 37 50 89 51 83 52 82 53 38 55 70 56 50 57
REMARK SMILES IDX 69 58 51 59 54 60 68 61 87 62 52 63 53 64 67 66 88 67 55 68
REMARK SMILES IDX 39 69 40 70 48 71 41 72 42 73 46 74 49 75 43 76 44 77 47 78
REMARK SMILES IDX 45 79 71 80 72 81 80 82 73 83 74 84 78 85 81 86 75 87 76 88
REMARK SMILES IDX 79 89 77 90 56 91 57 92 65 93 58 94 59 95 63 96 66 97 60 98
REMARK SMILES IDX 61 99 64 100 62 101
REMARK H PARENT 23 4 1 28 1 29 27 35 86 54 54 65
REMARK Flexibility Score: inf
ROOT
ATOM      1  C   UNL A   1      35.235  21.729  25.673  1.00  0.00     0.251 C 
ATOM      2  O   UNL A   1      35.044  21.474  26.864  1.00  0.00    -0.269 OA
ATOM      3  N   UNL A   1      36.322  22.517  25.387  1.00  0.00    -0.352 N 
ATOM      4  H   UNL A   1      36.256  23.473  25.614  1.00  0.00     0.163 HD
ENDROOT
BRANCH   1   5
ATOM      5  C   UNL A   1      34.134  21.475  24.674  1.00  0.00     0.043 A 
ATOM      6  C   UNL A   1      33.523  22.348  23.732  1.00  0.00    -0.030 A 
ATOM      7  C   UNL A   1      32.520  21.808  22.894  1.00  0.00     0.005 A 
ATOM      8  C   UNL A   1      32.151  20.463  22.937  1.00  0.00     0.000 A 
ATOM      9  C   UNL A   1      33.728  20.118  24.701  1.00  0.00     0.014 A 
ATOM     10  C   UNL A   1      32.759  19.613  23.841  1.00  0.00     0.001 A 
BRANCH   6  11
ATOM     11  C   UNL A   1      33.927  23.789  23.526  1.00  0.00     0.041 C 
ATOM     12  N   UNL A   1      33.486  26.116  23.905  1.00  0.00    -0.338 N 
ATOM     13  C   UNL A   1      33.622  25.884  22.483  1.00  0.00     0.120 C 
ATOM     14  C   UNL A   1      33.760  24.877  24.638  1.00  0.00     0.128 C 
ATOM     15  C   UNL A   1      33.138  24.445  22.378  1.00  0.00     0.032 C 
BRANCH  12  16
ATOM     16  C   UNL A   1      32.832  27.152  24.556  1.00  0.00     0.253 C 
ATOM     17  O   UNL A   1      33.164  27.501  25.688  1.00  0.00    -0.269 OA
BRANCH  16  18
ATOM     18  C   UNL A   1      31.584  27.742  23.962  1.00  0.00     0.040 A 
ATOM     19  C   UNL A   1      29.176  28.979  23.191  1.00  0.00     0.082 A 
ATOM     20  C   UNL A   1      30.357  29.728  23.256  1.00  0.00     0.022 A 
ATOM     21  C   UNL A   1      29.188  27.626  23.496  1.00  0.00     0.022 A 
ATOM     22  C   UNL A   1      31.559  29.105  23.633  1.00  0.00     0.015 A 
ATOM     23  C   UNL A   1      30.376  27.033  23.909  1.00  0.00     0.015 A 
BRANCH  19  24
ATOM     24  S   UNL A   1      27.653  29.781  22.797  1.00  0.00     0.238 S 
ATOM     25  O   UNL A   1      27.652  30.086  21.385  1.00  0.00    -0.207 OA
ATOM     26  O   UNL A   1      27.376  30.758  23.820  1.00  0.00    -0.207 OA
BRANCH  24  27
ATOM     27  N   UNL A   1      26.487  28.580  22.998  1.00  0.00    -0.225 NA
ATOM     28  H   UNL A   1      26.808  27.718  22.558  1.00  0.00     0.137 HD
ATOM     29  H   UNL A   1      25.614  28.879  22.564  1.00  0.00     0.137 HD
ENDBRANCH  24  27
ENDBRANCH  19  24
ENDBRANCH  16  18
ENDBRANCH  12  16
ENDBRANCH   6  11
ENDBRANCH   1   5
BRANCH   3  30
ATOM     30  C   UNL A   1      37.554  22.067  24.785  1.00  0.00     0.118 C 
BRANCH  30  31
ATOM     31  C   UNL A   1      37.947  20.686  25.265  1.00  0.00     0.042 C 
BRANCH  31  32
ATOM     32  C   UNL A   1      39.201  20.742  26.109  1.00  0.00     0.118 C 
BRANCH  32  33
ATOM     33  N   UNL A   1      40.027  19.541  26.022  1.00  0.00    -0.352 N 
ATOM     34  C   UNL A   1      41.392  19.419  26.143  1.00  0.00     0.251 C 
ATOM     35  H   UNL A   1      39.540  18.703  25.852  1.00  0.00     0.163 HD
ATOM     36  O   UNL A   1      41.930  18.332  25.966  1.00  0.00    -0.269 OA
BRANCH  34  37
ATOM     37  C   UNL A   1      42.200  20.623  26.430  1.00  0.00     0.039 A 
ATOM     38  C   UNL A   1      42.709  21.367  25.365  1.00  0.00     0.014 A 
ATOM     39  C   UNL A   1      42.365  21.066  27.743  1.00  0.00     0.014 A 
ATOM     40  C   UNL A   1      43.280  22.614  25.614  1.00  0.00     0.010 A 
ATOM     41  C   UNL A   1      42.801  22.360  27.974  1.00  0.00     0.010 A 
ATOM     42  C   UNL A   1      43.265  23.148  26.913  1.00  0.00    -0.014 A 
BRANCH  42  43
ATOM     43  C   UNL A   1      43.715  24.532  27.196  1.00  0.00     0.031 A 
ATOM     44  C   UNL A   1      42.725  25.552  27.683  1.00  0.00     0.074 A 
ATOM     45  C   UNL A   1      44.986  24.888  26.920  1.00  0.00     0.049 A 
ATOM     46  N   UNL A   1      42.887  26.836  27.881  1.00  0.00    -0.248 NA
ATOM     47  C   UNL A   1      41.356  25.076  27.941  1.00  0.00     0.031 C 
ATOM     48  C   UNL A   1      46.018  23.998  26.381  1.00  0.00     0.029 A 
ATOM     49  N   UNL A   1      45.624  26.096  27.042  1.00  0.00    -0.354 N 
ATOM     50  C   UNL A   1      41.644  27.315  28.268  1.00  0.00     0.074 A 
ATOM     51  C   UNL A   1      40.719  26.207  28.205  1.00  0.00     0.031 C 
ATOM     52  C   UNL A   1      47.166  24.681  26.252  1.00  0.00     0.029 A 
ATOM     53  C   UNL A   1      46.940  26.066  26.646  1.00  0.00     0.049 A 
ATOM     54  H   UNL A   1      45.181  26.908  27.380  1.00  0.00     0.167 HD
ATOM     55  C   UNL A   1      41.311  28.564  28.670  1.00  0.00     0.037 A 
ATOM     56  C   UNL A   1      47.855  27.052  26.597  1.00  0.00     0.037 A 
ATOM     57  C   UNL A   1      42.245  29.653  28.754  1.00  0.00     0.049 A 
ATOM     58  C   UNL A   1      47.454  28.435  27.034  1.00  0.00     0.074 A 
ATOM     59  C   UNL A   1      42.032  30.939  29.216  1.00  0.00     0.029 A 
ATOM     60  N   UNL A   1      43.575  29.583  28.358  1.00  0.00    -0.354 N 
ATOM     61  N   UNL A   1      46.297  28.860  27.480  1.00  0.00    -0.248 NA
ATOM     62  C   UNL A   1      48.488  29.476  26.963  1.00  0.00     0.031 C 
ATOM     63  C   UNL A   1      43.215  31.664  29.043  1.00  0.00     0.029 A 
ATOM     64  C   UNL A   1      44.184  30.814  28.532  1.00  0.00     0.049 A 
ATOM     65  H   UNL A   1      44.018  28.777  28.008  1.00  0.00     0.167 HD
ATOM     66  C   UNL A   1      46.466  30.208  27.762  1.00  0.00     0.074 A 
ATOM     67  C   UNL A   1      47.847  30.524  27.462  1.00  0.00     0.031 C 
ATOM     68  C   UNL A   1      45.560  31.107  28.222  1.00  0.00     0.037 A 
BRANCH  55  69
ATOM     69  C   UNL A   1      39.880  28.813  29.054  1.00  0.00     0.064 A 
ATOM     70  C   UNL A   1      39.427  28.639  30.371  1.00  0.00     0.173 A 
ATOM     71  C   UNL A   1      38.954  29.259  28.099  1.00  0.00     0.173 A 
ATOM     72  F   UNL A   1      40.266  28.199  31.322  1.00  0.00    -0.203 F 
ATOM     73  C   UNL A   1      38.095  28.869  30.710  1.00  0.00     0.198 A 
ATOM     74  C   UNL A   1      37.633  29.524  28.449  1.00  0.00     0.198 A 
ATOM     75  F   UNL A   1      39.333  29.445  26.825  1.00  0.00    -0.203 F 
ATOM     76  F   UNL A   1      37.675  28.639  31.962  1.00  0.00    -0.200 F 
ATOM     77  C   UNL A   1      37.202  29.320  29.751  1.00  0.00     0.200 A 
ATOM     78  F   UNL A   1      36.773  29.972  27.523  1.00  0.00    -0.200 F 
ATOM     79  F   UNL A   1      35.924  29.550  30.080  1.00  0.00    -0.200 F 
ENDBRANCH  55  69
BRANCH  56  80
ATOM     80  C   UNL A   1      49.238  26.766  26.129  1.00  0.00     0.064 A 
ATOM     81  C   UNL A   1      50.212  26.283  27.013  1.00  0.00     0.173 A 
ATOM     82  C   UNL A   1      49.618  26.974  24.794  1.00  0.00     0.173 A 
ATOM     83  F   UNL A   1      49.906  26.085  28.304  1.00  0.00    -0.203 F 
ATOM     84  C   UNL A   1      51.518  26.043  26.589  1.00  0.00     0.198 A 
ATOM     85  C   UNL A   1      50.915  26.703  24.362  1.00  0.00     0.198 A 
ATOM     86  F   UNL A   1      48.724  27.430  23.904  1.00  0.00    -0.203 F 
ATOM     87  F   UNL A   1      52.442  25.633  27.467  1.00  0.00    -0.200 F 
ATOM     88  C   UNL A   1      51.867  26.247  25.262  1.00  0.00     0.200 A 
ATOM     89  F   UNL A   1      51.242  26.887  23.076  1.00  0.00    -0.200 F 
ATOM     90  F   UNL A   1      53.121  26.015  24.852  1.00  0.00    -0.200 F 
ENDBRANCH  56  80
BRANCH  68  91
ATOM     91  C   UNL A   1      46.041  32.512  28.444  1.00  0.00     0.064 A 
ATOM     92  C   UNL A   1      45.944  33.488  27.442  1.00  0.00     0.173 A 
ATOM     93  C   UNL A   1      46.565  32.896  29.688  1.00  0.00     0.173 A 
ATOM     94  F   UNL A   1      45.464  33.168  26.230  1.00  0.00    -0.203 F 
ATOM     95  C   UNL A   1      46.379  34.790  27.668  1.00  0.00     0.198 A 
ATOM     96  C   UNL A   1      46.964  34.209  29.922  1.00  0.00     0.198 A 
ATOM     97  F   UNL A   1      46.671  32.003  30.683  1.00  0.00    -0.203 F 
ATOM     98  F   UNL A   1      46.326  35.694  26.679  1.00  0.00    -0.200 F 
ATOM     99  C   UNL A   1      46.880  35.152  28.909  1.00  0.00     0.200 A 
ATOM    100  F   UNL A   1      47.430  34.560  31.128  1.00  0.00    -0.200 F 
ATOM    101  F   UNL A   1      47.287  36.410  29.129  1.00  0.00    -0.200 F 
ENDBRANCH  68  91
ENDBRANCH  42  43
ENDBRANCH  34  37
ENDBRANCH  32  33
ENDBRANCH  31  32
ENDBRANCH  30  31
ENDBRANCH   3  30
TORSDOF 15
ENDMDL
MODEL 2
REMARK VINA RESULT:     -13.9      0.508      1.632
REMARK SMILES NS(=O)(=O)c1ccc(C(=O)N2CC[C@H](c3ccccc3C(=O)NCCCNC(=O)c3ccc(-c4c5nc(c(-c6c(F)c(F)c(F)c(F)c6F)c6ccc([nH]6)c(-c6c(F)c(F)c(F)c(F)c6F)c6nc(c(-c7c(F)c(F)c(F)c(F)c7F)c7ccc4[nH]7)C=C6)C=C5)cc3)C2)cc1
REMARK SMILES IDX 21 1 22 2 23 3 20 5 15 6 16 7 17 8 19 9 18 10 14 11 11 12
REMARK SMILES IDX 12 13 93 14 13 15 9 16 10 17 8 18 5 19 6 20 95 21 7 22 94 23
REMARK SMILES IDX 2 24 3 25 4 26 1 27 24 30 25 31 26 32 27 33 28 34 29 36
REMARK SMILES IDX 30 37 31 38 92 39 32 40 91 41 33 42 34 43 35 44 85 45 36 46
REMARK SMILES IDX 90 47 84 48 86 49 37 50 89 51 83 52 82 53 38 55 70 56 50 57
REMARK SMILES IDX 69 58 51 59 54 60 68 61 87 62 52 63 53 64 67 66 88 67 55 68
REMARK SMILES IDX 39 69 40 70 48 71 41 72 42 73 46 74 49 75 43 76 44 77 47 78
REMARK SMILES IDX 45 79 71 80 72 81 80 82 73 83 74 84 78 85 81 86 75 87 76 88
REMARK SMILES IDX 79 89 77 90 56 91 57 92 65 93 58 94 59 95 63 96 66 97 60 98
REMARK SMILES IDX 61 99 64 100 62 101
REMARK H PARENT 23 4 1 28 1 29 27 35 86 54 54 65
REMARK Flexibility Score: inf
ROOT
ATOM      1  C   UNL A   1      34.551  21.199  25.781  1.00  0.00     0.251 C 
ATOM      2  O   UNL A   1      34.083  21.169  26.922  1.00  0.00    -0.269 OA
ATOM      3  N   UNL A   1      35.906  21.397  25.685  1.00  0.00    -0.352 N 
ATOM      4  H   UNL A   1      36.243  22.301  25.880  1.00  0.00     0.163 HD
ENDROOT
BRANCH   1   5
ATOM      5  C   UNL A   1      33.623  21.360  24.603  1.00  0.00     0.043 A 
ATOM      6  C   UNL A   1      33.230  22.526  23.891  1.00  0.00    -0.030 A 
ATOM      7  C   UNL A   1      32.355  22.359  22.792  1.00  0.00     0.005 A 
ATOM      8  C   UNL A   1      31.912  21.105  22.371  1.00  0.00     0.000 A 
ATOM      9  C   UNL A   1      33.146  20.102  24.158  1.00  0.00     0.014 A 
ATOM     10  C   UNL A   1      32.311  19.971  23.053  1.00  0.00     0.001 A 
BRANCH   6  11
ATOM     11  C   UNL A   1      33.740  23.916  24.193  1.00  0.00     0.041 C 
ATOM     12  N   UNL A   1      33.276  26.167  24.878  1.00  0.00    -0.338 N 
ATOM     13  C   UNL A   1      33.983  26.191  23.615  1.00  0.00     0.120 C 
ATOM     14  C   UNL A   1      33.170  24.787  25.360  1.00  0.00     0.128 C 
ATOM     15  C   UNL A   1      33.529  24.873  23.005  1.00  0.00     0.032 C 
BRANCH  12  16
ATOM     16  C   UNL A   1      32.453  27.138  25.430  1.00  0.00     0.253 C 
ATOM     17  O   UNL A   1      32.492  27.395  26.632  1.00  0.00    -0.269 OA
BRANCH  16  18
ATOM     18  C   UNL A   1      31.367  27.761  24.599  1.00  0.00     0.040 A 
ATOM     19  C   UNL A   1      29.168  29.013  23.366  1.00  0.00     0.082 A 
ATOM     20  C   UNL A   1      30.240  29.783  23.831  1.00  0.00     0.022 A 
ATOM     21  C   UNL A   1      29.188  27.632  23.501  1.00  0.00     0.022 A 
ATOM     22  C   UNL A   1      31.341  29.154  24.438  1.00  0.00     0.015 A 
ATOM     23  C   UNL A   1      30.263  27.028  24.142  1.00  0.00     0.015 A 
BRANCH  19  24
ATOM     24  S   UNL A   1      27.751  29.811  22.677  1.00  0.00     0.238 S 
ATOM     25  O   UNL A   1      27.946  29.932  21.251  1.00  0.00    -0.207 OA
ATOM     26  O   UNL A   1      27.399  30.922  23.526  1.00  0.00    -0.207 OA
BRANCH  24  27
ATOM     27  N   UNL A   1      26.508  28.689  22.869  1.00  0.00    -0.225 NA
ATOM     28  H   UNL A   1      26.266  28.616  23.857  1.00  0.00     0.137 HD
ATOM     29  H   UNL A   1      26.815  27.780  22.525  1.00  0.00     0.137 HD
ENDBRANCH  24  27
ENDBRANCH  19  24
ENDBRANCH  16  18
ENDBRANCH  12  16
ENDBRANCH   6  11
ENDBRANCH   1   5
BRANCH   3  30
ATOM     30  C   UNL A   1      36.880  20.394  25.324  1.00  0.00     0.118 C 
BRANCH  30  31
ATOM     31  C   UNL A   1      38.222  21.007  24.983  1.00  0.00     0.042 C 
BRANCH  31  32
ATOM     32  C   UNL A   1      39.209  20.812  26.111  1.00  0.00     0.118 C 
BRANCH  32  33
ATOM     33  N   UNL A   1      40.041  19.621  25.971  1.00  0.00    -0.352 N 
ATOM     34  C   UNL A   1      41.406  19.498  26.097  1.00  0.00     0.251 C 
ATOM     35  H   UNL A   1      39.559  18.790  25.756  1.00  0.00     0.163 HD
ATOM     36  O   UNL A   1      41.950  18.423  25.870  1.00  0.00    -0.269 OA
BRANCH  34  37
ATOM     37  C   UNL A   1      42.206  20.689  26.449  1.00  0.00     0.039 A 
ATOM     38  C   UNL A   1      42.776  21.449  25.427  1.00  0.00     0.014 A 
ATOM     39  C   UNL A   1      42.305  21.106  27.777  1.00  0.00     0.014 A 
ATOM     40  C   UNL A   1      43.342  22.687  25.731  1.00  0.00     0.010 A 
ATOM     41  C   UNL A   1      42.738  22.391  28.057  1.00  0.00     0.010 A 
ATOM     42  C   UNL A   1      43.263  23.196  27.037  1.00  0.00    -0.014 A 
BRANCH  42  43
ATOM     43  C   UNL A   1      43.707  24.570  27.371  1.00  0.00     0.031 A 
ATOM     44  C   UNL A   1      42.701  25.588  27.828  1.00  0.00     0.074 A 
ATOM     45  C   UNL A   1      44.993  24.922  27.166  1.00  0.00     0.049 A 
ATOM     46  N   UNL A   1      42.862  26.866  28.060  1.00  0.00    -0.248 NA
ATOM     47  C   UNL A   1      41.318  25.117  28.009  1.00  0.00     0.031 C 
ATOM     48  C   UNL A   1      46.045  24.035  26.661  1.00  0.00     0.029 A 
ATOM     49  N   UNL A   1      45.632  26.122  27.344  1.00  0.00    -0.354 N 
ATOM     50  C   UNL A   1      41.604  27.347  28.395  1.00  0.00     0.074 A 
ATOM     51  C   UNL A   1      40.676  26.247  28.263  1.00  0.00     0.031 C 
ATOM     52  C   UNL A   1      47.202  24.711  26.604  1.00  0.00     0.029 A 
ATOM     53  C   UNL A   1      46.966  26.090  27.014  1.00  0.00     0.049 A 
ATOM     54  H   UNL A   1      45.178  26.931  27.677  1.00  0.00     0.167 HD
ATOM     55  C   UNL A   1      41.259  28.590  28.806  1.00  0.00     0.037 A 
ATOM     56  C   UNL A   1      47.889  27.070  27.031  1.00  0.00     0.037 A 
ATOM     57  C   UNL A   1      42.196  29.670  28.959  1.00  0.00     0.049 A 
ATOM     58  C   UNL A   1      47.476  28.447  27.476  1.00  0.00     0.074 A 
ATOM     59  C   UNL A   1      41.969  30.947  29.435  1.00  0.00     0.029 A 
ATOM     60  N   UNL A   1      43.543  29.597  28.628  1.00  0.00    -0.354 N 
ATOM     61  N   UNL A   1      46.301  28.871  27.873  1.00  0.00    -0.248 NA
ATOM     62  C   UNL A   1      48.519  29.481  27.478  1.00  0.00     0.031 C 
ATOM     63  C   UNL A   1      43.164  31.667  29.337  1.00  0.00     0.029 A 
ATOM     64  C   UNL A   1      44.151  30.820  28.857  1.00  0.00     0.049 A 
ATOM     65  H   UNL A   1      43.998  28.795  28.284  1.00  0.00     0.167 HD
ATOM     66  C   UNL A   1      46.465  30.212  28.190  1.00  0.00     0.074 A 
ATOM     67  C   UNL A   1      47.862  30.524  27.966  1.00  0.00     0.031 C 
ATOM     68  C   UNL A   1      45.543  31.108  28.623  1.00  0.00     0.037 A 
BRANCH  55  69
ATOM     69  C   UNL A   1      39.813  28.843  29.123  1.00  0.00     0.064 A 
ATOM     70  C   UNL A   1      39.290  28.632  30.408  1.00  0.00     0.173 A 
ATOM     71  C   UNL A   1      38.942  29.328  28.135  1.00  0.00     0.173 A 
ATOM     72  F   UNL A   1      40.074  28.154  31.387  1.00  0.00    -0.203 F 
ATOM     73  C   UNL A   1      37.945  28.866  30.685  1.00  0.00     0.198 A 
ATOM     74  C   UNL A   1      37.607  29.596  28.425  1.00  0.00     0.198 A 
ATOM     75  F   UNL A   1      39.388  29.549  26.890  1.00  0.00    -0.203 F 
ATOM     76  F   UNL A   1      37.458  28.601  31.905  1.00  0.00    -0.200 F 
ATOM     77  C   UNL A   1      37.107  29.356  29.695  1.00  0.00     0.200 A 
ATOM     78  F   UNL A   1      36.801  30.082  27.470  1.00  0.00    -0.200 F 
ATOM     79  F   UNL A   1      35.816  29.590  29.965  1.00  0.00    -0.200 F 
ENDBRANCH  55  69
BRANCH  56  80
ATOM     80  C   UNL A   1      49.292  26.782  26.627  1.00  0.00     0.064 A 
ATOM     81  C   UNL A   1      49.698  26.917  25.292  1.00  0.00     0.173 A 
ATOM     82  C   UNL A   1      50.252  26.360  27.560  1.00  0.00     0.173 A 
ATOM     83  F   UNL A   1      48.814  27.300  24.358  1.00  0.00    -0.203 F 
ATOM     84  C   UNL A   1      51.002  26.619  24.901  1.00  0.00     0.198 A 
ATOM     85  C   UNL A   1      51.564  26.093  27.173  1.00  0.00     0.198 A 
ATOM     86  F   UNL A   1      49.918  26.218  28.851  1.00  0.00    -0.203 F 
ATOM     87  F   UNL A   1      51.349  26.706  23.610  1.00  0.00    -0.200 F 
ATOM     88  C   UNL A   1      51.936  26.212  25.842  1.00  0.00     0.200 A 
ATOM     89  F   UNL A   1      52.466  25.716  28.090  1.00  0.00    -0.200 F 
ATOM     90  F   UNL A   1      53.189  25.926  25.468  1.00  0.00    -0.200 F 
ENDBRANCH  56  80
BRANCH  68  91
ATOM     91  C   UNL A   1      46.021  32.505  28.898  1.00  0.00     0.064 A 
ATOM     92  C   UNL A   1      46.544  32.870  30.146  1.00  0.00     0.173 A 
ATOM     93  C   UNL A   1      45.995  33.477  27.885  1.00  0.00     0.173 A 
ATOM     94  F   UNL A   1      46.577  31.982  31.152  1.00  0.00    -0.203 F 
ATOM     95  C   UNL A   1      46.998  34.165  30.380  1.00  0.00     0.198 A 
ATOM     96  C   UNL A   1      46.485  34.760  28.113  1.00  0.00     0.198 A 
ATOM     97  F   UNL A   1      45.514  33.177  26.670  1.00  0.00    -0.203 F 
ATOM     98  F   UNL A   1      47.444  34.506  31.597  1.00  0.00    -0.200 F 
ATOM     99  C   UNL A   1      46.976  35.105  29.362  1.00  0.00     0.200 A 
ATOM    100  F   UNL A   1      46.480  35.662  27.121  1.00  0.00    -0.200 F 
ATOM    101  F   UNL A   1      47.425  36.348  29.586  1.00  0.00    -0.200 F 
ENDBRANCH  68  91
ENDBRANCH  42  43
ENDBRANCH  34  37
ENDBRANCH  32  33
ENDBRANCH  31  32
ENDBRANCH  30  31
ENDBRANCH   3  30
TORSDOF 15
ENDMDL
MODEL 3
REMARK VINA RESULT:     -13.8      5.725     11.366
REMARK SMILES NS(=O)(=O)c1ccc(C(=O)N2CC[C@H](c3ccccc3C(=O)NCCCNC(=O)c3ccc(-c4c5nc(c(-c6c(F)c(F)c(F)c(F)c6F)c6ccc([nH]6)c(-c6c(F)c(F)c(F)c(F)c6F)c6nc(c(-c7c(F)c(F)c(F)c(F)c7F)c7ccc4[nH]7)C=C6)C=C5)cc3)C2)cc1
REMARK SMILES IDX 21 1 22 2 23 3 20 5 15 6 16 7 17 8 19 9 18 10 14 11 11 12
REMARK SMILES IDX 12 13 93 14 13 15 9 16 10 17 8 18 5 19 6 20 95 21 7 22 94 23
REMARK SMILES IDX 2 24 3 25 4 26 1 27 24 30 25 31 26 32 27 33 28 34 29 36
REMARK SMILES IDX 30 37 31 38 92 39 32 40 91 41 33 42 34 43 35 44 85 45 36 46
REMARK SMILES IDX 90 47 84 48 86 49 37 50 89 51 83 52 82 53 38 55 70 56 50 57
REMARK SMILES IDX 69 58 51 59 54 60 68 61 87 62 52 63 53 64 67 66 88 67 55 68
REMARK SMILES IDX 39 69 40 70 48 71 41 72 42 73 46 74 49 75 43 76 44 77 47 78
REMARK SMILES IDX 45 79 71 80 72 81 80 82 73 83 74 84 78 85 81 86 75 87 76 88
REMARK SMILES IDX 79 89 77 90 56 91 57 92 65 93 58 94 59 95 63 96 66 97 60 98
REMARK SMILES IDX 61 99 64 100 62 101
REMARK H PARENT 23 4 1 28 1 29 27 35 86 54 54 65
REMARK Flexibility Score: inf
ROOT
ATOM      1  C   UNL A   1      32.370  29.062  24.951  1.00  0.00     0.251 C 
ATOM      2  O   UNL A   1      33.170  29.485  24.114  1.00  0.00    -0.269 OA
ATOM      3  N   UNL A   1      32.770  29.128  26.262  1.00  0.00    -0.352 N 
ATOM      4  H   UNL A   1      33.461  28.489  26.554  1.00  0.00     0.163 HD
ENDROOT
BRANCH   1   5
ATOM      5  C   UNL A   1      31.203  28.218  24.502  1.00  0.00     0.043 A 
ATOM      6  C   UNL A   1      30.907  26.849  24.746  1.00  0.00    -0.030 A 
ATOM      7  C   UNL A   1      29.703  26.333  24.210  1.00  0.00     0.005 A 
ATOM      8  C   UNL A   1      28.800  27.125  23.501  1.00  0.00     0.000 A 
ATOM      9  C   UNL A   1      30.270  28.991  23.768  1.00  0.00     0.014 A 
ATOM     10  C   UNL A   1      29.081  28.460  23.281  1.00  0.00     0.001 A 
BRANCH   6  11
ATOM     11  C   UNL A   1      31.760  25.935  25.595  1.00  0.00     0.041 C 
ATOM     12  N   UNL A   1      33.306  24.105  25.722  1.00  0.00    -0.338 N 
ATOM     13  C   UNL A   1      32.172  23.831  26.581  1.00  0.00     0.120 C 
ATOM     14  C   UNL A   1      33.175  25.445  25.144  1.00  0.00     0.128 C 
ATOM     15  C   UNL A   1      31.069  24.583  25.851  1.00  0.00     0.032 C 
BRANCH  12  16
ATOM     16  C   UNL A   1      34.198  23.210  25.151  1.00  0.00     0.253 C 
ATOM     17  O   UNL A   1      35.302  23.580  24.753  1.00  0.00    -0.269 OA
BRANCH  16  18
ATOM     18  C   UNL A   1      33.757  21.807  24.840  1.00  0.00     0.040 A 
ATOM     19  C   UNL A   1      33.213  19.173  24.012  1.00  0.00     0.082 A 
ATOM     20  C   UNL A   1      34.201  19.413  24.974  1.00  0.00     0.022 A 
ATOM     21  C   UNL A   1      32.492  20.228  23.471  1.00  0.00     0.022 A 
ATOM     22  C   UNL A   1      34.464  20.728  25.392  1.00  0.00     0.015 A 
ATOM     23  C   UNL A   1      32.794  21.527  23.862  1.00  0.00     0.015 A 
BRANCH  19  24
ATOM     24  S   UNL A   1      32.940  17.528  23.429  1.00  0.00     0.238 S 
ATOM     25  O   UNL A   1      32.293  16.775  24.479  1.00  0.00    -0.207 OA
ATOM     26  O   UNL A   1      34.132  17.083  22.753  1.00  0.00    -0.207 OA
BRANCH  24  27
ATOM     27  N   UNL A   1      31.778  17.703  22.219  1.00  0.00    -0.225 NA
ATOM     28  H   UNL A   1      31.580  18.693  22.080  1.00  0.00     0.137 HD
ATOM     29  H   UNL A   1      30.924  17.221  22.497  1.00  0.00     0.137 HD
ENDBRANCH  24  27
ENDBRANCH  19  24
ENDBRANCH  16  18
ENDBRANCH  12  16
ENDBRANCH   6  11
ENDBRANCH   1   5
BRANCH   3  30
ATOM     30  C   UNL A   1      32.269  30.053  27.251  1.00  0.00     0.118 C 
BRANCH  30  31
ATOM     31  C   UNL A   1      32.185  31.465  26.714  1.00  0.00     0.042 C 
BRANCH  31  32
ATOM     32  C   UNL A   1      33.163  32.374  27.423  1.00  0.00     0.118 C 
BRANCH  32  33
ATOM     33  N   UNL A   1      32.668  33.732  27.628  1.00  0.00    -0.352 N 
ATOM     34  C   UNL A   1      33.109  34.691  28.510  1.00  0.00     0.251 C 
ATOM     35  H   UNL A   1      31.912  33.998  27.056  1.00  0.00     0.163 HD
ATOM     36  O   UNL A   1      32.521  35.763  28.598  1.00  0.00    -0.269 OA
BRANCH  34  37
ATOM     37  C   UNL A   1      34.260  34.388  29.386  1.00  0.00     0.039 A 
ATOM     38  C   UNL A   1      34.027  33.815  30.636  1.00  0.00     0.014 A 
ATOM     39  C   UNL A   1      35.565  34.577  28.928  1.00  0.00     0.014 A 
ATOM     40  C   UNL A   1      35.104  33.325  31.374  1.00  0.00     0.010 A 
ATOM     41  C   UNL A   1      36.614  33.967  29.593  1.00  0.00     0.010 A 
ATOM     42  C   UNL A   1      36.397  33.335  30.825  1.00  0.00    -0.014 A 
BRANCH  42  43
ATOM     43  C   UNL A   1      37.541  32.682  31.504  1.00  0.00     0.031 A 
ATOM     44  C   UNL A   1      38.228  31.515  30.853  1.00  0.00     0.074 A 
ATOM     45  C   UNL A   1      37.893  33.079  32.744  1.00  0.00     0.049 A 
ATOM     46  N   UNL A   1      39.168  30.737  31.325  1.00  0.00    -0.248 NA
ATOM     47  C   UNL A   1      37.765  31.143  29.505  1.00  0.00     0.031 C 
ATOM     48  C   UNL A   1      37.255  34.158  33.502  1.00  0.00     0.029 A 
ATOM     49  N   UNL A   1      38.866  32.612  33.591  1.00  0.00    -0.354 N 
ATOM     50  C   UNL A   1      39.393  29.783  30.343  1.00  0.00     0.074 A 
ATOM     51  C   UNL A   1      38.443  30.027  29.283  1.00  0.00     0.031 C 
ATOM     52  C   UNL A   1      37.874  34.292  34.685  1.00  0.00     0.029 A 
ATOM     53  C   UNL A   1      38.915  33.277  34.793  1.00  0.00     0.049 A 
ATOM     54  H   UNL A   1      39.471  31.870  33.360  1.00  0.00     0.167 HD
ATOM     55  C   UNL A   1      40.332  28.807  30.316  1.00  0.00     0.037 A 
ATOM     56  C   UNL A   1      39.706  33.079  35.864  1.00  0.00     0.037 A 
ATOM     57  C   UNL A   1      41.289  28.590  31.366  1.00  0.00     0.049 A 
ATOM     58  C   UNL A   1      40.729  31.977  35.815  1.00  0.00     0.074 A 
ATOM     59  C   UNL A   1      42.328  27.678  31.411  1.00  0.00     0.029 A 
ATOM     60  N   UNL A   1      41.319  29.293  32.564  1.00  0.00    -0.354 N 
ATOM     61  N   UNL A   1      40.992  31.133  34.847  1.00  0.00    -0.248 NA
ATOM     62  C   UNL A   1      41.568  31.800  37.007  1.00  0.00     0.031 C 
ATOM     63  C   UNL A   1      42.948  27.787  32.660  1.00  0.00     0.029 A 
ATOM     64  C   UNL A   1      42.336  28.809  33.370  1.00  0.00     0.049 A 
ATOM     65  H   UNL A   1      40.708  30.027  32.804  1.00  0.00     0.167 HD
ATOM     66  C   UNL A   1      42.036  30.341  35.301  1.00  0.00     0.074 A 
ATOM     67  C   UNL A   1      42.378  30.823  36.624  1.00  0.00     0.031 C 
ATOM     68  C   UNL A   1      42.655  29.303  34.685  1.00  0.00     0.037 A 
BRANCH  55  69
ATOM     69  C   UNL A   1      40.368  27.909  29.113  1.00  0.00     0.064 A 
ATOM     70  C   UNL A   1      39.632  26.715  29.059  1.00  0.00     0.173 A 
ATOM     71  C   UNL A   1      41.127  28.260  27.986  1.00  0.00     0.173 A 
ATOM     72  F   UNL A   1      38.902  26.322  30.114  1.00  0.00    -0.203 F 
ATOM     73  C   UNL A   1      39.681  25.890  27.938  1.00  0.00     0.198 A 
ATOM     74  C   UNL A   1      41.144  27.452  26.852  1.00  0.00     0.198 A 
ATOM     75  F   UNL A   1      41.848  29.391  27.982  1.00  0.00    -0.203 F 
ATOM     76  F   UNL A   1      39.016  24.726  27.934  1.00  0.00    -0.200 F 
ATOM     77  C   UNL A   1      40.429  26.264  26.832  1.00  0.00     0.200 A 
ATOM     78  F   UNL A   1      41.858  27.821  25.779  1.00  0.00    -0.200 F 
ATOM     79  F   UNL A   1      40.468  25.475  25.750  1.00  0.00    -0.200 F 
ENDBRANCH  55  69
BRANCH  56  80
ATOM     80  C   UNL A   1      39.570  33.947  37.065  1.00  0.00     0.064 A 
ATOM     81  C   UNL A   1      38.802  33.539  38.165  1.00  0.00     0.173 A 
ATOM     82  C   UNL A   1      40.194  35.202  37.136  1.00  0.00     0.173 A 
ATOM     83  F   UNL A   1      38.169  32.357  38.138  1.00  0.00    -0.203 F 
ATOM     84  C   UNL A   1      38.644  34.361  39.279  1.00  0.00     0.198 A 
ATOM     85  C   UNL A   1      40.062  36.009  38.265  1.00  0.00     0.198 A 
ATOM     86  F   UNL A   1      40.944  35.639  36.114  1.00  0.00    -0.203 F 
ATOM     87  F   UNL A   1      37.862  33.969  40.293  1.00  0.00    -0.200 F 
ATOM     88  C   UNL A   1      39.279  35.593  39.331  1.00  0.00     0.200 A 
ATOM     89  F   UNL A   1      40.691  37.191  38.316  1.00  0.00    -0.200 F 
ATOM     90  F   UNL A   1      39.129  36.383  40.402  1.00  0.00    -0.200 F 
ENDBRANCH  56  80
BRANCH  68  91
ATOM     91  C   UNL A   1      43.774  28.632  35.428  1.00  0.00     0.064 A 
ATOM     92  C   UNL A   1      43.533  27.589  36.333  1.00  0.00     0.173 A 
ATOM     93  C   UNL A   1      45.106  29.010  35.200  1.00  0.00     0.173 A 
ATOM     94  F   UNL A   1      42.276  27.200  36.598  1.00  0.00    -0.203 F 
ATOM     95  C   UNL A   1      44.582  26.966  37.002  1.00  0.00     0.198 A 
ATOM     96  C   UNL A   1      46.155  28.360  35.844  1.00  0.00     0.198 A 
ATOM     97  F   UNL A   1      45.392  29.997  34.338  1.00  0.00    -0.203 F 
ATOM     98  F   UNL A   1      44.325  26.007  37.903  1.00  0.00    -0.200 F 
ATOM     99  C   UNL A   1      45.892  27.345  36.751  1.00  0.00     0.200 A 
ATOM    100  F   UNL A   1      47.421  28.716  35.585  1.00  0.00    -0.200 F 
ATOM    101  F   UNL A   1      46.902  26.737  37.388  1.00  0.00    -0.200 F 
ENDBRANCH  68  91
ENDBRANCH  42  43
ENDBRANCH  34  37
ENDBRANCH  32  33
ENDBRANCH  31  32
ENDBRANCH  30  31
ENDBRANCH   3  30
TORSDOF 15
ENDMDL
