MODEL 1
REMARK VINA RESULT:     -12.3      0.000      0.000
REMARK SMILES Cc1ccc(Cl)c(Nc2ccccc2C(=O)N[C@@H](C)C(=O)NCCCNC(=O)c2ccc(-c3c4nc(c(-c5c(F)c(F)c(F)c(F)c5F)c5ccc([nH]5)c(-c5c(F)c(F)c(F)c(F)c5F)c5nc(c(-c6c(F)c(F)c(F)c(F)c6F)c6ccc3[nH]6)C=C5)C=C4)cc2)c1Cl
REMARK SMILES IDX 23 1 22 2 20 3 21 4 18 6 19 7 17 8 15 9 16 10 14 12 9 13
REMARK SMILES IDX 10 14 11 15 13 16 12 17 8 18 7 20 1 21 2 22 3 23 92 24 4 25
REMARK SMILES IDX 93 26 5 27 6 28 24 29 25 30 26 31 27 32 28 34 29 35 30 36
REMARK SMILES IDX 91 37 31 38 90 39 32 40 33 41 34 42 84 43 35 44 89 45 83 46
REMARK SMILES IDX 85 47 36 48 88 49 82 50 81 51 37 53 69 54 49 55 68 56 50 57
REMARK SMILES IDX 53 58 67 59 86 60 51 61 52 62 66 64 87 65 54 66 38 67 39 68
REMARK SMILES IDX 47 69 40 70 41 71 45 72 48 73 42 74 43 75 46 76 44 77 70 78
REMARK SMILES IDX 71 79 79 80 72 81 73 82 77 83 80 84 74 85 75 86 78 87 76 88
REMARK SMILES IDX 55 89 56 90 64 91 57 92 58 93 62 94 65 95 59 96 60 97 63 98
REMARK SMILES IDX 61 99
REMARK H PARENT 22 5 17 11 8 19 26 33 85 52 53 63
REMARK Flexibility Score: inf
ROOT
ATOM      1  C   UNL A   1      37.026  20.742  24.755  1.00  0.00     0.117 C 
ENDROOT
BRANCH   1   2
ATOM      2  N   UNL A   1      37.493  22.112  24.600  1.00  0.00    -0.354 N 
ATOM      3  C   UNL A   1      36.687  23.003  23.941  1.00  0.00     0.242 C 
ATOM      4  O   UNL A   1      36.665  22.959  22.711  1.00  0.00    -0.273 OA
ATOM      5  H   UNL A   1      38.365  22.391  24.960  1.00  0.00     0.163 HD
BRANCH   3   6
ATOM      6  C   UNL A   1      35.888  24.039  24.772  1.00  0.00     0.168 C 
ATOM      7  C   UNL A   1      35.504  23.566  26.164  1.00  0.00     0.041 C 
BRANCH   6   8
ATOM      8  N   UNL A   1      34.714  24.332  23.960  1.00  0.00    -0.340 N 
ATOM      9  C   UNL A   1      34.033  25.522  23.853  1.00  0.00     0.254 C 
ATOM     10  O   UNL A   1      33.668  25.842  22.718  1.00  0.00    -0.269 OA
ATOM     11  H   UNL A   1      34.366  23.585  23.422  1.00  0.00     0.164 HD
BRANCH   9  12
ATOM     12  C   UNL A   1      33.446  26.243  25.021  1.00  0.00     0.063 A 
ATOM     13  C   UNL A   1      32.320  25.934  25.808  1.00  0.00     0.051 A 
ATOM     14  C   UNL A   1      31.952  26.850  26.826  1.00  0.00     0.027 A 
ATOM     15  C   UNL A   1      32.697  27.994  27.112  1.00  0.00     0.002 A 
ATOM     16  C   UNL A   1      34.197  27.404  25.340  1.00  0.00     0.016 A 
ATOM     17  C   UNL A   1      33.838  28.263  26.376  1.00  0.00     0.001 A 
BRANCH  13  18
ATOM     18  N   UNL A   1      31.549  24.758  25.789  1.00  0.00    -0.352 N 
ATOM     19  H   UNL A   1      30.697  24.854  26.272  1.00  0.00     0.167 HD
BRANCH  18  20
ATOM     20  C   UNL A   1      31.719  23.464  25.231  1.00  0.00     0.077 A 
ATOM     21  C   UNL A   1      33.379  20.043  25.788  1.00  0.00     0.046 C 
ATOM     22  C   UNL A   1      32.606  21.172  25.158  1.00  0.00    -0.030 A 
ATOM     23  C   UNL A   1      32.215  21.054  23.816  1.00  0.00     0.006 A 
ATOM     24  C   UNL A   1      32.315  22.360  25.875  1.00  0.00     0.069 A 
ATOM     25  C   UNL A   1      31.561  22.101  23.182  1.00  0.00     0.023 A 
ATOM     26  Cl  UNL A   1      32.600  22.359  27.590  1.00  0.00    -0.082 Cl
ATOM     27  C   UNL A   1      31.332  23.289  23.876  1.00  0.00     0.066 A 
ATOM     28  Cl  UNL A   1      30.574  24.582  22.997  1.00  0.00    -0.082 Cl
ENDBRANCH  18  20
ENDBRANCH  13  18
ENDBRANCH   9  12
ENDBRANCH   6   8
ENDBRANCH   3   6
ENDBRANCH   1   2
BRANCH   1  29
ATOM     29  C   UNL A   1      38.143  19.709  24.959  1.00  0.00     0.042 C 
BRANCH  29  30
ATOM     30  C   UNL A   1      39.180  20.102  26.007  1.00  0.00     0.118 C 
BRANCH  30  31
ATOM     31  N   UNL A   1      40.362  19.250  25.947  1.00  0.00    -0.352 N 
ATOM     32  C   UNL A   1      41.686  19.589  26.002  1.00  0.00     0.251 C 
ATOM     33  H   UNL A   1      40.180  18.288  25.854  1.00  0.00     0.163 HD
ATOM     34  O   UNL A   1      42.540  18.770  25.647  1.00  0.00    -0.269 OA
BRANCH  32  35
ATOM     35  C   UNL A   1      42.108  20.922  26.473  1.00  0.00     0.039 A 
ATOM     36  C   UNL A   1      42.430  21.907  25.534  1.00  0.00     0.014 A 
ATOM     37  C   UNL A   1      42.248  21.186  27.838  1.00  0.00     0.014 A 
ATOM     38  C   UNL A   1      42.844  23.169  25.965  1.00  0.00     0.010 A 
ATOM     39  C   UNL A   1      42.592  22.465  28.268  1.00  0.00     0.010 A 
ATOM     40  C   UNL A   1      42.908  23.465  27.337  1.00  0.00    -0.014 A 
BRANCH  40  41
ATOM     41  C   UNL A   1      43.325  24.807  27.817  1.00  0.00     0.031 A 
ATOM     42  C   UNL A   1      42.288  25.846  28.144  1.00  0.00     0.074 A 
ATOM     43  C   UNL A   1      44.635  25.111  27.897  1.00  0.00     0.049 A 
ATOM     44  N   UNL A   1      42.449  27.095  28.504  1.00  0.00    -0.248 NA
ATOM     45  C   UNL A   1      40.880  25.435  28.024  1.00  0.00     0.031 C 
ATOM     46  C   UNL A   1      45.734  24.206  27.564  1.00  0.00     0.029 A 
ATOM     47  N   UNL A   1      45.262  26.273  28.273  1.00  0.00    -0.354 N 
ATOM     48  C   UNL A   1      41.169  27.621  28.627  1.00  0.00     0.074 A 
ATOM     49  C   UNL A   1      40.243  26.571  28.261  1.00  0.00     0.031 C 
ATOM     50  C   UNL A   1      46.902  24.838  27.769  1.00  0.00     0.029 A 
ATOM     51  C   UNL A   1      46.632  26.202  28.214  1.00  0.00     0.049 A 
ATOM     52  H   UNL A   1      44.775  27.081  28.557  1.00  0.00     0.167 HD
ATOM     53  C   UNL A   1      40.799  28.861  29.031  1.00  0.00     0.037 A 
ATOM     54  C   UNL A   1      47.564  27.135  28.486  1.00  0.00     0.037 A 
ATOM     55  C   UNL A   1      41.723  29.890  29.429  1.00  0.00     0.049 A 
ATOM     56  C   UNL A   1      47.126  28.499  28.945  1.00  0.00     0.074 A 
ATOM     57  C   UNL A   1      41.447  31.156  29.917  1.00  0.00     0.029 A 
ATOM     58  N   UNL A   1      43.103  29.770  29.388  1.00  0.00    -0.354 N 
ATOM     59  N   UNL A   1      45.914  28.963  29.126  1.00  0.00    -0.248 NA
ATOM     60  C   UNL A   1      48.189  29.468  29.248  1.00  0.00     0.031 C 
ATOM     61  C   UNL A   1      42.662  31.816  30.133  1.00  0.00     0.029 A 
ATOM     62  C   UNL A   1      43.694  30.945  29.826  1.00  0.00     0.049 A 
ATOM     63  H   UNL A   1      43.593  28.968  29.091  1.00  0.00     0.167 HD
ATOM     64  C   UNL A   1      46.067  30.261  29.594  1.00  0.00     0.074 A 
ATOM     65  C   UNL A   1      47.492  30.508  29.680  1.00  0.00     0.031 C 
ATOM     66  C   UNL A   1      45.114  31.166  29.924  1.00  0.00     0.037 A 
BRANCH  53  67
ATOM     67  C   UNL A   1      39.331  29.171  29.067  1.00  0.00     0.064 A 
ATOM     68  C   UNL A   1      38.617  29.489  27.902  1.00  0.00     0.173 A 
ATOM     69  C   UNL A   1      38.620  29.114  30.275  1.00  0.00     0.173 A 
ATOM     70  F   UNL A   1      39.251  29.568  26.722  1.00  0.00    -0.203 F 
ATOM     71  C   UNL A   1      37.254  29.769  27.950  1.00  0.00     0.198 A 
ATOM     72  C   UNL A   1      37.251  29.364  30.315  1.00  0.00     0.198 A 
ATOM     73  F   UNL A   1      39.253  28.807  31.419  1.00  0.00    -0.203 F 
ATOM     74  F   UNL A   1      36.604  30.120  26.831  1.00  0.00    -0.200 F 
ATOM     75  C   UNL A   1      36.571  29.699  29.154  1.00  0.00     0.200 A 
ATOM     76  F   UNL A   1      36.590  29.284  31.478  1.00  0.00    -0.200 F 
ATOM     77  F   UNL A   1      35.257  29.963  29.198  1.00  0.00    -0.200 F 
ENDBRANCH  53  67
BRANCH  54  78
ATOM     78  C   UNL A   1      49.007  26.801  28.368  1.00  0.00     0.064 A 
ATOM     79  C   UNL A   1      49.675  26.934  27.142  1.00  0.00     0.173 A 
ATOM     80  C   UNL A   1      49.744  26.337  29.467  1.00  0.00     0.173 A 
ATOM     81  F   UNL A   1      49.006  27.354  26.059  1.00  0.00    -0.203 F 
ATOM     82  C   UNL A   1      51.020  26.595  27.015  1.00  0.00     0.198 A 
ATOM     83  C   UNL A   1      51.097  26.024  29.344  1.00  0.00     0.198 A 
ATOM     84  F   UNL A   1      49.153  26.198  30.661  1.00  0.00    -0.203 F 
ATOM     85  F   UNL A   1      51.622  26.688  25.821  1.00  0.00    -0.200 F 
ATOM     86  C   UNL A   1      51.731  26.146  28.117  1.00  0.00     0.200 A 
ATOM     87  F   UNL A   1      51.785  25.603  30.413  1.00  0.00    -0.200 F 
ATOM     88  F   UNL A   1      53.026  25.821  27.994  1.00  0.00    -0.200 F 
ENDBRANCH  54  78
BRANCH  66  89
ATOM     89  C   UNL A   1      45.578  32.490  30.457  1.00  0.00     0.064 A 
ATOM     90  C   UNL A   1      45.799  33.589  29.615  1.00  0.00     0.173 A 
ATOM     91  C   UNL A   1      45.766  32.669  31.836  1.00  0.00     0.173 A 
ATOM     92  F   UNL A   1      45.647  33.463  28.288  1.00  0.00    -0.203 F 
ATOM     93  C   UNL A   1      46.218  34.812  30.131  1.00  0.00     0.198 A 
ATOM     94  C   UNL A   1      46.156  33.901  32.351  1.00  0.00     0.198 A 
ATOM     95  F   UNL A   1      45.561  31.651  32.685  1.00  0.00    -0.203 F 
ATOM     96  F   UNL A   1      46.469  35.836  29.304  1.00  0.00    -0.200 F 
ATOM     97  C   UNL A   1      46.388  34.970  31.499  1.00  0.00     0.200 A 
ATOM     98  F   UNL A   1      46.308  34.055  33.675  1.00  0.00    -0.200 F 
ATOM     99  F   UNL A   1      46.785  36.150  31.994  1.00  0.00    -0.200 F 
ENDBRANCH  66  89
ENDBRANCH  40  41
ENDBRANCH  32  35
ENDBRANCH  30  31
ENDBRANCH  29  30
ENDBRANCH   1  29
TORSDOF 14
ENDMDL
MODEL 2
REMARK VINA RESULT:     -12.1      4.244      7.951
REMARK SMILES Cc1ccc(Cl)c(Nc2ccccc2C(=O)N[C@@H](C)C(=O)NCCCNC(=O)c2ccc(-c3c4nc(c(-c5c(F)c(F)c(F)c(F)c5F)c5ccc([nH]5)c(-c5c(F)c(F)c(F)c(F)c5F)c5nc(c(-c6c(F)c(F)c(F)c(F)c6F)c6ccc3[nH]6)C=C5)C=C4)cc2)c1Cl
REMARK SMILES IDX 23 1 22 2 20 3 21 4 18 6 19 7 17 8 15 9 16 10 14 12 9 13
REMARK SMILES IDX 10 14 11 15 13 16 12 17 8 18 7 20 1 21 2 22 3 23 92 24 4 25
REMARK SMILES IDX 93 26 5 27 6 28 24 29 25 30 26 31 27 32 28 34 29 35 30 36
REMARK SMILES IDX 91 37 31 38 90 39 32 40 33 41 34 42 84 43 35 44 89 45 83 46
REMARK SMILES IDX 85 47 36 48 88 49 82 50 81 51 37 53 69 54 49 55 68 56 50 57
REMARK SMILES IDX 53 58 67 59 86 60 51 61 52 62 66 64 87 65 54 66 38 67 39 68
REMARK SMILES IDX 47 69 40 70 41 71 45 72 48 73 42 74 43 75 46 76 44 77 70 78
REMARK SMILES IDX 71 79 79 80 72 81 73 82 77 83 80 84 74 85 75 86 78 87 76 88
REMARK SMILES IDX 55 89 56 90 64 91 57 92 58 93 62 94 65 95 59 96 60 97 63 98
REMARK SMILES IDX 61 99
REMARK H PARENT 22 5 17 11 8 19 26 33 85 52 53 63
REMARK Flexibility Score: inf
ROOT
ATOM      1  C   UNL A   1      31.894  28.206  23.414  1.00  0.00     0.117 C 
ENDROOT
BRANCH   1   2
ATOM      2  N   UNL A   1      30.924  27.192  23.028  1.00  0.00    -0.354 N 
ATOM      3  C   UNL A   1      31.378  26.066  22.391  1.00  0.00     0.242 C 
ATOM      4  O   UNL A   1      31.644  26.149  21.192  1.00  0.00    -0.273 OA
ATOM      5  H   UNL A   1      29.966  27.311  23.219  1.00  0.00     0.163 HD
BRANCH   3   6
ATOM      6  C   UNL A   1      31.488  24.748  23.200  1.00  0.00     0.168 C 
ATOM      7  C   UNL A   1      30.754  24.764  24.531  1.00  0.00     0.041 C 
BRANCH   6   8
ATOM      8  N   UNL A   1      32.920  24.547  23.378  1.00  0.00    -0.340 N 
ATOM      9  C   UNL A   1      33.678  23.465  22.994  1.00  0.00     0.254 C 
ATOM     10  O   UNL A   1      34.782  23.717  22.505  1.00  0.00    -0.269 OA
ATOM     11  H   UNL A   1      33.404  25.276  23.828  1.00  0.00     0.164 HD
BRANCH   9  12
ATOM     12  C   UNL A   1      33.393  22.065  23.428  1.00  0.00     0.063 A 
ATOM     13  C   UNL A   1      33.924  21.319  24.498  1.00  0.00     0.051 A 
ATOM     14  C   UNL A   1      33.513  19.968  24.632  1.00  0.00     0.027 A 
ATOM     15  C   UNL A   1      32.565  19.385  23.792  1.00  0.00     0.002 A 
ATOM     16  C   UNL A   1      32.419  21.455  22.596  1.00  0.00     0.016 A 
ATOM     17  C   UNL A   1      32.000  20.140  22.779  1.00  0.00     0.001 A 
BRANCH  13  18
ATOM     18  N   UNL A   1      34.750  21.773  25.542  1.00  0.00    -0.352 N 
ATOM     19  H   UNL A   1      34.284  21.809  26.408  1.00  0.00     0.167 HD
BRANCH  18  20
ATOM     20  C   UNL A   1      36.103  22.191  25.632  1.00  0.00     0.077 A 
ATOM     21  C   UNL A   1      39.721  20.931  25.941  1.00  0.00     0.046 C 
ATOM     22  C   UNL A   1      38.528  21.846  25.857  1.00  0.00    -0.030 A 
ATOM     23  C   UNL A   1      38.706  23.211  26.128  1.00  0.00     0.006 A 
ATOM     24  C   UNL A   1      37.233  21.349  25.564  1.00  0.00     0.069 A 
ATOM     25  C   UNL A   1      37.618  24.073  26.128  1.00  0.00     0.023 A 
ATOM     26  Cl  UNL A   1      37.107  19.710  24.999  1.00  0.00    -0.082 Cl
ATOM     27  C   UNL A   1      36.339  23.566  25.897  1.00  0.00     0.066 A 
ATOM     28  Cl  UNL A   1      35.017  24.690  25.984  1.00  0.00    -0.082 Cl
ENDBRANCH  18  20
ENDBRANCH  13  18
ENDBRANCH   9  12
ENDBRANCH   6   8
ENDBRANCH   3   6
ENDBRANCH   1   2
BRANCH   1  29
ATOM     29  C   UNL A   1      32.036  28.406  24.929  1.00  0.00     0.042 C 
BRANCH  29  30
ATOM     30  C   UNL A   1      33.244  29.241  25.343  1.00  0.00     0.118 C 
BRANCH  30  31
ATOM     31  N   UNL A   1      32.856  30.575  25.787  1.00  0.00    -0.352 N 
ATOM     32  C   UNL A   1      33.270  31.286  26.879  1.00  0.00     0.251 C 
ATOM     33  H   UNL A   1      32.198  31.031  25.215  1.00  0.00     0.163 HD
ATOM     34  O   UNL A   1      32.621  32.271  27.247  1.00  0.00    -0.269 OA
BRANCH  32  35
ATOM     35  C   UNL A   1      34.478  30.890  27.627  1.00  0.00     0.039 A 
ATOM     36  C   UNL A   1      35.520  31.811  27.778  1.00  0.00     0.014 A 
ATOM     37  C   UNL A   1      34.615  29.593  28.128  1.00  0.00     0.014 A 
ATOM     38  C   UNL A   1      36.676  31.445  28.471  1.00  0.00     0.010 A 
ATOM     39  C   UNL A   1      35.736  29.252  28.880  1.00  0.00     0.010 A 
ATOM     40  C   UNL A   1      36.784  30.169  29.047  1.00  0.00    -0.014 A 
BRANCH  40  41
ATOM     41  C   UNL A   1      37.995  29.766  29.807  1.00  0.00     0.031 A 
ATOM     42  C   UNL A   1      38.223  30.296  31.196  1.00  0.00     0.074 A 
ATOM     43  C   UNL A   1      38.919  28.979  29.224  1.00  0.00     0.049 A 
ATOM     44  N   UNL A   1      39.249  30.125  31.992  1.00  0.00    -0.248 NA
ATOM     45  C   UNL A   1      37.168  31.156  31.757  1.00  0.00     0.031 C 
ATOM     46  C   UNL A   1      38.835  28.440  27.867  1.00  0.00     0.029 A 
ATOM     47  N   UNL A   1      40.117  28.505  29.698  1.00  0.00    -0.354 N 
ATOM     48  C   UNL A   1      38.974  30.873  33.130  1.00  0.00     0.074 A 
ATOM     49  C   UNL A   1      37.708  31.535  32.906  1.00  0.00     0.031 C 
ATOM     50  C   UNL A   1      39.924  27.692  27.623  1.00  0.00     0.029 A 
ATOM     51  C   UNL A   1      40.797  27.729  28.792  1.00  0.00     0.049 A 
ATOM     52  H   UNL A   1      40.457  28.704  30.601  1.00  0.00     0.167 HD
ATOM     53  C   UNL A   1      39.702  30.979  34.268  1.00  0.00     0.037 A 
ATOM     54  C   UNL A   1      41.993  27.118  28.895  1.00  0.00     0.037 A 
ATOM     55  C   UNL A   1      40.944  30.290  34.502  1.00  0.00     0.049 A 
ATOM     56  C   UNL A   1      42.774  27.242  30.175  1.00  0.00     0.074 A 
ATOM     57  C   UNL A   1      41.724  30.280  35.645  1.00  0.00     0.029 A 
ATOM     58  N   UNL A   1      41.586  29.486  33.573  1.00  0.00    -0.354 N 
ATOM     59  N   UNL A   1      42.472  27.894  31.270  1.00  0.00    -0.248 NA
ATOM     60  C   UNL A   1      44.062  26.535  30.235  1.00  0.00     0.031 C 
ATOM     61  C   UNL A   1      42.858  29.500  35.393  1.00  0.00     0.029 A 
ATOM     62  C   UNL A   1      42.761  28.987  34.111  1.00  0.00     0.049 A 
ATOM     63  H   UNL A   1      41.255  29.297  32.664  1.00  0.00     0.167 HD
ATOM     64  C   UNL A   1      43.509  27.651  32.159  1.00  0.00     0.074 A 
ATOM     65  C   UNL A   1      44.447  26.780  31.479  1.00  0.00     0.031 C 
ATOM     66  C   UNL A   1      43.671  28.106  33.426  1.00  0.00     0.037 A 
BRANCH  53  67
ATOM     67  C   UNL A   1      39.170  31.872  35.352  1.00  0.00     0.064 A 
ATOM     68  C   UNL A   1      38.369  31.373  36.390  1.00  0.00     0.173 A 
ATOM     69  C   UNL A   1      39.494  33.237  35.373  1.00  0.00     0.173 A 
ATOM     70  F   UNL A   1      38.020  30.077  36.410  1.00  0.00    -0.203 F 
ATOM     71  C   UNL A   1      37.887  32.212  37.391  1.00  0.00     0.198 A 
ATOM     72  C   UNL A   1      39.035  34.067  36.393  1.00  0.00     0.198 A 
ATOM     73  F   UNL A   1      40.263  33.765  34.408  1.00  0.00    -0.203 F 
ATOM     74  F   UNL A   1      37.082  31.721  38.344  1.00  0.00    -0.200 F 
ATOM     75  C   UNL A   1      38.226  33.556  37.395  1.00  0.00     0.200 A 
ATOM     76  F   UNL A   1      39.374  35.364  36.403  1.00  0.00    -0.200 F 
ATOM     77  F   UNL A   1      37.767  34.362  38.364  1.00  0.00    -0.200 F 
ENDBRANCH  53  67
BRANCH  54  78
ATOM     78  C   UNL A   1      42.510  26.301  27.766  1.00  0.00     0.064 A 
ATOM     79  C   UNL A   1      42.066  24.986  27.571  1.00  0.00     0.173 A 
ATOM     80  C   UNL A   1      43.459  26.810  26.867  1.00  0.00     0.173 A 
ATOM     81  F   UNL A   1      41.175  24.450  28.418  1.00  0.00    -0.203 F 
ATOM     82  C   UNL A   1      42.566  24.203  26.535  1.00  0.00     0.198 A 
ATOM     83  C   UNL A   1      43.938  26.034  25.813  1.00  0.00     0.198 A 
ATOM     84  F   UNL A   1      43.911  28.064  27.007  1.00  0.00    -0.203 F 
ATOM     85  F   UNL A   1      42.158  22.933  26.400  1.00  0.00    -0.200 F 
ATOM     86  C   UNL A   1      43.498  24.729  25.652  1.00  0.00     0.200 A 
ATOM     87  F   UNL A   1      44.828  26.550  24.955  1.00  0.00    -0.200 F 
ATOM     88  F   UNL A   1      43.978  23.975  24.654  1.00  0.00    -0.200 F 
ENDBRANCH  54  78
BRANCH  66  89
ATOM     89  C   UNL A   1      44.881  27.631  34.177  1.00  0.00     0.064 A 
ATOM     90  C   UNL A   1      44.867  26.444  34.924  1.00  0.00     0.173 A 
ATOM     91  C   UNL A   1      46.081  28.356  34.115  1.00  0.00     0.173 A 
ATOM     92  F   UNL A   1      43.740  25.724  35.026  1.00  0.00    -0.203 F 
ATOM     93  C   UNL A   1      46.004  26.015  35.604  1.00  0.00     0.198 A 
ATOM     94  C   UNL A   1      47.223  27.908  34.771  1.00  0.00     0.198 A 
ATOM     95  F   UNL A   1      46.148  29.494  33.408  1.00  0.00    -0.203 F 
ATOM     96  F   UNL A   1      45.955  24.904  36.350  1.00  0.00    -0.200 F 
ATOM     97  C   UNL A   1      47.182  26.742  35.521  1.00  0.00     0.200 A 
ATOM     98  F   UNL A   1      48.364  28.605  34.680  1.00  0.00    -0.200 F 
ATOM     99  F   UNL A   1      48.276  26.323  36.171  1.00  0.00    -0.200 F 
ENDBRANCH  66  89
ENDBRANCH  40  41
ENDBRANCH  32  35
ENDBRANCH  30  31
ENDBRANCH  29  30
ENDBRANCH   1  29
TORSDOF 14
ENDMDL
MODEL 3
REMARK VINA RESULT:     -12.1      4.991     10.047
REMARK SMILES Cc1ccc(Cl)c(Nc2ccccc2C(=O)N[C@@H](C)C(=O)NCCCNC(=O)c2ccc(-c3c4nc(c(-c5c(F)c(F)c(F)c(F)c5F)c5ccc([nH]5)c(-c5c(F)c(F)c(F)c(F)c5F)c5nc(c(-c6c(F)c(F)c(F)c(F)c6F)c6ccc3[nH]6)C=C5)C=C4)cc2)c1Cl
REMARK SMILES IDX 23 1 22 2 20 3 21 4 18 6 19 7 17 8 15 9 16 10 14 12 9 13
REMARK SMILES IDX 10 14 11 15 13 16 12 17 8 18 7 20 1 21 2 22 3 23 92 24 4 25
REMARK SMILES IDX 93 26 5 27 6 28 24 29 25 30 26 31 27 32 28 34 29 35 30 36
REMARK SMILES IDX 91 37 31 38 90 39 32 40 33 41 34 42 84 43 35 44 89 45 83 46
REMARK SMILES IDX 85 47 36 48 88 49 82 50 81 51 37 53 69 54 49 55 68 56 50 57
REMARK SMILES IDX 53 58 67 59 86 60 51 61 52 62 66 64 87 65 54 66 38 67 39 68
REMARK SMILES IDX 47 69 40 70 41 71 45 72 48 73 42 74 43 75 46 76 44 77 70 78
REMARK SMILES IDX 71 79 79 80 72 81 73 82 77 83 80 84 74 85 75 86 78 87 76 88
REMARK SMILES IDX 55 89 56 90 64 91 57 92 58 93 62 94 65 95 59 96 60 97 63 98
REMARK SMILES IDX 61 99
REMARK H PARENT 22 5 17 11 8 19 26 33 85 52 53 63
REMARK Flexibility Score: inf
ROOT
ATOM      1  C   UNL A   1      31.534  30.382  26.339  1.00  0.00     0.117 C 
ENDROOT
BRANCH   1   2
ATOM      2  N   UNL A   1      32.391  29.626  27.240  1.00  0.00    -0.354 N 
ATOM      3  C   UNL A   1      32.211  28.270  27.324  1.00  0.00     0.242 C 
ATOM      4  O   UNL A   1      31.273  27.854  28.003  1.00  0.00    -0.273 OA
ATOM      5  H   UNL A   1      33.083  30.077  27.776  1.00  0.00     0.163 HD
BRANCH   3   6
ATOM      6  C   UNL A   1      33.221  27.340  26.603  1.00  0.00     0.168 C 
ATOM      7  C   UNL A   1      33.925  27.977  25.416  1.00  0.00     0.041 C 
BRANCH   6   8
ATOM      8  N   UNL A   1      32.429  26.184  26.202  1.00  0.00    -0.340 N 
ATOM      9  C   UNL A   1      32.824  24.868  26.138  1.00  0.00     0.254 C 
ATOM     10  O   UNL A   1      32.011  24.033  26.545  1.00  0.00    -0.269 OA
ATOM     11  H   UNL A   1      31.497  26.369  25.944  1.00  0.00     0.164 HD
BRANCH   9  12
ATOM     12  C   UNL A   1      33.986  24.395  25.328  1.00  0.00     0.063 A 
ATOM     13  C   UNL A   1      34.123  24.246  23.934  1.00  0.00     0.051 A 
ATOM     14  C   UNL A   1      35.337  23.703  23.442  1.00  0.00     0.027 A 
ATOM     15  C   UNL A   1      36.408  23.381  24.277  1.00  0.00     0.002 A 
ATOM     16  C   UNL A   1      35.093  24.075  26.155  1.00  0.00     0.016 A 
ATOM     17  C   UNL A   1      36.292  23.586  25.641  1.00  0.00     0.001 A 
BRANCH  13  18
ATOM     18  N   UNL A   1      33.235  24.669  22.929  1.00  0.00    -0.352 N 
ATOM     19  H   UNL A   1      33.418  24.247  22.058  1.00  0.00     0.167 HD
BRANCH  18  20
ATOM     20  C   UNL A   1      32.135  25.564  22.883  1.00  0.00     0.077 A 
ATOM     21  C   UNL A   1      31.169  29.278  22.693  1.00  0.00     0.046 C 
ATOM     22  C   UNL A   1      31.072  27.779  22.803  1.00  0.00    -0.030 A 
ATOM     23  C   UNL A   1      29.833  27.207  23.128  1.00  0.00     0.006 A 
ATOM     24  C   UNL A   1      32.209  26.950  22.636  1.00  0.00     0.069 A 
ATOM     25  C   UNL A   1      29.720  25.835  23.304  1.00  0.00     0.023 A 
ATOM     26  Cl  UNL A   1      33.653  27.679  21.997  1.00  0.00    -0.082 Cl
ATOM     27  C   UNL A   1      30.856  25.032  23.197  1.00  0.00     0.066 A 
ATOM     28  Cl  UNL A   1      30.654  23.334  23.502  1.00  0.00    -0.082 Cl
ENDBRANCH  18  20
ENDBRANCH  13  18
ENDBRANCH   9  12
ENDBRANCH   6   8
ENDBRANCH   3   6
ENDBRANCH   1   2
BRANCH   1  29
ATOM     29  C   UNL A   1      31.393  31.869  26.693  1.00  0.00     0.042 C 
BRANCH  29  30
ATOM     30  C   UNL A   1      32.720  32.601  26.876  1.00  0.00     0.118 C 
BRANCH  30  31
ATOM     31  N   UNL A   1      32.528  33.951  27.393  1.00  0.00    -0.352 N 
ATOM     32  C   UNL A   1      33.067  34.546  28.500  1.00  0.00     0.251 C 
ATOM     33  H   UNL A   1      31.920  34.518  26.867  1.00  0.00     0.163 HD
ATOM     34  O   UNL A   1      32.568  35.589  28.935  1.00  0.00    -0.269 OA
BRANCH  32  35
ATOM     35  C   UNL A   1      34.233  33.956  29.185  1.00  0.00     0.039 A 
ATOM     36  C   UNL A   1      34.028  32.964  30.148  1.00  0.00     0.014 A 
ATOM     37  C   UNL A   1      35.525  34.422  28.926  1.00  0.00     0.014 A 
ATOM     38  C   UNL A   1      35.121  32.406  30.816  1.00  0.00     0.010 A 
ATOM     39  C   UNL A   1      36.618  33.817  29.539  1.00  0.00     0.010 A 
ATOM     40  C   UNL A   1      36.428  32.813  30.500  1.00  0.00    -0.014 A 
BRANCH  40  41
ATOM     41  C   UNL A   1      37.606  32.219  31.181  1.00  0.00     0.031 A 
ATOM     42  C   UNL A   1      38.381  31.114  30.518  1.00  0.00     0.074 A 
ATOM     43  C   UNL A   1      37.938  32.626  32.422  1.00  0.00     0.049 A 
ATOM     44  N   UNL A   1      39.389  30.415  30.978  1.00  0.00    -0.248 NA
ATOM     45  C   UNL A   1      37.949  30.722  29.167  1.00  0.00     0.031 C 
ATOM     46  C   UNL A   1      37.236  33.655  33.189  1.00  0.00     0.029 A 
ATOM     47  N   UNL A   1      38.944  32.214  33.259  1.00  0.00    -0.354 N 
ATOM     48  C   UNL A   1      39.692  29.490  29.986  1.00  0.00     0.074 A 
ATOM     49  C   UNL A   1      38.735  29.685  28.919  1.00  0.00     0.031 C 
ATOM     50  C   UNL A   1      37.844  33.810  34.376  1.00  0.00     0.029 A 
ATOM     51  C   UNL A   1      38.955  32.867  34.467  1.00  0.00     0.049 A 
ATOM     52  H   UNL A   1      39.595  31.515  33.018  1.00  0.00     0.167 HD
ATOM     53  C   UNL A   1      40.693  28.576  29.959  1.00  0.00     0.037 A 
ATOM     54  C   UNL A   1      39.770  32.718  35.529  1.00  0.00     0.037 A 
ATOM     55  C   UNL A   1      41.665  28.410  31.007  1.00  0.00     0.049 A 
ATOM     56  C   UNL A   1      40.881  31.705  35.467  1.00  0.00     0.074 A 
ATOM     57  C   UNL A   1      42.755  27.559  31.046  1.00  0.00     0.029 A 
ATOM     58  N   UNL A   1      41.664  29.114  32.202  1.00  0.00    -0.354 N 
ATOM     59  N   UNL A   1      41.201  30.886  34.496  1.00  0.00    -0.248 NA
ATOM     60  C   UNL A   1      41.750  31.604  36.648  1.00  0.00     0.031 C 
ATOM     61  C   UNL A   1      43.391  27.719  32.282  1.00  0.00     0.029 A 
ATOM     62  C   UNL A   1      42.726  28.704  32.992  1.00  0.00     0.049 A 
ATOM     63  H   UNL A   1      41.006  29.803  32.452  1.00  0.00     0.167 HD
ATOM     64  C   UNL A   1      42.325  30.197  34.932  1.00  0.00     0.074 A 
ATOM     65  C   UNL A   1      42.639  30.704  36.253  1.00  0.00     0.031 C 
ATOM     66  C   UNL A   1      43.034  29.233  34.296  1.00  0.00     0.037 A 
BRANCH  53  67
ATOM     67  C   UNL A   1      40.788  27.687  28.753  1.00  0.00     0.064 A 
ATOM     68  C   UNL A   1      40.014  26.523  28.633  1.00  0.00     0.173 A 
ATOM     69  C   UNL A   1      41.638  28.021  27.687  1.00  0.00     0.173 A 
ATOM     70  F   UNL A   1      39.195  26.151  29.629  1.00  0.00    -0.203 F 
ATOM     71  C   UNL A   1      40.111  25.711  27.507  1.00  0.00     0.198 A 
ATOM     72  C   UNL A   1      41.708  27.223  26.548  1.00  0.00     0.198 A 
ATOM     73  F   UNL A   1      42.394  29.128  27.747  1.00  0.00    -0.203 F 
ATOM     74  F   UNL A   1      39.398  24.577  27.438  1.00  0.00    -0.200 F 
ATOM     75  C   UNL A   1      40.951  26.065  26.463  1.00  0.00     0.200 A 
ATOM     76  F   UNL A   1      42.512  27.573  25.535  1.00  0.00    -0.200 F 
ATOM     77  F   UNL A   1      41.037  25.286  25.375  1.00  0.00    -0.200 F 
ENDBRANCH  53  67
BRANCH  54  78
ATOM     78  C   UNL A   1      39.590  33.575  36.730  1.00  0.00     0.064 A 
ATOM     79  C   UNL A   1      38.787  33.153  37.798  1.00  0.00     0.173 A 
ATOM     80  C   UNL A   1      40.208  34.830  36.833  1.00  0.00     0.173 A 
ATOM     81  F   UNL A   1      38.160  31.969  37.735  1.00  0.00    -0.203 F 
ATOM     82  C   UNL A   1      38.589  33.962  38.914  1.00  0.00     0.198 A 
ATOM     83  C   UNL A   1      40.031  35.627  37.963  1.00  0.00     0.198 A 
ATOM     84  F   UNL A   1      40.990  35.278  35.841  1.00  0.00    -0.203 F 
ATOM     85  F   UNL A   1      37.779  33.553  39.900  1.00  0.00    -0.200 F 
ATOM     86  C   UNL A   1      39.216  35.196  38.999  1.00  0.00     0.200 A 
ATOM     87  F   UNL A   1      40.648  36.813  38.047  1.00  0.00    -0.200 F 
ATOM     88  F   UNL A   1      39.026  35.973  40.074  1.00  0.00    -0.200 F 
ENDBRANCH  54  78
BRANCH  66  89
ATOM     89  C   UNL A   1      44.249  28.699  34.996  1.00  0.00     0.064 A 
ATOM     90  C   UNL A   1      45.507  29.303  34.859  1.00  0.00     0.173 A 
ATOM     91  C   UNL A   1      44.142  27.588  35.848  1.00  0.00     0.173 A 
ATOM     92  F   UNL A   1      45.663  30.358  34.044  1.00  0.00    -0.203 F 
ATOM     93  C   UNL A   1      46.619  28.799  35.527  1.00  0.00     0.198 A 
ATOM     94  C   UNL A   1      45.250  27.106  36.537  1.00  0.00     0.198 A 
ATOM     95  F   UNL A   1      42.960  26.978  36.020  1.00  0.00    -0.203 F 
ATOM     96  F   UNL A   1      47.821  29.362  35.344  1.00  0.00    -0.200 F 
ATOM     97  C   UNL A   1      46.488  27.706  36.371  1.00  0.00     0.200 A 
ATOM     98  F   UNL A   1      45.119  26.057  37.363  1.00  0.00    -0.200 F 
ATOM     99  F   UNL A   1      47.559  27.226  37.019  1.00  0.00    -0.200 F 
ENDBRANCH  66  89
ENDBRANCH  40  41
ENDBRANCH  32  35
ENDBRANCH  30  31
ENDBRANCH  29  30
ENDBRANCH   1  29
TORSDOF 14
ENDMDL
