MODEL 1
REMARK VINA RESULT:     -13.5      0.000      0.000
REMARK SMILES CCOC(=O)c1c(NC(=O)[C@@H]2[C@@H](C(=O)NCCCNC(=O)c3ccc(-c4c5nc(c(-c6c(F)c(F)c(F)c(F)c6F)c6ccc([nH]6)c(-c6c(F)c(F)c(F)c(F)c6F)c6nc(c(-c7c(F)c(F)c(F)c(F)c7F)c7ccc4[nH]7)C=C6)C=C5)cc3)[C@@H]3C=C[C@H]2CC3)sc2c1CCC2
REMARK SMILES IDX 13 1 14 2 15 3 12 5 11 6 88 7 85 8 87 9 89 10 86 11 90 12
REMARK SMILES IDX 9 13 8 14 10 16 7 17 6 18 93 19 91 20 92 21 94 22 96 23
REMARK SMILES IDX 95 24 4 25 5 26 3 27 2 28 1 29 16 30 17 31 18 32 19 33 20 34
REMARK SMILES IDX 21 36 22 37 23 38 84 39 24 40 83 41 25 42 26 43 27 44 77 45
REMARK SMILES IDX 28 46 82 47 76 48 78 49 29 50 81 51 75 52 74 53 30 55 62 56
REMARK SMILES IDX 42 57 61 58 43 59 46 60 60 61 79 62 44 63 45 64 59 66 80 67
REMARK SMILES IDX 47 68 31 69 32 70 40 71 33 72 34 73 38 74 41 75 35 76 36 77
REMARK SMILES IDX 39 78 37 79 63 80 64 81 72 82 65 83 66 84 70 85 73 86 67 87
REMARK SMILES IDX 68 88 71 89 69 90 48 91 49 92 57 93 50 94 51 95 55 96 58 97
REMARK SMILES IDX 52 98 53 99 56 100 54 101
REMARK H PARENT 15 4 8 15 19 35 78 54 46 65
REMARK Flexibility Score: inf
ROOT
ATOM      1  C   UNL A   1      34.977  21.898  25.956  1.00  0.00     0.224 C 
ATOM      2  O   UNL A   1      34.499  22.099  27.072  1.00  0.00    -0.275 OA
ATOM      3  N   UNL A   1      36.274  21.442  25.894  1.00  0.00    -0.356 N 
ATOM      4  H   UNL A   1      36.715  21.362  26.771  1.00  0.00     0.163 HD
ENDROOT
BRANCH   1   5
ATOM      5  C   UNL A   1      34.199  22.178  24.670  1.00  0.00     0.098 C 
ATOM      6  C   UNL A   1      33.435  23.498  24.679  1.00  0.00     0.099 C 
ATOM      7  C   UNL A   1      31.912  23.209  24.509  1.00  0.00     0.025 C 
ATOM      8  C   UNL A   1      33.270  21.029  24.160  1.00  0.00     0.025 C 
ATOM      9  C   UNL A   1      31.725  22.611  23.140  1.00  0.00    -0.027 C 
ATOM     10  C   UNL A   1      31.465  22.092  25.518  1.00  0.00     0.009 C 
ATOM     11  C   UNL A   1      32.440  21.490  22.950  1.00  0.00    -0.027 C 
ATOM     12  C   UNL A   1      32.186  20.753  25.209  1.00  0.00     0.009 C 
BRANCH   6  13
ATOM     13  C   UNL A   1      33.985  24.575  23.689  1.00  0.00     0.229 C 
ATOM     14  N   UNL A   1      33.931  25.948  23.728  1.00  0.00    -0.317 N 
ATOM     15  H   UNL A   1      34.426  26.350  22.977  1.00  0.00     0.170 HD
ATOM     16  O   UNL A   1      34.673  24.131  22.748  1.00  0.00    -0.274 OA
BRANCH  14  17
ATOM     17  C   UNL A   1      33.364  26.922  24.545  1.00  0.00     0.110 A 
ATOM     18  C   UNL A   1      32.270  27.773  24.311  1.00  0.00     0.098 A 
ATOM     19  C   UNL A   1      32.328  28.848  25.268  1.00  0.00    -0.017 A 
ATOM     20  S   UNL A   1      33.535  26.928  26.248  1.00  0.00    -0.122 S 
ATOM     21  C   UNL A   1      33.178  28.531  26.289  1.00  0.00     0.011 A 
ATOM     22  C   UNL A   1      31.669  30.135  25.603  1.00  0.00     0.038 C 
ATOM     23  C   UNL A   1      33.390  29.539  27.334  1.00  0.00     0.047 C 
ATOM     24  C   UNL A   1      32.635  30.734  26.696  1.00  0.00     0.010 C 
BRANCH  18  25
ATOM     25  C   UNL A   1      31.307  27.497  23.265  1.00  0.00     0.341 C 
ATOM     26  O   UNL A   1      31.078  28.322  22.382  1.00  0.00    -0.246 OA
BRANCH  25  27
ATOM     27  O   UNL A   1      30.772  26.250  23.317  1.00  0.00    -0.462 OA
BRANCH  27  28
ATOM     28  C   UNL A   1      29.517  26.143  24.008  1.00  0.00     0.230 C 
ATOM     29  C   UNL A   1      29.645  25.800  25.486  1.00  0.00     0.049 C 
ENDBRANCH  27  28
ENDBRANCH  25  27
ENDBRANCH  18  25
ENDBRANCH  14  17
ENDBRANCH   6  13
ENDBRANCH   1   5
BRANCH   3  30
ATOM     30  C   UNL A   1      37.119  21.053  24.764  1.00  0.00     0.117 C 
BRANCH  30  31
ATOM     31  C   UNL A   1      38.025  19.846  25.016  1.00  0.00     0.042 C 
BRANCH  31  32
ATOM     32  C   UNL A   1      39.274  20.251  25.772  1.00  0.00     0.118 C 
BRANCH  32  33
ATOM     33  N   UNL A   1      40.311  19.203  25.784  1.00  0.00    -0.352 N 
ATOM     34  C   UNL A   1      41.682  19.360  25.932  1.00  0.00     0.251 C 
ATOM     35  H   UNL A   1      39.992  18.278  25.675  1.00  0.00     0.163 HD
ATOM     36  O   UNL A   1      42.475  18.483  25.618  1.00  0.00    -0.269 OA
BRANCH  34  37
ATOM     37  C   UNL A   1      42.151  20.626  26.508  1.00  0.00     0.039 A 
ATOM     38  C   UNL A   1      42.637  21.686  25.740  1.00  0.00     0.014 A 
ATOM     39  C   UNL A   1      41.934  20.761  27.871  1.00  0.00     0.014 A 
ATOM     40  C   UNL A   1      42.811  22.922  26.360  1.00  0.00     0.010 A 
ATOM     41  C   UNL A   1      41.816  22.015  28.381  1.00  0.00     0.010 A 
ATOM     42  C   UNL A   1      42.372  23.077  27.683  1.00  0.00    -0.014 A 
BRANCH  42  43
ATOM     43  C   UNL A   1      42.410  24.343  28.396  1.00  0.00     0.031 A 
ATOM     44  C   UNL A   1      41.216  25.209  28.198  1.00  0.00     0.074 A 
ATOM     45  C   UNL A   1      43.325  24.552  29.373  1.00  0.00     0.049 A 
ATOM     46  N   UNL A   1      41.169  26.382  27.660  1.00  0.00    -0.248 NA
ATOM     47  C   UNL A   1      39.890  24.650  28.516  1.00  0.00     0.031 C 
ATOM     48  C   UNL A   1      44.335  23.622  29.904  1.00  0.00     0.029 A 
ATOM     49  N   UNL A   1      43.469  25.625  30.192  1.00  0.00    -0.354 N 
ATOM     50  C   UNL A   1      39.839  26.794  27.744  1.00  0.00     0.074 A 
ATOM     51  C   UNL A   1      39.079  25.627  28.103  1.00  0.00     0.031 C 
ATOM     52  C   UNL A   1      44.803  24.074  31.088  1.00  0.00     0.029 A 
ATOM     53  C   UNL A   1      44.280  25.406  31.301  1.00  0.00     0.049 A 
ATOM     54  H   UNL A   1      43.033  26.490  30.016  1.00  0.00     0.167 HD
ATOM     55  C   UNL A   1      39.515  28.119  27.740  1.00  0.00     0.037 A 
ATOM     56  C   UNL A   1      44.475  26.266  32.331  1.00  0.00     0.037 A 
ATOM     57  C   UNL A   1      40.626  28.912  27.276  1.00  0.00     0.049 A 
ATOM     58  C   UNL A   1      44.046  27.606  31.856  1.00  0.00     0.074 A 
ATOM     59  C   UNL A   1      41.324  28.995  26.088  1.00  0.00     0.029 A 
ATOM     60  N   UNL A   1      41.430  29.498  28.222  1.00  0.00    -0.354 N 
ATOM     61  N   UNL A   1      44.654  28.265  30.908  1.00  0.00    -0.248 NA
ATOM     62  C   UNL A   1      42.657  27.976  32.087  1.00  0.00     0.031 C 
ATOM     63  C   UNL A   1      42.687  29.160  26.476  1.00  0.00     0.029 A 
ATOM     64  C   UNL A   1      42.733  29.258  27.867  1.00  0.00     0.049 A 
ATOM     65  H   UNL A   1      41.126  29.999  29.014  1.00  0.00     0.167 HD
ATOM     66  C   UNL A   1      43.632  28.820  30.150  1.00  0.00     0.074 A 
ATOM     67  C   UNL A   1      42.426  28.659  30.961  1.00  0.00     0.031 C 
ATOM     68  C   UNL A   1      43.805  29.084  28.821  1.00  0.00     0.037 A 
BRANCH  55  69
ATOM     69  C   UNL A   1      38.352  28.735  28.485  1.00  0.00     0.064 A 
ATOM     70  C   UNL A   1      37.584  29.731  27.846  1.00  0.00     0.173 A 
ATOM     71  C   UNL A   1      38.141  28.610  29.875  1.00  0.00     0.173 A 
ATOM     72  F   UNL A   1      37.702  29.947  26.528  1.00  0.00    -0.203 F 
ATOM     73  C   UNL A   1      36.744  30.591  28.560  1.00  0.00     0.198 A 
ATOM     74  C   UNL A   1      37.262  29.435  30.575  1.00  0.00     0.198 A 
ATOM     75  F   UNL A   1      38.850  27.769  30.634  1.00  0.00    -0.203 F 
ATOM     76  F   UNL A   1      36.138  31.605  27.927  1.00  0.00    -0.200 F 
ATOM     77  C   UNL A   1      36.591  30.447  29.925  1.00  0.00     0.200 A 
ATOM     78  F   UNL A   1      37.138  29.290  31.902  1.00  0.00    -0.200 F 
ATOM     79  F   UNL A   1      35.838  31.310  30.621  1.00  0.00    -0.200 F 
ENDBRANCH  55  69
BRANCH  56  80
ATOM     80  C   UNL A   1      44.660  25.952  33.769  1.00  0.00     0.064 A 
ATOM     81  C   UNL A   1      43.566  25.644  34.590  1.00  0.00     0.173 A 
ATOM     82  C   UNL A   1      45.938  25.664  34.292  1.00  0.00     0.173 A 
ATOM     83  F   UNL A   1      42.315  25.846  34.148  1.00  0.00    -0.203 F 
ATOM     84  C   UNL A   1      43.735  25.056  35.850  1.00  0.00     0.198 A 
ATOM     85  C   UNL A   1      46.105  25.080  35.548  1.00  0.00     0.198 A 
ATOM     86  F   UNL A   1      47.040  25.854  33.552  1.00  0.00    -0.203 F 
ATOM     87  F   UNL A   1      42.663  24.718  36.579  1.00  0.00    -0.200 F 
ATOM     88  C   UNL A   1      45.003  24.762  36.322  1.00  0.00     0.200 A 
ATOM     89  F   UNL A   1      47.335  24.763  35.976  1.00  0.00    -0.200 F 
ATOM     90  F   UNL A   1      45.163  24.138  37.497  1.00  0.00    -0.200 F 
ENDBRANCH  56  80
BRANCH  68  91
ATOM     91  C   UNL A   1      45.196  28.977  28.254  1.00  0.00     0.064 A 
ATOM     92  C   UNL A   1      45.722  27.816  27.659  1.00  0.00     0.173 A 
ATOM     93  C   UNL A   1      45.960  30.145  28.159  1.00  0.00     0.173 A 
ATOM     94  F   UNL A   1      45.018  26.679  27.622  1.00  0.00    -0.203 F 
ATOM     95  C   UNL A   1      46.965  27.822  27.026  1.00  0.00     0.198 A 
ATOM     96  C   UNL A   1      47.185  30.159  27.496  1.00  0.00     0.198 A 
ATOM     97  F   UNL A   1      45.488  31.298  28.659  1.00  0.00    -0.203 F 
ATOM     98  F   UNL A   1      47.443  26.699  26.468  1.00  0.00    -0.200 F 
ATOM     99  C   UNL A   1      47.691  28.997  26.937  1.00  0.00     0.200 A 
ATOM    100  F   UNL A   1      47.859  31.310  27.369  1.00  0.00    -0.200 F 
ATOM    101  F   UNL A   1      48.864  29.017  26.288  1.00  0.00    -0.200 F 
ENDBRANCH  68  91
ENDBRANCH  42  43
ENDBRANCH  34  37
ENDBRANCH  32  33
ENDBRANCH  31  32
ENDBRANCH  30  31
ENDBRANCH   3  30
TORSDOF 15
ENDMDL
MODEL 2
REMARK VINA RESULT:     -13.3      2.749      7.956
REMARK SMILES CCOC(=O)c1c(NC(=O)[C@@H]2[C@@H](C(=O)NCCCNC(=O)c3ccc(-c4c5nc(c(-c6c(F)c(F)c(F)c(F)c6F)c6ccc([nH]6)c(-c6c(F)c(F)c(F)c(F)c6F)c6nc(c(-c7c(F)c(F)c(F)c(F)c7F)c7ccc4[nH]7)C=C6)C=C5)cc3)[C@@H]3C=C[C@H]2CC3)sc2c1CCC2
REMARK SMILES IDX 13 1 14 2 15 3 12 5 11 6 88 7 85 8 87 9 89 10 86 11 90 12
REMARK SMILES IDX 9 13 8 14 10 16 7 17 6 18 93 19 91 20 92 21 94 22 96 23
REMARK SMILES IDX 95 24 4 25 5 26 3 27 2 28 1 29 16 30 17 31 18 32 19 33 20 34
REMARK SMILES IDX 21 36 22 37 23 38 84 39 24 40 83 41 25 42 26 43 27 44 77 45
REMARK SMILES IDX 28 46 82 47 76 48 78 49 29 50 81 51 75 52 74 53 30 55 62 56
REMARK SMILES IDX 42 57 61 58 43 59 46 60 60 61 79 62 44 63 45 64 59 66 80 67
REMARK SMILES IDX 47 68 31 69 32 70 40 71 33 72 34 73 38 74 41 75 35 76 36 77
REMARK SMILES IDX 39 78 37 79 63 80 64 81 72 82 65 83 66 84 70 85 73 86 67 87
REMARK SMILES IDX 68 88 71 89 69 90 48 91 49 92 57 93 50 94 51 95 55 96 58 97
REMARK SMILES IDX 52 98 53 99 56 100 54 101
REMARK H PARENT 15 4 8 15 19 35 78 54 46 65
REMARK Flexibility Score: inf
ROOT
ATOM      1  C   UNL A   1      33.177  28.570  24.269  1.00  0.00     0.224 C 
ATOM      2  O   UNL A   1      33.911  28.396  23.298  1.00  0.00    -0.275 OA
ATOM      3  N   UNL A   1      33.444  29.649  25.081  1.00  0.00    -0.356 N 
ATOM      4  H   UNL A   1      34.243  30.161  24.820  1.00  0.00     0.163 HD
ENDROOT
BRANCH   1   5
ATOM      5  C   UNL A   1      32.033  27.616  24.612  1.00  0.00     0.098 C 
ATOM      6  C   UNL A   1      32.396  26.139  24.492  1.00  0.00     0.099 C 
ATOM      7  C   UNL A   1      31.477  25.472  23.422  1.00  0.00     0.025 C 
ATOM      8  C   UNL A   1      30.669  27.889  23.899  1.00  0.00     0.025 C 
ATOM      9  C   UNL A   1      30.069  25.528  23.952  1.00  0.00    -0.027 C 
ATOM     10  C   UNL A   1      31.467  26.337  22.113  1.00  0.00     0.009 C 
ATOM     11  C   UNL A   1      29.653  26.778  24.216  1.00  0.00    -0.027 C 
ATOM     12  C   UNL A   1      30.852  27.736  22.384  1.00  0.00     0.009 C 
BRANCH   6  13
ATOM     13  C   UNL A   1      32.443  25.367  25.850  1.00  0.00     0.229 C 
ATOM     14  N   UNL A   1      33.197  24.290  26.250  1.00  0.00    -0.317 N 
ATOM     15  H   UNL A   1      33.037  24.070  27.197  1.00  0.00     0.170 HD
ATOM     16  O   UNL A   1      31.755  25.861  26.766  1.00  0.00    -0.274 OA
BRANCH  14  17
ATOM     17  C   UNL A   1      34.125  23.427  25.675  1.00  0.00     0.110 A 
ATOM     18  C   UNL A   1      33.980  22.092  25.256  1.00  0.00     0.098 A 
ATOM     19  C   UNL A   1      35.297  21.527  25.107  1.00  0.00    -0.017 A 
ATOM     20  S   UNL A   1      35.516  23.973  24.840  1.00  0.00    -0.122 S 
ATOM     21  C   UNL A   1      36.239  22.515  25.068  1.00  0.00     0.011 A 
ATOM     22  C   UNL A   1      35.977  20.235  24.837  1.00  0.00     0.038 C 
ATOM     23  C   UNL A   1      37.645  22.109  24.965  1.00  0.00     0.047 C 
ATOM     24  C   UNL A   1      37.485  20.577  25.144  1.00  0.00     0.010 C 
BRANCH  18  25
ATOM     25  C   UNL A   1      32.675  21.508  25.031  1.00  0.00     0.341 C 
ATOM     26  O   UNL A   1      31.711  21.827  25.724  1.00  0.00    -0.246 OA
BRANCH  25  27
ATOM     27  O   UNL A   1      32.617  20.669  23.966  1.00  0.00    -0.462 OA
BRANCH  27  28
ATOM     28  C   UNL A   1      32.479  19.273  24.282  1.00  0.00     0.230 C 
ATOM     29  C   UNL A   1      32.470  18.355  23.067  1.00  0.00     0.049 C 
ENDBRANCH  27  28
ENDBRANCH  25  27
ENDBRANCH  18  25
ENDBRANCH  14  17
ENDBRANCH   6  13
ENDBRANCH   1   5
BRANCH   3  30
ATOM     30  C   UNL A   1      32.757  30.176  26.261  1.00  0.00     0.117 C 
BRANCH  30  31
ATOM     31  C   UNL A   1      33.575  30.149  27.554  1.00  0.00     0.042 C 
BRANCH  31  32
ATOM     32  C   UNL A   1      34.435  31.389  27.681  1.00  0.00     0.118 C 
BRANCH  32  33
ATOM     33  N   UNL A   1      34.404  31.982  29.031  1.00  0.00    -0.352 N 
ATOM     34  C   UNL A   1      35.254  31.724  30.097  1.00  0.00     0.251 C 
ATOM     35  H   UNL A   1      33.692  32.643  29.197  1.00  0.00     0.163 HD
ATOM     36  O   UNL A   1      34.964  32.020  31.248  1.00  0.00    -0.269 OA
BRANCH  34  37
ATOM     37  C   UNL A   1      36.544  31.096  29.785  1.00  0.00     0.039 A 
ATOM     38  C   UNL A   1      37.715  31.821  29.556  1.00  0.00     0.014 A 
ATOM     39  C   UNL A   1      36.558  29.714  29.888  1.00  0.00     0.014 A 
ATOM     40  C   UNL A   1      38.924  31.127  29.526  1.00  0.00     0.010 A 
ATOM     41  C   UNL A   1      37.741  29.102  30.158  1.00  0.00     0.010 A 
ATOM     42  C   UNL A   1      38.922  29.763  29.853  1.00  0.00    -0.014 A 
BRANCH  42  43
ATOM     43  C   UNL A   1      40.131  28.962  29.952  1.00  0.00     0.031 A 
ATOM     44  C   UNL A   1      40.624  28.743  31.338  1.00  0.00     0.074 A 
ATOM     45  C   UNL A   1      40.572  28.253  28.886  1.00  0.00     0.049 A 
ATOM     46  N   UNL A   1      41.746  29.126  31.850  1.00  0.00    -0.248 NA
ATOM     47  C   UNL A   1      39.704  28.137  32.317  1.00  0.00     0.031 C 
ATOM     48  C   UNL A   1      39.958  28.110  27.555  1.00  0.00     0.029 A 
ATOM     49  N   UNL A   1      41.624  27.398  28.805  1.00  0.00    -0.354 N 
ATOM     50  C   UNL A   1      41.760  28.645  33.159  1.00  0.00     0.074 A 
ATOM     51  C   UNL A   1      40.417  28.215  33.442  1.00  0.00     0.031 C 
ATOM     52  C   UNL A   1      40.500  27.057  26.905  1.00  0.00     0.029 A 
ATOM     53  C   UNL A   1      41.622  26.577  27.681  1.00  0.00     0.049 A 
ATOM     54  H   UNL A   1      42.332  27.361  29.488  1.00  0.00     0.167 HD
ATOM     55  C   UNL A   1      42.936  28.427  33.813  1.00  0.00     0.037 A 
ATOM     56  C   UNL A   1      42.480  25.556  27.436  1.00  0.00     0.037 A 
ATOM     57  C   UNL A   1      44.023  29.091  33.137  1.00  0.00     0.049 A 
ATOM     58  C   UNL A   1      43.652  25.760  28.326  1.00  0.00     0.074 A 
ATOM     59  C   UNL A   1      44.327  30.408  32.858  1.00  0.00     0.029 A 
ATOM     60  N   UNL A   1      44.794  28.342  32.282  1.00  0.00    -0.354 N 
ATOM     61  N   UNL A   1      44.477  26.765  28.215  1.00  0.00    -0.248 NA
ATOM     62  C   UNL A   1      43.606  25.127  29.636  1.00  0.00     0.031 C 
ATOM     63  C   UNL A   1      44.865  30.388  31.538  1.00  0.00     0.029 A 
ATOM     64  C   UNL A   1      44.943  29.058  31.122  1.00  0.00     0.049 A 
ATOM     65  H   UNL A   1      45.171  27.452  32.468  1.00  0.00     0.167 HD
ATOM     66  C   UNL A   1      44.733  27.159  29.522  1.00  0.00     0.074 A 
ATOM     67  C   UNL A   1      44.217  26.073  30.354  1.00  0.00     0.031 C 
ATOM     68  C   UNL A   1      45.063  28.451  29.815  1.00  0.00     0.037 A 
BRANCH  55  69
ATOM     69  C   UNL A   1      43.179  27.338  34.833  1.00  0.00     0.064 A 
ATOM     70  C   UNL A   1      43.437  27.702  36.171  1.00  0.00     0.173 A 
ATOM     71  C   UNL A   1      43.459  25.993  34.510  1.00  0.00     0.173 A 
ATOM     72  F   UNL A   1      43.215  28.956  36.595  1.00  0.00    -0.203 F 
ATOM     73  C   UNL A   1      44.016  26.815  37.083  1.00  0.00     0.198 A 
ATOM     74  C   UNL A   1      43.987  25.096  35.437  1.00  0.00     0.198 A 
ATOM     75  F   UNL A   1      43.344  25.516  33.267  1.00  0.00    -0.203 F 
ATOM     76  F   UNL A   1      44.362  27.247  38.304  1.00  0.00    -0.200 F 
ATOM     77  C   UNL A   1      44.297  25.514  36.713  1.00  0.00     0.200 A 
ATOM     78  F   UNL A   1      44.267  23.842  35.054  1.00  0.00    -0.200 F 
ATOM     79  F   UNL A   1      44.911  24.680  37.563  1.00  0.00    -0.200 F 
ENDBRANCH  55  69
BRANCH  56  80
ATOM     80  C   UNL A   1      42.202  24.261  26.769  1.00  0.00     0.064 A 
ATOM     81  C   UNL A   1      43.145  23.670  25.915  1.00  0.00     0.173 A 
ATOM     82  C   UNL A   1      41.132  23.443  27.185  1.00  0.00     0.173 A 
ATOM     83  F   UNL A   1      44.217  24.367  25.510  1.00  0.00    -0.203 F 
ATOM     84  C   UNL A   1      43.041  22.330  25.521  1.00  0.00     0.198 A 
ATOM     85  C   UNL A   1      41.029  22.108  26.790  1.00  0.00     0.198 A 
ATOM     86  F   UNL A   1      40.224  23.896  28.060  1.00  0.00    -0.203 F 
ATOM     87  F   UNL A   1      43.994  21.781  24.755  1.00  0.00    -0.200 F 
ATOM     88  C   UNL A   1      41.990  21.547  25.970  1.00  0.00     0.200 A 
ATOM     89  F   UNL A   1      40.030  21.350  27.264  1.00  0.00    -0.200 F 
ATOM     90  F   UNL A   1      41.926  20.247  25.648  1.00  0.00    -0.200 F 
ENDBRANCH  56  80
BRANCH  68  91
ATOM     91  C   UNL A   1      45.369  29.381  28.670  1.00  0.00     0.064 A 
ATOM     92  C   UNL A   1      44.414  30.192  28.031  1.00  0.00     0.173 A 
ATOM     93  C   UNL A   1      46.711  29.580  28.324  1.00  0.00     0.173 A 
ATOM     94  F   UNL A   1      43.121  30.133  28.368  1.00  0.00    -0.203 F 
ATOM     95  C   UNL A   1      44.785  31.134  27.071  1.00  0.00     0.198 A 
ATOM     96  C   UNL A   1      47.083  30.545  27.392  1.00  0.00     0.198 A 
ATOM     97  F   UNL A   1      47.673  28.874  28.938  1.00  0.00    -0.203 F 
ATOM     98  F   UNL A   1      43.853  31.894  26.477  1.00  0.00    -0.200 F 
ATOM     99  C   UNL A   1      46.121  31.316  26.761  1.00  0.00     0.200 A 
ATOM    100  F   UNL A   1      48.382  30.751  27.133  1.00  0.00    -0.200 F 
ATOM    101  F   UNL A   1      46.486  32.254  25.875  1.00  0.00    -0.200 F 
ENDBRANCH  68  91
ENDBRANCH  42  43
ENDBRANCH  34  37
ENDBRANCH  32  33
ENDBRANCH  31  32
ENDBRANCH  30  31
ENDBRANCH   3  30
TORSDOF 15
ENDMDL
MODEL 3
REMARK VINA RESULT:     -13.2      2.562      7.137
REMARK SMILES CCOC(=O)c1c(NC(=O)[C@@H]2[C@@H](C(=O)NCCCNC(=O)c3ccc(-c4c5nc(c(-c6c(F)c(F)c(F)c(F)c6F)c6ccc([nH]6)c(-c6c(F)c(F)c(F)c(F)c6F)c6nc(c(-c7c(F)c(F)c(F)c(F)c7F)c7ccc4[nH]7)C=C6)C=C5)cc3)[C@@H]3C=C[C@H]2CC3)sc2c1CCC2
REMARK SMILES IDX 13 1 14 2 15 3 12 5 11 6 88 7 85 8 87 9 89 10 86 11 90 12
REMARK SMILES IDX 9 13 8 14 10 16 7 17 6 18 93 19 91 20 92 21 94 22 96 23
REMARK SMILES IDX 95 24 4 25 5 26 3 27 2 28 1 29 16 30 17 31 18 32 19 33 20 34
REMARK SMILES IDX 21 36 22 37 23 38 84 39 24 40 83 41 25 42 26 43 27 44 77 45
REMARK SMILES IDX 28 46 82 47 76 48 78 49 29 50 81 51 75 52 74 53 30 55 62 56
REMARK SMILES IDX 42 57 61 58 43 59 46 60 60 61 79 62 44 63 45 64 59 66 80 67
REMARK SMILES IDX 47 68 31 69 32 70 40 71 33 72 34 73 38 74 41 75 35 76 36 77
REMARK SMILES IDX 39 78 37 79 63 80 64 81 72 82 65 83 66 84 70 85 73 86 67 87
REMARK SMILES IDX 68 88 71 89 69 90 48 91 49 92 57 93 50 94 51 95 55 96 58 97
REMARK SMILES IDX 52 98 53 99 56 100 54 101
REMARK H PARENT 15 4 8 15 19 35 78 54 46 65
REMARK Flexibility Score: inf
ROOT
ATOM      1  C   UNL A   1      34.518  22.546  26.339  1.00  0.00     0.224 C 
ATOM      2  O   UNL A   1      34.023  22.940  27.394  1.00  0.00    -0.275 OA
ATOM      3  N   UNL A   1      35.728  21.895  26.410  1.00  0.00    -0.356 N 
ATOM      4  H   UNL A   1      36.107  21.848  27.318  1.00  0.00     0.163 HD
ENDROOT
BRANCH   1   5
ATOM      5  C   UNL A   1      33.858  22.795  24.983  1.00  0.00     0.098 C 
ATOM      6  C   UNL A   1      33.092  24.111  24.895  1.00  0.00     0.099 C 
ATOM      7  C   UNL A   1      31.591  23.811  24.595  1.00  0.00     0.025 C 
ATOM      8  C   UNL A   1      32.983  21.631  24.416  1.00  0.00     0.025 C 
ATOM      9  C   UNL A   1      31.531  23.185  23.227  1.00  0.00    -0.027 C 
ATOM     10  C   UNL A   1      31.059  22.714  25.583  1.00  0.00     0.009 C 
ATOM     11  C   UNL A   1      32.264  22.063  23.126  1.00  0.00    -0.027 C 
ATOM     12  C   UNL A   1      31.809  21.372  25.369  1.00  0.00     0.009 C 
BRANCH   6  13
ATOM     13  C   UNL A   1      33.726  25.171  23.936  1.00  0.00     0.229 C 
ATOM     14  N   UNL A   1      33.666  26.544  23.942  1.00  0.00    -0.317 N 
ATOM     15  H   UNL A   1      34.225  26.932  23.230  1.00  0.00     0.170 HD
ATOM     16  O   UNL A   1      34.496  24.710  23.070  1.00  0.00    -0.274 OA
BRANCH  14  17
ATOM     17  C   UNL A   1      33.027  27.531  24.685  1.00  0.00     0.110 A 
ATOM     18  C   UNL A   1      31.861  28.265  24.401  1.00  0.00     0.098 A 
ATOM     19  C   UNL A   1      31.838  29.418  25.264  1.00  0.00    -0.017 A 
ATOM     20  S   UNL A   1      33.214  27.696  26.379  1.00  0.00    -0.122 S 
ATOM     21  C   UNL A   1      32.722  29.260  26.293  1.00  0.00     0.011 A 
ATOM     22  C   UNL A   1      31.074  30.668  25.503  1.00  0.00     0.038 C 
ATOM     23  C   UNL A   1      32.859  30.367  27.246  1.00  0.00     0.047 C 
ATOM     24  C   UNL A   1      31.998  31.437  26.525  1.00  0.00     0.010 C 
BRANCH  18  25
ATOM     25  C   UNL A   1      30.915  27.821  23.398  1.00  0.00     0.341 C 
ATOM     26  O   UNL A   1      31.298  27.294  22.356  1.00  0.00    -0.246 OA
BRANCH  25  27
ATOM     27  O   UNL A   1      29.614  27.969  23.758  1.00  0.00    -0.462 OA
BRANCH  27  28
ATOM     28  C   UNL A   1      28.764  28.580  22.772  1.00  0.00     0.230 C 
ATOM     29  C   UNL A   1      29.000  30.072  22.582  1.00  0.00     0.049 C 
ENDBRANCH  27  28
ENDBRANCH  25  27
ENDBRANCH  18  25
ENDBRANCH  14  17
ENDBRANCH   6  13
ENDBRANCH   1   5
BRANCH   3  30
ATOM     30  C   UNL A   1      36.556  21.259  25.384  1.00  0.00     0.117 C 
BRANCH  30  31
ATOM     31  C   UNL A   1      37.800  22.049  24.973  1.00  0.00     0.042 C 
BRANCH  31  32
ATOM     32  C   UNL A   1      38.433  22.731  26.169  1.00  0.00     0.118 C 
BRANCH  32  33
ATOM     33  N   UNL A   1      39.603  22.006  26.699  1.00  0.00    -0.352 N 
ATOM     34  C   UNL A   1      40.864  22.512  26.982  1.00  0.00     0.251 C 
ATOM     35  H   UNL A   1      39.474  21.046  26.874  1.00  0.00     0.163 HD
ATOM     36  O   UNL A   1      41.841  21.788  27.115  1.00  0.00    -0.269 OA
BRANCH  34  37
ATOM     37  C   UNL A   1      40.980  23.967  27.142  1.00  0.00     0.039 A 
ATOM     38  C   UNL A   1      40.137  24.880  26.504  1.00  0.00     0.014 A 
ATOM     39  C   UNL A   1      41.893  24.376  28.102  1.00  0.00     0.014 A 
ATOM     40  C   UNL A   1      40.168  26.209  26.923  1.00  0.00     0.010 A 
ATOM     41  C   UNL A   1      41.699  25.581  28.700  1.00  0.00     0.010 A 
ATOM     42  C   UNL A   1      40.942  26.540  28.044  1.00  0.00    -0.014 A 
BRANCH  42  43
ATOM     43  C   UNL A   1      40.973  27.870  28.631  1.00  0.00     0.031 A 
ATOM     44  C   UNL A   1      42.063  28.750  28.129  1.00  0.00     0.074 A 
ATOM     45  C   UNL A   1      39.917  28.329  29.344  1.00  0.00     0.049 A 
ATOM     46  N   UNL A   1      43.042  29.259  28.800  1.00  0.00    -0.248 NA
ATOM     47  C   UNL A   1      42.152  28.989  26.678  1.00  0.00     0.031 C 
ATOM     48  C   UNL A   1      38.625  27.672  29.605  1.00  0.00     0.029 A 
ATOM     49  N   UNL A   1      39.729  29.554  29.899  1.00  0.00    -0.354 N 
ATOM     50  C   UNL A   1      43.765  30.040  27.898  1.00  0.00     0.074 A 
ATOM     51  C   UNL A   1      43.286  29.687  26.588  1.00  0.00     0.031 C 
ATOM     52  C   UNL A   1      37.725  28.579  30.041  1.00  0.00     0.029 A 
ATOM     53  C   UNL A   1      38.418  29.826  30.277  1.00  0.00     0.049 A 
ATOM     54  H   UNL A   1      40.462  30.198  30.023  1.00  0.00     0.167 HD
ATOM     55  C   UNL A   1      44.532  31.080  28.330  1.00  0.00     0.037 A 
ATOM     56  C   UNL A   1      37.947  31.016  30.728  1.00  0.00     0.037 A 
ATOM     57  C   UNL A   1      44.760  30.986  29.751  1.00  0.00     0.049 A 
ATOM     58  C   UNL A   1      39.127  31.807  31.158  1.00  0.00     0.074 A 
ATOM     59  C   UNL A   1      45.393  30.073  30.570  1.00  0.00     0.029 A 
ATOM     60  N   UNL A   1      43.953  31.730  30.577  1.00  0.00    -0.354 N 
ATOM     61  N   UNL A   1      39.887  31.480  32.169  1.00  0.00    -0.248 NA
ATOM     62  C   UNL A   1      39.746  32.669  30.162  1.00  0.00     0.031 C 
ATOM     63  C   UNL A   1      44.565  29.985  31.728  1.00  0.00     0.029 A 
ATOM     64  C   UNL A   1      43.529  30.910  31.591  1.00  0.00     0.049 A 
ATOM     65  H   UNL A   1      43.719  32.679  30.461  1.00  0.00     0.167 HD
ATOM     66  C   UNL A   1      41.181  31.734  31.735  1.00  0.00     0.074 A 
ATOM     67  C   UNL A   1      41.026  32.523  30.515  1.00  0.00     0.031 C 
ATOM     68  C   UNL A   1      42.241  31.033  32.236  1.00  0.00     0.037 A 
BRANCH  55  69
ATOM     69  C   UNL A   1      44.772  32.364  27.568  1.00  0.00     0.064 A 
ATOM     70  C   UNL A   1      45.968  32.508  26.835  1.00  0.00     0.173 A 
ATOM     71  C   UNL A   1      44.035  33.553  27.759  1.00  0.00     0.173 A 
ATOM     72  F   UNL A   1      46.757  31.450  26.594  1.00  0.00    -0.203 F 
ATOM     73  C   UNL A   1      46.431  33.757  26.410  1.00  0.00     0.198 A 
ATOM     74  C   UNL A   1      44.474  34.788  27.287  1.00  0.00     0.198 A 
ATOM     75  F   UNL A   1      42.923  33.595  28.500  1.00  0.00    -0.203 F 
ATOM     76  F   UNL A   1      47.637  33.858  25.832  1.00  0.00    -0.200 F 
ATOM     77  C   UNL A   1      45.688  34.897  26.643  1.00  0.00     0.200 A 
ATOM     78  F   UNL A   1      43.745  35.886  27.537  1.00  0.00    -0.200 F 
ATOM     79  F   UNL A   1      46.158  36.102  26.295  1.00  0.00    -0.200 F 
ENDBRANCH  55  69
BRANCH  56  80
ATOM     80  C   UNL A   1      36.621  31.633  30.482  1.00  0.00     0.064 A 
ATOM     81  C   UNL A   1      35.838  32.114  31.541  1.00  0.00     0.173 A 
ATOM     82  C   UNL A   1      36.230  32.024  29.185  1.00  0.00     0.173 A 
ATOM     83  F   UNL A   1      36.170  31.825  32.808  1.00  0.00    -0.203 F 
ATOM     84  C   UNL A   1      34.745  32.961  31.321  1.00  0.00     0.198 A 
ATOM     85  C   UNL A   1      35.139  32.866  28.967  1.00  0.00     0.198 A 
ATOM     86  F   UNL A   1      36.960  31.676  28.115  1.00  0.00    -0.203 F 
ATOM     87  F   UNL A   1      34.058  33.451  32.362  1.00  0.00    -0.200 F 
ATOM     88  C   UNL A   1      34.404  33.346  30.035  1.00  0.00     0.200 A 
ATOM     89  F   UNL A   1      34.844  33.264  27.721  1.00  0.00    -0.200 F 
ATOM     90  F   UNL A   1      33.399  34.209  29.829  1.00  0.00    -0.200 F 
ENDBRANCH  56  80
BRANCH  68  91
ATOM     91  C   UNL A   1      42.002  30.145  33.429  1.00  0.00     0.064 A 
ATOM     92  C   UNL A   1      41.641  28.788  33.348  1.00  0.00     0.173 A 
ATOM     93  C   UNL A   1      42.316  30.647  34.697  1.00  0.00     0.173 A 
ATOM     94  F   UNL A   1      41.415  28.202  32.166  1.00  0.00    -0.203 F 
ATOM     95  C   UNL A   1      41.572  27.984  34.486  1.00  0.00     0.198 A 
ATOM     96  C   UNL A   1      42.281  29.835  35.828  1.00  0.00     0.198 A 
ATOM     97  F   UNL A   1      42.719  31.920  34.832  1.00  0.00    -0.203 F 
ATOM     98  F   UNL A   1      41.224  26.692  34.379  1.00  0.00    -0.200 F 
ATOM     99  C   UNL A   1      41.902  28.507  35.724  1.00  0.00     0.200 A 
ATOM    100  F   UNL A   1      42.650  30.334  37.015  1.00  0.00    -0.200 F 
ATOM    101  F   UNL A   1      41.883  27.725  36.813  1.00  0.00    -0.200 F 
ENDBRANCH  68  91
ENDBRANCH  42  43
ENDBRANCH  34  37
ENDBRANCH  32  33
ENDBRANCH  31  32
ENDBRANCH  30  31
ENDBRANCH   3  30
TORSDOF 15
ENDMDL
