MODEL 1
REMARK VINA RESULT:     -11.8      0.000      0.000
REMARK SMILES COC[C@H](C)n1c(SCC(=O)NCCCNC(=O)c2ccc(-c3c4nc(c(-c5c(F)c(F)c(F)c(F)c5F)c5ccc([nH]5)c(-c5c(F)c(F)c(F)c(F)c5F)c5nc(c(-c6c(F)c(F)c(F)c(F)c6F)c6ccc3[nH]6)C=C5)C=C4)cc2)nc2cc(C)cnc21
REMARK SMILES IDX 10 1 11 2 12 3 9 5 8 6 7 7 6 8 89 9 82 10 83 11 88 12 84 13
REMARK SMILES IDX 87 14 85 15 86 16 4 17 5 18 3 19 2 20 1 21 13 22 14 23 15 24
REMARK SMILES IDX 16 25 17 26 18 28 19 29 20 30 81 31 21 32 80 33 22 34 23 35
REMARK SMILES IDX 24 36 74 37 25 38 79 39 73 40 75 41 26 42 78 43 72 44 71 45
REMARK SMILES IDX 27 47 59 48 39 49 58 50 40 51 43 52 57 53 76 54 41 55 42 56
REMARK SMILES IDX 56 58 77 59 44 60 28 61 29 62 37 63 30 64 31 65 35 66 38 67
REMARK SMILES IDX 32 68 33 69 36 70 34 71 60 72 61 73 69 74 62 75 63 76 67 77
REMARK SMILES IDX 70 78 64 79 65 80 68 81 66 82 45 83 46 84 54 85 47 86 48 87
REMARK SMILES IDX 52 88 55 89 49 90 50 91 53 92 51 93
REMARK H PARENT 12 4 16 27 75 46 43 57
REMARK Flexibility Score: inf
ROOT
ATOM      1  C   UNL A   1      35.743  21.845  24.793  1.00  0.00     0.230 C 
ATOM      2  O   UNL A   1      34.850  20.997  24.777  1.00  0.00    -0.274 OA
ATOM      3  N   UNL A   1      36.707  21.711  25.742  1.00  0.00    -0.355 N 
ATOM      4  H   UNL A   1      36.520  21.047  26.443  1.00  0.00     0.163 HD
ENDROOT
BRANCH   1   5
ATOM      5  C   UNL A   1      35.822  22.921  23.741  1.00  0.00     0.178 C 
BRANCH   5   6
ATOM      6  S   UNL A   1      34.318  23.780  23.349  1.00  0.00    -0.078 SA
BRANCH   6   7
ATOM      7  C   UNL A   1      33.652  24.831  24.550  1.00  0.00     0.171 A 
ATOM      8  N   UNL A   1      32.408  24.940  25.136  1.00  0.00    -0.298 N 
ATOM      9  C   UNL A   1      32.421  26.124  25.868  1.00  0.00     0.161 A 
ATOM     10  N   UNL A   1      34.413  25.872  24.869  1.00  0.00    -0.221 NA
ATOM     11  C   UNL A   1      33.653  26.701  25.636  1.00  0.00     0.109 A 
ATOM     12  N   UNL A   1      31.413  26.626  26.613  1.00  0.00    -0.236 NA
ATOM     13  C   UNL A   1      33.894  27.973  26.173  1.00  0.00     0.037 A 
ATOM     14  C   UNL A   1      31.690  27.850  27.119  1.00  0.00     0.117 A 
ATOM     15  C   UNL A   1      32.871  28.568  26.928  1.00  0.00    -0.030 A 
ATOM     16  C   UNL A   1      33.026  29.951  27.481  1.00  0.00     0.046 C 
BRANCH   8  17
ATOM     17  C   UNL A   1      31.174  24.163  25.133  1.00  0.00     0.114 C 
ATOM     18  C   UNL A   1      30.581  23.767  23.788  1.00  0.00     0.034 C 
BRANCH  17  19
ATOM     19  C   UNL A   1      31.236  23.046  26.195  1.00  0.00     0.185 C 
BRANCH  19  20
ATOM     20  O   UNL A   1      30.469  23.314  27.370  1.00  0.00    -0.383 OA
ATOM     21  C   UNL A   1      29.203  22.669  27.376  1.00  0.00     0.194 C 
ENDBRANCH  19  20
ENDBRANCH  17  19
ENDBRANCH   8  17
ENDBRANCH   6   7
ENDBRANCH   5   6
ENDBRANCH   1   5
BRANCH   3  22
ATOM     22  C   UNL A   1      37.973  22.409  25.865  1.00  0.00     0.117 C 
BRANCH  22  23
ATOM     23  C   UNL A   1      39.150  21.471  26.120  1.00  0.00     0.042 C 
BRANCH  23  24
ATOM     24  C   UNL A   1      40.189  22.083  27.039  1.00  0.00     0.118 C 
BRANCH  24  25
ATOM     25  N   UNL A   1      41.533  22.157  26.456  1.00  0.00    -0.352 N 
ATOM     26  C   UNL A   1      42.323  23.284  26.288  1.00  0.00     0.251 C 
ATOM     27  H   UNL A   1      41.919  21.306  26.145  1.00  0.00     0.163 HD
ATOM     28  O   UNL A   1      43.301  23.283  25.564  1.00  0.00    -0.269 OA
BRANCH  26  29
ATOM     29  C   UNL A   1      41.933  24.498  27.026  1.00  0.00     0.039 A 
ATOM     30  C   UNL A   1      42.431  24.787  28.297  1.00  0.00     0.014 A 
ATOM     31  C   UNL A   1      41.130  25.405  26.348  1.00  0.00     0.014 A 
ATOM     32  C   UNL A   1      42.172  26.046  28.835  1.00  0.00     0.010 A 
ATOM     33  C   UNL A   1      41.093  26.704  26.767  1.00  0.00     0.010 A 
ATOM     34  C   UNL A   1      41.520  27.012  28.048  1.00  0.00    -0.014 A 
BRANCH  34  35
ATOM     35  C   UNL A   1      41.294  28.367  28.531  1.00  0.00     0.031 A 
ATOM     36  C   UNL A   1      42.311  29.371  28.119  1.00  0.00     0.074 A 
ATOM     37  C   UNL A   1      40.176  28.730  29.199  1.00  0.00     0.049 A 
ATOM     38  N   UNL A   1      43.156  29.981  28.883  1.00  0.00    -0.248 NA
ATOM     39  C   UNL A   1      42.493  29.647  26.687  1.00  0.00     0.031 C 
ATOM     40  C   UNL A   1      38.952  27.961  29.472  1.00  0.00     0.029 A 
ATOM     41  N   UNL A   1      39.883  29.941  29.741  1.00  0.00    -0.354 N 
ATOM     42  C   UNL A   1      43.888  30.831  28.060  1.00  0.00     0.074 A 
ATOM     43  C   UNL A   1      43.522  30.497  26.706  1.00  0.00     0.031 C 
ATOM     44  C   UNL A   1      37.979  28.785  29.921  1.00  0.00     0.029 A 
ATOM     45  C   UNL A   1      38.569  30.085  30.163  1.00  0.00     0.049 A 
ATOM     46  H   UNL A   1      40.550  30.659  29.828  1.00  0.00     0.167 HD
ATOM     47  C   UNL A   1      44.611  31.861  28.580  1.00  0.00     0.037 A 
ATOM     48  C   UNL A   1      38.008  31.196  30.694  1.00  0.00     0.037 A 
ATOM     49  C   UNL A   1      44.809  31.694  29.997  1.00  0.00     0.049 A 
ATOM     50  C   UNL A   1      39.118  32.021  31.228  1.00  0.00     0.074 A 
ATOM     51  C   UNL A   1      45.489  30.780  30.778  1.00  0.00     0.029 A 
ATOM     52  N   UNL A   1      43.938  32.329  30.848  1.00  0.00    -0.354 N 
ATOM     53  N   UNL A   1      39.854  31.667  32.244  1.00  0.00    -0.248 NA
ATOM     54  C   UNL A   1      39.707  33.010  30.340  1.00  0.00     0.031 C 
ATOM     55  C   UNL A   1      44.655  30.575  31.919  1.00  0.00     0.029 A 
ATOM     56  C   UNL A   1      43.550  31.418  31.799  1.00  0.00     0.049 A 
ATOM     57  H   UNL A   1      43.645  33.267  30.787  1.00  0.00     0.167 HD
ATOM     58  C   UNL A   1      41.141  32.048  31.897  1.00  0.00     0.074 A 
ATOM     59  C   UNL A   1      40.975  32.944  30.754  1.00  0.00     0.031 C 
ATOM     60  C   UNL A   1      42.230  31.387  32.389  1.00  0.00     0.037 A 
BRANCH  47  61
ATOM     61  C   UNL A   1      44.874  33.170  27.883  1.00  0.00     0.064 A 
ATOM     62  C   UNL A   1      46.169  33.454  27.402  1.00  0.00     0.173 A 
ATOM     63  C   UNL A   1      43.986  34.266  27.928  1.00  0.00     0.173 A 
ATOM     64  F   UNL A   1      47.099  32.491  27.331  1.00  0.00    -0.203 F 
ATOM     65  C   UNL A   1      46.563  34.753  27.065  1.00  0.00     0.198 A 
ATOM     66  C   UNL A   1      44.368  35.550  27.543  1.00  0.00     0.198 A 
ATOM     67  F   UNL A   1      42.758  34.161  28.449  1.00  0.00    -0.203 F 
ATOM     68  F   UNL A   1      47.837  34.996  26.728  1.00  0.00    -0.200 F 
ATOM     69  C   UNL A   1      45.664  35.801  27.142  1.00  0.00     0.200 A 
ATOM     70  F   UNL A   1      43.488  36.557  27.644  1.00  0.00    -0.200 F 
ATOM     71  F   UNL A   1      46.055  37.055  26.880  1.00  0.00    -0.200 F 
ENDBRANCH  47  61
BRANCH  48  72
ATOM     72  C   UNL A   1      36.659  31.745  30.428  1.00  0.00     0.064 A 
ATOM     73  C   UNL A   1      35.850  32.193  31.483  1.00  0.00     0.173 A 
ATOM     74  C   UNL A   1      36.270  32.126  29.129  1.00  0.00     0.173 A 
ATOM     75  F   UNL A   1      36.175  31.902  32.751  1.00  0.00    -0.203 F 
ATOM     76  C   UNL A   1      34.744  33.018  31.257  1.00  0.00     0.198 A 
ATOM     77  C   UNL A   1      35.164  32.946  28.904  1.00  0.00     0.198 A 
ATOM     78  F   UNL A   1      37.015  31.798  28.063  1.00  0.00    -0.203 F 
ATOM     79  F   UNL A   1      34.040  33.490  32.295  1.00  0.00    -0.200 F 
ATOM     80  C   UNL A   1      34.412  33.407  29.969  1.00  0.00     0.200 A 
ATOM     81  F   UNL A   1      34.876  33.349  27.658  1.00  0.00    -0.200 F 
ATOM     82  F   UNL A   1      33.401  34.261  29.759  1.00  0.00    -0.200 F 
ENDBRANCH  48  72
BRANCH  60  83
ATOM     83  C   UNL A   1      41.991  30.381  33.488  1.00  0.00     0.064 A 
ATOM     84  C   UNL A   1      41.707  29.021  33.264  1.00  0.00     0.173 A 
ATOM     85  C   UNL A   1      42.173  30.782  34.816  1.00  0.00     0.173 A 
ATOM     86  F   UNL A   1      41.617  28.530  32.025  1.00  0.00    -0.203 F 
ATOM     87  C   UNL A   1      41.562  28.122  34.321  1.00  0.00     0.198 A 
ATOM     88  C   UNL A   1      42.065  29.876  35.870  1.00  0.00     0.198 A 
ATOM     89  F   UNL A   1      42.502  32.054  35.094  1.00  0.00    -0.203 F 
ATOM     90  F   UNL A   1      41.273  26.835  34.076  1.00  0.00    -0.200 F 
ATOM     91  C   UNL A   1      41.747  28.550  35.623  1.00  0.00     0.200 A 
ATOM     92  F   UNL A   1      42.293  30.285  37.125  1.00  0.00    -0.200 F 
ATOM     93  F   UNL A   1      41.643  27.682  36.639  1.00  0.00    -0.200 F 
ENDBRANCH  60  83
ENDBRANCH  34  35
ENDBRANCH  26  29
ENDBRANCH  24  25
ENDBRANCH  23  24
ENDBRANCH  22  23
ENDBRANCH   3  22
TORSDOF 15
ENDMDL
MODEL 2
REMARK VINA RESULT:     -11.5      3.350      8.893
REMARK SMILES COC[C@H](C)n1c(SCC(=O)NCCCNC(=O)c2ccc(-c3c4nc(c(-c5c(F)c(F)c(F)c(F)c5F)c5ccc([nH]5)c(-c5c(F)c(F)c(F)c(F)c5F)c5nc(c(-c6c(F)c(F)c(F)c(F)c6F)c6ccc3[nH]6)C=C5)C=C4)cc2)nc2cc(C)cnc21
REMARK SMILES IDX 10 1 11 2 12 3 9 5 8 6 7 7 6 8 89 9 82 10 83 11 88 12 84 13
REMARK SMILES IDX 87 14 85 15 86 16 4 17 5 18 3 19 2 20 1 21 13 22 14 23 15 24
REMARK SMILES IDX 16 25 17 26 18 28 19 29 20 30 81 31 21 32 80 33 22 34 23 35
REMARK SMILES IDX 24 36 74 37 25 38 79 39 73 40 75 41 26 42 78 43 72 44 71 45
REMARK SMILES IDX 27 47 59 48 39 49 58 50 40 51 43 52 57 53 76 54 41 55 42 56
REMARK SMILES IDX 56 58 77 59 44 60 28 61 29 62 37 63 30 64 31 65 35 66 38 67
REMARK SMILES IDX 32 68 33 69 36 70 34 71 60 72 61 73 69 74 62 75 63 76 67 77
REMARK SMILES IDX 70 78 64 79 65 80 68 81 66 82 45 83 46 84 54 85 47 86 48 87
REMARK SMILES IDX 52 88 55 89 49 90 50 91 53 92 51 93
REMARK H PARENT 12 4 16 27 75 46 43 57
REMARK Flexibility Score: inf
ROOT
ATOM      1  C   UNL A   1      33.497  28.353  25.155  1.00  0.00     0.230 C 
ATOM      2  O   UNL A   1      33.267  28.410  23.946  1.00  0.00    -0.274 OA
ATOM      3  N   UNL A   1      34.293  29.323  25.679  1.00  0.00    -0.355 N 
ATOM      4  H   UNL A   1      34.756  29.890  25.022  1.00  0.00     0.163 HD
ENDROOT
BRANCH   1   5
ATOM      5  C   UNL A   1      32.840  27.320  26.032  1.00  0.00     0.178 C 
BRANCH   5   6
ATOM      6  S   UNL A   1      32.336  25.803  25.256  1.00  0.00    -0.078 SA
BRANCH   6   7
ATOM      7  C   UNL A   1      33.522  24.557  25.078  1.00  0.00     0.171 A 
ATOM      8  N   UNL A   1      33.448  23.185  24.948  1.00  0.00    -0.298 N 
ATOM      9  C   UNL A   1      34.751  22.710  25.072  1.00  0.00     0.161 A 
ATOM     10  N   UNL A   1      34.776  24.942  25.283  1.00  0.00    -0.221 NA
ATOM     11  C   UNL A   1      35.536  23.813  25.332  1.00  0.00     0.109 A 
ATOM     12  N   UNL A   1      35.152  21.422  24.999  1.00  0.00    -0.236 NA
ATOM     13  C   UNL A   1      36.893  23.603  25.612  1.00  0.00     0.037 A 
ATOM     14  C   UNL A   1      36.469  21.265  25.266  1.00  0.00     0.117 A 
ATOM     15  C   UNL A   1      37.368  22.282  25.590  1.00  0.00    -0.030 A 
ATOM     16  C   UNL A   1      38.790  21.968  25.939  1.00  0.00     0.046 C 
BRANCH   8  17
ATOM     17  C   UNL A   1      32.388  22.203  24.754  1.00  0.00     0.114 C 
ATOM     18  C   UNL A   1      31.203  22.231  25.708  1.00  0.00     0.034 C 
BRANCH  17  19
ATOM     19  C   UNL A   1      32.041  22.072  23.256  1.00  0.00     0.185 C 
BRANCH  19  20
ATOM     20  O   UNL A   1      32.173  20.747  22.740  1.00  0.00    -0.383 OA
ATOM     21  C   UNL A   1      32.432  19.775  23.743  1.00  0.00     0.194 C 
ENDBRANCH  19  20
ENDBRANCH  17  19
ENDBRANCH   8  17
ENDBRANCH   6   7
ENDBRANCH   5   6
ENDBRANCH   1   5
BRANCH   3  22
ATOM     22  C   UNL A   1      34.554  29.639  27.071  1.00  0.00     0.117 C 
BRANCH  22  23
ATOM     23  C   UNL A   1      33.840  30.905  27.540  1.00  0.00     0.042 C 
BRANCH  23  24
ATOM     24  C   UNL A   1      34.806  32.023  27.877  1.00  0.00     0.118 C 
BRANCH  24  25
ATOM     25  N   UNL A   1      34.709  32.500  29.261  1.00  0.00    -0.352 N 
ATOM     26  C   UNL A   1      35.455  32.085  30.355  1.00  0.00     0.251 C 
ATOM     27  H   UNL A   1      34.033  33.195  29.436  1.00  0.00     0.163 HD
ATOM     28  O   UNL A   1      35.123  32.346  31.496  1.00  0.00    -0.269 OA
BRANCH  26  29
ATOM     29  C   UNL A   1      36.675  31.306  30.083  1.00  0.00     0.039 A 
ATOM     30  C   UNL A   1      37.909  31.915  29.854  1.00  0.00     0.014 A 
ATOM     31  C   UNL A   1      36.565  29.925  30.180  1.00  0.00     0.014 A 
ATOM     32  C   UNL A   1      39.044  31.109  29.807  1.00  0.00     0.010 A 
ATOM     33  C   UNL A   1      37.691  29.180  30.380  1.00  0.00     0.010 A 
ATOM     34  C   UNL A   1      38.929  29.738  30.099  1.00  0.00    -0.014 A 
BRANCH  34  35
ATOM     35  C   UNL A   1      40.092  28.864  30.142  1.00  0.00     0.031 A 
ATOM     36  C   UNL A   1      40.668  28.633  31.493  1.00  0.00     0.074 A 
ATOM     37  C   UNL A   1      40.550  28.198  29.058  1.00  0.00     0.049 A 
ATOM     38  N   UNL A   1      41.816  29.034  31.929  1.00  0.00    -0.248 NA
ATOM     39  C   UNL A   1      39.835  27.985  32.516  1.00  0.00     0.031 C 
ATOM     40  C   UNL A   1      39.972  28.087  27.710  1.00  0.00     0.029 A 
ATOM     41  N   UNL A   1      41.650  27.406  28.967  1.00  0.00    -0.354 N 
ATOM     42  C   UNL A   1      41.925  28.571  33.237  1.00  0.00     0.074 A 
ATOM     43  C   UNL A   1      40.632  28.038  33.586  1.00  0.00     0.031 C 
ATOM     44  C   UNL A   1      40.597  27.108  27.019  1.00  0.00     0.029 A 
ATOM     45  C   UNL A   1      41.741  26.673  27.793  1.00  0.00     0.049 A 
ATOM     46  H   UNL A   1      42.328  27.355  29.679  1.00  0.00     0.167 HD
ATOM     47  C   UNL A   1      43.134  28.513  33.863  1.00  0.00     0.037 A 
ATOM     48  C   UNL A   1      42.706  25.780  27.471  1.00  0.00     0.037 A 
ATOM     49  C   UNL A   1      44.114  29.312  33.174  1.00  0.00     0.049 A 
ATOM     50  C   UNL A   1      43.885  26.104  28.308  1.00  0.00     0.074 A 
ATOM     51  C   UNL A   1      44.267  30.664  32.934  1.00  0.00     0.029 A 
ATOM     52  N   UNL A   1      44.938  28.685  32.272  1.00  0.00    -0.354 N 
ATOM     53  N   UNL A   1      44.580  27.201  28.181  1.00  0.00    -0.248 NA
ATOM     54  C   UNL A   1      44.001  25.434  29.592  1.00  0.00     0.031 C 
ATOM     55  C   UNL A   1      44.778  30.750  31.604  1.00  0.00     0.029 A 
ATOM     56  C   UNL A   1      44.965  29.450  31.133  1.00  0.00     0.049 A 
ATOM     57  H   UNL A   1      45.421  27.838  32.416  1.00  0.00     0.167 HD
ATOM     58  C   UNL A   1      44.871  27.587  29.480  1.00  0.00     0.074 A 
ATOM     59  C   UNL A   1      44.562  26.417  30.301  1.00  0.00     0.031 C 
ATOM     60  C   UNL A   1      45.067  28.900  29.799  1.00  0.00     0.037 A 
BRANCH  47  61
ATOM     61  C   UNL A   1      43.516  27.499  34.908  1.00  0.00     0.064 A 
ATOM     62  C   UNL A   1      43.847  27.933  36.208  1.00  0.00     0.173 A 
ATOM     63  C   UNL A   1      43.852  26.162  34.608  1.00  0.00     0.173 A 
ATOM     64  F   UNL A   1      43.588  29.190  36.598  1.00  0.00    -0.203 F 
ATOM     65  C   UNL A   1      44.529  27.110  37.110  1.00  0.00     0.198 A 
ATOM     66  C   UNL A   1      44.487  25.329  35.527  1.00  0.00     0.198 A 
ATOM     67  F   UNL A   1      43.682  25.647  33.384  1.00  0.00    -0.203 F 
ATOM     68  F   UNL A   1      44.929  27.603  38.291  1.00  0.00    -0.200 F 
ATOM     69  C   UNL A   1      44.855  25.811  36.766  1.00  0.00     0.200 A 
ATOM     70  F   UNL A   1      44.812  24.079  35.168  1.00  0.00    -0.200 F 
ATOM     71  F   UNL A   1      45.563  25.041  37.603  1.00  0.00    -0.200 F 
ENDBRANCH  47  61
BRANCH  48  72
ATOM     72  C   UNL A   1      42.542  24.476  26.791  1.00  0.00     0.064 A 
ATOM     73  C   UNL A   1      43.119  24.248  25.532  1.00  0.00     0.173 A 
ATOM     74  C   UNL A   1      42.090  23.340  27.492  1.00  0.00     0.173 A 
ATOM     75  F   UNL A   1      43.606  25.275  24.820  1.00  0.00    -0.203 F 
ATOM     76  C   UNL A   1      43.283  22.955  25.026  1.00  0.00     0.198 A 
ATOM     77  C   UNL A   1      42.250  22.051  26.983  1.00  0.00     0.198 A 
ATOM     78  F   UNL A   1      41.582  23.452  28.728  1.00  0.00    -0.203 F 
ATOM     79  F   UNL A   1      43.908  22.772  23.855  1.00  0.00    -0.200 F 
ATOM     80  C   UNL A   1      42.863  21.857  25.759  1.00  0.00     0.200 A 
ATOM     81  F   UNL A   1      41.877  20.994  27.718  1.00  0.00    -0.200 F 
ATOM     82  F   UNL A   1      43.090  20.616  25.309  1.00  0.00    -0.200 F 
ENDBRANCH  48  72
BRANCH  60  83
ATOM     83  C   UNL A   1      45.179  29.880  28.658  1.00  0.00     0.064 A 
ATOM     84  C   UNL A   1      44.084  30.567  28.098  1.00  0.00     0.173 A 
ATOM     85  C   UNL A   1      46.452  30.228  28.192  1.00  0.00     0.173 A 
ATOM     86  F   UNL A   1      42.843  30.372  28.552  1.00  0.00    -0.203 F 
ATOM     87  C   UNL A   1      44.256  31.513  27.088  1.00  0.00     0.198 A 
ATOM     88  C   UNL A   1      46.625  31.201  27.209  1.00  0.00     0.198 A 
ATOM     89  F   UNL A   1      47.541  29.652  28.725  1.00  0.00    -0.203 F 
ATOM     90  F   UNL A   1      43.191  32.137  26.561  1.00  0.00    -0.200 F 
ATOM     91  C   UNL A   1      45.527  31.833  26.648  1.00  0.00     0.200 A 
ATOM     92  F   UNL A   1      47.862  31.542  26.822  1.00  0.00    -0.200 F 
ATOM     93  F   UNL A   1      45.698  32.767  25.702  1.00  0.00    -0.200 F 
ENDBRANCH  60  83
ENDBRANCH  34  35
ENDBRANCH  26  29
ENDBRANCH  24  25
ENDBRANCH  23  24
ENDBRANCH  22  23
ENDBRANCH   3  22
TORSDOF 15
ENDMDL
MODEL 3
REMARK VINA RESULT:     -11.5      3.537      9.080
REMARK SMILES COC[C@H](C)n1c(SCC(=O)NCCCNC(=O)c2ccc(-c3c4nc(c(-c5c(F)c(F)c(F)c(F)c5F)c5ccc([nH]5)c(-c5c(F)c(F)c(F)c(F)c5F)c5nc(c(-c6c(F)c(F)c(F)c(F)c6F)c6ccc3[nH]6)C=C5)C=C4)cc2)nc2cc(C)cnc21
REMARK SMILES IDX 10 1 11 2 12 3 9 5 8 6 7 7 6 8 89 9 82 10 83 11 88 12 84 13
REMARK SMILES IDX 87 14 85 15 86 16 4 17 5 18 3 19 2 20 1 21 13 22 14 23 15 24
REMARK SMILES IDX 16 25 17 26 18 28 19 29 20 30 81 31 21 32 80 33 22 34 23 35
REMARK SMILES IDX 24 36 74 37 25 38 79 39 73 40 75 41 26 42 78 43 72 44 71 45
REMARK SMILES IDX 27 47 59 48 39 49 58 50 40 51 43 52 57 53 76 54 41 55 42 56
REMARK SMILES IDX 56 58 77 59 44 60 28 61 29 62 37 63 30 64 31 65 35 66 38 67
REMARK SMILES IDX 32 68 33 69 36 70 34 71 60 72 61 73 69 74 62 75 63 76 67 77
REMARK SMILES IDX 70 78 64 79 65 80 68 81 66 82 45 83 46 84 54 85 47 86 48 87
REMARK SMILES IDX 52 88 55 89 49 90 50 91 53 92 51 93
REMARK H PARENT 12 4 16 27 75 46 43 57
REMARK Flexibility Score: inf
ROOT
ATOM      1  C   UNL A   1      31.793  28.477  27.180  1.00  0.00     0.230 C 
ATOM      2  O   UNL A   1      31.119  27.837  27.987  1.00  0.00    -0.274 OA
ATOM      3  N   UNL A   1      32.204  29.715  27.560  1.00  0.00    -0.355 N 
ATOM      4  H   UNL A   1      31.787  30.065  28.381  1.00  0.00     0.163 HD
ENDROOT
BRANCH   1   5
ATOM      5  C   UNL A   1      32.232  27.873  25.872  1.00  0.00     0.178 C 
BRANCH   5   6
ATOM      6  S   UNL A   1      33.582  26.719  25.927  1.00  0.00    -0.078 SA
BRANCH   6   7
ATOM      7  C   UNL A   1      33.397  25.220  25.083  1.00  0.00     0.171 A 
ATOM      8  N   UNL A   1      32.731  24.852  23.932  1.00  0.00    -0.298 N 
ATOM      9  C   UNL A   1      32.763  23.461  23.889  1.00  0.00     0.161 A 
ATOM     10  N   UNL A   1      33.818  24.149  25.745  1.00  0.00    -0.221 NA
ATOM     11  C   UNL A   1      33.391  23.058  25.049  1.00  0.00     0.109 A 
ATOM     12  N   UNL A   1      32.240  22.669  22.928  1.00  0.00    -0.236 NA
ATOM     13  C   UNL A   1      33.461  21.684  25.316  1.00  0.00     0.037 A 
ATOM     14  C   UNL A   1      32.336  21.352  23.221  1.00  0.00     0.117 A 
ATOM     15  C   UNL A   1      32.902  20.807  24.374  1.00  0.00    -0.030 A 
ATOM     16  C   UNL A   1      32.879  19.329  24.616  1.00  0.00     0.046 C 
BRANCH   8  17
ATOM     17  C   UNL A   1      32.035  25.544  22.854  1.00  0.00     0.114 C 
ATOM     18  C   UNL A   1      30.583  25.942  23.077  1.00  0.00     0.034 C 
BRANCH  17  19
ATOM     19  C   UNL A   1      32.941  26.630  22.235  1.00  0.00     0.185 C 
BRANCH  19  20
ATOM     20  O   UNL A   1      33.436  26.306  20.935  1.00  0.00    -0.383 OA
ATOM     21  C   UNL A   1      32.664  25.319  20.267  1.00  0.00     0.194 C 
ENDBRANCH  19  20
ENDBRANCH  17  19
ENDBRANCH   8  17
ENDBRANCH   6   7
ENDBRANCH   5   6
ENDBRANCH   1   5
BRANCH   3  22
ATOM     22  C   UNL A   1      33.171  30.593  26.929  1.00  0.00     0.117 C 
BRANCH  22  23
ATOM     23  C   UNL A   1      34.553  30.522  27.573  1.00  0.00     0.042 C 
BRANCH  23  24
ATOM     24  C   UNL A   1      35.104  31.892  27.915  1.00  0.00     0.118 C 
BRANCH  24  25
ATOM     25  N   UNL A   1      34.938  32.268  29.323  1.00  0.00    -0.352 N 
ATOM     26  C   UNL A   1      35.650  31.796  30.416  1.00  0.00     0.251 C 
ATOM     27  H   UNL A   1      34.238  32.933  29.516  1.00  0.00     0.163 HD
ATOM     28  O   UNL A   1      35.266  31.969  31.558  1.00  0.00    -0.269 OA
BRANCH  26  29
ATOM     29  C   UNL A   1      36.902  31.068  30.143  1.00  0.00     0.039 A 
ATOM     30  C   UNL A   1      38.134  31.715  30.058  1.00  0.00     0.014 A 
ATOM     31  C   UNL A   1      36.815  29.683  30.089  1.00  0.00     0.014 A 
ATOM     32  C   UNL A   1      39.286  30.934  30.000  1.00  0.00     0.010 A 
ATOM     33  C   UNL A   1      37.941  28.937  30.282  1.00  0.00     0.010 A 
ATOM     34  C   UNL A   1      39.182  29.539  30.140  1.00  0.00    -0.014 A 
BRANCH  34  35
ATOM     35  C   UNL A   1      40.358  28.681  30.166  1.00  0.00     0.031 A 
ATOM     36  C   UNL A   1      40.973  28.480  31.505  1.00  0.00     0.074 A 
ATOM     37  C   UNL A   1      40.797  28.005  29.080  1.00  0.00     0.049 A 
ATOM     38  N   UNL A   1      42.126  28.904  31.904  1.00  0.00    -0.248 NA
ATOM     39  C   UNL A   1      40.176  27.837  32.560  1.00  0.00     0.031 C 
ATOM     40  C   UNL A   1      40.186  27.863  27.750  1.00  0.00     0.029 A 
ATOM     41  N   UNL A   1      41.905  27.226  28.973  1.00  0.00    -0.354 N 
ATOM     42  C   UNL A   1      42.276  28.464  33.215  1.00  0.00     0.074 A 
ATOM     43  C   UNL A   1      41.000  27.919  33.607  1.00  0.00     0.031 C 
ATOM     44  C   UNL A   1      40.806  26.882  27.058  1.00  0.00     0.029 A 
ATOM     45  C   UNL A   1      41.976  26.476  27.809  1.00  0.00     0.049 A 
ATOM     46  H   UNL A   1      42.603  27.197  29.668  1.00  0.00     0.167 HD
ATOM     47  C   UNL A   1      43.501  28.433  33.810  1.00  0.00     0.037 A 
ATOM     48  C   UNL A   1      42.945  25.591  27.475  1.00  0.00     0.037 A 
ATOM     49  C   UNL A   1      44.452  29.234  33.083  1.00  0.00     0.049 A 
ATOM     50  C   UNL A   1      44.141  25.945  28.276  1.00  0.00     0.074 A 
ATOM     51  C   UNL A   1      44.579  30.584  32.818  1.00  0.00     0.029 A 
ATOM     52  N   UNL A   1      45.261  28.604  32.170  1.00  0.00    -0.354 N 
ATOM     53  N   UNL A   1      44.816  27.049  28.113  1.00  0.00    -0.248 NA
ATOM     54  C   UNL A   1      44.300  25.297  29.567  1.00  0.00     0.031 C 
ATOM     55  C   UNL A   1      45.053  30.656  31.473  1.00  0.00     0.029 A 
ATOM     56  C   UNL A   1      45.247  29.351  31.018  1.00  0.00     0.049 A 
ATOM     57  H   UNL A   1      45.759  27.766  32.314  1.00  0.00     0.167 HD
ATOM     58  C   UNL A   1      45.135  27.460  29.398  1.00  0.00     0.074 A 
ATOM     59  C   UNL A   1      44.865  26.300  30.245  1.00  0.00     0.031 C 
ATOM     60  C   UNL A   1      45.322  28.781  29.691  1.00  0.00     0.037 A 
BRANCH  47  61
ATOM     61  C   UNL A   1      43.925  27.441  34.861  1.00  0.00     0.064 A 
ATOM     62  C   UNL A   1      43.907  26.063  34.564  1.00  0.00     0.173 A 
ATOM     63  C   UNL A   1      44.067  27.769  36.226  1.00  0.00     0.173 A 
ATOM     64  F   UNL A   1      43.761  25.637  33.300  1.00  0.00    -0.203 F 
ATOM     65  C   UNL A   1      43.952  25.090  35.567  1.00  0.00     0.198 A 
ATOM     66  C   UNL A   1      44.161  26.796  37.220  1.00  0.00     0.198 A 
ATOM     67  F   UNL A   1      44.006  29.033  36.661  1.00  0.00    -0.203 F 
ATOM     68  F   UNL A   1      43.810  23.797  35.248  1.00  0.00    -0.200 F 
ATOM     69  C   UNL A   1      44.072  25.458  36.895  1.00  0.00     0.200 A 
ATOM     70  F   UNL A   1      44.258  27.172  38.503  1.00  0.00    -0.200 F 
ATOM     71  F   UNL A   1      44.052  24.532  37.863  1.00  0.00    -0.200 F 
ENDBRANCH  47  61
BRANCH  48  72
ATOM     72  C   UNL A   1      42.782  24.274  26.821  1.00  0.00     0.064 A 
ATOM     73  C   UNL A   1      43.345  24.028  25.559  1.00  0.00     0.173 A 
ATOM     74  C   UNL A   1      42.346  23.148  27.547  1.00  0.00     0.173 A 
ATOM     75  F   UNL A   1      43.816  25.045  24.823  1.00  0.00    -0.203 F 
ATOM     76  C   UNL A   1      43.511  22.728  25.074  1.00  0.00     0.198 A 
ATOM     77  C   UNL A   1      42.509  21.851  27.060  1.00  0.00     0.198 A 
ATOM     78  F   UNL A   1      41.852  23.278  28.787  1.00  0.00    -0.203 F 
ATOM     79  F   UNL A   1      44.124  22.528  23.898  1.00  0.00    -0.200 F 
ATOM     80  C   UNL A   1      43.108  21.640  25.831  1.00  0.00     0.200 A 
ATOM     81  F   UNL A   1      42.152  20.805  27.818  1.00  0.00    -0.200 F 
ATOM     82  F   UNL A   1      43.338  20.392  25.401  1.00  0.00    -0.200 F 
ENDBRANCH  48  72
BRANCH  60  83
ATOM     83  C   UNL A   1      45.389  29.744  28.532  1.00  0.00     0.064 A 
ATOM     84  C   UNL A   1      44.264  30.360  27.952  1.00  0.00     0.173 A 
ATOM     85  C   UNL A   1      46.645  30.151  28.068  1.00  0.00     0.173 A 
ATOM     86  F   UNL A   1      43.031  30.107  28.401  1.00  0.00    -0.203 F 
ATOM     87  C   UNL A   1      44.392  31.295  26.925  1.00  0.00     0.198 A 
ATOM     88  C   UNL A   1      46.774  31.112  27.068  1.00  0.00     0.198 A 
ATOM     89  F   UNL A   1      47.760  29.644  28.619  1.00  0.00    -0.203 F 
ATOM     90  F   UNL A   1      43.300  31.851  26.380  1.00  0.00    -0.200 F 
ATOM     91  C   UNL A   1      45.648  31.674  26.487  1.00  0.00     0.200 A 
ATOM     92  F   UNL A   1      47.993  31.512  26.682  1.00  0.00    -0.200 F 
ATOM     93  F   UNL A   1      45.776  32.599  25.525  1.00  0.00    -0.200 F 
ENDBRANCH  60  83
ENDBRANCH  34  35
ENDBRANCH  26  29
ENDBRANCH  24  25
ENDBRANCH  23  24
ENDBRANCH  22  23
ENDBRANCH   3  22
TORSDOF 15
ENDMDL
