MODEL 1
REMARK VINA RESULT:     -11.9      0.000      0.000
REMARK SMILES COC(=O)c1ccccc1-c1ccc(/C=C(\C#N)C(=O)NCCCNC(=O)c2ccc(-c3c4nc(c(-c5c(F)c(F)c(F)c(F)c5F)c5ccc([nH]5)c(-c5c(F)c(F)c(F)c(F)c5F)c5nc(c(-c6c(F)c(F)c(F)c(F)c6F)c6ccc3[nH]6)C=C5)C=C4)cc2)o1
REMARK SMILES IDX 22 1 21 2 19 3 20 4 16 6 15 7 14 8 11 9 12 10 91 11 13 12
REMARK SMILES IDX 10 13 5 14 6 15 7 16 9 17 8 18 3 19 4 20 2 21 1 22 17 23
REMARK SMILES IDX 18 24 23 25 24 26 25 27 26 28 27 30 28 31 29 32 90 33 30 34
REMARK SMILES IDX 89 35 31 36 32 37 33 38 83 39 34 40 88 41 82 42 84 43 35 44
REMARK SMILES IDX 87 45 81 46 80 47 36 49 68 50 48 51 67 52 49 53 52 54 66 55
REMARK SMILES IDX 85 56 50 57 51 58 65 60 86 61 53 62 37 63 38 64 46 65 39 66
REMARK SMILES IDX 40 67 44 68 47 69 41 70 42 71 45 72 43 73 69 74 70 75 78 76
REMARK SMILES IDX 71 77 72 78 76 79 79 80 73 81 74 82 77 83 75 84 54 85 55 86
REMARK SMILES IDX 63 87 56 88 57 89 61 90 64 91 58 92 59 93 62 94 60 95
REMARK H PARENT 21 5 25 29 84 48 52 59
REMARK Flexibility Score: inf
ROOT
ATOM      1  C   UNL A   1      36.622  20.309  25.000  1.00  0.00     0.118 C 
ENDROOT
BRANCH   1   2
ATOM      2  N   UNL A   1      35.486  19.409  24.892  1.00  0.00    -0.351 N 
ATOM      3  C   UNL A   1      34.144  19.601  24.999  1.00  0.00     0.262 C 
ATOM      4  O   UNL A   1      33.432  18.610  24.811  1.00  0.00    -0.268 OA
ATOM      5  H   UNL A   1      35.738  18.475  24.707  1.00  0.00     0.163 HD
BRANCH   3   6
ATOM      6  C   UNL A   1      33.527  20.927  25.295  1.00  0.00     0.120 C 
ATOM      7  C   UNL A   1      32.987  21.585  24.247  1.00  0.00     0.072 C 
BRANCH   7   8
ATOM      8  C   UNL A   1      32.371  22.868  24.331  1.00  0.00     0.129 A 
ATOM      9  C   UNL A   1      32.173  25.076  24.573  1.00  0.00     0.135 A 
ATOM     10  C   UNL A   1      30.891  24.591  24.462  1.00  0.00     0.051 A 
ATOM     11  O   UNL A   1      33.057  24.052  24.465  1.00  0.00    -0.457 OA
ATOM     12  C   UNL A   1      31.017  23.186  24.310  1.00  0.00     0.051 A 
BRANCH   9  13
ATOM     13  C   UNL A   1      32.764  26.381  24.818  1.00  0.00     0.032 A 
ATOM     14  C   UNL A   1      32.861  27.375  23.826  1.00  0.00     0.071 A 
ATOM     15  C   UNL A   1      33.495  28.597  24.106  1.00  0.00     0.016 A 
ATOM     16  C   UNL A   1      34.010  28.848  25.377  1.00  0.00     0.001 A 
ATOM     17  C   UNL A   1      33.278  26.659  26.096  1.00  0.00     0.013 A 
ATOM     18  C   UNL A   1      33.899  27.881  26.373  1.00  0.00     0.001 A 
BRANCH  14  19
ATOM     19  C   UNL A   1      32.334  27.200  22.456  1.00  0.00     0.338 C 
ATOM     20  O   UNL A   1      31.208  27.542  22.120  1.00  0.00    -0.246 OA
BRANCH  19  21
ATOM     21  O   UNL A   1      33.245  26.571  21.677  1.00  0.00    -0.465 OA
ATOM     22  C   UNL A   1      32.688  25.622  20.768  1.00  0.00     0.282 C 
ENDBRANCH  19  21
ENDBRANCH  14  19
ENDBRANCH   9  13
ENDBRANCH   7   8
BRANCH   6  23
ATOM     23  C   UNL A   1      33.539  21.533  26.690  1.00  0.00     0.105 C 
ATOM     24  N   UNL A   1      33.550  22.035  27.846  1.00  0.00    -0.192 NA
ENDBRANCH   6  23
ENDBRANCH   3   6
ENDBRANCH   1   2
BRANCH   1  25
ATOM     25  C   UNL A   1      37.947  19.563  24.861  1.00  0.00     0.042 C 
BRANCH  25  26
ATOM     26  C   UNL A   1      39.035  20.098  25.791  1.00  0.00     0.118 C 
BRANCH  26  27
ATOM     27  N   UNL A   1      40.155  19.173  25.907  1.00  0.00    -0.352 N 
ATOM     28  C   UNL A   1      41.489  19.417  26.102  1.00  0.00     0.251 C 
ATOM     29  H   UNL A   1      39.915  18.221  25.833  1.00  0.00     0.163 HD
ATOM     30  O   UNL A   1      42.296  18.503  25.958  1.00  0.00    -0.269 OA
BRANCH  28  31
ATOM     31  C   UNL A   1      41.968  20.761  26.484  1.00  0.00     0.039 A 
ATOM     32  C   UNL A   1      42.058  21.078  27.843  1.00  0.00     0.014 A 
ATOM     33  C   UNL A   1      42.261  21.729  25.520  1.00  0.00     0.014 A 
ATOM     34  C   UNL A   1      42.477  22.349  28.236  1.00  0.00     0.010 A 
ATOM     35  C   UNL A   1      42.740  22.977  25.911  1.00  0.00     0.010 A 
ATOM     36  C   UNL A   1      42.840  23.302  27.271  1.00  0.00    -0.014 A 
BRANCH  36  37
ATOM     37  C   UNL A   1      43.307  24.653  27.667  1.00  0.00     0.031 A 
ATOM     38  C   UNL A   1      42.310  25.718  28.026  1.00  0.00     0.074 A 
ATOM     39  C   UNL A   1      44.622  24.933  27.646  1.00  0.00     0.049 A 
ATOM     40  N   UNL A   1      42.513  26.976  28.328  1.00  0.00    -0.248 NA
ATOM     41  C   UNL A   1      40.894  25.323  28.018  1.00  0.00     0.031 C 
ATOM     42  C   UNL A   1      45.681  23.991  27.283  1.00  0.00     0.029 A 
ATOM     43  N   UNL A   1      45.292  26.095  27.932  1.00  0.00    -0.354 N 
ATOM     44  C   UNL A   1      41.253  27.524  28.528  1.00  0.00     0.074 A 
ATOM     45  C   UNL A   1      40.290  26.475  28.264  1.00  0.00     0.031 C 
ATOM     46  C   UNL A   1      46.870  24.603  27.394  1.00  0.00     0.029 A 
ATOM     47  C   UNL A   1      46.655  25.988  27.801  1.00  0.00     0.049 A 
ATOM     48  H   UNL A   1      44.840  26.926  28.204  1.00  0.00     0.167 HD
ATOM     49  C   UNL A   1      40.930  28.780  28.916  1.00  0.00     0.037 A 
ATOM     50  C   UNL A   1      47.620  26.908  27.988  1.00  0.00     0.037 A 
ATOM     51  C   UNL A   1      41.893  29.811  29.201  1.00  0.00     0.049 A 
ATOM     52  C   UNL A   1      47.236  28.298  28.413  1.00  0.00     0.074 A 
ATOM     53  C   UNL A   1      41.674  31.101  29.652  1.00  0.00     0.029 A 
ATOM     54  N   UNL A   1      43.266  29.665  29.062  1.00  0.00    -0.354 N 
ATOM     55  N   UNL A   1      46.045  28.793  28.647  1.00  0.00    -0.248 NA
ATOM     56  C   UNL A   1      48.334  29.257  28.598  1.00  0.00     0.031 C 
ATOM     57  C   UNL A   1      42.912  31.747  29.751  1.00  0.00     0.029 A 
ATOM     58  C   UNL A   1      43.906  30.846  29.402  1.00  0.00     0.049 A 
ATOM     59  H   UNL A   1      43.719  28.843  28.766  1.00  0.00     0.167 HD
ATOM     60  C   UNL A   1      46.248  30.110  29.033  1.00  0.00     0.074 A 
ATOM     61  C   UNL A   1      47.680  30.335  29.011  1.00  0.00     0.031 C 
ATOM     62  C   UNL A   1      45.332  31.048  29.378  1.00  0.00     0.037 A 
BRANCH  49  63
ATOM     63  C   UNL A   1      39.470  29.103  29.050  1.00  0.00     0.064 A 
ATOM     64  C   UNL A   1      38.820  29.066  30.293  1.00  0.00     0.173 A 
ATOM     65  C   UNL A   1      38.710  29.456  27.924  1.00  0.00     0.173 A 
ATOM     66  F   UNL A   1      39.497  28.721  31.399  1.00  0.00    -0.203 F 
ATOM     67  C   UNL A   1      37.456  29.329  30.399  1.00  0.00     0.198 A 
ATOM     68  C   UNL A   1      37.353  29.748  28.038  1.00  0.00     0.198 A 
ATOM     69  F   UNL A   1      39.282  29.512  26.713  1.00  0.00    -0.203 F 
ATOM     70  F   UNL A   1      36.845  29.227  31.587  1.00  0.00    -0.200 F 
ATOM     71  C   UNL A   1      36.726  29.674  29.272  1.00  0.00     0.200 A 
ATOM     72  F   UNL A   1      36.650  30.092  26.950  1.00  0.00    -0.200 F 
ATOM     73  F   UNL A   1      35.413  29.924  29.374  1.00  0.00    -0.200 F 
ENDBRANCH  49  63
BRANCH  50  74
ATOM     74  C   UNL A   1      49.042  26.523  27.824  1.00  0.00     0.064 A 
ATOM     75  C   UNL A   1      49.612  26.426  26.546  1.00  0.00     0.173 A 
ATOM     76  C   UNL A   1      49.867  26.267  28.928  1.00  0.00     0.173 A 
ATOM     77  F   UNL A   1      48.855  26.643  25.460  1.00  0.00    -0.203 F 
ATOM     78  C   UNL A   1      50.950  26.081  26.378  1.00  0.00     0.198 A 
ATOM     79  C   UNL A   1      51.212  25.943  28.760  1.00  0.00     0.198 A 
ATOM     80  F   UNL A   1      49.371  26.351  30.171  1.00  0.00    -0.203 F 
ATOM     81  F   UNL A   1      51.461  25.966  25.145  1.00  0.00    -0.200 F 
ATOM     82  C   UNL A   1      51.751  25.846  27.486  1.00  0.00     0.200 A 
ATOM     83  F   UNL A   1      51.987  25.729  29.833  1.00  0.00    -0.200 F 
ATOM     84  F   UNL A   1      53.041  25.522  27.325  1.00  0.00    -0.200 F 
ENDBRANCH  50  74
BRANCH  62  85
ATOM     85  C   UNL A   1      45.854  32.393  29.789  1.00  0.00     0.064 A 
ATOM     86  C   UNL A   1      46.212  32.667  31.117  1.00  0.00     0.173 A 
ATOM     87  C   UNL A   1      46.031  33.405  28.836  1.00  0.00     0.173 A 
ATOM     88  F   UNL A   1      46.044  31.735  32.067  1.00  0.00    -0.203 F 
ATOM     89  C   UNL A   1      46.706  33.917  31.479  1.00  0.00     0.198 A 
ATOM     90  C   UNL A   1      46.551  34.645  29.197  1.00  0.00     0.198 A 
ATOM     91  F   UNL A   1      45.709  33.189  27.551  1.00  0.00    -0.203 F 
ATOM     92  F   UNL A   1      47.001  34.172  32.762  1.00  0.00    -0.200 F 
ATOM     93  C   UNL A   1      46.882  34.902  30.519  1.00  0.00     0.200 A 
ATOM     94  F   UNL A   1      46.729  35.592  28.266  1.00  0.00    -0.200 F 
ATOM     95  F   UNL A   1      47.363  36.102  30.869  1.00  0.00    -0.200 F 
ENDBRANCH  62  85
ENDBRANCH  36  37
ENDBRANCH  28  31
ENDBRANCH  26  27
ENDBRANCH  25  26
ENDBRANCH   1  25
TORSDOF 15
ENDMDL
MODEL 2
REMARK VINA RESULT:     -11.8      1.241      2.234
REMARK SMILES COC(=O)c1ccccc1-c1ccc(/C=C(\C#N)C(=O)NCCCNC(=O)c2ccc(-c3c4nc(c(-c5c(F)c(F)c(F)c(F)c5F)c5ccc([nH]5)c(-c5c(F)c(F)c(F)c(F)c5F)c5nc(c(-c6c(F)c(F)c(F)c(F)c6F)c6ccc3[nH]6)C=C5)C=C4)cc2)o1
REMARK SMILES IDX 22 1 21 2 19 3 20 4 16 6 15 7 14 8 11 9 12 10 91 11 13 12
REMARK SMILES IDX 10 13 5 14 6 15 7 16 9 17 8 18 3 19 4 20 2 21 1 22 17 23
REMARK SMILES IDX 18 24 23 25 24 26 25 27 26 28 27 30 28 31 29 32 90 33 30 34
REMARK SMILES IDX 89 35 31 36 32 37 33 38 83 39 34 40 88 41 82 42 84 43 35 44
REMARK SMILES IDX 87 45 81 46 80 47 36 49 68 50 48 51 67 52 49 53 52 54 66 55
REMARK SMILES IDX 85 56 50 57 51 58 65 60 86 61 53 62 37 63 38 64 46 65 39 66
REMARK SMILES IDX 40 67 44 68 47 69 41 70 42 71 45 72 43 73 69 74 70 75 78 76
REMARK SMILES IDX 71 77 72 78 76 79 79 80 73 81 74 82 77 83 75 84 54 85 55 86
REMARK SMILES IDX 63 87 56 88 57 89 61 90 64 91 58 92 59 93 62 94 60 95
REMARK H PARENT 21 5 25 29 84 48 52 59
REMARK Flexibility Score: inf
ROOT
ATOM      1  C   UNL A   1      36.552  20.429  24.989  1.00  0.00     0.118 C 
ENDROOT
BRANCH   1   2
ATOM      2  N   UNL A   1      35.381  19.569  24.981  1.00  0.00    -0.351 N 
ATOM      3  C   UNL A   1      34.049  19.827  24.889  1.00  0.00     0.262 C 
ATOM      4  O   UNL A   1      33.301  18.845  24.872  1.00  0.00    -0.268 OA
ATOM      5  H   UNL A   1      35.593  18.611  25.057  1.00  0.00     0.163 HD
BRANCH   3   6
ATOM      6  C   UNL A   1      33.486  21.205  24.784  1.00  0.00     0.120 C 
ATOM      7  C   UNL A   1      34.301  22.148  24.265  1.00  0.00     0.072 C 
BRANCH   7   8
ATOM      8  C   UNL A   1      33.948  23.520  24.104  1.00  0.00     0.129 A 
ATOM      9  C   UNL A   1      33.406  25.613  24.648  1.00  0.00     0.135 A 
ATOM     10  C   UNL A   1      33.332  25.548  23.277  1.00  0.00     0.051 A 
ATOM     11  O   UNL A   1      33.801  24.411  25.140  1.00  0.00    -0.457 OA
ATOM     12  C   UNL A   1      33.674  24.216  22.930  1.00  0.00     0.051 A 
BRANCH   9  13
ATOM     13  C   UNL A   1      33.119  26.628  25.649  1.00  0.00     0.032 A 
ATOM     14  C   UNL A   1      31.849  26.787  26.234  1.00  0.00     0.071 A 
ATOM     15  C   UNL A   1      31.616  27.823  27.154  1.00  0.00     0.016 A 
ATOM     16  C   UNL A   1      32.648  28.687  27.516  1.00  0.00     0.001 A 
ATOM     17  C   UNL A   1      34.148  27.501  26.038  1.00  0.00     0.013 A 
ATOM     18  C   UNL A   1      33.915  28.524  26.962  1.00  0.00     0.001 A 
BRANCH  14  19
ATOM     19  C   UNL A   1      30.700  25.911  25.917  1.00  0.00     0.338 C 
ATOM     20  O   UNL A   1      30.508  24.831  26.460  1.00  0.00    -0.246 OA
BRANCH  19  21
ATOM     21  O   UNL A   1      29.955  26.452  24.925  1.00  0.00    -0.465 OA
ATOM     22  C   UNL A   1      29.750  25.590  23.806  1.00  0.00     0.282 C 
ENDBRANCH  19  21
ENDBRANCH  14  19
ENDBRANCH   9  13
ENDBRANCH   7   8
BRANCH   6  23
ATOM     23  C   UNL A   1      32.087  21.548  25.272  1.00  0.00     0.105 C 
ATOM     24  N   UNL A   1      30.928  21.834  25.677  1.00  0.00    -0.192 NA
ENDBRANCH   6  23
ENDBRANCH   3   6
ENDBRANCH   1   2
BRANCH   1  25
ATOM     25  C   UNL A   1      37.846  19.621  24.908  1.00  0.00     0.042 C 
BRANCH  25  26
ATOM     26  C   UNL A   1      38.933  20.135  25.850  1.00  0.00     0.118 C 
BRANCH  26  27
ATOM     27  N   UNL A   1      40.050  19.205  25.952  1.00  0.00    -0.352 N 
ATOM     28  C   UNL A   1      41.394  19.444  26.072  1.00  0.00     0.251 C 
ATOM     29  H   UNL A   1      39.800  18.253  25.929  1.00  0.00     0.163 HD
ATOM     30  O   UNL A   1      42.186  18.518  25.929  1.00  0.00    -0.269 OA
BRANCH  28  31
ATOM     31  C   UNL A   1      41.901  20.799  26.375  1.00  0.00     0.039 A 
ATOM     32  C   UNL A   1      42.178  21.127  27.705  1.00  0.00     0.014 A 
ATOM     33  C   UNL A   1      42.038  21.763  25.373  1.00  0.00     0.014 A 
ATOM     34  C   UNL A   1      42.629  22.408  28.027  1.00  0.00     0.010 A 
ATOM     35  C   UNL A   1      42.547  23.021  25.685  1.00  0.00     0.010 A 
ATOM     36  C   UNL A   1      42.835  23.358  27.016  1.00  0.00    -0.014 A 
BRANCH  36  37
ATOM     37  C   UNL A   1      43.332  24.719  27.333  1.00  0.00     0.031 A 
ATOM     38  C   UNL A   1      42.404  25.738  27.931  1.00  0.00     0.074 A 
ATOM     39  C   UNL A   1      44.599  25.051  27.030  1.00  0.00     0.049 A 
ATOM     40  N   UNL A   1      42.626  26.997  28.214  1.00  0.00    -0.248 NA
ATOM     41  C   UNL A   1      41.035  25.288  28.226  1.00  0.00     0.031 C 
ATOM     42  C   UNL A   1      45.582  24.157  26.417  1.00  0.00     0.029 A 
ATOM     43  N   UNL A   1      45.276  26.232  27.190  1.00  0.00    -0.354 N 
ATOM     44  C   UNL A   1      41.424  27.492  28.701  1.00  0.00     0.074 A 
ATOM     45  C   UNL A   1      40.462  26.412  28.629  1.00  0.00     0.031 C 
ATOM     46  C   UNL A   1      46.745  24.812  26.279  1.00  0.00     0.029 A 
ATOM     47  C   UNL A   1      46.578  26.181  26.759  1.00  0.00     0.049 A 
ATOM     48  H   UNL A   1      44.868  27.040  27.577  1.00  0.00     0.167 HD
ATOM     49  C   UNL A   1      41.152  28.727  29.184  1.00  0.00     0.037 A 
ATOM     50  C   UNL A   1      47.529  27.134  26.752  1.00  0.00     0.037 A 
ATOM     51  C   UNL A   1      42.118  29.790  29.276  1.00  0.00     0.049 A 
ATOM     52  C   UNL A   1      47.202  28.500  27.287  1.00  0.00     0.074 A 
ATOM     53  C   UNL A   1      41.961  31.062  29.797  1.00  0.00     0.029 A 
ATOM     54  N   UNL A   1      43.431  29.700  28.832  1.00  0.00    -0.354 N 
ATOM     55  N   UNL A   1      46.077  28.944  27.791  1.00  0.00    -0.248 NA
ATOM     56  C   UNL A   1      48.280  29.498  27.250  1.00  0.00     0.031 C 
ATOM     57  C   UNL A   1      43.167  31.754  29.637  1.00  0.00     0.029 A 
ATOM     58  C   UNL A   1      44.089  30.899  29.053  1.00  0.00     0.049 A 
ATOM     59  H   UNL A   1      43.835  28.901  28.423  1.00  0.00     0.167 HD
ATOM     60  C   UNL A   1      46.315  30.261  28.157  1.00  0.00     0.074 A 
ATOM     61  C   UNL A   1      47.698  30.542  27.825  1.00  0.00     0.031 C 
ATOM     62  C   UNL A   1      45.467  31.157  28.720  1.00  0.00     0.037 A 
BRANCH  49  63
ATOM     63  C   UNL A   1      39.748  28.991  29.646  1.00  0.00     0.064 A 
ATOM     64  C   UNL A   1      39.362  28.787  30.979  1.00  0.00     0.173 A 
ATOM     65  C   UNL A   1      38.775  29.454  28.746  1.00  0.00     0.173 A 
ATOM     66  F   UNL A   1      40.250  28.331  31.877  1.00  0.00    -0.203 F 
ATOM     67  C   UNL A   1      38.047  28.997  31.387  1.00  0.00     0.198 A 
ATOM     68  C   UNL A   1      37.469  29.692  29.164  1.00  0.00     0.198 A 
ATOM     69  F   UNL A   1      39.091  29.672  27.461  1.00  0.00    -0.203 F 
ATOM     70  F   UNL A   1      37.689  28.737  32.651  1.00  0.00    -0.200 F 
ATOM     71  C   UNL A   1      37.103  29.454  30.480  1.00  0.00     0.200 A 
ATOM     72  F   UNL A   1      36.559  30.144  28.289  1.00  0.00    -0.200 F 
ATOM     73  F   UNL A   1      35.837  29.653  30.872  1.00  0.00    -0.200 F 
ENDBRANCH  49  63
BRANCH  50  74
ATOM     74  C   UNL A   1      48.892  26.807  26.267  1.00  0.00     0.064 A 
ATOM     75  C   UNL A   1      49.838  26.235  27.130  1.00  0.00     0.173 A 
ATOM     76  C   UNL A   1      49.273  27.035  24.937  1.00  0.00     0.173 A 
ATOM     77  F   UNL A   1      49.523  26.017  28.416  1.00  0.00    -0.203 F 
ATOM     78  C   UNL A   1      51.115  25.909  26.683  1.00  0.00     0.198 A 
ATOM     79  C   UNL A   1      50.545  26.688  24.486  1.00  0.00     0.198 A 
ATOM     80  F   UNL A   1      48.404  27.576  24.073  1.00  0.00    -0.203 F 
ATOM     81  F   UNL A   1      52.009  25.391  27.536  1.00  0.00    -0.200 F 
ATOM     82  C   UNL A   1      51.466  26.129  25.360  1.00  0.00     0.200 A 
ATOM     83  F   UNL A   1      50.878  26.891  23.203  1.00  0.00    -0.200 F 
ATOM     84  F   UNL A   1      52.693  25.808  24.928  1.00  0.00    -0.200 F 
ENDBRANCH  50  74
BRANCH  62  85
ATOM     85  C   UNL A   1      46.022  32.513  29.041  1.00  0.00     0.064 A 
ATOM     86  C   UNL A   1      45.944  33.573  28.126  1.00  0.00     0.173 A 
ATOM     87  C   UNL A   1      46.606  32.762  30.291  1.00  0.00     0.173 A 
ATOM     88  F   UNL A   1      45.409  33.378  26.911  1.00  0.00    -0.203 F 
ATOM     89  C   UNL A   1      46.453  34.829  28.445  1.00  0.00     0.198 A 
ATOM     90  C   UNL A   1      47.089  34.025  30.616  1.00  0.00     0.198 A 
ATOM     91  F   UNL A   1      46.698  31.781  31.202  1.00  0.00    -0.203 F 
ATOM     92  F   UNL A   1      46.408  35.817  27.540  1.00  0.00    -0.200 F 
ATOM     93  C   UNL A   1      47.018  35.056  29.691  1.00  0.00     0.200 A 
ATOM     94  F   UNL A   1      47.626  34.246  31.823  1.00  0.00    -0.200 F 
ATOM     95  F   UNL A   1      47.503  36.267  29.997  1.00  0.00    -0.200 F 
ENDBRANCH  62  85
ENDBRANCH  36  37
ENDBRANCH  28  31
ENDBRANCH  26  27
ENDBRANCH  25  26
ENDBRANCH   1  25
TORSDOF 15
ENDMDL
MODEL 3
REMARK VINA RESULT:     -11.8      5.353     10.571
REMARK SMILES COC(=O)c1ccccc1-c1ccc(/C=C(\C#N)C(=O)NCCCNC(=O)c2ccc(-c3c4nc(c(-c5c(F)c(F)c(F)c(F)c5F)c5ccc([nH]5)c(-c5c(F)c(F)c(F)c(F)c5F)c5nc(c(-c6c(F)c(F)c(F)c(F)c6F)c6ccc3[nH]6)C=C5)C=C4)cc2)o1
REMARK SMILES IDX 22 1 21 2 19 3 20 4 16 6 15 7 14 8 11 9 12 10 91 11 13 12
REMARK SMILES IDX 10 13 5 14 6 15 7 16 9 17 8 18 3 19 4 20 2 21 1 22 17 23
REMARK SMILES IDX 18 24 23 25 24 26 25 27 26 28 27 30 28 31 29 32 90 33 30 34
REMARK SMILES IDX 89 35 31 36 32 37 33 38 83 39 34 40 88 41 82 42 84 43 35 44
REMARK SMILES IDX 87 45 81 46 80 47 36 49 68 50 48 51 67 52 49 53 52 54 66 55
REMARK SMILES IDX 85 56 50 57 51 58 65 60 86 61 53 62 37 63 38 64 46 65 39 66
REMARK SMILES IDX 40 67 44 68 47 69 41 70 42 71 45 72 43 73 69 74 70 75 78 76
REMARK SMILES IDX 71 77 72 78 76 79 79 80 73 81 74 82 77 83 75 84 54 85 55 86
REMARK SMILES IDX 63 87 56 88 57 89 61 90 64 91 58 92 59 93 62 94 60 95
REMARK H PARENT 21 5 25 29 84 48 52 59
REMARK Flexibility Score: inf
ROOT
ATOM      1  C   UNL A   1      31.706  30.594  26.834  1.00  0.00     0.118 C 
ENDROOT
BRANCH   1   2
ATOM      2  N   UNL A   1      33.065  30.266  27.233  1.00  0.00    -0.351 N 
ATOM      3  C   UNL A   1      33.830  29.154  27.069  1.00  0.00     0.262 C 
ATOM      4  O   UNL A   1      34.984  29.214  27.504  1.00  0.00    -0.268 OA
ATOM      5  H   UNL A   1      33.521  30.991  27.719  1.00  0.00     0.163 HD
BRANCH   3   6
ATOM      6  C   UNL A   1      33.347  27.920  26.381  1.00  0.00     0.120 C 
ATOM      7  C   UNL A   1      34.138  27.431  25.403  1.00  0.00     0.072 C 
BRANCH   7   8
ATOM      8  C   UNL A   1      33.836  26.277  24.622  1.00  0.00     0.129 A 
ATOM      9  C   UNL A   1      33.588  24.127  24.085  1.00  0.00     0.135 A 
ATOM     10  C   UNL A   1      33.313  24.837  22.940  1.00  0.00     0.051 A 
ATOM     11  O   UNL A   1      33.871  24.987  25.097  1.00  0.00    -0.457 OA
ATOM     12  C   UNL A   1      33.473  26.204  23.281  1.00  0.00     0.051 A 
BRANCH   9  13
ATOM     13  C   UNL A   1      33.685  22.717  24.426  1.00  0.00     0.032 A 
ATOM     14  C   UNL A   1      34.889  21.992  24.345  1.00  0.00     0.071 A 
ATOM     15  C   UNL A   1      34.910  20.617  24.632  1.00  0.00     0.016 A 
ATOM     16  C   UNL A   1      33.743  19.962  25.024  1.00  0.00     0.001 A 
ATOM     17  C   UNL A   1      32.524  22.041  24.836  1.00  0.00     0.013 A 
ATOM     18  C   UNL A   1      32.551  20.674  25.131  1.00  0.00     0.001 A 
BRANCH  14  19
ATOM     19  C   UNL A   1      36.174  22.606  23.947  1.00  0.00     0.338 C 
ATOM     20  O   UNL A   1      36.398  23.026  22.819  1.00  0.00    -0.246 OA
BRANCH  19  21
ATOM     21  O   UNL A   1      37.050  22.574  24.978  1.00  0.00    -0.465 OA
ATOM     22  C   UNL A   1      37.037  23.742  25.799  1.00  0.00     0.282 C 
ENDBRANCH  19  21
ENDBRANCH  14  19
ENDBRANCH   9  13
ENDBRANCH   7   8
BRANCH   6  23
ATOM     23  C   UNL A   1      32.018  27.268  26.726  1.00  0.00     0.105 C 
ATOM     24  N   UNL A   1      30.915  26.728  27.011  1.00  0.00    -0.192 NA
ENDBRANCH   6  23
ENDBRANCH   3   6
ENDBRANCH   1   2
BRANCH   1  25
ATOM     25  C   UNL A   1      31.485  32.105  26.778  1.00  0.00     0.042 C 
BRANCH  25  26
ATOM     26  C   UNL A   1      32.776  32.905  26.941  1.00  0.00     0.118 C 
BRANCH  26  27
ATOM     27  N   UNL A   1      32.537  34.208  27.548  1.00  0.00    -0.352 N 
ATOM     28  C   UNL A   1      33.067  34.768  28.680  1.00  0.00     0.251 C 
ATOM     29  H   UNL A   1      31.891  34.775  27.068  1.00  0.00     0.163 HD
ATOM     30  O   UNL A   1      32.571  35.796  29.132  1.00  0.00    -0.269 OA
BRANCH  28  31
ATOM     31  C   UNL A   1      34.226  34.156  29.361  1.00  0.00     0.039 A 
ATOM     32  C   UNL A   1      35.512  34.494  28.927  1.00  0.00     0.014 A 
ATOM     33  C   UNL A   1      34.056  33.205  30.370  1.00  0.00     0.014 A 
ATOM     34  C   UNL A   1      36.626  33.909  29.529  1.00  0.00     0.010 A 
ATOM     35  C   UNL A   1      35.168  32.668  31.014  1.00  0.00     0.010 A 
ATOM     36  C   UNL A   1      36.462  33.006  30.591  1.00  0.00    -0.014 A 
BRANCH  36  37
ATOM     37  C   UNL A   1      37.633  32.387  31.258  1.00  0.00     0.031 A 
ATOM     38  C   UNL A   1      38.408  31.303  30.565  1.00  0.00     0.074 A 
ATOM     39  C   UNL A   1      37.960  32.762  32.507  1.00  0.00     0.049 A 
ATOM     40  N   UNL A   1      39.414  30.590  31.006  1.00  0.00    -0.248 NA
ATOM     41  C   UNL A   1      37.977  30.954  29.203  1.00  0.00     0.031 C 
ATOM     42  C   UNL A   1      37.262  33.780  33.293  1.00  0.00     0.029 A 
ATOM     43  N   UNL A   1      38.960  32.326  33.338  1.00  0.00    -0.354 N 
ATOM     44  C   UNL A   1      39.723  29.701  29.986  1.00  0.00     0.074 A 
ATOM     45  C   UNL A   1      38.766  29.929  28.923  1.00  0.00     0.031 C 
ATOM     46  C   UNL A   1      37.872  33.911  34.482  1.00  0.00     0.029 A 
ATOM     47  C   UNL A   1      38.979  32.963  34.554  1.00  0.00     0.049 A 
ATOM     48  H   UNL A   1      39.603  31.624  33.087  1.00  0.00     0.167 HD
ATOM     49  C   UNL A   1      40.724  28.792  29.932  1.00  0.00     0.037 A 
ATOM     50  C   UNL A   1      39.799  32.796  35.609  1.00  0.00     0.037 A 
ATOM     51  C   UNL A   1      41.687  28.586  30.982  1.00  0.00     0.049 A 
ATOM     52  C   UNL A   1      40.900  31.775  35.528  1.00  0.00     0.074 A 
ATOM     53  C   UNL A   1      42.773  27.729  31.006  1.00  0.00     0.029 A 
ATOM     54  N   UNL A   1      41.678  29.253  32.199  1.00  0.00    -0.354 N 
ATOM     55  N   UNL A   1      41.215  30.973  34.540  1.00  0.00    -0.248 NA
ATOM     56  C   UNL A   1      41.760  31.638  36.712  1.00  0.00     0.031 C 
ATOM     57  C   UNL A   1      43.399  27.850  32.252  1.00  0.00     0.029 A 
ATOM     58  C   UNL A   1      42.729  28.814  32.989  1.00  0.00     0.049 A 
ATOM     59  H   UNL A   1      41.022  29.938  32.462  1.00  0.00     0.167 HD
ATOM     60  C   UNL A   1      42.322  30.256  34.969  1.00  0.00     0.074 A 
ATOM     61  C   UNL A   1      42.632  30.725  36.305  1.00  0.00     0.031 C 
ATOM     62  C   UNL A   1      43.023  29.297  34.314  1.00  0.00     0.037 A 
BRANCH  49  63
ATOM     63  C   UNL A   1      40.821  27.949  28.693  1.00  0.00     0.064 A 
ATOM     64  C   UNL A   1      41.594  28.348  27.591  1.00  0.00     0.173 A 
ATOM     65  C   UNL A   1      40.136  26.728  28.603  1.00  0.00     0.173 A 
ATOM     66  F   UNL A   1      42.259  29.514  27.620  1.00  0.00    -0.203 F 
ATOM     67  C   UNL A   1      41.645  27.577  26.432  1.00  0.00     0.198 A 
ATOM     68  C   UNL A   1      40.213  25.945  27.455  1.00  0.00     0.198 A 
ATOM     69  F   UNL A   1      39.387  26.296  29.629  1.00  0.00    -0.203 F 
ATOM     70  F   UNL A   1      42.340  28.009  25.372  1.00  0.00    -0.200 F 
ATOM     71  C   UNL A   1      40.958  26.375  26.367  1.00  0.00     0.200 A 
ATOM     72  F   UNL A   1      39.557  24.778  27.395  1.00  0.00    -0.200 F 
ATOM     73  F   UNL A   1      41.004  25.636  25.250  1.00  0.00    -0.200 F 
ENDBRANCH  49  63
BRANCH  50  74
ATOM     74  C   UNL A   1      39.636  33.653  36.808  1.00  0.00     0.064 A 
ATOM     75  C   UNL A   1      38.831  33.237  37.878  1.00  0.00     0.173 A 
ATOM     76  C   UNL A   1      40.293  34.886  36.925  1.00  0.00     0.173 A 
ATOM     77  F   UNL A   1      38.168  32.074  37.801  1.00  0.00    -0.203 F 
ATOM     78  C   UNL A   1      38.682  34.025  39.016  1.00  0.00     0.198 A 
ATOM     79  C   UNL A   1      40.161  35.664  38.073  1.00  0.00     0.198 A 
ATOM     80  F   UNL A   1      41.078  35.326  35.931  1.00  0.00    -0.203 F 
ATOM     81  F   UNL A   1      37.882  33.618  40.010  1.00  0.00    -0.200 F 
ATOM     82  C   UNL A   1      39.352  35.235  39.116  1.00  0.00     0.200 A 
ATOM     83  F   UNL A   1      40.820  36.828  38.172  1.00  0.00    -0.200 F 
ATOM     84  F   UNL A   1      39.216  35.990  40.214  1.00  0.00    -0.200 F 
ENDBRANCH  50  74
BRANCH  62  85
ATOM     85  C   UNL A   1      44.210  28.716  35.022  1.00  0.00     0.064 A 
ATOM     86  C   UNL A   1      45.482  29.296  34.919  1.00  0.00     0.173 A 
ATOM     87  C   UNL A   1      44.063  27.587  35.840  1.00  0.00     0.173 A 
ATOM     88  F   UNL A   1      45.675  30.366  34.134  1.00  0.00    -0.203 F 
ATOM     89  C   UNL A   1      46.572  28.750  35.593  1.00  0.00     0.198 A 
ATOM     90  C   UNL A   1      45.149  27.060  36.534  1.00  0.00     0.198 A 
ATOM     91  F   UNL A   1      42.864  27.000  35.975  1.00  0.00    -0.203 F 
ATOM     92  F   UNL A   1      47.788  29.293  35.447  1.00  0.00    -0.200 F 
ATOM     93  C   UNL A   1      46.403  27.638  36.405  1.00  0.00     0.200 A 
ATOM     94  F   UNL A   1      44.982  25.992  37.325  1.00  0.00    -0.200 F 
ATOM     95  F   UNL A   1      47.452  27.117  37.057  1.00  0.00    -0.200 F 
ENDBRANCH  62  85
ENDBRANCH  36  37
ENDBRANCH  28  31
ENDBRANCH  26  27
ENDBRANCH  25  26
ENDBRANCH   1  25
TORSDOF 15
ENDMDL
