MODEL 1
REMARK VINA RESULT:     -12.8      0.000      0.000
REMARK SMILES Cc1nc2n(n1)[C@@H](c1ccc([N+](=O)[O-])o1)CC(C(=O)NCCCNC(=O)c1ccc(-c3c4nc(c(-c5c(F)c(F)c(F)c(F)c5F)c5ccc([nH]5)c(-c5c(F)c(F)c(F)c(F)c5F)c5nc(c(-c6c(F)c(F)c(F)c(F)c6F)c6ccc3[nH]6)C=C5)C=C4)cc1)=N2
REMARK SMILES IDX 22 1 21 2 20 3 18 4 19 5 17 7 1 8 2 9 3 10 6 11 4 12 5 13
REMARK SMILES IDX 90 14 7 15 16 16 8 17 9 18 15 19 10 20 11 21 12 22 13 23
REMARK SMILES IDX 14 24 23 25 24 26 25 27 26 29 27 30 28 31 89 32 29 33 88 34
REMARK SMILES IDX 30 35 31 36 32 37 82 38 33 39 87 40 81 41 83 42 34 43 86 44
REMARK SMILES IDX 80 45 79 46 35 48 67 49 47 50 66 51 48 52 51 53 65 54 84 55
REMARK SMILES IDX 49 56 50 57 64 59 85 60 52 61 36 62 37 63 45 64 38 65 39 66
REMARK SMILES IDX 43 67 46 68 40 69 41 70 44 71 42 72 68 73 69 74 77 75 70 76
REMARK SMILES IDX 71 77 75 78 78 79 72 80 73 81 76 82 74 83 53 84 54 85 62 86
REMARK SMILES IDX 55 87 56 88 60 89 63 90 57 91 58 92 61 93 59 94
REMARK H PARENT 20 6 24 28 83 47 51 58
REMARK Flexibility Score: inf
ROOT
ATOM      1  C   UNL A   1      32.080  31.106  26.808  1.00  0.00     0.042 C 
ENDROOT
BRANCH   1   2
ATOM      2  C   UNL A   1      31.448  29.997  25.946  1.00  0.00     0.118 C 
BRANCH   2   3
ATOM      3  N   UNL A   1      32.334  29.518  24.897  1.00  0.00    -0.351 N 
ATOM      4  C   UNL A   1      32.842  28.312  24.482  1.00  0.00     0.265 C 
ATOM      5  O   UNL A   1      33.528  28.338  23.460  1.00  0.00    -0.268 OA
ATOM      6  H   UNL A   1      32.656  30.258  24.332  1.00  0.00     0.163 HD
BRANCH   4   7
ATOM      7  C   UNL A   1      32.635  26.944  25.174  1.00  0.00     0.112 C 
ATOM      8  C   UNL A   1      29.257  22.703  27.283  1.00  0.00     0.092 C 
ATOM      9  C   UNL A   1      30.287  23.646  26.802  1.00  0.00     0.149 A 
ATOM     10  N   UNL A   1      29.969  24.810  26.149  1.00  0.00    -0.195 NA
ATOM     11  N   UNL A   1      31.600  23.426  26.944  1.00  0.00    -0.154 NA
ATOM     12  C   UNL A   1      31.132  25.354  25.864  1.00  0.00     0.249 A 
ATOM     13  N   UNL A   1      32.102  24.511  26.321  1.00  0.00    -0.219 N 
ATOM     14  N   UNL A   1      31.406  26.515  25.229  1.00  0.00    -0.211 NA
ATOM     15  C   UNL A   1      33.518  24.763  26.189  1.00  0.00     0.184 C 
ATOM     16  C   UNL A   1      33.798  26.222  25.795  1.00  0.00     0.098 C 
BRANCH  15  17
ATOM     17  C   UNL A   1      34.169  23.800  25.235  1.00  0.00     0.136 A 
ATOM     18  C   UNL A   1      34.859  23.904  24.037  1.00  0.00     0.056 A 
ATOM     19  O   UNL A   1      34.044  22.475  25.569  1.00  0.00    -0.404 OA
ATOM     20  C   UNL A   1      35.189  22.583  23.628  1.00  0.00     0.134 A 
ATOM     21  C   UNL A   1      34.678  21.763  24.605  1.00  0.00     0.433 A 
BRANCH  21  22
ATOM     22  N   UNL A   1      34.707  20.346  24.781  1.00  0.00     0.102 N 
ATOM     23  O   UNL A   1      33.636  19.796  25.035  1.00  0.00    -0.256 OA
ATOM     24  O   UNL A   1      35.807  19.779  24.642  1.00  0.00    -0.256 OA
ENDBRANCH  21  22
ENDBRANCH  15  17
ENDBRANCH   4   7
ENDBRANCH   2   3
ENDBRANCH   1   2
BRANCH   1  25
ATOM     25  C   UNL A   1      33.539  30.842  27.245  1.00  0.00     0.118 C 
BRANCH  25  26
ATOM     26  N   UNL A   1      34.306  32.079  27.289  1.00  0.00    -0.352 N 
ATOM     27  C   UNL A   1      35.464  32.459  27.908  1.00  0.00     0.251 C 
ATOM     28  H   UNL A   1      33.901  32.801  26.755  1.00  0.00     0.163 HD
ATOM     29  O   UNL A   1      35.700  33.670  27.943  1.00  0.00    -0.269 OA
BRANCH  27  30
ATOM     30  C   UNL A   1      36.455  31.535  28.512  1.00  0.00     0.039 A 
ATOM     31  C   UNL A   1      36.968  31.893  29.771  1.00  0.00     0.014 A 
ATOM     32  C   UNL A   1      37.028  30.461  27.831  1.00  0.00     0.014 A 
ATOM     33  C   UNL A   1      38.023  31.183  30.353  1.00  0.00     0.010 A 
ATOM     34  C   UNL A   1      38.090  29.747  28.418  1.00  0.00     0.010 A 
ATOM     35  C   UNL A   1      38.594  30.096  29.685  1.00  0.00    -0.014 A 
BRANCH  35  36
ATOM     36  C   UNL A   1      39.582  29.258  30.408  1.00  0.00     0.031 A 
ATOM     37  C   UNL A   1      39.611  27.825  30.004  1.00  0.00     0.074 A 
ATOM     38  C   UNL A   1      40.644  29.717  31.106  1.00  0.00     0.049 A 
ATOM     39  N   UNL A   1      40.327  27.398  29.006  1.00  0.00    -0.248 NA
ATOM     40  C   UNL A   1      38.683  26.832  30.541  1.00  0.00     0.031 C 
ATOM     41  C   UNL A   1      41.299  31.007  30.881  1.00  0.00     0.029 A 
ATOM     42  N   UNL A   1      41.480  29.068  31.993  1.00  0.00    -0.354 N 
ATOM     43  C   UNL A   1      39.900  26.119  28.720  1.00  0.00     0.074 A 
ATOM     44  C   UNL A   1      38.902  25.794  29.717  1.00  0.00     0.031 C 
ATOM     45  C   UNL A   1      42.511  30.988  31.479  1.00  0.00     0.029 A 
ATOM     46  C   UNL A   1      42.662  29.757  32.262  1.00  0.00     0.049 A 
ATOM     47  H   UNL A   1      41.260  28.198  32.400  1.00  0.00     0.167 HD
ATOM     48  C   UNL A   1      40.370  25.412  27.661  1.00  0.00     0.037 A 
ATOM     49  C   UNL A   1      43.878  29.194  32.513  1.00  0.00     0.037 A 
ATOM     50  C   UNL A   1      41.354  26.065  26.851  1.00  0.00     0.049 A 
ATOM     51  C   UNL A   1      44.093  28.329  31.304  1.00  0.00     0.074 A 
ATOM     52  C   UNL A   1      41.383  26.814  25.695  1.00  0.00     0.029 A 
ATOM     53  N   UNL A   1      42.658  26.047  27.284  1.00  0.00    -0.354 N 
ATOM     54  N   UNL A   1      44.535  28.724  30.144  1.00  0.00    -0.248 NA
ATOM     55  C   UNL A   1      43.528  26.978  31.323  1.00  0.00     0.031 C 
ATOM     56  C   UNL A   1      42.594  27.576  25.761  1.00  0.00     0.029 A 
ATOM     57  C   UNL A   1      43.190  27.276  26.984  1.00  0.00     0.049 A 
ATOM     58  H   UNL A   1      43.120  25.298  27.723  1.00  0.00     0.167 HD
ATOM     59  C   UNL A   1      44.081  27.770  29.235  1.00  0.00     0.074 A 
ATOM     60  C   UNL A   1      43.504  26.703  30.027  1.00  0.00     0.031 C 
ATOM     61  C   UNL A   1      44.048  27.997  27.890  1.00  0.00     0.037 A 
BRANCH  48  62
ATOM     62  C   UNL A   1      40.032  24.008  27.383  1.00  0.00     0.064 A 
ATOM     63  C   UNL A   1      40.906  23.015  27.846  1.00  0.00     0.173 A 
ATOM     64  C   UNL A   1      39.012  23.643  26.501  1.00  0.00     0.173 A 
ATOM     65  F   UNL A   1      41.903  23.340  28.685  1.00  0.00    -0.203 F 
ATOM     66  C   UNL A   1      40.797  21.704  27.402  1.00  0.00     0.198 A 
ATOM     67  C   UNL A   1      38.899  22.325  26.063  1.00  0.00     0.198 A 
ATOM     68  F   UNL A   1      38.162  24.567  26.029  1.00  0.00    -0.203 F 
ATOM     69  F   UNL A   1      41.677  20.785  27.820  1.00  0.00    -0.200 F 
ATOM     70  C   UNL A   1      39.800  21.362  26.501  1.00  0.00     0.200 A 
ATOM     71  F   UNL A   1      37.940  21.991  25.189  1.00  0.00    -0.200 F 
ATOM     72  F   UNL A   1      39.719  20.106  26.042  1.00  0.00    -0.200 F 
ENDBRANCH  48  62
BRANCH  49  73
ATOM     73  C   UNL A   1      44.172  28.665  33.889  1.00  0.00     0.064 A 
ATOM     74  C   UNL A   1      45.429  28.882  34.487  1.00  0.00     0.173 A 
ATOM     75  C   UNL A   1      43.265  27.890  34.637  1.00  0.00     0.173 A 
ATOM     76  F   UNL A   1      46.404  29.504  33.808  1.00  0.00    -0.203 F 
ATOM     77  C   UNL A   1      45.711  28.455  35.789  1.00  0.00     0.198 A 
ATOM     78  C   UNL A   1      43.535  27.492  35.948  1.00  0.00     0.198 A 
ATOM     79  F   UNL A   1      42.090  27.511  34.117  1.00  0.00    -0.203 F 
ATOM     80  F   UNL A   1      46.914  28.703  36.326  1.00  0.00    -0.200 F 
ATOM     81  C   UNL A   1      44.753  27.787  36.529  1.00  0.00     0.200 A 
ATOM     82  F   UNL A   1      42.600  26.832  36.648  1.00  0.00    -0.200 F 
ATOM     83  F   UNL A   1      45.004  27.421  37.794  1.00  0.00    -0.200 F 
ENDBRANCH  49  73
BRANCH  61  84
ATOM     84  C   UNL A   1      44.729  29.250  27.460  1.00  0.00     0.064 A 
ATOM     85  C   UNL A   1      43.998  30.439  27.327  1.00  0.00     0.173 A 
ATOM     86  C   UNL A   1      46.097  29.279  27.152  1.00  0.00     0.173 A 
ATOM     87  F   UNL A   1      42.686  30.462  27.614  1.00  0.00    -0.203 F 
ATOM     88  C   UNL A   1      44.614  31.613  26.906  1.00  0.00     0.198 A 
ATOM     89  C   UNL A   1      46.714  30.462  26.756  1.00  0.00     0.198 A 
ATOM     90  F   UNL A   1      46.845  28.168  27.240  1.00  0.00    -0.203 F 
ATOM     91  F   UNL A   1      43.894  32.737  26.779  1.00  0.00    -0.200 F 
ATOM     92  C   UNL A   1      45.972  31.627  26.630  1.00  0.00     0.200 A 
ATOM     93  F   UNL A   1      48.031  30.477  26.504  1.00  0.00    -0.200 F 
ATOM     94  F   UNL A   1      46.569  32.765  26.250  1.00  0.00    -0.200 F 
ENDBRANCH  61  84
ENDBRANCH  35  36
ENDBRANCH  27  30
ENDBRANCH  25  26
ENDBRANCH   1  25
TORSDOF 12
ENDMDL
MODEL 2
REMARK VINA RESULT:     -12.6      3.047      8.151
REMARK SMILES Cc1nc2n(n1)[C@@H](c1ccc([N+](=O)[O-])o1)CC(C(=O)NCCCNC(=O)c1ccc(-c3c4nc(c(-c5c(F)c(F)c(F)c(F)c5F)c5ccc([nH]5)c(-c5c(F)c(F)c(F)c(F)c5F)c5nc(c(-c6c(F)c(F)c(F)c(F)c6F)c6ccc3[nH]6)C=C5)C=C4)cc1)=N2
REMARK SMILES IDX 22 1 21 2 20 3 18 4 19 5 17 7 1 8 2 9 3 10 6 11 4 12 5 13
REMARK SMILES IDX 90 14 7 15 16 16 8 17 9 18 15 19 10 20 11 21 12 22 13 23
REMARK SMILES IDX 14 24 23 25 24 26 25 27 26 29 27 30 28 31 89 32 29 33 88 34
REMARK SMILES IDX 30 35 31 36 32 37 82 38 33 39 87 40 81 41 83 42 34 43 86 44
REMARK SMILES IDX 80 45 79 46 35 48 67 49 47 50 66 51 48 52 51 53 65 54 84 55
REMARK SMILES IDX 49 56 50 57 64 59 85 60 52 61 36 62 37 63 45 64 38 65 39 66
REMARK SMILES IDX 43 67 46 68 40 69 41 70 44 71 42 72 68 73 69 74 77 75 70 76
REMARK SMILES IDX 71 77 75 78 78 79 72 80 73 81 76 82 74 83 53 84 54 85 62 86
REMARK SMILES IDX 55 87 56 88 60 89 63 90 57 91 58 92 61 93 59 94
REMARK H PARENT 20 6 24 28 83 47 51 58
REMARK Flexibility Score: inf
ROOT
ATOM      1  C   UNL A   1      37.840  20.837  25.107  1.00  0.00     0.042 C 
ENDROOT
BRANCH   1   2
ATOM      2  C   UNL A   1      36.407  21.092  24.601  1.00  0.00     0.118 C 
BRANCH   2   3
ATOM      3  N   UNL A   1      35.514  21.571  25.644  1.00  0.00    -0.351 N 
ATOM      4  C   UNL A   1      34.588  22.574  25.793  1.00  0.00     0.265 C 
ATOM      5  O   UNL A   1      33.972  22.585  26.858  1.00  0.00    -0.268 OA
ATOM      6  H   UNL A   1      35.595  21.031  26.464  1.00  0.00     0.163 HD
BRANCH   4   7
ATOM      7  C   UNL A   1      34.253  23.673  24.757  1.00  0.00     0.112 C 
ATOM      8  C   UNL A   1      32.526  25.426  19.485  1.00  0.00     0.092 C 
ATOM      9  C   UNL A   1      32.970  25.199  20.877  1.00  0.00     0.149 A 
ATOM     10  N   UNL A   1      33.084  23.943  21.415  1.00  0.00    -0.195 NA
ATOM     11  N   UNL A   1      33.267  26.197  21.719  1.00  0.00    -0.154 NA
ATOM     12  C   UNL A   1      33.472  24.151  22.655  1.00  0.00     0.249 A 
ATOM     13  N   UNL A   1      33.556  25.502  22.836  1.00  0.00    -0.219 N 
ATOM     14  N   UNL A   1      33.742  23.260  23.633  1.00  0.00    -0.211 NA
ATOM     15  C   UNL A   1      33.949  26.125  24.077  1.00  0.00     0.184 C 
ATOM     16  C   UNL A   1      34.583  25.112  25.044  1.00  0.00     0.098 C 
BRANCH  15  17
ATOM     17  C   UNL A   1      32.803  26.857  24.720  1.00  0.00     0.136 A 
ATOM     18  C   UNL A   1      32.334  27.025  26.014  1.00  0.00     0.056 A 
ATOM     19  O   UNL A   1      31.964  27.504  23.849  1.00  0.00    -0.404 OA
ATOM     20  C   UNL A   1      31.164  27.829  25.934  1.00  0.00     0.134 A 
ATOM     21  C   UNL A   1      30.999  28.096  24.596  1.00  0.00     0.433 A 
BRANCH  21  22
ATOM     22  N   UNL A   1      30.033  28.870  23.883  1.00  0.00     0.102 N 
ATOM     23  O   UNL A   1      29.102  28.254  23.364  1.00  0.00    -0.256 OA
ATOM     24  O   UNL A   1      30.196  30.104  23.864  1.00  0.00    -0.256 OA
ENDBRANCH  21  22
ENDBRANCH  15  17
ENDBRANCH   4   7
ENDBRANCH   2   3
ENDBRANCH   1   2
BRANCH   1  25
ATOM     25  C   UNL A   1      38.512  22.044  25.801  1.00  0.00     0.118 C 
BRANCH  25  26
ATOM     26  N   UNL A   1      39.509  21.605  26.766  1.00  0.00    -0.352 N 
ATOM     27  C   UNL A   1      40.529  22.227  27.431  1.00  0.00     0.251 C 
ATOM     28  H   UNL A   1      39.433  20.648  26.990  1.00  0.00     0.163 HD
ATOM     29  O   UNL A   1      41.353  21.497  27.987  1.00  0.00    -0.269 OA
BRANCH  27  30
ATOM     30  C   UNL A   1      40.703  23.696  27.550  1.00  0.00     0.039 A 
ATOM     31  C   UNL A   1      41.958  24.216  27.186  1.00  0.00     0.014 A 
ATOM     32  C   UNL A   1      39.776  24.538  28.165  1.00  0.00     0.014 A 
ATOM     33  C   UNL A   1      42.281  25.557  27.415  1.00  0.00     0.010 A 
ATOM     34  C   UNL A   1      40.103  25.888  28.394  1.00  0.00     0.010 A 
ATOM     35  C   UNL A   1      41.354  26.412  28.017  1.00  0.00    -0.014 A 
BRANCH  35  36
ATOM     36  C   UNL A   1      41.660  27.862  28.077  1.00  0.00     0.031 A 
ATOM     37  C   UNL A   1      40.498  28.764  27.846  1.00  0.00     0.074 A 
ATOM     38  C   UNL A   1      42.758  28.414  28.641  1.00  0.00     0.049 A 
ATOM     39  N   UNL A   1      39.700  29.130  28.804  1.00  0.00    -0.248 NA
ATOM     40  C   UNL A   1      40.031  29.126  26.509  1.00  0.00     0.031 C 
ATOM     41  C   UNL A   1      43.559  27.790  29.695  1.00  0.00     0.029 A 
ATOM     42  N   UNL A   1      43.258  29.698  28.556  1.00  0.00    -0.354 N 
ATOM     43  C   UNL A   1      38.590  29.695  28.214  1.00  0.00     0.074 A 
ATOM     44  C   UNL A   1      38.851  29.703  26.789  1.00  0.00     0.031 C 
ATOM     45  C   UNL A   1      44.334  28.737  30.269  1.00  0.00     0.029 A 
ATOM     46  C   UNL A   1      44.210  29.998  29.530  1.00  0.00     0.049 A 
ATOM     47  H   UNL A   1      42.969  30.343  27.870  1.00  0.00     0.167 HD
ATOM     48  C   UNL A   1      37.507  30.096  28.927  1.00  0.00     0.037 A 
ATOM     49  C   UNL A   1      44.398  31.213  30.119  1.00  0.00     0.037 A 
ATOM     50  C   UNL A   1      37.581  29.912  30.345  1.00  0.00     0.049 A 
ATOM     51  C   UNL A   1      43.036  31.522  30.671  1.00  0.00     0.074 A 
ATOM     52  C   UNL A   1      37.186  28.968  31.268  1.00  0.00     0.029 A 
ATOM     53  N   UNL A   1      38.260  30.852  31.082  1.00  0.00    -0.354 N 
ATOM     54  N   UNL A   1      42.540  31.076  31.790  1.00  0.00    -0.248 NA
ATOM     55  C   UNL A   1      42.069  32.168  29.781  1.00  0.00     0.031 C 
ATOM     56  C   UNL A   1      38.040  29.159  32.402  1.00  0.00     0.029 A 
ATOM     57  C   UNL A   1      38.934  30.172  32.064  1.00  0.00     0.049 A 
ATOM     58  H   UNL A   1      38.261  31.824  30.933  1.00  0.00     0.167 HD
ATOM     59  C   UNL A   1      41.157  31.163  31.638  1.00  0.00     0.074 A 
ATOM     60  C   UNL A   1      40.934  31.880  30.399  1.00  0.00     0.031 C 
ATOM     61  C   UNL A   1      40.287  30.490  32.445  1.00  0.00     0.037 A 
BRANCH  48  62
ATOM     62  C   UNL A   1      36.352  30.806  28.357  1.00  0.00     0.064 A 
ATOM     63  C   UNL A   1      36.363  32.207  28.378  1.00  0.00     0.173 A 
ATOM     64  C   UNL A   1      35.170  30.151  28.005  1.00  0.00     0.173 A 
ATOM     65  F   UNL A   1      37.484  32.862  28.724  1.00  0.00    -0.203 F 
ATOM     66  C   UNL A   1      35.213  32.934  28.105  1.00  0.00     0.198 A 
ATOM     67  C   UNL A   1      34.018  30.884  27.723  1.00  0.00     0.198 A 
ATOM     68  F   UNL A   1      35.118  28.811  27.984  1.00  0.00    -0.203 F 
ATOM     69  F   UNL A   1      35.237  34.272  28.182  1.00  0.00    -0.200 F 
ATOM     70  C   UNL A   1      34.037  32.272  27.789  1.00  0.00     0.200 A 
ATOM     71  F   UNL A   1      32.878  30.247  27.422  1.00  0.00    -0.200 F 
ATOM     72  F   UNL A   1      32.917  32.972  27.564  1.00  0.00    -0.200 F 
ENDBRANCH  48  62
BRANCH  49  73
ATOM     73  C   UNL A   1      45.182  32.269  29.390  1.00  0.00     0.064 A 
ATOM     74  C   UNL A   1      45.991  31.931  28.289  1.00  0.00     0.173 A 
ATOM     75  C   UNL A   1      45.210  33.623  29.776  1.00  0.00     0.173 A 
ATOM     76  F   UNL A   1      46.128  30.649  27.918  1.00  0.00    -0.203 F 
ATOM     77  C   UNL A   1      46.684  32.899  27.555  1.00  0.00     0.198 A 
ATOM     78  C   UNL A   1      45.874  34.595  29.025  1.00  0.00     0.198 A 
ATOM     79  F   UNL A   1      44.582  34.037  30.885  1.00  0.00    -0.203 F 
ATOM     80  F   UNL A   1      47.425  32.533  26.500  1.00  0.00    -0.200 F 
ATOM     81  C   UNL A   1      46.600  34.234  27.905  1.00  0.00     0.200 A 
ATOM     82  F   UNL A   1      45.795  35.884  29.385  1.00  0.00    -0.200 F 
ATOM     83  F   UNL A   1      47.221  35.170  27.174  1.00  0.00    -0.200 F 
ENDBRANCH  49  73
BRANCH  61  84
ATOM     84  C   UNL A   1      40.922  29.833  33.623  1.00  0.00     0.064 A 
ATOM     85  C   UNL A   1      41.306  28.487  33.555  1.00  0.00     0.173 A 
ATOM     86  C   UNL A   1      41.129  30.519  34.828  1.00  0.00     0.173 A 
ATOM     87  F   UNL A   1      41.131  27.790  32.420  1.00  0.00    -0.203 F 
ATOM     88  C   UNL A   1      41.881  27.852  34.651  1.00  0.00     0.198 A 
ATOM     89  C   UNL A   1      41.728  29.887  35.914  1.00  0.00     0.198 A 
ATOM     90  F   UNL A   1      40.763  31.804  34.960  1.00  0.00    -0.203 F 
ATOM     91  F   UNL A   1      42.235  26.562  34.567  1.00  0.00    -0.200 F 
ATOM     92  C   UNL A   1      42.100  28.554  35.826  1.00  0.00     0.200 A 
ATOM     93  F   UNL A   1      41.952  30.572  37.045  1.00  0.00    -0.200 F 
ATOM     94  F   UNL A   1      42.677  27.949  36.873  1.00  0.00    -0.200 F 
ENDBRANCH  61  84
ENDBRANCH  35  36
ENDBRANCH  27  30
ENDBRANCH  25  26
ENDBRANCH   1  25
TORSDOF 12
ENDMDL
MODEL 3
REMARK VINA RESULT:     -12.5      7.439     12.532
REMARK SMILES Cc1nc2n(n1)[C@@H](c1ccc([N+](=O)[O-])o1)CC(C(=O)NCCCNC(=O)c1ccc(-c3c4nc(c(-c5c(F)c(F)c(F)c(F)c5F)c5ccc([nH]5)c(-c5c(F)c(F)c(F)c(F)c5F)c5nc(c(-c6c(F)c(F)c(F)c(F)c6F)c6ccc3[nH]6)C=C5)C=C4)cc1)=N2
REMARK SMILES IDX 22 1 21 2 20 3 18 4 19 5 17 7 1 8 2 9 3 10 6 11 4 12 5 13
REMARK SMILES IDX 90 14 7 15 16 16 8 17 9 18 15 19 10 20 11 21 12 22 13 23
REMARK SMILES IDX 14 24 23 25 24 26 25 27 26 29 27 30 28 31 89 32 29 33 88 34
REMARK SMILES IDX 30 35 31 36 32 37 82 38 33 39 87 40 81 41 83 42 34 43 86 44
REMARK SMILES IDX 80 45 79 46 35 48 67 49 47 50 66 51 48 52 51 53 65 54 84 55
REMARK SMILES IDX 49 56 50 57 64 59 85 60 52 61 36 62 37 63 45 64 38 65 39 66
REMARK SMILES IDX 43 67 46 68 40 69 41 70 44 71 42 72 68 73 69 74 77 75 70 76
REMARK SMILES IDX 71 77 75 78 78 79 72 80 73 81 76 82 74 83 53 84 54 85 62 86
REMARK SMILES IDX 55 87 56 88 60 89 63 90 57 91 58 92 61 93 59 94
REMARK H PARENT 20 6 24 28 83 47 51 58
REMARK Flexibility Score: inf
ROOT
ATOM      1  C   UNL A   1      45.341  20.369  35.310  1.00  0.00     0.042 C 
ENDROOT
BRANCH   1   2
ATOM      2  C   UNL A   1      45.899  19.224  36.177  1.00  0.00     0.118 C 
BRANCH   2   3
ATOM      3  N   UNL A   1      47.154  19.566  36.829  1.00  0.00    -0.351 N 
ATOM      4  C   UNL A   1      47.684  19.489  38.094  1.00  0.00     0.265 C 
ATOM      5  O   UNL A   1      48.860  19.833  38.206  1.00  0.00    -0.268 OA
ATOM      6  H   UNL A   1      47.796  19.957  36.192  1.00  0.00     0.163 HD
BRANCH   4   7
ATOM      7  C   UNL A   1      46.947  19.016  39.368  1.00  0.00     0.112 C 
ATOM      8  C   UNL A   1      44.186  20.022  44.390  1.00  0.00     0.092 C 
ATOM      9  C   UNL A   1      44.840  19.550  43.152  1.00  0.00     0.149 A 
ATOM     10  N   UNL A   1      45.347  20.414  42.214  1.00  0.00    -0.195 NA
ATOM     11  N   UNL A   1      44.963  18.253  42.841  1.00  0.00    -0.154 NA
ATOM     12  C   UNL A   1      45.815  19.631  41.266  1.00  0.00     0.249 A 
ATOM     13  N   UNL A   1      45.561  18.342  41.637  1.00  0.00    -0.219 N 
ATOM     14  N   UNL A   1      46.429  19.956  40.107  1.00  0.00    -0.211 NA
ATOM     15  C   UNL A   1      45.923  17.190  40.846  1.00  0.00     0.184 C 
ATOM     16  C   UNL A   1      46.916  17.557  39.732  1.00  0.00     0.098 C 
BRANCH  15  17
ATOM     17  C   UNL A   1      44.712  16.488  40.295  1.00  0.00     0.136 A 
ATOM     18  C   UNL A   1      44.205  16.230  39.031  1.00  0.00     0.056 A 
ATOM     19  O   UNL A   1      43.845  15.998  41.238  1.00  0.00    -0.404 OA
ATOM     20  C   UNL A   1      42.979  15.531  39.207  1.00  0.00     0.134 A 
ATOM     21  C   UNL A   1      42.823  15.411  40.567  1.00  0.00     0.433 A 
BRANCH  21  22
ATOM     22  N   UNL A   1      41.816  14.788  41.367  1.00  0.00     0.102 N 
ATOM     23  O   UNL A   1      41.086  13.972  40.804  1.00  0.00    -0.256 OA
ATOM     24  O   UNL A   1      41.773  15.103  42.570  1.00  0.00    -0.256 OA
ENDBRANCH  21  22
ENDBRANCH  15  17
ENDBRANCH   4   7
ENDBRANCH   2   3
ENDBRANCH   1   2
BRANCH   1  25
ATOM     25  C   UNL A   1      45.927  21.766  35.618  1.00  0.00     0.118 C 
BRANCH  25  26
ATOM     26  N   UNL A   1      44.907  22.655  36.158  1.00  0.00    -0.352 N 
ATOM     27  C   UNL A   1      44.401  23.866  35.777  1.00  0.00     0.251 C 
ATOM     28  H   UNL A   1      44.489  22.306  36.979  1.00  0.00     0.163 HD
ATOM     29  O   UNL A   1      43.720  24.468  36.610  1.00  0.00    -0.269 OA
BRANCH  27  30
ATOM     30  C   UNL A   1      44.592  24.492  34.445  1.00  0.00     0.039 A 
ATOM     31  C   UNL A   1      45.050  25.822  34.431  1.00  0.00     0.014 A 
ATOM     32  C   UNL A   1      44.172  23.911  33.249  1.00  0.00     0.014 A 
ATOM     33  C   UNL A   1      45.105  26.557  33.242  1.00  0.00     0.010 A 
ATOM     34  C   UNL A   1      44.229  24.652  32.053  1.00  0.00     0.010 A 
ATOM     35  C   UNL A   1      44.701  25.978  32.037  1.00  0.00    -0.014 A 
BRANCH  35  36
ATOM     36  C   UNL A   1      44.945  26.721  30.776  1.00  0.00     0.031 A 
ATOM     37  C   UNL A   1      44.914  25.893  29.538  1.00  0.00     0.074 A 
ATOM     38  C   UNL A   1      44.845  28.059  30.617  1.00  0.00     0.049 A 
ATOM     39  N   UNL A   1      43.810  25.636  28.901  1.00  0.00    -0.248 NA
ATOM     40  C   UNL A   1      46.067  25.127  29.070  1.00  0.00     0.031 C 
ATOM     41  C   UNL A   1      44.028  28.942  31.451  1.00  0.00     0.029 A 
ATOM     42  N   UNL A   1      45.263  28.872  29.581  1.00  0.00    -0.354 N 
ATOM     43  C   UNL A   1      44.086  24.624  28.006  1.00  0.00     0.074 A 
ATOM     44  C   UNL A   1      45.505  24.361  28.120  1.00  0.00     0.031 C 
ATOM     45  C   UNL A   1      43.870  30.121  30.811  1.00  0.00     0.029 A 
ATOM     46  C   UNL A   1      44.698  30.146  29.601  1.00  0.00     0.049 A 
ATOM     47  H   UNL A   1      45.903  28.577  28.892  1.00  0.00     0.167 HD
ATOM     48  C   UNL A   1      43.126  24.040  27.245  1.00  0.00     0.037 A 
ATOM     49  C   UNL A   1      44.375  30.895  28.509  1.00  0.00     0.037 A 
ATOM     50  C   UNL A   1      41.796  24.542  27.410  1.00  0.00     0.049 A 
ATOM     51  C   UNL A   1      43.464  29.980  27.742  1.00  0.00     0.074 A 
ATOM     52  C   UNL A   1      40.673  24.222  28.142  1.00  0.00     0.029 A 
ATOM     53  N   UNL A   1      41.454  25.692  26.740  1.00  0.00    -0.354 N 
ATOM     54  N   UNL A   1      42.194  29.793  27.967  1.00  0.00    -0.248 NA
ATOM     55  C   UNL A   1      44.078  29.016  26.827  1.00  0.00     0.031 C 
ATOM     56  C   UNL A   1      39.911  25.432  28.226  1.00  0.00     0.029 A 
ATOM     57  C   UNL A   1      40.655  26.419  27.585  1.00  0.00     0.049 A 
ATOM     58  H   UNL A   1      41.729  25.944  25.829  1.00  0.00     0.167 HD
ATOM     59  C   UNL A   1      41.905  28.544  27.419  1.00  0.00     0.074 A 
ATOM     60  C   UNL A   1      43.094  28.138  26.698  1.00  0.00     0.031 C 
ATOM     61  C   UNL A   1      40.777  27.848  27.737  1.00  0.00     0.037 A 
BRANCH  48  62
ATOM     62  C   UNL A   1      43.389  23.040  26.198  1.00  0.00     0.064 A 
ATOM     63  C   UNL A   1      43.153  21.692  26.501  1.00  0.00     0.173 A 
ATOM     64  C   UNL A   1      44.060  23.354  25.015  1.00  0.00     0.173 A 
ATOM     65  F   UNL A   1      42.520  21.362  27.638  1.00  0.00    -0.203 F 
ATOM     66  C   UNL A   1      43.620  20.683  25.670  1.00  0.00     0.198 A 
ATOM     67  C   UNL A   1      44.521  22.339  24.179  1.00  0.00     0.198 A 
ATOM     68  F   UNL A   1      44.312  24.632  24.697  1.00  0.00    -0.203 F 
ATOM     69  F   UNL A   1      43.428  19.400  26.008  1.00  0.00    -0.200 F 
ATOM     70  C   UNL A   1      44.315  21.006  24.515  1.00  0.00     0.200 A 
ATOM     71  F   UNL A   1      45.197  22.647  23.063  1.00  0.00    -0.200 F 
ATOM     72  F   UNL A   1      44.800  20.032  23.733  1.00  0.00    -0.200 F 
ENDBRANCH  48  62
BRANCH  49  73
ATOM     73  C   UNL A   1      45.456  31.663  27.798  1.00  0.00     0.064 A 
ATOM     74  C   UNL A   1      45.190  32.928  27.242  1.00  0.00     0.173 A 
ATOM     75  C   UNL A   1      46.757  31.166  27.592  1.00  0.00     0.173 A 
ATOM     76  F   UNL A   1      43.949  33.437  27.277  1.00  0.00    -0.203 F 
ATOM     77  C   UNL A   1      46.189  33.691  26.629  1.00  0.00     0.198 A 
ATOM     78  C   UNL A   1      47.763  31.940  27.010  1.00  0.00     0.198 A 
ATOM     79  F   UNL A   1      47.087  29.922  27.964  1.00  0.00    -0.203 F 
ATOM     80  F   UNL A   1      45.895  34.901  26.132  1.00  0.00    -0.200 F 
ATOM     81  C   UNL A   1      47.482  33.209  26.541  1.00  0.00     0.200 A 
ATOM     82  F   UNL A   1      49.009  31.453  26.919  1.00  0.00    -0.200 F 
ATOM     83  F   UNL A   1      48.452  33.958  25.999  1.00  0.00    -0.200 F 
ENDBRANCH  49  73
BRANCH  61  84
ATOM     84  C   UNL A   1      39.786  28.615  28.543  1.00  0.00     0.064 A 
ATOM     85  C   UNL A   1      38.868  29.463  27.908  1.00  0.00     0.173 A 
ATOM     86  C   UNL A   1      39.754  28.539  29.943  1.00  0.00     0.173 A 
ATOM     87  F   UNL A   1      38.857  29.566  26.569  1.00  0.00    -0.203 F 
ATOM     88  C   UNL A   1      37.949  30.203  28.646  1.00  0.00     0.198 A 
ATOM     89  C   UNL A   1      38.817  29.261  30.676  1.00  0.00     0.198 A 
ATOM     90  F   UNL A   1      40.622  27.760  30.609  1.00  0.00    -0.203 F 
ATOM     91  F   UNL A   1      37.085  31.013  28.019  1.00  0.00    -0.200 F 
ATOM     92  C   UNL A   1      37.918  30.095  30.027  1.00  0.00     0.200 A 
ATOM     93  F   UNL A   1      38.778  29.144  32.011  1.00  0.00    -0.200 F 
ATOM     94  F   UNL A   1      37.016  30.788  30.735  1.00  0.00    -0.200 F 
ENDBRANCH  61  84
ENDBRANCH  35  36
ENDBRANCH  27  30
ENDBRANCH  25  26
ENDBRANCH   1  25
TORSDOF 12
ENDMDL
