MODEL 1
REMARK VINA RESULT:     -12.0      0.000      0.000
REMARK SMILES CC/C(C)=N/[NH+]=C1/NC(=O)[C@H](CC(=O)NCCCNC(=O)c2ccc(-c3c4nc(c(-c5c(F)c(F)c(F)c(F)c5F)c5ccc([nH]5)c(-c5c(F)c(F)c(F)c(F)c5F)c5nc(c(-c6c(F)c(F)c(F)c(F)c6F)c6ccc3[nH]6)C=C5)C=C4)cc2)S1
REMARK SMILES IDX 16 1 15 2 13 3 14 4 12 6 11 7 6 8 7 9 8 11 85 12 9 13 10 15
REMARK SMILES IDX 5 16 3 17 4 18 2 19 1 20 17 21 18 22 19 23 20 24 21 26 22 27
REMARK SMILES IDX 23 28 84 29 24 30 83 31 25 32 26 33 27 34 77 35 28 36 82 37
REMARK SMILES IDX 76 38 78 39 29 40 81 41 75 42 74 43 30 45 62 46 42 47 61 48
REMARK SMILES IDX 43 49 46 50 60 51 79 52 44 53 45 54 59 56 80 57 47 58 31 59
REMARK SMILES IDX 32 60 40 61 33 62 34 63 38 64 41 65 35 66 36 67 39 68 37 69
REMARK SMILES IDX 63 70 64 71 72 72 65 73 66 74 70 75 73 76 67 77 68 78 71 79
REMARK SMILES IDX 69 80 48 81 49 82 57 83 50 84 51 85 55 86 58 87 52 88 53 89
REMARK SMILES IDX 56 90 54 91
REMARK H PARENT 15 5 6 10 8 14 19 25 78 44 46 55
REMARK Flexibility Score: inf
ROOT
ATOM      1  C   UNL A   1      32.776  27.223  23.699  1.00  0.00     0.117 C 
ENDROOT
BRANCH   1   2
ATOM      2  N   UNL A   1      31.550  27.109  24.479  1.00  0.00    -0.356 N 
ATOM      3  C   UNL A   1      30.734  26.041  24.699  1.00  0.00     0.221 C 
ATOM      4  O   UNL A   1      29.700  26.199  25.346  1.00  0.00    -0.275 OA
ATOM      5  H   UNL A   1      31.266  27.941  24.920  1.00  0.00     0.163 HD
BRANCH   3   6
ATOM      6  C   UNL A   1      31.105  24.691  24.144  1.00  0.00     0.127 C 
BRANCH   6   7
ATOM      7  C   UNL A   1      32.052  23.947  25.065  1.00  0.00     0.183 C 
ATOM      8  N   UNL A   1      32.415  20.181  25.682  1.00  0.00    -0.142 N 
ATOM      9  C   UNL A   1      32.080  21.396  25.413  1.00  0.00     0.337 C 
ATOM     10  H   UNL A   1      31.923  19.625  26.328  1.00  0.00     0.343 HD
ATOM     11  N   UNL A   1      31.250  22.036  26.257  1.00  0.00    -0.202 N 
ATOM     12  S   UNL A   1      32.712  22.479  24.206  1.00  0.00    -0.020 SA
ATOM     13  C   UNL A   1      31.398  23.386  26.311  1.00  0.00     0.322 C 
ATOM     14  H   UNL A   1      30.580  21.559  26.798  1.00  0.00     0.316 HD
ATOM     15  O   UNL A   1      31.113  24.042  27.305  1.00  0.00    -0.246 OA
BRANCH   8  16
ATOM     16  N   UNL A   1      33.527  19.714  24.985  1.00  0.00    -0.095 NA
ATOM     17  C   UNL A   1      33.554  18.414  24.866  1.00  0.00     0.058 C 
ATOM     18  C   UNL A   1      32.510  17.480  25.451  1.00  0.00     0.066 C 
BRANCH  17  19
ATOM     19  C   UNL A   1      34.701  17.788  24.112  1.00  0.00     0.052 C 
ATOM     20  C   UNL A   1      34.159  16.735  23.167  1.00  0.00     0.010 C 
ENDBRANCH  17  19
ENDBRANCH   8  16
ENDBRANCH   6   7
ENDBRANCH   3   6
ENDBRANCH   1   2
BRANCH   1  21
ATOM     21  C   UNL A   1      33.523  28.524  23.978  1.00  0.00     0.042 C 
BRANCH  21  22
ATOM     22  C   UNL A   1      33.732  28.802  25.457  1.00  0.00     0.118 C 
BRANCH  22  23
ATOM     23  N   UNL A   1      33.114  30.055  25.857  1.00  0.00    -0.352 N 
ATOM     24  C   UNL A   1      33.450  30.881  26.903  1.00  0.00     0.251 C 
ATOM     25  H   UNL A   1      32.354  30.352  25.305  1.00  0.00     0.163 HD
ATOM     26  O   UNL A   1      32.686  31.765  27.266  1.00  0.00    -0.269 OA
BRANCH  24  27
ATOM     27  C   UNL A   1      34.739  30.678  27.602  1.00  0.00     0.039 A 
ATOM     28  C   UNL A   1      35.652  31.734  27.681  1.00  0.00     0.014 A 
ATOM     29  C   UNL A   1      35.043  29.444  28.181  1.00  0.00     0.014 A 
ATOM     30  C   UNL A   1      36.843  31.568  28.392  1.00  0.00     0.010 A 
ATOM     31  C   UNL A   1      36.182  29.310  28.965  1.00  0.00     0.010 A 
ATOM     32  C   UNL A   1      37.103  30.364  29.067  1.00  0.00    -0.014 A 
BRANCH  32  33
ATOM     33  C   UNL A   1      38.351  30.142  29.844  1.00  0.00     0.031 A 
ATOM     34  C   UNL A   1      39.391  29.199  29.304  1.00  0.00     0.074 A 
ATOM     35  C   UNL A   1      38.511  30.703  31.058  1.00  0.00     0.049 A 
ATOM     36  N   UNL A   1      40.453  28.707  29.890  1.00  0.00    -0.248 NA
ATOM     37  C   UNL A   1      39.188  28.717  27.928  1.00  0.00     0.031 C 
ATOM     38  C   UNL A   1      37.568  31.618  31.701  1.00  0.00     0.029 A 
ATOM     39  N   UNL A   1      39.517  30.558  31.983  1.00  0.00    -0.354 N 
ATOM     40  C   UNL A   1      41.027  27.845  28.964  1.00  0.00     0.074 A 
ATOM     41  C   UNL A   1      40.167  27.833  27.803  1.00  0.00     0.031 C 
ATOM     42  C   UNL A   1      38.038  31.952  32.915  1.00  0.00     0.029 A 
ATOM     43  C   UNL A   1      39.287  31.235  33.157  1.00  0.00     0.049 A 
ATOM     44  H   UNL A   1      40.325  30.022  31.820  1.00  0.00     0.167 HD
ATOM     45  C   UNL A   1      42.183  27.147  29.064  1.00  0.00     0.037 A 
ATOM     46  C   UNL A   1      39.986  31.247  34.309  1.00  0.00     0.037 A 
ATOM     47  C   UNL A   1      43.047  27.180  30.212  1.00  0.00     0.049 A 
ATOM     48  C   UNL A   1      41.252  30.434  34.409  1.00  0.00     0.074 A 
ATOM     49  C   UNL A   1      44.252  26.529  30.403  1.00  0.00     0.029 A 
ATOM     50  N   UNL A   1      42.796  27.908  31.366  1.00  0.00    -0.354 N 
ATOM     51  N   UNL A   1      41.805  29.650  33.515  1.00  0.00    -0.248 NA
ATOM     52  C   UNL A   1      41.996  30.510  35.675  1.00  0.00     0.031 C 
ATOM     53  C   UNL A   1      44.709  26.826  31.691  1.00  0.00     0.029 A 
ATOM     54  C   UNL A   1      43.820  27.714  32.276  1.00  0.00     0.049 A 
ATOM     55  H   UNL A   1      42.007  28.478  31.515  1.00  0.00     0.167 HD
ATOM     56  C   UNL A   1      42.977  29.177  34.092  1.00  0.00     0.074 A 
ATOM     57  C   UNL A   1      43.058  29.762  35.413  1.00  0.00     0.031 C 
ATOM     58  C   UNL A   1      43.903  28.336  33.573  1.00  0.00     0.037 A 
BRANCH  45  59
ATOM     59  C   UNL A   1      42.585  26.295  27.894  1.00  0.00     0.064 A 
ATOM     60  C   UNL A   1      42.070  25.002  27.716  1.00  0.00     0.173 A 
ATOM     61  C   UNL A   1      43.462  26.791  26.918  1.00  0.00     0.173 A 
ATOM     62  F   UNL A   1      41.236  24.476  28.627  1.00  0.00    -0.203 F 
ATOM     63  C   UNL A   1      42.441  24.226  26.622  1.00  0.00     0.198 A 
ATOM     64  C   UNL A   1      43.804  26.025  25.806  1.00  0.00     0.198 A 
ATOM     65  F   UNL A   1      43.979  28.023  27.034  1.00  0.00    -0.203 F 
ATOM     66  F   UNL A   1      41.977  22.975  26.502  1.00  0.00    -0.200 F 
ATOM     67  C   UNL A   1      43.300  24.741  25.663  1.00  0.00     0.200 A 
ATOM     68  F   UNL A   1      44.620  26.531  24.871  1.00  0.00    -0.200 F 
ATOM     69  F   UNL A   1      43.647  23.998  24.604  1.00  0.00    -0.200 F 
ENDBRANCH  45  59
BRANCH  46  70
ATOM     70  C   UNL A   1      39.507  32.049  35.468  1.00  0.00     0.064 A 
ATOM     71  C   UNL A   1      38.603  31.511  36.396  1.00  0.00     0.173 A 
ATOM     72  C   UNL A   1      39.919  33.377  35.656  1.00  0.00     0.173 A 
ATOM     73  F   UNL A   1      38.164  30.253  36.249  1.00  0.00    -0.203 F 
ATOM     74  C   UNL A   1      38.103  32.280  37.445  1.00  0.00     0.198 A 
ATOM     75  C   UNL A   1      39.445  34.134  36.726  1.00  0.00     0.198 A 
ATOM     76  F   UNL A   1      40.787  33.939  34.804  1.00  0.00    -0.203 F 
ATOM     77  F   UNL A   1      37.191  31.761  38.278  1.00  0.00    -0.200 F 
ATOM     78  C   UNL A   1      38.528  33.590  37.612  1.00  0.00     0.200 A 
ATOM     79  F   UNL A   1      39.871  35.393  36.893  1.00  0.00    -0.200 F 
ATOM     80  F   UNL A   1      38.045  34.330  38.619  1.00  0.00    -0.200 F 
ENDBRANCH  46  70
BRANCH  58  81
ATOM     81  C   UNL A   1      45.129  28.050  34.391  1.00  0.00     0.064 A 
ATOM     82  C   UNL A   1      46.266  28.869  34.338  1.00  0.00     0.173 A 
ATOM     83  C   UNL A   1      45.126  26.987  35.309  1.00  0.00     0.173 A 
ATOM     84  F   UNL A   1      46.323  29.889  33.469  1.00  0.00    -0.203 F 
ATOM     85  C   UNL A   1      47.360  28.625  35.164  1.00  0.00     0.198 A 
ATOM     86  C   UNL A   1      46.209  26.767  36.154  1.00  0.00     0.198 A 
ATOM     87  F   UNL A   1      44.060  26.178  35.403  1.00  0.00    -0.203 F 
ATOM     88  F   UNL A   1      48.450  29.400  35.074  1.00  0.00    -0.200 F 
ATOM     89  C   UNL A   1      47.326  27.583  36.080  1.00  0.00     0.200 A 
ATOM     90  F   UNL A   1      46.165  25.770  37.050  1.00  0.00    -0.200 F 
ATOM     91  F   UNL A   1      48.371  27.365  36.889  1.00  0.00    -0.200 F 
ENDBRANCH  58  81
ENDBRANCH  32  33
ENDBRANCH  24  27
ENDBRANCH  22  23
ENDBRANCH  21  22
ENDBRANCH   1  21
TORSDOF 13
ENDMDL
MODEL 2
REMARK VINA RESULT:     -12.0      4.836      9.872
REMARK SMILES CC/C(C)=N/[NH+]=C1/NC(=O)[C@H](CC(=O)NCCCNC(=O)c2ccc(-c3c4nc(c(-c5c(F)c(F)c(F)c(F)c5F)c5ccc([nH]5)c(-c5c(F)c(F)c(F)c(F)c5F)c5nc(c(-c6c(F)c(F)c(F)c(F)c6F)c6ccc3[nH]6)C=C5)C=C4)cc2)S1
REMARK SMILES IDX 16 1 15 2 13 3 14 4 12 6 11 7 6 8 7 9 8 11 85 12 9 13 10 15
REMARK SMILES IDX 5 16 3 17 4 18 2 19 1 20 17 21 18 22 19 23 20 24 21 26 22 27
REMARK SMILES IDX 23 28 84 29 24 30 83 31 25 32 26 33 27 34 77 35 28 36 82 37
REMARK SMILES IDX 76 38 78 39 29 40 81 41 75 42 74 43 30 45 62 46 42 47 61 48
REMARK SMILES IDX 43 49 46 50 60 51 79 52 44 53 45 54 59 56 80 57 47 58 31 59
REMARK SMILES IDX 32 60 40 61 33 62 34 63 38 64 41 65 35 66 36 67 39 68 37 69
REMARK SMILES IDX 63 70 64 71 72 72 65 73 66 74 70 75 73 76 67 77 68 78 71 79
REMARK SMILES IDX 69 80 48 81 49 82 57 83 50 84 51 85 55 86 58 87 52 88 53 89
REMARK SMILES IDX 56 90 54 91
REMARK H PARENT 15 5 6 10 8 14 19 25 78 44 46 55
REMARK Flexibility Score: inf
ROOT
ATOM      1  C   UNL A   1      37.304  21.339  24.589  1.00  0.00     0.117 C 
ENDROOT
BRANCH   1   2
ATOM      2  N   UNL A   1      36.705  21.987  25.749  1.00  0.00    -0.356 N 
ATOM      3  C   UNL A   1      35.535  22.674  25.877  1.00  0.00     0.221 C 
ATOM      4  O   UNL A   1      35.264  23.200  26.955  1.00  0.00    -0.275 OA
ATOM      5  H   UNL A   1      37.231  21.915  26.577  1.00  0.00     0.163 HD
BRANCH   3   6
ATOM      6  C   UNL A   1      34.601  22.784  24.701  1.00  0.00     0.127 C 
BRANCH   6   7
ATOM      7  C   UNL A   1      33.302  22.042  24.946  1.00  0.00     0.183 C 
ATOM      8  N   UNL A   1      32.164  18.611  23.667  1.00  0.00    -0.142 N 
ATOM      9  C   UNL A   1      32.680  19.766  23.914  1.00  0.00     0.337 C 
ATOM     10  H   UNL A   1      31.705  18.405  22.821  1.00  0.00     0.343 HD
ATOM     11  N   UNL A   1      32.313  20.812  23.150  1.00  0.00    -0.202 N 
ATOM     12  S   UNL A   1      33.657  20.279  25.260  1.00  0.00    -0.020 SA
ATOM     13  C   UNL A   1      32.360  22.025  23.760  1.00  0.00     0.322 C 
ATOM     14  H   UNL A   1      32.029  20.705  22.214  1.00  0.00     0.316 HD
ATOM     15  O   UNL A   1      31.642  22.960  23.427  1.00  0.00    -0.246 OA
BRANCH   8  16
ATOM     16  N   UNL A   1      32.306  17.677  24.690  1.00  0.00    -0.095 NA
ATOM     17  C   UNL A   1      33.209  16.768  24.439  1.00  0.00     0.058 C 
ATOM     18  C   UNL A   1      34.011  16.693  23.152  1.00  0.00     0.066 C 
BRANCH  17  19
ATOM     19  C   UNL A   1      33.470  15.711  25.483  1.00  0.00     0.052 C 
ATOM     20  C   UNL A   1      32.174  14.993  25.798  1.00  0.00     0.010 C 
ENDBRANCH  17  19
ENDBRANCH   8  16
ENDBRANCH   6   7
ENDBRANCH   3   6
ENDBRANCH   1   2
BRANCH   1  21
ATOM     21  C   UNL A   1      38.050  20.061  24.959  1.00  0.00     0.042 C 
BRANCH  21  22
ATOM     22  C   UNL A   1      39.067  20.248  26.072  1.00  0.00     0.118 C 
BRANCH  22  23
ATOM     23  N   UNL A   1      40.082  19.208  26.047  1.00  0.00    -0.352 N 
ATOM     24  C   UNL A   1      41.450  19.346  26.059  1.00  0.00     0.251 C 
ATOM     25  H   UNL A   1      39.746  18.282  26.017  1.00  0.00     0.163 HD
ATOM     26  O   UNL A   1      42.171  18.398  25.779  1.00  0.00    -0.269 OA
BRANCH  24  27
ATOM     27  C   UNL A   1      42.044  20.659  26.394  1.00  0.00     0.039 A 
ATOM     28  C   UNL A   1      42.340  21.561  25.368  1.00  0.00     0.014 A 
ATOM     29  C   UNL A   1      42.306  20.998  27.723  1.00  0.00     0.014 A 
ATOM     30  C   UNL A   1      42.843  22.827  25.683  1.00  0.00     0.010 A 
ATOM     31  C   UNL A   1      42.717  22.286  28.040  1.00  0.00     0.010 A 
ATOM     32  C   UNL A   1      43.006  23.211  27.024  1.00  0.00    -0.014 A 
BRANCH  32  33
ATOM     33  C   UNL A   1      43.530  24.547  27.410  1.00  0.00     0.031 A 
ATOM     34  C   UNL A   1      42.574  25.585  27.933  1.00  0.00     0.074 A 
ATOM     35  C   UNL A   1      44.825  24.860  27.208  1.00  0.00     0.049 A 
ATOM     36  N   UNL A   1      42.767  26.862  28.145  1.00  0.00    -0.248 NA
ATOM     37  C   UNL A   1      41.205  25.128  28.223  1.00  0.00     0.031 C 
ATOM     38  C   UNL A   1      45.846  23.951  26.689  1.00  0.00     0.029 A 
ATOM     39  N   UNL A   1      45.496  26.045  27.390  1.00  0.00    -0.354 N 
ATOM     40  C   UNL A   1      41.542  27.360  28.570  1.00  0.00     0.074 A 
ATOM     41  C   UNL A   1      40.599  26.266  28.529  1.00  0.00     0.031 C 
ATOM     42  C   UNL A   1      47.013  24.610  26.592  1.00  0.00     0.029 A 
ATOM     43  C   UNL A   1      46.810  26.001  26.991  1.00  0.00     0.049 A 
ATOM     44  H   UNL A   1      45.075  26.850  27.770  1.00  0.00     0.167 HD
ATOM     45  C   UNL A   1      41.238  28.613  28.984  1.00  0.00     0.037 A 
ATOM     46  C   UNL A   1      47.736  26.977  26.924  1.00  0.00     0.037 A 
ATOM     47  C   UNL A   1      42.184  29.693  29.045  1.00  0.00     0.049 A 
ATOM     48  C   UNL A   1      47.364  28.373  27.357  1.00  0.00     0.074 A 
ATOM     49  C   UNL A   1      41.983  30.992  29.472  1.00  0.00     0.029 A 
ATOM     50  N   UNL A   1      43.515  29.595  28.668  1.00  0.00    -0.354 N 
ATOM     51  N   UNL A   1      46.212  28.826  27.791  1.00  0.00    -0.248 NA
ATOM     52  C   UNL A   1      48.420  29.395  27.297  1.00  0.00     0.031 C 
ATOM     53  C   UNL A   1      43.181  31.696  29.311  1.00  0.00     0.029 A 
ATOM     54  C   UNL A   1      44.145  30.815  28.844  1.00  0.00     0.049 A 
ATOM     55  H   UNL A   1      43.949  28.780  28.326  1.00  0.00     0.167 HD
ATOM     56  C   UNL A   1      46.417  30.166  28.094  1.00  0.00     0.074 A 
ATOM     57  C   UNL A   1      47.804  30.455  27.797  1.00  0.00     0.031 C 
ATOM     58  C   UNL A   1      45.536  31.074  28.579  1.00  0.00     0.037 A 
BRANCH  45  59
ATOM     59  C   UNL A   1      39.823  28.880  29.413  1.00  0.00     0.064 A 
ATOM     60  C   UNL A   1      38.849  29.314  28.501  1.00  0.00     0.173 A 
ATOM     61  C   UNL A   1      39.426  28.661  30.741  1.00  0.00     0.173 A 
ATOM     62  F   UNL A   1      39.179  29.551  27.222  1.00  0.00    -0.203 F 
ATOM     63  C   UNL A   1      37.539  29.548  28.908  1.00  0.00     0.198 A 
ATOM     64  C   UNL A   1      38.106  28.862  31.137  1.00  0.00     0.198 A 
ATOM     65  F   UNL A   1      40.315  28.239  31.653  1.00  0.00    -0.203 F 
ATOM     66  F   UNL A   1      36.639  30.013  28.030  1.00  0.00    -0.200 F 
ATOM     67  C   UNL A   1      37.166  29.312  30.223  1.00  0.00     0.200 A 
ATOM     68  F   UNL A   1      37.744  28.617  32.404  1.00  0.00    -0.200 F 
ATOM     69  F   UNL A   1      35.902  29.526  30.610  1.00  0.00    -0.200 F 
ENDBRANCH  45  59
BRANCH  46  70
ATOM     70  C   UNL A   1      49.104  26.680  26.420  1.00  0.00     0.064 A 
ATOM     71  C   UNL A   1      50.093  26.165  27.271  1.00  0.00     0.173 A 
ATOM     72  C   UNL A   1      49.461  26.932  25.087  1.00  0.00     0.173 A 
ATOM     73  F   UNL A   1      49.809  25.925  28.559  1.00  0.00    -0.203 F 
ATOM     74  C   UNL A   1      51.393  25.946  26.818  1.00  0.00     0.198 A 
ATOM     75  C   UNL A   1      50.752  26.681  24.626  1.00  0.00     0.198 A 
ATOM     76  F   UNL A   1      48.553  27.418  24.228  1.00  0.00    -0.203 F 
ATOM     77  F   UNL A   1      52.333  25.514  27.669  1.00  0.00    -0.200 F 
ATOM     78  C   UNL A   1      51.720  26.200  25.494  1.00  0.00     0.200 A 
ATOM     79  F   UNL A   1      51.059  26.912  23.342  1.00  0.00    -0.200 F 
ATOM     80  F   UNL A   1      52.971  25.993  25.059  1.00  0.00    -0.200 F 
ENDBRANCH  46  70
BRANCH  58  81
ATOM     81  C   UNL A   1      46.049  32.449  28.897  1.00  0.00     0.064 A 
ATOM     82  C   UNL A   1      46.601  32.766  30.145  1.00  0.00     0.173 A 
ATOM     83  C   UNL A   1      46.065  33.438  27.900  1.00  0.00     0.173 A 
ATOM     84  F   UNL A   1      46.597  31.861  31.135  1.00  0.00    -0.203 F 
ATOM     85  C   UNL A   1      47.139  34.028  30.388  1.00  0.00     0.198 A 
ATOM     86  C   UNL A   1      46.633  34.686  28.137  1.00  0.00     0.198 A 
ATOM     87  F   UNL A   1      45.555  33.182  26.685  1.00  0.00    -0.203 F 
ATOM     88  F   UNL A   1      47.633  34.321  31.600  1.00  0.00    -0.200 F 
ATOM     89  C   UNL A   1      47.166  34.982  29.381  1.00  0.00     0.200 A 
ATOM     90  F   UNL A   1      46.674  35.599  27.156  1.00  0.00    -0.200 F 
ATOM     91  F   UNL A   1      47.705  36.186  29.611  1.00  0.00    -0.200 F 
ENDBRANCH  58  81
ENDBRANCH  32  33
ENDBRANCH  24  27
ENDBRANCH  22  23
ENDBRANCH  21  22
ENDBRANCH   1  21
TORSDOF 13
ENDMDL
MODEL 3
REMARK VINA RESULT:     -12.0      4.991      9.117
REMARK SMILES CC/C(C)=N/[NH+]=C1/NC(=O)[C@H](CC(=O)NCCCNC(=O)c2ccc(-c3c4nc(c(-c5c(F)c(F)c(F)c(F)c5F)c5ccc([nH]5)c(-c5c(F)c(F)c(F)c(F)c5F)c5nc(c(-c6c(F)c(F)c(F)c(F)c6F)c6ccc3[nH]6)C=C5)C=C4)cc2)S1
REMARK SMILES IDX 16 1 15 2 13 3 14 4 12 6 11 7 6 8 7 9 8 11 85 12 9 13 10 15
REMARK SMILES IDX 5 16 3 17 4 18 2 19 1 20 17 21 18 22 19 23 20 24 21 26 22 27
REMARK SMILES IDX 23 28 84 29 24 30 83 31 25 32 26 33 27 34 77 35 28 36 82 37
REMARK SMILES IDX 76 38 78 39 29 40 81 41 75 42 74 43 30 45 62 46 42 47 61 48
REMARK SMILES IDX 43 49 46 50 60 51 79 52 44 53 45 54 59 56 80 57 47 58 31 59
REMARK SMILES IDX 32 60 40 61 33 62 34 63 38 64 41 65 35 66 36 67 39 68 37 69
REMARK SMILES IDX 63 70 64 71 72 72 65 73 66 74 70 75 73 76 67 77 68 78 71 79
REMARK SMILES IDX 69 80 48 81 49 82 57 83 50 84 51 85 55 86 58 87 52 88 53 89
REMARK SMILES IDX 56 90 54 91
REMARK H PARENT 15 5 6 10 8 14 19 25 78 44 46 55
REMARK Flexibility Score: inf
ROOT
ATOM      1  C   UNL A   1      42.102  19.704  27.489  1.00  0.00     0.117 C 
ENDROOT
BRANCH   1   2
ATOM      2  N   UNL A   1      42.932  18.786  26.719  1.00  0.00    -0.356 N 
ATOM      3  C   UNL A   1      43.724  19.004  25.632  1.00  0.00     0.221 C 
ATOM      4  O   UNL A   1      44.287  18.049  25.100  1.00  0.00    -0.275 OA
ATOM      5  H   UNL A   1      42.919  17.855  27.038  1.00  0.00     0.163 HD
BRANCH   3   6
ATOM      6  C   UNL A   1      43.892  20.401  25.098  1.00  0.00     0.127 C 
BRANCH   6   7
ATOM      7  C   UNL A   1      45.164  21.049  25.610  1.00  0.00     0.183 C 
ATOM      8  N   UNL A   1      46.835  24.335  24.558  1.00  0.00    -0.142 N 
ATOM      9  C   UNL A   1      46.183  23.232  24.704  1.00  0.00     0.337 C 
ATOM     10  H   UNL A   1      47.482  24.476  23.830  1.00  0.00     0.343 HD
ATOM     11  N   UNL A   1      46.619  22.136  24.056  1.00  0.00    -0.202 N 
ATOM     12  S   UNL A   1      44.897  22.843  25.811  1.00  0.00    -0.020 SA
ATOM     13  C   UNL A   1      46.340  20.951  24.660  1.00  0.00     0.322 C 
ATOM     14  H   UNL A   1      47.108  22.189  23.204  1.00  0.00     0.316 HD
ATOM     15  O   UNL A   1      47.032  19.953  24.508  1.00  0.00    -0.246 OA
BRANCH   8  16
ATOM     16  N   UNL A   1      46.551  25.311  25.510  1.00  0.00    -0.095 NA
ATOM     17  C   UNL A   1      47.543  26.135  25.715  1.00  0.00     0.058 C 
ATOM     18  C   UNL A   1      48.892  26.039  25.027  1.00  0.00     0.066 C 
BRANCH  17  19
ATOM     19  C   UNL A   1      47.350  27.252  26.711  1.00  0.00     0.052 C 
ATOM     20  C   UNL A   1      45.938  27.788  26.589  1.00  0.00     0.010 C 
ENDBRANCH  17  19
ENDBRANCH   8  16
ENDBRANCH   6   7
ENDBRANCH   3   6
ENDBRANCH   1   2
BRANCH   1  21
ATOM     21  C   UNL A   1      40.843  20.120  26.735  1.00  0.00     0.042 C 
BRANCH  21  22
ATOM     22  C   UNL A   1      40.668  21.625  26.623  1.00  0.00     0.118 C 
BRANCH  22  23
ATOM     23  N   UNL A   1      39.460  21.967  25.890  1.00  0.00    -0.352 N 
ATOM     24  C   UNL A   1      38.698  23.109  25.981  1.00  0.00     0.251 C 
ATOM     25  H   UNL A   1      39.146  21.294  25.244  1.00  0.00     0.163 HD
ATOM     26  O   UNL A   1      37.578  23.147  25.490  1.00  0.00    -0.269 OA
BRANCH  24  27
ATOM     27  C   UNL A   1      39.238  24.287  26.695  1.00  0.00     0.039 A 
ATOM     28  C   UNL A   1      40.033  25.205  26.004  1.00  0.00     0.014 A 
ATOM     29  C   UNL A   1      38.955  24.483  28.049  1.00  0.00     0.014 A 
ATOM     30  C   UNL A   1      40.494  26.351  26.657  1.00  0.00     0.010 A 
ATOM     31  C   UNL A   1      39.335  25.667  28.670  1.00  0.00     0.010 A 
ATOM     32  C   UNL A   1      40.122  26.608  27.987  1.00  0.00    -0.014 A 
BRANCH  32  33
ATOM     33  C   UNL A   1      40.579  27.815  28.722  1.00  0.00     0.031 A 
ATOM     34  C   UNL A   1      41.971  27.843  29.292  1.00  0.00     0.074 A 
ATOM     35  C   UNL A   1      39.732  28.836  28.956  1.00  0.00     0.049 A 
ATOM     36  N   UNL A   1      42.513  28.695  30.125  1.00  0.00    -0.248 NA
ATOM     37  C   UNL A   1      42.862  26.739  28.899  1.00  0.00     0.031 C 
ATOM     38  C   UNL A   1      38.353  28.922  28.475  1.00  0.00     0.029 A 
ATOM     39  N   UNL A   1      39.901  29.987  29.688  1.00  0.00    -0.354 N 
ATOM     40  C   UNL A   1      43.794  28.218  30.369  1.00  0.00     0.074 A 
ATOM     41  C   UNL A   1      43.930  26.973  29.648  1.00  0.00     0.031 C 
ATOM     42  C   UNL A   1      37.801  30.061  28.925  1.00  0.00     0.029 A 
ATOM     43  C   UNL A   1      38.767  30.760  29.768  1.00  0.00     0.049 A 
ATOM     44  H   UNL A   1      40.753  30.235  30.114  1.00  0.00     0.167 HD
ATOM     45  C   UNL A   1      44.779  28.782  31.107  1.00  0.00     0.037 A 
ATOM     46  C   UNL A   1      38.526  31.886  30.468  1.00  0.00     0.037 A 
ATOM     47  C   UNL A   1      44.647  30.031  31.805  1.00  0.00     0.049 A 
ATOM     48  C   UNL A   1      39.627  32.477  31.312  1.00  0.00     0.074 A 
ATOM     49  C   UNL A   1      45.592  30.701  32.561  1.00  0.00     0.029 A 
ATOM     50  N   UNL A   1      43.493  30.802  31.829  1.00  0.00    -0.354 N 
ATOM     51  N   UNL A   1      40.847  32.037  31.508  1.00  0.00    -0.248 NA
ATOM     52  C   UNL A   1      39.322  33.724  32.029  1.00  0.00     0.031 C 
ATOM     53  C   UNL A   1      44.997  31.855  33.081  1.00  0.00     0.029 A 
ATOM     54  C   UNL A   1      43.701  31.936  32.595  1.00  0.00     0.049 A 
ATOM     55  H   UNL A   1      42.652  30.576  31.370  1.00  0.00     0.167 HD
ATOM     56  C   UNL A   1      41.463  32.971  32.330  1.00  0.00     0.074 A 
ATOM     57  C   UNL A   1      40.486  34.004  32.597  1.00  0.00     0.031 C 
ATOM     58  C   UNL A   1      42.728  32.973  32.818  1.00  0.00     0.037 A 
BRANCH  45  59
ATOM     59  C   UNL A   1      46.091  28.055  31.190  1.00  0.00     0.064 A 
ATOM     60  C   UNL A   1      46.308  27.037  32.132  1.00  0.00     0.173 A 
ATOM     61  C   UNL A   1      47.128  28.349  30.293  1.00  0.00     0.173 A 
ATOM     62  F   UNL A   1      45.353  26.725  33.021  1.00  0.00    -0.203 F 
ATOM     63  C   UNL A   1      47.524  26.363  32.192  1.00  0.00     0.198 A 
ATOM     64  C   UNL A   1      48.331  27.648  30.333  1.00  0.00     0.198 A 
ATOM     65  F   UNL A   1      46.972  29.308  29.368  1.00  0.00    -0.203 F 
ATOM     66  F   UNL A   1      47.726  25.431  33.134  1.00  0.00    -0.200 F 
ATOM     67  C   UNL A   1      48.531  26.662  31.286  1.00  0.00     0.200 A 
ATOM     68  F   UNL A   1      49.297  27.927  29.445  1.00  0.00    -0.200 F 
ATOM     69  F   UNL A   1      49.696  26.004  31.338  1.00  0.00    -0.200 F 
ENDBRANCH  45  59
BRANCH  46  70
ATOM     70  C   UNL A   1      37.185  32.529  30.414  1.00  0.00     0.064 A 
ATOM     71  C   UNL A   1      36.854  33.428  29.389  1.00  0.00     0.173 A 
ATOM     72  C   UNL A   1      36.217  32.283  31.399  1.00  0.00     0.173 A 
ATOM     73  F   UNL A   1      37.750  33.713  28.435  1.00  0.00    -0.203 F 
ATOM     74  C   UNL A   1      35.623  34.081  29.372  1.00  0.00     0.198 A 
ATOM     75  C   UNL A   1      34.973  32.910  31.362  1.00  0.00     0.198 A 
ATOM     76  F   UNL A   1      36.478  31.427  32.398  1.00  0.00    -0.203 F 
ATOM     77  F   UNL A   1      35.359  34.984  28.417  1.00  0.00    -0.200 F 
ATOM     78  C   UNL A   1      34.681  33.819  30.356  1.00  0.00     0.200 A 
ATOM     79  F   UNL A   1      34.061  32.640  32.305  1.00  0.00    -0.200 F 
ATOM     80  F   UNL A   1      33.499  34.448  30.341  1.00  0.00    -0.200 F 
ENDBRANCH  46  70
BRANCH  58  81
ATOM     81  C   UNL A   1      43.165  34.160  33.627  1.00  0.00     0.064 A 
ATOM     82  C   UNL A   1      43.685  35.316  33.029  1.00  0.00     0.173 A 
ATOM     83  C   UNL A   1      42.976  34.167  35.018  1.00  0.00     0.173 A 
ATOM     84  F   UNL A   1      43.897  35.354  31.705  1.00  0.00    -0.203 F 
ATOM     85  C   UNL A   1      44.013  36.431  33.796  1.00  0.00     0.198 A 
ATOM     86  C   UNL A   1      43.274  35.295  35.777  1.00  0.00     0.198 A 
ATOM     87  F   UNL A   1      42.475  33.088  35.638  1.00  0.00    -0.203 F 
ATOM     88  F   UNL A   1      44.539  37.515  33.208  1.00  0.00    -0.200 F 
ATOM     89  C   UNL A   1      43.795  36.425  35.166  1.00  0.00     0.200 A 
ATOM     90  F   UNL A   1      43.045  35.292  37.098  1.00  0.00    -0.200 F 
ATOM     91  F   UNL A   1      44.089  37.508  35.898  1.00  0.00    -0.200 F 
ENDBRANCH  58  81
ENDBRANCH  32  33
ENDBRANCH  24  27
ENDBRANCH  22  23
ENDBRANCH  21  22
ENDBRANCH   1  21
TORSDOF 13
ENDMDL
